MODEL 1
REMARK VINA RESULT:    -6.451      0.000      0.000
REMARK INTER + INTRA:          -9.953
REMARK INTER:                  -9.468
REMARK INTRA:                  -0.485
REMARK UNBOUND:                -0.485
REMARK SMILES CC(C)(O)CC[C@H](O)[C@@](C)(O)[C@@H]1CC[C@]2(O)C3=CC(=O)[C@@H]4C[C@@H](O)[C@@H](O)C[C@]4(C)[C@H]3CC[C@]12C
REMARK SMILES IDX 6 1 7 2 9 3 10 4 12 5 34 6 33 7 32 8 15 9 31 10 17 11 14 12
REMARK SMILES IDX 13 13 30 14 18 15 28 16 19 17 21 18 27 19 29 20 20 21 22 22
REMARK SMILES IDX 25 23 23 24 16 25 26 27 24 29 11 31 8 33 5 35 2 36 1 37 3 38
REMARK SMILES IDX 4 39
REMARK H PARENT 16 26 26 28 24 30 11 32 8 34 4 40
REMARK Flexibility Score: inf
ROOT
ATOM      1  C   UNL     1       1.116 -10.109 -41.057  1.00  0.00     0.038 C 
ENDROOT
BRANCH   1   2
ATOM      2  C   UNL     1      -0.246  -9.717 -40.425  1.00  0.00     0.146 C 
BRANCH   2   3
ATOM      3  C   UNL     1      -1.030 -10.918 -39.745  1.00  0.00     0.091 C 
ATOM      4  C   UNL     1      -0.440 -12.244 -40.275  1.00  0.00     0.045 C 
BRANCH   3   5
ATOM      5  C   UNL     1      -2.597 -10.878 -40.025  1.00  0.00     0.032 C 
ATOM      6  C   UNL     1      -3.216  -8.410 -40.529  1.00  0.00     0.015 C 
ATOM      7  C   UNL     1      -3.230  -9.877 -41.058  1.00  0.00     0.006 C 
ATOM      8  C   UNL     1      -2.551  -9.938 -42.456  1.00  0.00     0.011 C 
ATOM      9  C   UNL     1      -4.695 -10.425 -41.156  1.00  0.00     0.092 C 
ATOM     10  C   UNL     1      -3.304  -9.094 -43.484  1.00  0.00     0.009 C 
ATOM     11  C   UNL     1      -5.453 -10.077 -42.444  1.00  0.00    -0.031 C 
ATOM     12  C   UNL     1      -4.545 -11.958 -41.057  1.00  0.00     0.041 C 
ATOM     13  C   UNL     1      -3.200 -12.246 -40.405  1.00  0.00     0.010 C 
ATOM     14  C   UNL     1      -4.766  -9.562 -43.712  1.00  0.00     0.025 C 
ATOM     15  C   UNL     1      -6.729 -10.481 -42.549  1.00  0.00     0.050 C 
ATOM     16  C   UNL     1      -5.661  -8.526 -44.543  1.00  0.00    -0.013 C 
ATOM     17  C   UNL     1      -7.512 -10.129 -43.723  1.00  0.00     0.159 C 
ATOM     18  C   UNL     1      -7.221  -8.793 -44.357  1.00  0.00     0.070 C 
ATOM     19  C   UNL     1      -5.275  -8.623 -46.058  1.00  0.00     0.042 C 
ATOM     20  C   UNL     1      -5.401  -7.069 -44.084  1.00  0.00     0.013 C 
ATOM     21  O   UNL     1      -8.450 -10.867 -44.114  1.00  0.00    -0.295 OA
ATOM     22  C   UNL     1      -8.028  -8.541 -45.647  1.00  0.00     0.047 C 
ATOM     23  C   UNL     1      -6.046  -9.718 -46.806  1.00  0.00     0.143 C 
ATOM     24  C   UNL     1      -7.565  -9.407 -46.841  1.00  0.00     0.143 C 
BRANCH   9  25
ATOM     25  O   UNL     1      -5.439 -10.013 -40.019  1.00  0.00    -0.385 OA
ATOM     26  H   UNL     1      -5.615  -9.036 -40.082  1.00  0.00     0.211 HD
ENDBRANCH   9  25
BRANCH  23  27
ATOM     27  O   UNL     1      -5.520  -9.847 -48.100  1.00  0.00    -0.390 OA
ATOM     28  H   UNL     1      -6.280 -10.018 -48.714  1.00  0.00     0.211 HD
ENDBRANCH  23  27
BRANCH  24  29
ATOM     29  O   UNL     1      -7.898  -8.731 -48.022  1.00  0.00    -0.390 OA
ATOM     30  H   UNL     1      -8.451  -9.347 -48.573  1.00  0.00     0.211 HD
ENDBRANCH  24  29
ENDBRANCH   3   5
BRANCH   3  31
ATOM     31  O   UNL     1      -0.782 -10.881 -38.361  1.00  0.00    -0.387 OA
ATOM     32  H   UNL     1      -0.040 -11.504 -38.156  1.00  0.00     0.211 HD
ENDBRANCH   3  31
ENDBRANCH   2   3
BRANCH   2  33
ATOM     33  O   UNL     1      -0.006  -8.682 -39.504  1.00  0.00    -0.390 OA
ATOM     34  H   UNL     1      -0.881  -8.327 -39.199  1.00  0.00     0.211 HD
ENDBRANCH   2  33
ENDBRANCH   1   2
BRANCH   1  35
ATOM     35  C   UNL     1       1.067 -10.048 -42.600  1.00  0.00     0.037 C 
BRANCH  35  36
ATOM     36  C   UNL     1       1.735 -11.270 -43.293  1.00  0.00     0.059 C 
ATOM     37  C   UNL     1       2.601 -10.795 -44.484  1.00  0.00     0.042 C 
ATOM     38  C   UNL     1       2.636 -12.034 -42.309  1.00  0.00     0.042 C 
BRANCH  36  39
ATOM     39  O   UNL     1       0.749 -12.165 -43.756  1.00  0.00    -0.390 OA
ATOM     40  H   UNL     1       0.073 -12.284 -43.036  1.00  0.00     0.211 HD
ENDBRANCH  36  39
ENDBRANCH  35  36
ENDBRANCH   1  35
TORSDOF 11
ENDMDL
MODEL 2
REMARK VINA RESULT:    -6.221      1.737      7.572
REMARK INTER + INTRA:          -9.616
REMARK INTER:                  -8.783
REMARK INTRA:                  -0.833
REMARK UNBOUND:                -0.485
REMARK SMILES CC(C)(O)CC[C@H](O)[C@@](C)(O)[C@@H]1CC[C@]2(O)C3=CC(=O)[C@@H]4C[C@@H](O)[C@@H](O)C[C@]4(C)[C@H]3CC[C@]12C
REMARK SMILES IDX 6 1 7 2 9 3 10 4 12 5 34 6 33 7 32 8 15 9 31 10 17 11 14 12
REMARK SMILES IDX 13 13 30 14 18 15 28 16 19 17 21 18 27 19 29 20 20 21 22 22
REMARK SMILES IDX 25 23 23 24 16 25 26 27 24 29 11 31 8 33 5 35 2 36 1 37 3 38
REMARK SMILES IDX 4 39
REMARK H PARENT 16 26 26 28 24 30 11 32 8 34 4 40
REMARK Flexibility Score: inf
ROOT
ATOM      1  C   UNL     1      -6.848  -8.772 -47.646  1.00  0.00     0.038 C 
ENDROOT
BRANCH   1   2
ATOM      2  C   UNL     1      -7.534  -9.400 -46.403  1.00  0.00     0.146 C 
BRANCH   2   3
ATOM      3  C   UNL     1      -8.212  -8.354 -45.423  1.00  0.00     0.091 C 
ATOM      4  C   UNL     1      -8.450  -7.041 -46.201  1.00  0.00     0.045 C 
BRANCH   3   5
ATOM      5  C   UNL     1      -7.337  -8.057 -44.125  1.00  0.00     0.032 C 
ATOM      6  C   UNL     1      -7.465 -10.166 -42.622  1.00  0.00     0.015 C 
ATOM      7  C   UNL     1      -6.528  -9.188 -43.394  1.00  0.00     0.006 C 
ATOM      8  C   UNL     1      -5.605  -9.992 -44.354  1.00  0.00     0.011 C 
ATOM      9  C   UNL     1      -5.654  -8.347 -42.401  1.00  0.00     0.092 C 
ATOM     10  C   UNL     1      -4.698 -10.956 -43.587  1.00  0.00     0.009 C 
ATOM     11  C   UNL     1      -4.362  -9.016 -41.916  1.00  0.00    -0.031 C 
ATOM     12  C   UNL     1      -5.295  -7.067 -43.187  1.00  0.00     0.041 C 
ATOM     13  C   UNL     1      -6.312  -6.918 -44.310  1.00  0.00     0.010 C 
ATOM     14  C   UNL     1      -3.743 -10.242 -42.594  1.00  0.00     0.025 C 
ATOM     15  C   UNL     1      -3.609  -8.353 -41.023  1.00  0.00     0.050 C 
ATOM     16  C   UNL     1      -3.008 -11.231 -41.571  1.00  0.00    -0.013 C 
ATOM     17  C   UNL     1      -2.404  -8.966 -40.487  1.00  0.00     0.159 C 
ATOM     18  C   UNL     1      -2.429 -10.461 -40.301  1.00  0.00     0.070 C 
ATOM     19  C   UNL     1      -1.852 -11.973 -42.324  1.00  0.00     0.042 C 
ATOM     20  C   UNL     1      -3.986 -12.306 -41.032  1.00  0.00     0.013 C 
ATOM     21  O   UNL     1      -1.440  -8.258 -40.104  1.00  0.00    -0.295 OA
ATOM     22  C   UNL     1      -1.083 -11.038 -39.817  1.00  0.00     0.047 C 
ATOM     23  C   UNL     1      -0.537 -11.184 -42.333  1.00  0.00     0.143 C 
ATOM     24  C   UNL     1       0.022 -11.012 -40.897  1.00  0.00     0.143 C 
BRANCH   9  25
ATOM     25  O   UNL     1      -6.444  -7.938 -41.294  1.00  0.00    -0.385 OA
ATOM     26  H   UNL     1      -7.066  -8.674 -41.049  1.00  0.00     0.211 HD
ENDBRANCH   9  25
BRANCH  23  27
ATOM     27  O   UNL     1       0.384 -11.838 -43.166  1.00  0.00    -0.390 OA
ATOM     28  H   UNL     1       1.230 -11.933 -42.658  1.00  0.00     0.211 HD
ENDBRANCH  23  27
BRANCH  24  29
ATOM     29  O   UNL     1       0.938 -12.031 -40.605  1.00  0.00    -0.390 OA
ATOM     30  H   UNL     1       1.120 -11.997 -39.627  1.00  0.00     0.211 HD
ENDBRANCH  24  29
ENDBRANCH   3   5
BRANCH   3  31
ATOM     31  O   UNL     1      -9.475  -8.849 -45.053  1.00  0.00    -0.387 OA
ATOM     32  H   UNL     1     -10.013  -8.988 -45.873  1.00  0.00     0.211 HD
ENDBRANCH   3  31
ENDBRANCH   2   3
BRANCH   2  33
ATOM     33  O   UNL     1      -8.468 -10.344 -46.865  1.00  0.00    -0.390 OA
ATOM     34  H   UNL     1      -8.329 -11.190 -46.366  1.00  0.00     0.211 HD
ENDBRANCH   2  33
ENDBRANCH   1   2
BRANCH   1  35
ATOM     35  C   UNL     1      -5.477  -9.423 -47.931  1.00  0.00     0.037 C 
BRANCH  35  36
ATOM     36  C   UNL     1      -4.328  -8.394 -48.136  1.00  0.00     0.059 C 
ATOM     37  C   UNL     1      -3.860  -7.843 -46.768  1.00  0.00     0.042 C 
ATOM     38  C   UNL     1      -3.125  -9.047 -48.837  1.00  0.00     0.042 C 
BRANCH  36  39
ATOM     39  O   UNL     1      -4.769  -7.329 -48.946  1.00  0.00    -0.390 OA
ATOM     40  H   UNL     1      -4.226  -6.524 -48.728  1.00  0.00     0.211 HD
ENDBRANCH  36  39
ENDBRANCH  35  36
ENDBRANCH   1  35
TORSDOF 11
ENDMDL
MODEL 3
REMARK VINA RESULT:    -5.955      5.197      8.294
REMARK INTER + INTRA:          -9.226
REMARK INTER:                  -8.767
REMARK INTRA:                  -0.459
REMARK UNBOUND:                -0.485
REMARK SMILES CC(C)(O)CC[C@H](O)[C@@](C)(O)[C@@H]1CC[C@]2(O)C3=CC(=O)[C@@H]4C[C@@H](O)[C@@H](O)C[C@]4(C)[C@H]3CC[C@]12C
REMARK SMILES IDX 6 1 7 2 9 3 10 4 12 5 34 6 33 7 32 8 15 9 31 10 17 11 14 12
REMARK SMILES IDX 13 13 30 14 18 15 28 16 19 17 21 18 27 19 29 20 20 21 22 22
REMARK SMILES IDX 25 23 23 24 16 25 26 27 24 29 11 31 8 33 5 35 2 36 1 37 3 38
REMARK SMILES IDX 4 39
REMARK H PARENT 16 26 26 28 24 30 11 32 8 34 4 40
REMARK Flexibility Score: inf
ROOT
ATOM      1  C   UNL     1      -0.361 -14.925 -32.416  1.00  0.00     0.038 C 
ENDROOT
BRANCH   1   2
ATOM      2  C   UNL     1      -1.858 -15.247 -32.670  1.00  0.00     0.146 C 
BRANCH   2   3
ATOM      3  C   UNL     1      -2.742 -13.995 -33.083  1.00  0.00     0.091 C 
ATOM      4  C   UNL     1      -3.840 -14.477 -34.058  1.00  0.00     0.045 C 
BRANCH   3   5
ATOM      5  C   UNL     1      -1.894 -12.831 -33.764  1.00  0.00     0.032 C 
ATOM      6  C   UNL     1      -0.696 -13.864 -35.819  1.00  0.00     0.015 C 
ATOM      7  C   UNL     1      -1.679 -12.762 -35.318  1.00  0.00     0.006 C 
ATOM      8  C   UNL     1      -3.010 -12.842 -36.120  1.00  0.00     0.011 C 
ATOM      9  C   UNL     1      -1.050 -11.335 -35.477  1.00  0.00     0.092 C 
ATOM     10  C   UNL     1      -2.785 -12.586 -37.611  1.00  0.00     0.009 C 
ATOM     11  C   UNL     1      -1.209 -10.685 -36.858  1.00  0.00    -0.031 C 
ATOM     12  C   UNL     1      -1.777 -10.470 -34.426  1.00  0.00     0.041 C 
ATOM     13  C   UNL     1      -2.363 -11.412 -33.383  1.00  0.00     0.010 C 
ATOM     14  C   UNL     1      -2.203 -11.180 -37.912  1.00  0.00     0.025 C 
ATOM     15  C   UNL     1      -0.639  -9.484 -37.054  1.00  0.00     0.050 C 
ATOM     16  C   UNL     1      -1.678 -10.999 -39.414  1.00  0.00    -0.013 C 
ATOM     17  C   UNL     1      -0.709  -8.849 -38.361  1.00  0.00     0.159 C 
ATOM     18  C   UNL     1      -0.685  -9.761 -39.561  1.00  0.00     0.070 C 
ATOM     19  C   UNL     1      -2.910 -10.815 -40.364  1.00  0.00     0.042 C 
ATOM     20  C   UNL     1      -0.900 -12.252 -39.890  1.00  0.00     0.013 C 
ATOM     21  O   UNL     1      -0.685  -7.598 -38.468  1.00  0.00    -0.295 OA
ATOM     22  C   UNL     1      -0.856  -9.014 -40.899  1.00  0.00     0.047 C 
ATOM     23  C   UNL     1      -3.376  -9.358 -40.470  1.00  0.00     0.143 C 
ATOM     24  C   UNL     1      -2.285  -8.468 -41.120  1.00  0.00     0.143 C 
BRANCH   9  25
ATOM     25  O   UNL     1       0.319 -11.369 -35.101  1.00  0.00    -0.385 OA
ATOM     26  H   UNL     1       0.739 -12.188 -35.478  1.00  0.00     0.211 HD
ENDBRANCH   9  25
BRANCH  23  27
ATOM     27  O   UNL     1      -4.576  -9.311 -41.196  1.00  0.00    -0.390 OA
ATOM     28  H   UNL     1      -4.934 -10.235 -41.238  1.00  0.00     0.211 HD
ENDBRANCH  23  27
BRANCH  24  29
ATOM     29  O   UNL     1      -2.501  -8.363 -42.501  1.00  0.00    -0.390 OA
ATOM     30  H   UNL     1      -1.671  -8.670 -42.956  1.00  0.00     0.211 HD
ENDBRANCH  24  29
ENDBRANCH   3   5
BRANCH   3  31
ATOM     31  O   UNL     1      -3.393 -13.514 -31.933  1.00  0.00    -0.387 OA
ATOM     32  H   UNL     1      -2.874 -13.791 -31.137  1.00  0.00     0.211 HD
ENDBRANCH   3  31
ENDBRANCH   2   3
BRANCH   2  33
ATOM     33  O   UNL     1      -1.918 -16.256 -33.646  1.00  0.00    -0.390 OA
ATOM     34  H   UNL     1      -2.468 -15.925 -34.403  1.00  0.00     0.211 HD
ENDBRANCH   2  33
ENDBRANCH   1   2
BRANCH   1  35
ATOM     35  C   UNL     1       0.564 -15.996 -33.037  1.00  0.00     0.037 C 
BRANCH  35  36
ATOM     36  C   UNL     1       1.923 -15.429 -33.539  1.00  0.00     0.059 C 
ATOM     37  C   UNL     1       2.148 -15.825 -35.018  1.00  0.00     0.042 C 
ATOM     38  C   UNL     1       1.950 -13.895 -33.436  1.00  0.00     0.042 C 
BRANCH  36  39
ATOM     39  O   UNL     1       2.979 -15.930 -32.752  1.00  0.00    -0.390 OA
ATOM     40  H   UNL     1       3.370 -16.717 -33.219  1.00  0.00     0.211 HD
ENDBRANCH  36  39
ENDBRANCH  35  36
ENDBRANCH   1  35
TORSDOF 11
ENDMDL
MODEL 4
REMARK VINA RESULT:    -5.785     10.609     13.667
REMARK INTER + INTRA:          -8.975
REMARK INTER:                  -7.846
REMARK INTRA:                  -1.129
REMARK UNBOUND:                -0.485
REMARK SMILES CC(C)(O)CC[C@H](O)[C@@](C)(O)[C@@H]1CC[C@]2(O)C3=CC(=O)[C@@H]4C[C@@H](O)[C@@H](O)C[C@]4(C)[C@H]3CC[C@]12C
REMARK SMILES IDX 6 1 7 2 9 3 10 4 12 5 34 6 33 7 32 8 15 9 31 10 17 11 14 12
REMARK SMILES IDX 13 13 30 14 18 15 28 16 19 17 21 18 27 19 29 20 20 21 22 22
REMARK SMILES IDX 25 23 23 24 16 25 26 27 24 29 11 31 8 33 5 35 2 36 1 37 3 38
REMARK SMILES IDX 4 39
REMARK H PARENT 16 26 26 28 24 30 11 32 8 34 4 40
REMARK Flexibility Score: inf
ROOT
ATOM      1  C   UNL     1       2.160 -17.713 -40.556  1.00  0.00     0.038 C 
ENDROOT
BRANCH   1   2
ATOM      2  C   UNL     1       0.708 -18.162 -40.865  1.00  0.00     0.146 C 
BRANCH   2   3
ATOM      3  C   UNL     1      -0.018 -18.916 -39.672  1.00  0.00     0.091 C 
ATOM      4  C   UNL     1       0.678 -18.521 -38.351  1.00  0.00     0.045 C 
BRANCH   3   5
ATOM      5  C   UNL     1      -0.001 -20.501 -39.834  1.00  0.00     0.032 C 
ATOM      6  C   UNL     1      -1.821 -21.106 -41.581  1.00  0.00     0.015 C 
ATOM      7  C   UNL     1      -0.309 -21.197 -41.208  1.00  0.00     0.006 C 
ATOM      8  C   UNL     1       0.553 -20.642 -42.378  1.00  0.00     0.011 C 
ATOM      9  C   UNL     1       0.106 -22.677 -40.902  1.00  0.00     0.092 C 
ATOM     10  C   UNL     1       0.365 -21.461 -43.655  1.00  0.00     0.009 C 
ATOM     11  C   UNL     1       0.474 -23.534 -42.120  1.00  0.00    -0.031 C 
ATOM     12  C   UNL     1       1.338 -22.553 -39.981  1.00  0.00     0.041 C 
ATOM     13  C   UNL     1       1.308 -21.164 -39.360  1.00  0.00     0.010 C 
ATOM     14  C   UNL     1       0.785 -22.947 -43.499  1.00  0.00     0.025 C 
ATOM     15  C   UNL     1       0.784 -24.824 -41.908  1.00  0.00     0.050 C 
ATOM     16  C   UNL     1       0.319 -23.887 -44.709  1.00  0.00    -0.013 C 
ATOM     17  C   UNL     1       1.085 -25.696 -43.033  1.00  0.00     0.159 C 
ATOM     18  C   UNL     1       0.338 -25.431 -44.315  1.00  0.00     0.070 C 
ATOM     19  C   UNL     1       1.257 -23.634 -45.938  1.00  0.00     0.042 C 
ATOM     20  C   UNL     1      -1.130 -23.557 -45.148  1.00  0.00     0.013 C 
ATOM     21  O   UNL     1       1.853 -26.680 -42.894  1.00  0.00    -0.295 OA
ATOM     22  C   UNL     1       0.783 -26.339 -45.479  1.00  0.00     0.047 C 
ATOM     23  C   UNL     1       2.530 -24.490 -45.910  1.00  0.00     0.143 C 
ATOM     24  C   UNL     1       2.191 -26.000 -46.021  1.00  0.00     0.143 C 
BRANCH   9  25
ATOM     25  O   UNL     1      -0.911 -23.313 -40.139  1.00  0.00    -0.385 OA
ATOM     26  H   UNL     1      -1.660 -23.565 -40.743  1.00  0.00     0.211 HD
ENDBRANCH   9  25
BRANCH  23  27
ATOM     27  O   UNL     1       3.382 -24.080 -46.946  1.00  0.00    -0.390 OA
ATOM     28  H   UNL     1       3.673 -24.893 -47.432  1.00  0.00     0.211 HD
ENDBRANCH  23  27
BRANCH  24  29
ATOM     29  O   UNL     1       2.254 -26.417 -47.357  1.00  0.00    -0.390 OA
ATOM     30  H   UNL     1       1.345 -26.728 -47.615  1.00  0.00     0.211 HD
ENDBRANCH  24  29
ENDBRANCH   3   5
BRANCH   3  31
ATOM     31  O   UNL     1      -1.343 -18.450 -39.596  1.00  0.00    -0.387 OA
ATOM     32  H   UNL     1      -1.414 -17.821 -38.835  1.00  0.00     0.211 HD
ENDBRANCH   3  31
ENDBRANCH   2   3
BRANCH   2  33
ATOM     33  O   UNL     1      -0.015 -17.023 -41.260  1.00  0.00    -0.390 OA
ATOM     34  H   UNL     1      -0.331 -17.162 -42.190  1.00  0.00     0.211 HD
ENDBRANCH   2  33
ENDBRANCH   1   2
BRANCH   1  35
ATOM     35  C   UNL     1       3.146 -18.178 -41.651  1.00  0.00     0.037 C 
BRANCH  35  36
ATOM     36  C   UNL     1       4.308 -19.059 -41.109  1.00  0.00     0.059 C 
ATOM     37  C   UNL     1       4.369 -18.965 -39.565  1.00  0.00     0.042 C 
ATOM     38  C   UNL     1       4.108 -20.533 -41.500  1.00  0.00     0.042 C 
BRANCH  36  39
ATOM     39  O   UNL     1       5.536 -18.634 -41.655  1.00  0.00    -0.390 OA
ATOM     40  H   UNL     1       5.749 -19.215 -42.434  1.00  0.00     0.211 HD
ENDBRANCH  36  39
ENDBRANCH  35  36
ENDBRANCH   1  35
TORSDOF 11
ENDMDL
MODEL 5
REMARK VINA RESULT:    -5.721      5.004      8.750
REMARK INTER + INTRA:          -8.881
REMARK INTER:                  -8.162
REMARK INTRA:                  -0.719
REMARK UNBOUND:                -0.485
REMARK SMILES CC(C)(O)CC[C@H](O)[C@@](C)(O)[C@@H]1CC[C@]2(O)C3=CC(=O)[C@@H]4C[C@@H](O)[C@@H](O)C[C@]4(C)[C@H]3CC[C@]12C
REMARK SMILES IDX 6 1 7 2 9 3 10 4 12 5 34 6 33 7 32 8 15 9 31 10 17 11 14 12
REMARK SMILES IDX 13 13 30 14 18 15 28 16 19 17 21 18 27 19 29 20 20 21 22 22
REMARK SMILES IDX 25 23 23 24 16 25 26 27 24 29 11 31 8 33 5 35 2 36 1 37 3 38
REMARK SMILES IDX 4 39
REMARK H PARENT 16 26 26 28 24 30 11 32 8 34 4 40
REMARK Flexibility Score: inf
ROOT
ATOM      1  C   UNL     1      -4.667 -15.295 -33.588  1.00  0.00     0.038 C 
ENDROOT
BRANCH   1   2
ATOM      2  C   UNL     1      -3.167 -14.998 -33.857  1.00  0.00     0.146 C 
BRANCH   2   3
ATOM      3  C   UNL     1      -2.492 -14.009 -32.816  1.00  0.00     0.091 C 
ATOM      4  C   UNL     1      -3.602 -13.415 -31.920  1.00  0.00     0.045 C 
BRANCH   3   5
ATOM      5  C   UNL     1      -1.678 -12.831 -33.514  1.00  0.00     0.032 C 
ATOM      6  C   UNL     1      -0.478 -13.853 -35.574  1.00  0.00     0.015 C 
ATOM      7  C   UNL     1      -1.480 -12.769 -35.072  1.00  0.00     0.006 C 
ATOM      8  C   UNL     1      -2.817 -12.885 -35.859  1.00  0.00     0.011 C 
ATOM      9  C   UNL     1      -0.886 -11.329 -35.248  1.00  0.00     0.092 C 
ATOM     10  C   UNL     1      -2.614 -12.636 -37.353  1.00  0.00     0.009 C 
ATOM     11  C   UNL     1      -1.073 -10.694 -36.631  1.00  0.00    -0.031 C 
ATOM     12  C   UNL     1      -1.622 -10.473 -34.195  1.00  0.00     0.041 C 
ATOM     13  C   UNL     1      -2.175 -11.420 -33.140  1.00  0.00     0.010 C 
ATOM     14  C   UNL     1      -2.066 -11.219 -37.672  1.00  0.00     0.025 C 
ATOM     15  C   UNL     1      -0.533  -9.482 -36.843  1.00  0.00     0.050 C 
ATOM     16  C   UNL     1      -1.561 -11.039 -39.181  1.00  0.00    -0.013 C 
ATOM     17  C   UNL     1      -0.630  -8.859 -38.154  1.00  0.00     0.159 C 
ATOM     18  C   UNL     1      -0.598  -9.780 -39.346  1.00  0.00     0.070 C 
ATOM     19  C   UNL     1      -2.807 -10.890 -40.119  1.00  0.00     0.042 C 
ATOM     20  C   UNL     1      -0.760 -12.277 -39.654  1.00  0.00     0.013 C 
ATOM     21  O   UNL     1      -0.636  -7.608 -38.271  1.00  0.00    -0.295 OA
ATOM     22  C   UNL     1      -0.800  -9.047 -40.688  1.00  0.00     0.047 C 
ATOM     23  C   UNL     1      -3.307  -9.444 -40.231  1.00  0.00     0.143 C 
ATOM     24  C   UNL     1      -2.243  -8.535 -40.899  1.00  0.00     0.143 C 
BRANCH   9  25
ATOM     25  O   UNL     1       0.488 -11.330 -34.886  1.00  0.00    -0.385 OA
ATOM     26  H   UNL     1       0.868 -10.426 -35.053  1.00  0.00     0.211 HD
ENDBRANCH   9  25
BRANCH  23  27
ATOM     27  O   UNL     1      -4.514  -9.431 -40.945  1.00  0.00    -0.390 OA
ATOM     28  H   UNL     1      -4.295  -9.259 -41.897  1.00  0.00     0.211 HD
ENDBRANCH  23  27
BRANCH  24  29
ATOM     29  O   UNL     1      -2.475  -8.446 -42.278  1.00  0.00    -0.390 OA
ATOM     30  H   UNL     1      -3.174  -7.752 -42.419  1.00  0.00     0.211 HD
ENDBRANCH  24  29
ENDBRANCH   3   5
BRANCH   3  31
ATOM     31  O   UNL     1      -1.644 -14.757 -31.981  1.00  0.00    -0.387 OA
ATOM     32  H   UNL     1      -1.054 -14.133 -31.488  1.00  0.00     0.211 HD
ENDBRANCH   3  31
ENDBRANCH   2   3
BRANCH   2  33
ATOM     33  O   UNL     1      -2.491 -16.230 -33.899  1.00  0.00    -0.390 OA
ATOM     34  H   UNL     1      -3.151 -16.941 -34.109  1.00  0.00     0.211 HD
ENDBRANCH   2  33
ENDBRANCH   1   2
BRANCH   1  35
ATOM     35  C   UNL     1      -5.458 -15.471 -34.903  1.00  0.00     0.037 C 
BRANCH  35  36
ATOM     36  C   UNL     1      -6.424 -14.292 -35.212  1.00  0.00     0.059 C 
ATOM     37  C   UNL     1      -6.257 -13.843 -36.684  1.00  0.00     0.042 C 
ATOM     38  C   UNL     1      -7.888 -14.709 -34.993  1.00  0.00     0.042 C 
BRANCH  36  39
ATOM     39  O   UNL     1      -6.155 -13.206 -34.356  1.00  0.00    -0.390 OA
ATOM     40  H   UNL     1      -6.180 -12.369 -34.894  1.00  0.00     0.211 HD
ENDBRANCH  36  39
ENDBRANCH  35  36
ENDBRANCH   1  35
TORSDOF 11
ENDMDL
MODEL 6
REMARK VINA RESULT:    -5.641      4.683      8.660
REMARK INTER + INTRA:          -8.764
REMARK INTER:                  -8.500
REMARK INTRA:                  -0.265
REMARK UNBOUND:                -0.485
REMARK SMILES CC(C)(O)CC[C@H](O)[C@@](C)(O)[C@@H]1CC[C@]2(O)C3=CC(=O)[C@@H]4C[C@@H](O)[C@@H](O)C[C@]4(C)[C@H]3CC[C@]12C
REMARK SMILES IDX 6 1 7 2 9 3 10 4 12 5 34 6 33 7 32 8 15 9 31 10 17 11 14 12
REMARK SMILES IDX 13 13 30 14 18 15 28 16 19 17 21 18 27 19 29 20 20 21 22 22
REMARK SMILES IDX 25 23 23 24 16 25 26 27 24 29 11 31 8 33 5 35 2 36 1 37 3 38
REMARK SMILES IDX 4 39
REMARK H PARENT 16 26 26 28 24 30 11 32 8 34 4 40
REMARK Flexibility Score: inf
ROOT
ATOM      1  C   UNL     1       2.125 -10.240 -42.107  1.00  0.00     0.038 C 
ENDROOT
BRANCH   1   2
ATOM      2  C   UNL     1       1.158 -11.150 -41.303  1.00  0.00     0.146 C 
BRANCH   2   3
ATOM      3  C   UNL     1      -0.378 -10.953 -41.652  1.00  0.00     0.091 C 
ATOM      4  C   UNL     1      -0.547  -9.587 -42.352  1.00  0.00     0.045 C 
BRANCH   3   5
ATOM      5  C   UNL     1      -1.322 -11.020 -40.370  1.00  0.00     0.032 C 
ATOM      6  C   UNL     1      -2.798 -13.138 -40.622  1.00  0.00     0.015 C 
ATOM      7  C   UNL     1      -1.759 -12.387 -39.733  1.00  0.00     0.006 C 
ATOM      8  C   UNL     1      -0.558 -13.326 -39.424  1.00  0.00     0.011 C 
ATOM      9  C   UNL     1      -2.413 -11.905 -38.392  1.00  0.00     0.092 C 
ATOM     10  C   UNL     1      -0.996 -14.562 -38.639  1.00  0.00     0.009 C 
ATOM     11  C   UNL     1      -2.459 -12.941 -37.261  1.00  0.00    -0.031 C 
ATOM     12  C   UNL     1      -1.546 -10.708 -37.946  1.00  0.00     0.041 C 
ATOM     13  C   UNL     1      -0.811 -10.192 -39.174  1.00  0.00     0.010 C 
ATOM     14  C   UNL     1      -1.625 -14.225 -37.261  1.00  0.00     0.025 C 
ATOM     15  C   UNL     1      -3.058 -12.587 -36.112  1.00  0.00     0.050 C 
ATOM     16  C   UNL     1      -2.362 -15.461 -36.559  1.00  0.00    -0.013 C 
ATOM     17  C   UNL     1      -3.181 -13.549 -35.028  1.00  0.00     0.159 C 
ATOM     18  C   UNL     1      -3.372 -14.992 -35.420  1.00  0.00     0.070 C 
ATOM     19  C   UNL     1      -1.280 -16.422 -35.957  1.00  0.00     0.042 C 
ATOM     20  C   UNL     1      -3.193 -16.273 -37.585  1.00  0.00     0.013 C 
ATOM     21  O   UNL     1      -3.227 -13.166 -33.833  1.00  0.00    -0.295 OA
ATOM     22  C   UNL     1      -3.400 -15.953 -34.214  1.00  0.00     0.047 C 
ATOM     23  C   UNL     1      -0.843 -16.023 -34.542  1.00  0.00     0.143 C 
ATOM     24  C   UNL     1      -2.021 -16.135 -33.540  1.00  0.00     0.143 C 
BRANCH   9  25
ATOM     25  O   UNL     1      -3.713 -11.395 -38.648  1.00  0.00    -0.385 OA
ATOM     26  H   UNL     1      -4.384 -12.105 -38.461  1.00  0.00     0.211 HD
ENDBRANCH   9  25
BRANCH  23  27
ATOM     27  O   UNL     1       0.239 -16.827 -34.152  1.00  0.00    -0.390 OA
ATOM     28  H   UNL     1      -0.023 -17.293 -33.317  1.00  0.00     0.211 HD
ENDBRANCH  23  27
BRANCH  24  29
ATOM     29  O   UNL     1      -2.008 -17.386 -32.909  1.00  0.00    -0.390 OA
ATOM     30  H   UNL     1      -2.918 -17.777 -33.003  1.00  0.00     0.211 HD
ENDBRANCH  24  29
ENDBRANCH   3   5
BRANCH   3  31
ATOM     31  O   UNL     1      -0.750 -11.942 -42.581  1.00  0.00    -0.387 OA
ATOM     32  H   UNL     1      -1.697 -12.183 -42.424  1.00  0.00     0.211 HD
ENDBRANCH   3  31
ENDBRANCH   2   3
BRANCH   2  33
ATOM     33  O   UNL     1       1.559 -12.481 -41.506  1.00  0.00    -0.390 OA
ATOM     34  H   UNL     1       1.613 -12.645 -42.483  1.00  0.00     0.211 HD
ENDBRANCH   2  33
ENDBRANCH   1   2
BRANCH   1  35
ATOM     35  C   UNL     1       3.223 -11.062 -42.817  1.00  0.00     0.037 C 
BRANCH  35  36
ATOM     36  C   UNL     1       2.994 -11.217 -44.348  1.00  0.00     0.059 C 
ATOM     37  C   UNL     1       2.225 -12.529 -44.638  1.00  0.00     0.042 C 
ATOM     38  C   UNL     1       2.175 -10.039 -44.902  1.00  0.00     0.042 C 
BRANCH  36  39
ATOM     39  O   UNL     1       4.230 -11.237 -45.025  1.00  0.00    -0.390 OA
ATOM     40  H   UNL     1       4.498 -10.297 -45.213  1.00  0.00     0.211 HD
ENDBRANCH  36  39
ENDBRANCH  35  36
ENDBRANCH   1  35
TORSDOF 11
ENDMDL
MODEL 7
REMARK VINA RESULT:    -5.625      2.523      7.911
REMARK INTER + INTRA:          -8.740
REMARK INTER:                  -7.999
REMARK INTRA:                  -0.741
REMARK UNBOUND:                -0.485
REMARK SMILES CC(C)(O)CC[C@H](O)[C@@](C)(O)[C@@H]1CC[C@]2(O)C3=CC(=O)[C@@H]4C[C@@H](O)[C@@H](O)C[C@]4(C)[C@H]3CC[C@]12C
REMARK SMILES IDX 6 1 7 2 9 3 10 4 12 5 34 6 33 7 32 8 15 9 31 10 17 11 14 12
REMARK SMILES IDX 13 13 30 14 18 15 28 16 19 17 21 18 27 19 29 20 20 21 22 22
REMARK SMILES IDX 25 23 23 24 16 25 26 27 24 29 11 31 8 33 5 35 2 36 1 37 3 38
REMARK SMILES IDX 4 39
REMARK H PARENT 16 26 26 28 24 30 11 32 8 34 4 40
REMARK Flexibility Score: inf
ROOT
ATOM      1  C   UNL     1      -6.692  -9.401 -47.672  1.00  0.00     0.038 C 
ENDROOT
BRANCH   1   2
ATOM      2  C   UNL     1      -6.756 -10.383 -46.473  1.00  0.00     0.146 C 
BRANCH   2   3
ATOM      3  C   UNL     1      -7.485  -9.808 -45.186  1.00  0.00     0.091 C 
ATOM      4  C   UNL     1      -8.407  -8.649 -45.626  1.00  0.00     0.045 C 
BRANCH   3   5
ATOM      5  C   UNL     1      -6.470  -9.293 -44.072  1.00  0.00     0.032 C 
ATOM      6  C   UNL     1      -7.395 -10.077 -41.779  1.00  0.00     0.015 C 
ATOM      7  C   UNL     1      -6.187 -10.116 -42.764  1.00  0.00     0.006 C 
ATOM      8  C   UNL     1      -5.790 -11.593 -43.049  1.00  0.00     0.011 C 
ATOM      9  C   UNL     1      -4.957  -9.342 -42.175  1.00  0.00     0.092 C 
ATOM     10  C   UNL     1      -5.343 -12.312 -41.776  1.00  0.00     0.009 C 
ATOM     11  C   UNL     1      -4.058 -10.142 -41.224  1.00  0.00    -0.031 C 
ATOM     12  C   UNL     1      -4.135  -8.920 -43.412  1.00  0.00     0.041 C 
ATOM     13  C   UNL     1      -5.067  -8.951 -44.614  1.00  0.00     0.010 C 
ATOM     14  C   UNL     1      -4.097 -11.669 -41.112  1.00  0.00     0.025 C 
ATOM     15  C   UNL     1      -3.023  -9.502 -40.655  1.00  0.00     0.050 C 
ATOM     16  C   UNL     1      -3.794 -12.206 -39.634  1.00  0.00    -0.013 C 
ATOM     17  C   UNL     1      -2.173 -10.197 -39.700  1.00  0.00     0.159 C 
ATOM     18  C   UNL     1      -2.838 -11.224 -38.821  1.00  0.00     0.070 C 
ATOM     19  C   UNL     1      -3.145 -13.628 -39.734  1.00  0.00     0.042 C 
ATOM     20  C   UNL     1      -5.099 -12.341 -38.810  1.00  0.00     0.013 C 
ATOM     21  O   UNL     1      -0.968  -9.869 -39.557  1.00  0.00    -0.295 OA
ATOM     22  C   UNL     1      -1.850 -11.976 -37.906  1.00  0.00     0.047 C 
ATOM     23  C   UNL     1      -1.622 -13.584 -39.910  1.00  0.00     0.143 C 
ATOM     24  C   UNL     1      -0.934 -12.961 -38.667  1.00  0.00     0.143 C 
BRANCH   9  25
ATOM     25  O   UNL     1      -5.398  -8.146 -41.550  1.00  0.00    -0.385 OA
ATOM     26  H   UNL     1      -6.061  -7.696 -42.140  1.00  0.00     0.211 HD
ENDBRANCH   9  25
BRANCH  23  27
ATOM     27  O   UNL     1      -1.151 -14.882 -40.160  1.00  0.00    -0.390 OA
ATOM     28  H   UNL     1      -1.766 -15.300 -40.814  1.00  0.00     0.211 HD
ENDBRANCH  23  27
BRANCH  24  29
ATOM     29  O   UNL     1      -0.540 -13.966 -37.774  1.00  0.00    -0.390 OA
ATOM     30  H   UNL     1      -0.786 -13.664 -36.858  1.00  0.00     0.211 HD
ENDBRANCH  24  29
ENDBRANCH   3   5
BRANCH   3  31
ATOM     31  O   UNL     1      -8.313 -10.816 -44.660  1.00  0.00    -0.387 OA
ATOM     32  H   UNL     1      -8.392 -10.683 -43.682  1.00  0.00     0.211 HD
ENDBRANCH   3  31
ENDBRANCH   2   3
BRANCH   2  33
ATOM     33  O   UNL     1      -7.374 -11.563 -46.922  1.00  0.00    -0.390 OA
ATOM     34  H   UNL     1      -8.181 -11.723 -46.367  1.00  0.00     0.211 HD
ENDBRANCH   2  33
ENDBRANCH   1   2
BRANCH   1  35
ATOM     35  C   UNL     1      -5.256  -9.273 -48.229  1.00  0.00     0.037 C 
BRANCH  35  36
ATOM     36  C   UNL     1      -4.722  -7.812 -48.244  1.00  0.00     0.059 C 
ATOM     37  C   UNL     1      -5.720  -6.875 -47.520  1.00  0.00     0.042 C 
ATOM     38  C   UNL     1      -3.362  -7.718 -47.533  1.00  0.00     0.042 C 
BRANCH  36  39
ATOM     39  O   UNL     1      -4.544  -7.374 -49.571  1.00  0.00    -0.390 OA
ATOM     40  H   UNL     1      -5.040  -6.519 -49.688  1.00  0.00     0.211 HD
ENDBRANCH  36  39
ENDBRANCH  35  36
ENDBRANCH   1  35
TORSDOF 11
ENDMDL
MODEL 8
REMARK VINA RESULT:    -5.618     10.360     13.614
REMARK INTER + INTRA:          -8.730
REMARK INTER:                  -8.159
REMARK INTRA:                  -0.571
REMARK UNBOUND:                -0.485
REMARK SMILES CC(C)(O)CC[C@H](O)[C@@](C)(O)[C@@H]1CC[C@]2(O)C3=CC(=O)[C@@H]4C[C@@H](O)[C@@H](O)C[C@]4(C)[C@H]3CC[C@]12C
REMARK SMILES IDX 6 1 7 2 9 3 10 4 12 5 34 6 33 7 32 8 15 9 31 10 17 11 14 12
REMARK SMILES IDX 13 13 30 14 18 15 28 16 19 17 21 18 27 19 29 20 20 21 22 22
REMARK SMILES IDX 25 23 23 24 16 25 26 27 24 29 11 31 8 33 5 35 2 36 1 37 3 38
REMARK SMILES IDX 4 39
REMARK H PARENT 16 26 26 28 24 30 11 32 8 34 4 40
REMARK Flexibility Score: inf
ROOT
ATOM      1  C   UNL     1       1.973 -26.021 -45.903  1.00  0.00     0.038 C 
ENDROOT
BRANCH   1   2
ATOM      2  C   UNL     1       2.406 -24.638 -45.348  1.00  0.00     0.146 C 
BRANCH   2   3
ATOM      3  C   UNL     1       2.172 -24.447 -43.791  1.00  0.00     0.091 C 
ATOM      4  C   UNL     1       1.869 -25.830 -43.172  1.00  0.00     0.045 C 
BRANCH   3   5
ATOM      5  C   UNL     1       0.984 -23.438 -43.458  1.00  0.00     0.032 C 
ATOM      6  C   UNL     1       0.761 -23.353 -40.875  1.00  0.00     0.015 C 
ATOM      7  C   UNL     1       1.004 -22.529 -42.177  1.00  0.00     0.006 C 
ATOM      8  C   UNL     1       2.314 -21.703 -42.038  1.00  0.00     0.011 C 
ATOM      9  C   UNL     1      -0.200 -21.568 -42.466  1.00  0.00     0.092 C 
ATOM     10  C   UNL     1       2.226 -20.695 -40.892  1.00  0.00     0.009 C 
ATOM     11  C   UNL     1      -0.164 -20.215 -41.743  1.00  0.00    -0.031 C 
ATOM     12  C   UNL     1      -0.149 -21.326 -43.990  1.00  0.00     0.041 C 
ATOM     13  C   UNL     1       0.650 -22.466 -44.607  1.00  0.00     0.010 C 
ATOM     14  C   UNL     1       1.094 -19.650 -41.076  1.00  0.00     0.025 C 
ATOM     15  C   UNL     1      -1.202 -19.382 -41.920  1.00  0.00     0.050 C 
ATOM     16  C   UNL     1       0.785 -18.785 -39.765  1.00  0.00    -0.013 C 
ATOM     17  C   UNL     1      -1.246 -18.112 -41.212  1.00  0.00     0.159 C 
ATOM     18  C   UNL     1      -0.645 -18.083 -39.830  1.00  0.00     0.070 C 
ATOM     19  C   UNL     1       1.906 -17.705 -39.593  1.00  0.00     0.042 C 
ATOM     20  C   UNL     1       0.788 -19.672 -38.495  1.00  0.00     0.013 C 
ATOM     21  O   UNL     1      -1.851 -17.125 -41.701  1.00  0.00    -0.295 OA
ATOM     22  C   UNL     1      -0.651 -16.680 -39.191  1.00  0.00     0.047 C 
ATOM     23  C   UNL     1       1.625 -16.415 -40.376  1.00  0.00     0.143 C 
ATOM     24  C   UNL     1       0.356 -15.703 -39.841  1.00  0.00     0.143 C 
BRANCH   9  25
ATOM     25  O   UNL     1      -1.424 -22.237 -42.200  1.00  0.00    -0.385 OA
ATOM     26  H   UNL     1      -1.309 -22.819 -41.401  1.00  0.00     0.211 HD
ENDBRANCH   9  25
BRANCH  23  27
ATOM     27  O   UNL     1       2.750 -15.580 -40.303  1.00  0.00    -0.390 OA
ATOM     28  H   UNL     1       2.719 -15.116 -39.427  1.00  0.00     0.211 HD
ENDBRANCH  23  27
BRANCH  24  29
ATOM     29  O   UNL     1       0.703 -14.738 -38.886  1.00  0.00    -0.390 OA
ATOM     30  H   UNL     1       0.718 -13.856 -39.346  1.00  0.00     0.211 HD
ENDBRANCH  24  29
ENDBRANCH   3   5
BRANCH   3  31
ATOM     31  O   UNL     1       3.371 -23.992 -43.216  1.00  0.00    -0.387 OA
ATOM     32  H   UNL     1       3.256 -23.044 -42.950  1.00  0.00     0.211 HD
ENDBRANCH   3  31
ENDBRANCH   2   3
BRANCH   2  33
ATOM     33  O   UNL     1       3.757 -24.449 -45.686  1.00  0.00    -0.390 OA
ATOM     34  H   UNL     1       3.844 -24.508 -46.672  1.00  0.00     0.211 HD
ENDBRANCH   2  33
ENDBRANCH   1   2
BRANCH   1  35
ATOM     35  C   UNL     1       1.185 -25.885 -47.224  1.00  0.00     0.037 C 
BRANCH  35  36
ATOM     36  C   UNL     1      -0.340 -26.155 -47.072  1.00  0.00     0.059 C 
ATOM     37  C   UNL     1      -0.595 -27.083 -45.860  1.00  0.00     0.042 C 
ATOM     38  C   UNL     1      -1.110 -24.842 -46.850  1.00  0.00     0.042 C 
BRANCH  36  39
ATOM     39  O   UNL     1      -0.846 -26.757 -48.240  1.00  0.00    -0.390 OA
ATOM     40  H   UNL     1      -1.422 -26.094 -48.709  1.00  0.00     0.211 HD
ENDBRANCH  36  39
ENDBRANCH  35  36
ENDBRANCH   1  35
TORSDOF 11
ENDMDL
MODEL 9
REMARK VINA RESULT:    -5.520      9.845     13.217
REMARK INTER + INTRA:          -8.587
REMARK INTER:                  -8.295
REMARK INTRA:                  -0.291
REMARK UNBOUND:                -0.485
REMARK SMILES CC(C)(O)CC[C@H](O)[C@@](C)(O)[C@@H]1CC[C@]2(O)C3=CC(=O)[C@@H]4C[C@@H](O)[C@@H](O)C[C@]4(C)[C@H]3CC[C@]12C
REMARK SMILES IDX 6 1 7 2 9 3 10 4 12 5 34 6 33 7 32 8 15 9 31 10 17 11 14 12
REMARK SMILES IDX 13 13 30 14 18 15 28 16 19 17 21 18 27 19 29 20 20 21 22 22
REMARK SMILES IDX 25 23 23 24 16 25 26 27 24 29 11 31 8 33 5 35 2 36 1 37 3 38
REMARK SMILES IDX 4 39
REMARK H PARENT 16 26 26 28 24 30 11 32 8 34 4 40
REMARK Flexibility Score: inf
ROOT
ATOM      1  C   UNL     1      -1.504 -16.207 -39.218  1.00  0.00     0.038 C 
ENDROOT
BRANCH   1   2
ATOM      2  C   UNL     1      -0.211 -17.037 -39.438  1.00  0.00     0.146 C 
BRANCH   2   3
ATOM      3  C   UNL     1      -0.187 -17.880 -40.781  1.00  0.00     0.091 C 
ATOM      4  C   UNL     1      -1.548 -17.704 -41.491  1.00  0.00     0.045 C 
BRANCH   3   5
ATOM      5  C   UNL     1       0.095 -19.429 -40.540  1.00  0.00     0.032 C 
ATOM      6  C   UNL     1      -1.812 -20.741 -41.711  1.00  0.00     0.015 C 
ATOM      7  C   UNL     1      -0.272 -20.516 -41.614  1.00  0.00     0.006 C 
ATOM      8  C   UNL     1       0.301 -20.195 -43.024  1.00  0.00     0.011 C 
ATOM      9  C   UNL     1       0.445 -21.781 -41.027  1.00  0.00     0.092 C 
ATOM     10  C   UNL     1       0.087 -21.355 -43.997  1.00  0.00     0.009 C 
ATOM     11  C   UNL     1       0.787 -22.884 -42.037  1.00  0.00    -0.031 C 
ATOM     12  C   UNL     1       1.752 -21.237 -40.412  1.00  0.00     0.041 C 
ATOM     13  C   UNL     1       1.557 -19.748 -40.165  1.00  0.00     0.010 C 
ATOM     14  C   UNL     1       0.787 -22.666 -43.553  1.00  0.00     0.025 C 
ATOM     15  C   UNL     1       1.353 -24.008 -41.569  1.00  0.00     0.050 C 
ATOM     16  C   UNL     1       0.334 -23.960 -44.381  1.00  0.00    -0.013 C 
ATOM     17  C   UNL     1       1.645 -25.108 -42.474  1.00  0.00     0.159 C 
ATOM     18  C   UNL     1       0.690 -25.315 -43.621  1.00  0.00     0.070 C 
ATOM     19  C   UNL     1       1.028 -23.933 -45.785  1.00  0.00     0.042 C 
ATOM     20  C   UNL     1      -1.198 -23.968 -44.612  1.00  0.00     0.013 C 
ATOM     21  O   UNL     1       2.592 -25.900 -42.237  1.00  0.00    -0.295 OA
ATOM     22  C   UNL     1       1.124 -26.442 -44.581  1.00  0.00     0.047 C 
ATOM     23  C   UNL     1       2.426 -24.564 -45.778  1.00  0.00     0.143 C 
ATOM     24  C   UNL     1       2.355 -26.076 -45.441  1.00  0.00     0.143 C 
BRANCH   9  25
ATOM     25  O   UNL     1      -0.321 -22.312 -39.956  1.00  0.00    -0.385 OA
ATOM     26  H   UNL     1       0.156 -22.142 -39.100  1.00  0.00     0.211 HD
ENDBRANCH   9  25
BRANCH  23  27
ATOM     27  O   UNL     1       3.034 -24.345 -47.023  1.00  0.00    -0.390 OA
ATOM     28  H   UNL     1       2.682 -23.489 -47.380  1.00  0.00     0.211 HD
ENDBRANCH  23  27
BRANCH  24  29
ATOM     29  O   UNL     1       2.303 -26.836 -46.618  1.00  0.00    -0.390 OA
ATOM     30  H   UNL     1       3.240 -27.060 -46.869  1.00  0.00     0.211 HD
ENDBRANCH  24  29
ENDBRANCH   3   5
BRANCH   3  31
ATOM     31  O   UNL     1       0.794 -17.334 -41.628  1.00  0.00    -0.387 OA
ATOM     32  H   UNL     1       1.469 -18.032 -41.823  1.00  0.00     0.211 HD
ENDBRANCH   3  31
ENDBRANCH   2   3
BRANCH   2  33
ATOM     33  O   UNL     1       0.879 -16.152 -39.374  1.00  0.00    -0.390 OA
ATOM     34  H   UNL     1       0.987 -15.857 -38.433  1.00  0.00     0.211 HD
ENDBRANCH   2  33
ENDBRANCH   1   2
BRANCH   1  35
ATOM     35  C   UNL     1      -1.200 -14.842 -38.562  1.00  0.00     0.037 C 
BRANCH  35  36
ATOM     36  C   UNL     1      -1.364 -13.635 -39.530  1.00  0.00     0.059 C 
ATOM     37  C   UNL     1      -2.537 -13.894 -40.506  1.00  0.00     0.042 C 
ATOM     38  C   UNL     1      -1.656 -12.342 -38.750  1.00  0.00     0.042 C 
BRANCH  36  39
ATOM     39  O   UNL     1      -0.177 -13.435 -40.263  1.00  0.00    -0.390 OA
ATOM     40  H   UNL     1      -0.309 -12.652 -40.863  1.00  0.00     0.211 HD
ENDBRANCH  36  39
ENDBRANCH  35  36
ENDBRANCH   1  35
TORSDOF 11
ENDMDL
