MODEL 1
REMARK VINA RESULT:    -2.075      0.000      0.000
REMARK INTER + INTRA:          -2.819
REMARK INTER:                  -2.561
REMARK INTRA:                  -0.258
REMARK UNBOUND:                -0.258
REMARK SMILES C=CC[C@@H](C)C(=O)CC
REMARK SMILES IDX 4 1 5 2 6 3 7 4 8 5 9 6 3 7 2 8 1 9
REMARK H PARENT
REMARK Flexibility Score: inf
ROOT
ATOM      1  C   UNL     1      32.255  23.207  29.087  1.00  0.00     0.057 C 
ATOM      2  C   UNL     1      31.115  23.851  29.889  1.00  0.00     0.016 C 
ENDROOT
BRANCH   1   3
ATOM      3  C   UNL     1      31.779  22.887  27.686  1.00  0.00     0.135 C 
ATOM      4  O   UNL     1      31.631  23.791  26.875  1.00  0.00    -0.299 OA
BRANCH   3   5
ATOM      5  C   UNL     1      31.492  21.469  27.265  1.00  0.00     0.072 C 
ATOM      6  C   UNL     1      30.003  21.277  26.997  1.00  0.00     0.012 C 
ENDBRANCH   3   5
ENDBRANCH   1   3
BRANCH   1   7
ATOM      7  C   UNL     1      33.497  24.119  29.026  1.00  0.00     0.038 C 
BRANCH   7   8
ATOM      8  C   UNL     1      34.660  23.427  28.366  1.00  0.00    -0.034 C 
ATOM      9  C   UNL     1      35.400  24.028  27.429  1.00  0.00     0.004 C 
ENDBRANCH   7   8
ENDBRANCH   1   7
TORSDOF 4
ENDMDL
MODEL 2
REMARK VINA RESULT:    -1.921      1.619      4.026
REMARK INTER + INTRA:          -2.629
REMARK INTER:                  -2.421
REMARK INTRA:                  -0.208
REMARK UNBOUND:                -0.258
REMARK SMILES C=CC[C@@H](C)C(=O)CC
REMARK SMILES IDX 4 1 5 2 6 3 7 4 8 5 9 6 3 7 2 8 1 9
REMARK H PARENT
REMARK Flexibility Score: inf
ROOT
ATOM      1  C   UNL     1      32.889  23.641  27.864  1.00  0.00     0.057 C 
ATOM      2  C   UNL     1      32.246  23.604  29.258  1.00  0.00     0.016 C 
ENDROOT
BRANCH   1   3
ATOM      3  C   UNL     1      34.396  23.686  27.995  1.00  0.00     0.135 C 
ATOM      4  O   UNL     1      34.902  24.123  29.019  1.00  0.00    -0.299 OA
BRANCH   3   5
ATOM      5  C   UNL     1      35.290  23.191  26.888  1.00  0.00     0.072 C 
ATOM      6  C   UNL     1      36.567  22.583  27.457  1.00  0.00     0.012 C 
ENDBRANCH   3   5
ENDBRANCH   1   3
BRANCH   1   7
ATOM      7  C   UNL     1      32.469  22.429  27.009  1.00  0.00     0.038 C 
BRANCH   7   8
ATOM      8  C   UNL     1      31.355  21.651  27.660  1.00  0.00    -0.034 C 
ATOM      9  C   UNL     1      30.168  21.488  27.068  1.00  0.00     0.004 C 
ENDBRANCH   7   8
ENDBRANCH   1   7
TORSDOF 4
ENDMDL
MODEL 3
REMARK VINA RESULT:    -1.679      1.045      3.578
REMARK INTER + INTRA:          -2.330
REMARK INTER:                  -2.087
REMARK INTRA:                  -0.243
REMARK UNBOUND:                -0.258
REMARK SMILES C=CC[C@@H](C)C(=O)CC
REMARK SMILES IDX 4 1 5 2 6 3 7 4 8 5 9 6 3 7 2 8 1 9
REMARK H PARENT
REMARK Flexibility Score: inf
ROOT
ATOM      1  C   UNL     1      30.826  24.092  28.788  1.00  0.00     0.057 C 
ATOM      2  C   UNL     1      30.960  23.635  30.248  1.00  0.00     0.016 C 
ENDROOT
BRANCH   1   3
ATOM      3  C   UNL     1      32.172  24.012  28.100  1.00  0.00     0.135 C 
ATOM      4  O   UNL     1      32.237  24.124  26.883  1.00  0.00    -0.299 OA
BRANCH   3   5
ATOM      5  C   UNL     1      33.440  23.807  28.887  1.00  0.00     0.072 C 
ATOM      6  C   UNL     1      34.597  23.446  27.962  1.00  0.00     0.012 C 
ENDBRANCH   3   5
ENDBRANCH   1   3
BRANCH   1   7
ATOM      7  C   UNL     1      29.790  23.249  28.019  1.00  0.00     0.038 C 
BRANCH   7   8
ATOM      8  C   UNL     1      30.121  21.780  28.072  1.00  0.00    -0.034 C 
ATOM      9  C   UNL     1      30.524  21.108  26.989  1.00  0.00     0.004 C 
ENDBRANCH   7   8
ENDBRANCH   1   7
TORSDOF 4
ENDMDL
