MODEL 1
REMARK VINA RESULT:    -1.949      0.000      0.000
REMARK INTER + INTRA:          -1.949
REMARK INTER:                  -1.949
REMARK INTRA:                   0.000
REMARK UNBOUND:                 0.000
REMARK SMILES CC(=O)[O-]
REMARK SMILES IDX 1 1 2 2 3 3 4 4
REMARK H PARENT
REMARK Flexibility Score: inf
ROOT
ATOM      1  C   UNL     1      51.906  56.426  43.877  1.00  0.00     0.063 C 
ATOM      2  C   UNL     1      51.564  56.375  45.328  1.00  0.00     0.038 C 
ATOM      3  O   UNL     1      50.514  56.926  45.749  1.00  0.00    -0.550 OA
ATOM      4  O   UNL     1      52.376  55.673  46.210  1.00  0.00    -0.550 OA
ENDROOT
TORSDOF 0
ENDMDL
MODEL 2
REMARK VINA RESULT:    -1.870      1.484      1.805
REMARK INTER + INTRA:          -1.870
REMARK INTER:                  -1.870
REMARK INTRA:                   0.000
REMARK UNBOUND:                 0.000
REMARK SMILES CC(=O)[O-]
REMARK SMILES IDX 1 1 2 2 3 3 4 4
REMARK H PARENT
REMARK Flexibility Score: inf
ROOT
ATOM      1  C   UNL     1      52.749  55.601  46.267  1.00  0.00     0.063 C 
ATOM      2  C   UNL     1      51.884  56.270  45.252  1.00  0.00     0.038 C 
ATOM      3  O   UNL     1      50.765  56.738  45.587  1.00  0.00    -0.550 OA
ATOM      4  O   UNL     1      52.336  56.427  43.948  1.00  0.00    -0.550 OA
ENDROOT
TORSDOF 0
ENDMDL
MODEL 3
REMARK VINA RESULT:    -1.804      6.294      6.905
REMARK INTER + INTRA:          -1.804
REMARK INTER:                  -1.804
REMARK INTRA:                   0.000
REMARK UNBOUND:                 0.000
REMARK SMILES CC(=O)[O-]
REMARK SMILES IDX 1 1 2 2 3 3 4 4
REMARK H PARENT
REMARK Flexibility Score: inf
ROOT
ATOM      1  C   UNL     1      52.622  50.939  50.845  1.00  0.00     0.063 C 
ATOM      2  C   UNL     1      52.113  52.313  50.567  1.00  0.00     0.038 C 
ATOM      3  O   UNL     1      51.689  53.031  51.509  1.00  0.00    -0.550 OA
ATOM      4  O   UNL     1      52.156  52.823  49.275  1.00  0.00    -0.550 OA
ENDROOT
TORSDOF 0
ENDMDL
MODEL 4
REMARK VINA RESULT:    -1.797     17.541     18.095
REMARK INTER + INTRA:          -1.797
REMARK INTER:                  -1.797
REMARK INTRA:                   0.000
REMARK UNBOUND:                 0.000
REMARK SMILES CC(=O)[O-]
REMARK SMILES IDX 1 1 2 2 3 3 4 4
REMARK H PARENT
REMARK Flexibility Score: inf
ROOT
ATOM      1  C   UNL     1      50.380  51.084  61.847  1.00  0.00     0.063 C 
ATOM      2  C   UNL     1      50.033  49.636  61.934  1.00  0.00     0.038 C 
ATOM      3  O   UNL     1      50.114  48.905  60.912  1.00  0.00    -0.550 OA
ATOM      4  O   UNL     1      49.672  49.079  63.154  1.00  0.00    -0.550 OA
ENDROOT
TORSDOF 0
ENDMDL
MODEL 5
REMARK VINA RESULT:    -1.793     17.830     18.342
REMARK INTER + INTRA:          -1.793
REMARK INTER:                  -1.793
REMARK INTRA:                   0.000
REMARK UNBOUND:                 0.000
REMARK SMILES CC(=O)[O-]
REMARK SMILES IDX 1 1 2 2 3 3 4 4
REMARK H PARENT
REMARK Flexibility Score: inf
ROOT
ATOM      1  C   UNL     1      50.836  47.936  61.437  1.00  0.00     0.063 C 
ATOM      2  C   UNL     1      50.119  49.115  62.003  1.00  0.00     0.038 C 
ATOM      3  O   UNL     1      49.869  50.111  61.276  1.00  0.00    -0.550 OA
ATOM      4  O   UNL     1      49.678  49.094  63.320  1.00  0.00    -0.550 OA
ENDROOT
TORSDOF 0
ENDMDL
MODEL 6
REMARK VINA RESULT:    -1.746     17.894     18.436
REMARK INTER + INTRA:          -1.746
REMARK INTER:                  -1.746
REMARK INTRA:                   0.000
REMARK UNBOUND:                 0.000
REMARK SMILES CC(=O)[O-]
REMARK SMILES IDX 1 1 2 2 3 3 4 4
REMARK H PARENT
REMARK Flexibility Score: inf
ROOT
ATOM      1  C   UNL     1      50.143  50.385  61.489  1.00  0.00     0.063 C 
ATOM      2  C   UNL     1      50.164  49.058  62.171  1.00  0.00     0.038 C 
ATOM      3  O   UNL     1      49.748  48.950  63.353  1.00  0.00    -0.550 OA
ATOM      4  O   UNL     1      50.592  47.929  61.483  1.00  0.00    -0.550 OA
ENDROOT
TORSDOF 0
ENDMDL
MODEL 7
REMARK VINA RESULT:    -1.680      5.427      5.923
REMARK INTER + INTRA:          -1.680
REMARK INTER:                  -1.680
REMARK INTRA:                   0.000
REMARK UNBOUND:                 0.000
REMARK SMILES CC(=O)[O-]
REMARK SMILES IDX 1 1 2 2 3 3 4 4
REMARK H PARENT
REMARK Flexibility Score: inf
ROOT
ATOM      1  C   UNL     1      51.888  52.622  51.040  1.00  0.00     0.063 C 
ATOM      2  C   UNL     1      52.373  53.278  49.792  1.00  0.00     0.038 C 
ATOM      3  O   UNL     1      52.276  52.682  48.688  1.00  0.00    -0.550 OA
ATOM      4  O   UNL     1      52.883  54.569  49.836  1.00  0.00    -0.550 OA
ENDROOT
TORSDOF 0
ENDMDL
MODEL 8
REMARK VINA RESULT:    -1.675      5.750      6.430
REMARK INTER + INTRA:          -1.675
REMARK INTER:                  -1.675
REMARK INTRA:                   0.000
REMARK UNBOUND:                 0.000
REMARK SMILES CC(=O)[O-]
REMARK SMILES IDX 1 1 2 2 3 3 4 4
REMARK H PARENT
REMARK Flexibility Score: inf
ROOT
ATOM      1  C   UNL     1      51.936  53.206  51.368  1.00  0.00     0.063 C 
ATOM      2  C   UNL     1      52.273  52.562  50.065  1.00  0.00     0.038 C 
ATOM      3  O   UNL     1      52.192  53.221  48.996  1.00  0.00    -0.550 OA
ATOM      4  O   UNL     1      52.729  51.251  50.035  1.00  0.00    -0.550 OA
ENDROOT
TORSDOF 0
ENDMDL
MODEL 9
REMARK VINA RESULT:    -1.629     17.240     17.752
REMARK INTER + INTRA:          -1.629
REMARK INTER:                  -1.629
REMARK INTRA:                   0.000
REMARK UNBOUND:                 0.000
REMARK SMILES CC(=O)[O-]
REMARK SMILES IDX 1 1 2 2 3 3 4 4
REMARK H PARENT
REMARK Flexibility Score: inf
ROOT
ATOM      1  C   UNL     1      50.038  49.484  61.831  1.00  0.00     0.063 C 
ATOM      2  C   UNL     1      50.901  48.509  61.105  1.00  0.00     0.038 C 
ATOM      3  O   UNL     1      50.708  47.272  61.239  1.00  0.00    -0.550 OA
ATOM      4  O   UNL     1      51.886  48.962  60.236  1.00  0.00    -0.550 OA
ENDROOT
TORSDOF 0
ENDMDL
