MODEL 1
REMARK VINA RESULT:    -4.007      0.000      0.000
REMARK INTER + INTRA:          -8.745
REMARK INTER:                  -7.052
REMARK INTRA:                  -1.693
REMARK UNBOUND:                -1.693
REMARK SMILES CCCCCCCCCCCCCCC(=O)[O-]
REMARK SMILES IDX 9 1 10 2 11 3 12 4 13 5 14 6 15 7 16 8 17 9 8 10 7 11 6 12
REMARK SMILES IDX 5 13 4 14 3 15 2 16 1 17
REMARK H PARENT
REMARK Flexibility Score: inf
ROOT
ATOM      1  C   UNL     1      48.626   0.392  74.696  1.00  0.00     0.000 C 
ENDROOT
BRANCH   1   2
ATOM      2  C   UNL     1      49.012   0.668  73.233  1.00  0.00     0.000 C 
BRANCH   2   3
ATOM      3  C   UNL     1      48.671  -0.510  72.304  1.00  0.00     0.000 C 
BRANCH   3   4
ATOM      4  C   UNL     1      49.926  -1.169  71.706  1.00  0.00     0.000 C 
BRANCH   4   5
ATOM      5  C   UNL     1      51.223  -0.760  72.426  1.00  0.00     0.006 C 
BRANCH   5   6
ATOM      6  C   UNL     1      52.122  -1.945  72.819  1.00  0.00     0.053 C 
BRANCH   6   7
ATOM      7  C   UNL     1      53.447  -1.926  72.119  1.00  0.00     0.041 C 
ATOM      8  O   UNL     1      54.191  -2.942  72.136  1.00  0.00    -0.550 OA
ATOM      9  O   UNL     1      53.847  -0.795  71.419  1.00  0.00    -0.550 OA
ENDBRANCH   6   7
ENDBRANCH   5   6
ENDBRANCH   4   5
ENDBRANCH   3   4
ENDBRANCH   2   3
ENDBRANCH   1   2
BRANCH   1  10
ATOM     10  C   UNL     1      48.082  -1.031  74.912  1.00  0.00     0.000 C 
BRANCH  10  11
ATOM     11  C   UNL     1      49.015  -1.975  75.697  1.00  0.00    -0.000 C 
BRANCH  11  12
ATOM     12  C   UNL     1      49.379  -3.285  74.970  1.00  0.00    -0.000 C 
BRANCH  12  13
ATOM     13  C   UNL     1      48.192  -4.020  74.315  1.00  0.00    -0.000 C 
BRANCH  13  14
ATOM     14  C   UNL     1      48.309  -4.212  72.792  1.00  0.00    -0.000 C 
BRANCH  14  15
ATOM     15  C   UNL     1      47.511  -5.420  72.280  1.00  0.00    -0.000 C 
BRANCH  15  16
ATOM     16  C   UNL     1      48.226  -6.733  72.619  1.00  0.00    -0.003 C 
ATOM     17  C   UNL     1      47.294  -7.929  72.447  1.00  0.00     0.004 C 
ENDBRANCH  15  16
ENDBRANCH  14  15
ENDBRANCH  13  14
ENDBRANCH  12  13
ENDBRANCH  11  12
ENDBRANCH  10  11
ENDBRANCH   1  10
TORSDOF 13
ENDMDL
MODEL 2
REMARK VINA RESULT:    -3.935      1.752      3.070
REMARK INTER + INTRA:          -8.619
REMARK INTER:                  -7.232
REMARK INTRA:                  -1.387
REMARK UNBOUND:                -1.693
REMARK SMILES CCCCCCCCCCCCCCC(=O)[O-]
REMARK SMILES IDX 9 1 10 2 11 3 12 4 13 5 14 6 15 7 16 8 17 9 8 10 7 11 6 12
REMARK SMILES IDX 5 13 4 14 3 15 2 16 1 17
REMARK H PARENT
REMARK Flexibility Score: inf
ROOT
ATOM      1  C   UNL     1      49.776  -1.268  71.690  1.00  0.00     0.000 C 
ENDROOT
BRANCH   1   2
ATOM      2  C   UNL     1      51.064  -1.299  72.531  1.00  0.00     0.000 C 
BRANCH   2   3
ATOM      3  C   UNL     1      52.184  -0.440  71.920  1.00  0.00     0.000 C 
BRANCH   3   4
ATOM      4  C   UNL     1      53.547  -1.154  71.935  1.00  0.00     0.000 C 
BRANCH   4   5
ATOM      5  C   UNL     1      53.687  -2.160  73.091  1.00  0.00     0.006 C 
BRANCH   5   6
ATOM      6  C   UNL     1      54.273  -3.520  72.671  1.00  0.00     0.053 C 
BRANCH   6   7
ATOM      7  C   UNL     1      54.006  -4.602  73.673  1.00  0.00     0.041 C 
ATOM      8  O   UNL     1      54.907  -5.429  73.972  1.00  0.00    -0.550 OA
ATOM      9  O   UNL     1      52.769  -4.677  74.301  1.00  0.00    -0.550 OA
ENDBRANCH   6   7
ENDBRANCH   5   6
ENDBRANCH   4   5
ENDBRANCH   3   4
ENDBRANCH   2   3
ENDBRANCH   1   2
BRANCH   1  10
ATOM     10  C   UNL     1      48.621  -0.534  72.394  1.00  0.00     0.000 C 
BRANCH  10  11
ATOM     11  C   UNL     1      48.983   0.098  73.754  1.00  0.00    -0.000 C 
BRANCH  11  12
ATOM     12  C   UNL     1      48.313  -0.558  74.977  1.00  0.00    -0.000 C 
BRANCH  12  13
ATOM     13  C   UNL     1      48.889  -1.931  75.379  1.00  0.00    -0.000 C 
BRANCH  13  14
ATOM     14  C   UNL     1      48.138  -3.144  74.803  1.00  0.00    -0.000 C 
BRANCH  14  15
ATOM     15  C   UNL     1      49.031  -4.043  73.936  1.00  0.00    -0.000 C 
BRANCH  15  16
ATOM     16  C   UNL     1      48.253  -4.595  72.736  1.00  0.00    -0.003 C 
ATOM     17  C   UNL     1      47.104  -5.491  73.188  1.00  0.00     0.004 C 
ENDBRANCH  15  16
ENDBRANCH  14  15
ENDBRANCH  13  14
ENDBRANCH  12  13
ENDBRANCH  11  12
ENDBRANCH  10  11
ENDBRANCH   1  10
TORSDOF 13
ENDMDL
MODEL 3
REMARK VINA RESULT:    -3.929      8.266      9.826
REMARK INTER + INTRA:          -8.608
REMARK INTER:                  -7.551
REMARK INTRA:                  -1.057
REMARK UNBOUND:                -1.693
REMARK SMILES CCCCCCCCCCCCCCC(=O)[O-]
REMARK SMILES IDX 9 1 10 2 11 3 12 4 13 5 14 6 15 7 16 8 17 9 8 10 7 11 6 12
REMARK SMILES IDX 5 13 4 14 3 15 2 16 1 17
REMARK H PARENT
REMARK Flexibility Score: inf
ROOT
ATOM      1  C   UNL     1      47.242  -0.838  82.664  1.00  0.00     0.000 C 
ENDROOT
BRANCH   1   2
ATOM      2  C   UNL     1      46.997  -1.404  81.254  1.00  0.00     0.000 C 
BRANCH   2   3
ATOM      3  C   UNL     1      47.624  -2.795  81.064  1.00  0.00     0.000 C 
BRANCH   3   4
ATOM      4  C   UNL     1      48.269  -2.964  79.677  1.00  0.00     0.000 C 
BRANCH   4   5
ATOM      5  C   UNL     1      49.369  -1.926  79.394  1.00  0.00     0.006 C 
BRANCH   5   6
ATOM      6  C   UNL     1      50.581  -2.024  80.337  1.00  0.00     0.053 C 
BRANCH   6   7
ATOM      7  C   UNL     1      51.670  -2.898  79.794  1.00  0.00     0.041 C 
ATOM      8  O   UNL     1      51.611  -3.328  78.613  1.00  0.00    -0.550 OA
ATOM      9  O   UNL     1      52.769  -3.212  80.586  1.00  0.00    -0.550 OA
ENDBRANCH   6   7
ENDBRANCH   5   6
ENDBRANCH   4   5
ENDBRANCH   3   4
ENDBRANCH   2   3
ENDBRANCH   1   2
BRANCH   1  10
ATOM     10  C   UNL     1      47.663  -1.918  83.676  1.00  0.00     0.000 C 
BRANCH  10  11
ATOM     11  C   UNL     1      46.758  -2.035  84.919  1.00  0.00    -0.000 C 
BRANCH  11  12
ATOM     12  C   UNL     1      45.694  -3.148  84.850  1.00  0.00    -0.000 C 
BRANCH  12  13
ATOM     13  C   UNL     1      45.943  -4.223  83.772  1.00  0.00    -0.000 C 
BRANCH  13  14
ATOM     14  C   UNL     1      44.974  -5.419  83.812  1.00  0.00    -0.000 C 
BRANCH  14  15
ATOM     15  C   UNL     1      43.704  -5.130  84.625  1.00  0.00    -0.000 C 
BRANCH  15  16
ATOM     16  C   UNL     1      42.700  -6.282  84.502  1.00  0.00    -0.003 C 
ATOM     17  C   UNL     1      43.049  -7.422  85.456  1.00  0.00     0.004 C 
ENDBRANCH  15  16
ENDBRANCH  14  15
ENDBRANCH  13  14
ENDBRANCH  12  13
ENDBRANCH  11  12
ENDBRANCH  10  11
ENDBRANCH   1  10
TORSDOF 13
ENDMDL
MODEL 4
REMARK VINA RESULT:    -3.919      3.152      6.349
REMARK INTER + INTRA:          -8.591
REMARK INTER:                  -6.833
REMARK INTRA:                  -1.758
REMARK UNBOUND:                -1.693
REMARK SMILES CCCCCCCCCCCCCCC(=O)[O-]
REMARK SMILES IDX 9 1 10 2 11 3 12 4 13 5 14 6 15 7 16 8 17 9 8 10 7 11 6 12
REMARK SMILES IDX 5 13 4 14 3 15 2 16 1 17
REMARK H PARENT
REMARK Flexibility Score: inf
ROOT
ATOM      1  C   UNL     1      50.414  -3.908  74.222  1.00  0.00     0.000 C 
ENDROOT
BRANCH   1   2
ATOM      2  C   UNL     1      49.882  -4.357  72.850  1.00  0.00     0.000 C 
BRANCH   2   3
ATOM      3  C   UNL     1      48.352  -4.241  72.747  1.00  0.00     0.000 C 
BRANCH   3   4
ATOM      4  C   UNL     1      47.625  -5.377  73.487  1.00  0.00     0.000 C 
BRANCH   4   5
ATOM      5  C   UNL     1      46.667  -6.170  72.580  1.00  0.00     0.006 C 
BRANCH   5   6
ATOM      6  C   UNL     1      46.771  -7.697  72.744  1.00  0.00     0.053 C 
BRANCH   6   7
ATOM      7  C   UNL     1      47.458  -8.359  71.589  1.00  0.00     0.041 C 
ATOM      8  O   UNL     1      48.716  -8.397  71.533  1.00  0.00    -0.550 OA
ATOM      9  O   UNL     1      46.708  -8.965  70.588  1.00  0.00    -0.550 OA
ENDBRANCH   6   7
ENDBRANCH   5   6
ENDBRANCH   4   5
ENDBRANCH   3   4
ENDBRANCH   2   3
ENDBRANCH   1   2
BRANCH   1  10
ATOM     10  C   UNL     1      51.551  -2.876  74.112  1.00  0.00     0.000 C 
BRANCH  10  11
ATOM     11  C   UNL     1      52.139  -2.701  72.697  1.00  0.00    -0.000 C 
BRANCH  11  12
ATOM     12  C   UNL     1      52.435  -1.244  72.290  1.00  0.00    -0.000 C 
BRANCH  12  13
ATOM     13  C   UNL     1      51.206  -0.314  72.247  1.00  0.00    -0.000 C 
BRANCH  13  14
ATOM     14  C   UNL     1      49.972  -0.901  71.537  1.00  0.00    -0.000 C 
BRANCH  14  15
ATOM     15  C   UNL     1      48.665  -0.636  72.296  1.00  0.00    -0.000 C 
BRANCH  15  16
ATOM     16  C   UNL     1      48.938   0.079  73.624  1.00  0.00    -0.003 C 
ATOM     17  C   UNL     1      48.456  -0.756  74.808  1.00  0.00     0.004 C 
ENDBRANCH  15  16
ENDBRANCH  14  15
ENDBRANCH  13  14
ENDBRANCH  12  13
ENDBRANCH  11  12
ENDBRANCH  10  11
ENDBRANCH   1  10
TORSDOF 13
ENDMDL
MODEL 5
REMARK VINA RESULT:    -3.899      2.636      4.369
REMARK INTER + INTRA:          -8.554
REMARK INTER:                  -6.246
REMARK INTRA:                  -2.308
REMARK UNBOUND:                -1.693
REMARK SMILES CCCCCCCCCCCCCCC(=O)[O-]
REMARK SMILES IDX 9 1 10 2 11 3 12 4 13 5 14 6 15 7 16 8 17 9 8 10 7 11 6 12
REMARK SMILES IDX 5 13 4 14 3 15 2 16 1 17
REMARK H PARENT
REMARK Flexibility Score: inf
ROOT
ATOM      1  C   UNL     1      50.061  -1.162  71.580  1.00  0.00     0.000 C 
ENDROOT
BRANCH   1   2
ATOM      2  C   UNL     1      48.695  -0.903  72.239  1.00  0.00     0.000 C 
BRANCH   2   3
ATOM      3  C   UNL     1      48.828  -0.283  73.640  1.00  0.00     0.000 C 
BRANCH   3   4
ATOM      4  C   UNL     1      48.466  -1.275  74.759  1.00  0.00     0.000 C 
BRANCH   4   5
ATOM      5  C   UNL     1      49.339  -1.111  76.016  1.00  0.00     0.006 C 
BRANCH   5   6
ATOM      6  C   UNL     1      49.388  -2.361  76.913  1.00  0.00     0.053 C 
BRANCH   6   7
ATOM      7  C   UNL     1      50.735  -2.577  77.534  1.00  0.00     0.041 C 
ATOM      8  O   UNL     1      51.497  -1.600  77.756  1.00  0.00    -0.550 OA
ATOM      9  O   UNL     1      51.135  -3.857  77.898  1.00  0.00    -0.550 OA
ENDBRANCH   6   7
ENDBRANCH   5   6
ENDBRANCH   4   5
ENDBRANCH   3   4
ENDBRANCH   2   3
ENDBRANCH   1   2
BRANCH   1  10
ATOM     10  C   UNL     1      51.209  -0.399  72.264  1.00  0.00     0.000 C 
BRANCH  10  11
ATOM     11  C   UNL     1      52.577  -1.110  72.231  1.00  0.00    -0.000 C 
BRANCH  11  12
ATOM     12  C   UNL     1      52.545  -2.604  72.609  1.00  0.00    -0.000 C 
BRANCH  12  13
ATOM     13  C   UNL     1      51.917  -2.917  73.982  1.00  0.00    -0.000 C 
BRANCH  13  14
ATOM     14  C   UNL     1      51.562  -4.398  74.211  1.00  0.00    -0.000 C 
BRANCH  14  15
ATOM     15  C   UNL     1      50.050  -4.660  74.186  1.00  0.00    -0.000 C 
BRANCH  15  16
ATOM     16  C   UNL     1      49.502  -4.570  72.757  1.00  0.00    -0.003 C 
ATOM     17  C   UNL     1      47.978  -4.475  72.756  1.00  0.00     0.004 C 
ENDBRANCH  15  16
ENDBRANCH  14  15
ENDBRANCH  13  14
ENDBRANCH  12  13
ENDBRANCH  11  12
ENDBRANCH  10  11
ENDBRANCH   1  10
TORSDOF 13
ENDMDL
MODEL 6
REMARK VINA RESULT:    -3.895      4.082      6.809
REMARK INTER + INTRA:          -8.548
REMARK INTER:                  -6.665
REMARK INTRA:                  -1.883
REMARK UNBOUND:                -1.693
REMARK SMILES CCCCCCCCCCCCCCC(=O)[O-]
REMARK SMILES IDX 9 1 10 2 11 3 12 4 13 5 14 6 15 7 16 8 17 9 8 10 7 11 6 12
REMARK SMILES IDX 5 13 4 14 3 15 2 16 1 17
REMARK H PARENT
REMARK Flexibility Score: inf
ROOT
ATOM      1  C   UNL     1      50.556  -3.624  74.367  1.00  0.00     0.000 C 
ENDROOT
BRANCH   1   2
ATOM      2  C   UNL     1      50.301  -4.436  73.086  1.00  0.00     0.000 C 
BRANCH   2   3
ATOM      3  C   UNL     1      48.830  -4.387  72.643  1.00  0.00     0.000 C 
BRANCH   3   4
ATOM      4  C   UNL     1      47.870  -4.127  73.817  1.00  0.00     0.000 C 
BRANCH   4   5
ATOM      5  C   UNL     1      46.803  -5.225  73.977  1.00  0.00     0.006 C 
BRANCH   5   6
ATOM      6  C   UNL     1      45.758  -4.929  75.067  1.00  0.00     0.053 C 
BRANCH   6   7
ATOM      7  C   UNL     1      44.519  -5.760  74.925  1.00  0.00     0.041 C 
ATOM      8  O   UNL     1      43.590  -5.393  74.159  1.00  0.00    -0.550 OA
ATOM      9  O   UNL     1      44.405  -6.961  75.616  1.00  0.00    -0.550 OA
ENDBRANCH   6   7
ENDBRANCH   5   6
ENDBRANCH   4   5
ENDBRANCH   3   4
ENDBRANCH   2   3
ENDBRANCH   1   2
BRANCH   1  10
ATOM     10  C   UNL     1      51.556  -2.473  74.155  1.00  0.00     0.000 C 
BRANCH  10  11
ATOM     11  C   UNL     1      51.829  -2.109  72.682  1.00  0.00    -0.000 C 
BRANCH  11  12
ATOM     12  C   UNL     1      51.143  -0.819  72.191  1.00  0.00    -0.000 C 
BRANCH  12  13
ATOM     13  C   UNL     1      49.709  -1.004  71.654  1.00  0.00    -0.000 C 
BRANCH  13  14
ATOM     14  C   UNL     1      48.595  -0.532  72.605  1.00  0.00    -0.000 C 
BRANCH  14  15
ATOM     15  C   UNL     1      48.948   0.769  73.340  1.00  0.00    -0.000 C 
BRANCH  15  16
ATOM     16  C   UNL     1      48.618   0.663  74.833  1.00  0.00    -0.003 C 
ATOM     17  C   UNL     1      48.348  -0.784  75.237  1.00  0.00     0.004 C 
ENDBRANCH  15  16
ENDBRANCH  14  15
ENDBRANCH  13  14
ENDBRANCH  12  13
ENDBRANCH  11  12
ENDBRANCH  10  11
ENDBRANCH   1  10
TORSDOF 13
ENDMDL
MODEL 7
REMARK VINA RESULT:    -3.893      1.316      2.176
REMARK INTER + INTRA:          -8.545
REMARK INTER:                  -6.463
REMARK INTRA:                  -2.082
REMARK UNBOUND:                -1.693
REMARK SMILES CCCCCCCCCCCCCCC(=O)[O-]
REMARK SMILES IDX 9 1 10 2 11 3 12 4 13 5 14 6 15 7 16 8 17 9 8 10 7 11 6 12
REMARK SMILES IDX 5 13 4 14 3 15 2 16 1 17
REMARK H PARENT
REMARK Flexibility Score: inf
ROOT
ATOM      1  C   UNL     1      49.444  -2.148  75.528  1.00  0.00     0.000 C 
ENDROOT
BRANCH   1   2
ATOM      2  C   UNL     1      48.422  -1.125  75.005  1.00  0.00     0.000 C 
BRANCH   2   3
ATOM      3  C   UNL     1      49.000  -0.234  73.893  1.00  0.00     0.000 C 
BRANCH   3   4
ATOM      4  C   UNL     1      48.708  -0.784  72.487  1.00  0.00     0.000 C 
BRANCH   4   5
ATOM      5  C   UNL     1      49.984  -1.057  71.670  1.00  0.00     0.006 C 
BRANCH   5   6
ATOM      6  C   UNL     1      51.244  -0.372  72.229  1.00  0.00     0.053 C 
BRANCH   6   7
ATOM      7  C   UNL     1      52.439  -1.276  72.244  1.00  0.00     0.041 C 
ATOM      8  O   UNL     1      53.511  -0.923  71.687  1.00  0.00    -0.550 OA
ATOM      9  O   UNL     1      52.377  -2.498  72.904  1.00  0.00    -0.550 OA
ENDBRANCH   6   7
ENDBRANCH   5   6
ENDBRANCH   4   5
ENDBRANCH   3   4
ENDBRANCH   2   3
ENDBRANCH   1   2
BRANCH   1  10
ATOM     10  C   UNL     1      48.781  -3.377  76.177  1.00  0.00     0.000 C 
BRANCH  10  11
ATOM     11  C   UNL     1      49.650  -4.650  76.204  1.00  0.00    -0.000 C 
BRANCH  11  12
ATOM     12  C   UNL     1      50.573  -4.836  74.983  1.00  0.00    -0.000 C 
BRANCH  12  13
ATOM     13  C   UNL     1      49.928  -5.553  73.779  1.00  0.00    -0.000 C 
BRANCH  13  14
ATOM     14  C   UNL     1      49.458  -4.623  72.646  1.00  0.00    -0.000 C 
BRANCH  14  15
ATOM     15  C   UNL     1      47.956  -4.313  72.712  1.00  0.00    -0.000 C 
BRANCH  15  16
ATOM     16  C   UNL     1      47.152  -5.573  73.053  1.00  0.00    -0.003 C 
ATOM     17  C   UNL     1      46.225  -5.331  74.241  1.00  0.00     0.004 C 
ENDBRANCH  15  16
ENDBRANCH  14  15
ENDBRANCH  13  14
ENDBRANCH  12  13
ENDBRANCH  11  12
ENDBRANCH  10  11
ENDBRANCH   1  10
TORSDOF 13
ENDMDL
MODEL 8
REMARK VINA RESULT:    -3.735      3.558      5.755
REMARK INTER + INTRA:          -8.266
REMARK INTER:                  -6.368
REMARK INTRA:                  -1.898
REMARK UNBOUND:                -1.693
REMARK SMILES CCCCCCCCCCCCCCC(=O)[O-]
REMARK SMILES IDX 9 1 10 2 11 3 12 4 13 5 14 6 15 7 16 8 17 9 8 10 7 11 6 12
REMARK SMILES IDX 5 13 4 14 3 15 2 16 1 17
REMARK H PARENT
REMARK Flexibility Score: inf
ROOT
ATOM      1  C   UNL     1      51.971  -4.199  74.026  1.00  0.00     0.000 C 
ENDROOT
BRANCH   1   2
ATOM      2  C   UNL     1      51.291  -4.679  75.319  1.00  0.00     0.000 C 
BRANCH   2   3
ATOM      3  C   UNL     1      50.962  -3.519  76.274  1.00  0.00     0.000 C 
BRANCH   3   4
ATOM      4  C   UNL     1      49.770  -3.835  77.194  1.00  0.00     0.000 C 
BRANCH   4   5
ATOM      5  C   UNL     1      50.179  -4.587  78.474  1.00  0.00     0.006 C 
BRANCH   5   6
ATOM      6  C   UNL     1      51.619  -4.300  78.935  1.00  0.00     0.053 C 
BRANCH   6   7
ATOM      7  C   UNL     1      52.478  -5.528  78.951  1.00  0.00     0.041 C 
ATOM      8  O   UNL     1      53.502  -5.579  79.682  1.00  0.00    -0.550 OA
ATOM      9  O   UNL     1      52.130  -6.630  78.179  1.00  0.00    -0.550 OA
ENDBRANCH   6   7
ENDBRANCH   5   6
ENDBRANCH   4   5
ENDBRANCH   3   4
ENDBRANCH   2   3
ENDBRANCH   1   2
BRANCH   1  10
ATOM     10  C   UNL     1      52.298  -2.695  74.045  1.00  0.00     0.000 C 
BRANCH  10  11
ATOM     11  C   UNL     1      52.447  -2.041  72.657  1.00  0.00    -0.000 C 
BRANCH  11  12
ATOM     12  C   UNL     1      51.504  -0.852  72.390  1.00  0.00    -0.000 C 
BRANCH  12  13
ATOM     13  C   UNL     1      50.091  -1.234  71.905  1.00  0.00    -0.000 C 
BRANCH  13  14
ATOM     14  C   UNL     1      48.972  -1.035  72.944  1.00  0.00    -0.000 C 
BRANCH  14  15
ATOM     15  C   UNL     1      48.614  -2.329  73.689  1.00  0.00    -0.000 C 
BRANCH  15  16
ATOM     16  C   UNL     1      48.586  -3.524  72.730  1.00  0.00    -0.003 C 
ATOM     17  C   UNL     1      48.060  -4.777  73.425  1.00  0.00     0.004 C 
ENDBRANCH  15  16
ENDBRANCH  14  15
ENDBRANCH  13  14
ENDBRANCH  12  13
ENDBRANCH  11  12
ENDBRANCH  10  11
ENDBRANCH   1  10
TORSDOF 13
ENDMDL
MODEL 9
REMARK VINA RESULT:    -3.691      2.535      4.191
REMARK INTER + INTRA:          -8.189
REMARK INTER:                  -6.380
REMARK INTRA:                  -1.810
REMARK UNBOUND:                -1.693
REMARK SMILES CCCCCCCCCCCCCCC(=O)[O-]
REMARK SMILES IDX 9 1 10 2 11 3 12 4 13 5 14 6 15 7 16 8 17 9 8 10 7 11 6 12
REMARK SMILES IDX 5 13 4 14 3 15 2 16 1 17
REMARK H PARENT
REMARK Flexibility Score: inf
ROOT
ATOM      1  C   UNL     1      47.246  -4.064  75.703  1.00  0.00     0.000 C 
ENDROOT
BRANCH   1   2
ATOM      2  C   UNL     1      47.799  -4.919  74.550  1.00  0.00     0.000 C 
BRANCH   2   3
ATOM      3  C   UNL     1      48.237  -4.069  73.346  1.00  0.00     0.000 C 
BRANCH   3   4
ATOM      4  C   UNL     1      49.756  -4.122  73.109  1.00  0.00     0.000 C 
BRANCH   4   5
ATOM      5  C   UNL     1      50.289  -2.901  72.338  1.00  0.00     0.006 C 
BRANCH   5   6
ATOM      6  C   UNL     1      51.769  -2.583  72.615  1.00  0.00     0.053 C 
BRANCH   6   7
ATOM      7  C   UNL     1      52.154  -1.198  72.190  1.00  0.00     0.041 C 
ATOM      8  O   UNL     1      53.326  -0.955  71.800  1.00  0.00    -0.550 OA
ATOM      9  O   UNL     1      51.207  -0.181  72.196  1.00  0.00    -0.550 OA
ENDBRANCH   6   7
ENDBRANCH   5   6
ENDBRANCH   4   5
ENDBRANCH   3   4
ENDBRANCH   2   3
ENDBRANCH   1   2
BRANCH   1  10
ATOM     10  C   UNL     1      47.741  -2.608  75.656  1.00  0.00     0.000 C 
BRANCH  10  11
ATOM     11  C   UNL     1      48.736  -2.220  76.769  1.00  0.00    -0.000 C 
BRANCH  11  12
ATOM     12  C   UNL     1      50.224  -2.389  76.403  1.00  0.00    -0.000 C 
BRANCH  12  13
ATOM     13  C   UNL     1      50.853  -3.731  76.828  1.00  0.00    -0.000 C 
BRANCH  13  14
ATOM     14  C   UNL     1      50.548  -4.162  78.274  1.00  0.00    -0.000 C 
BRANCH  14  15
ATOM     15  C   UNL     1      50.678  -5.677  78.485  1.00  0.00    -0.000 C 
BRANCH  15  16
ATOM     16  C   UNL     1      49.304  -6.318  78.715  1.00  0.00    -0.003 C 
ATOM     17  C   UNL     1      48.259  -5.268  79.079  1.00  0.00     0.004 C 
ENDBRANCH  15  16
ENDBRANCH  14  15
ENDBRANCH  13  14
ENDBRANCH  12  13
ENDBRANCH  11  12
ENDBRANCH  10  11
ENDBRANCH   1  10
TORSDOF 13
ENDMDL
