MODEL 1
REMARK VINA RESULT:    12.387      0.000      0.000
REMARK INTER + INTRA:          16.845
REMARK INTER:                  17.456
REMARK INTRA:                  -0.610
REMARK UNBOUND:                -0.610
REMARK SMILES O=C(C=Cc1ccc(O)cc1)CC(=O)C=Cc1ccc(O)cc1
REMARK SMILES IDX 12 1 2 2 1 3 3 4 4 5 5 6 6 7 7 8 8 9 11 10 10 11 9 12 13 14
REMARK SMILES IDX 14 15 15 16 16 17 17 18 18 19 23 20 19 21 22 22 20 23 21 24
REMARK H PARENT 9 13 21 25
REMARK Flexibility Score: inf
ROOT
ATOM      1  C   UNL     1      -5.759   6.987  17.377  1.00  0.00     0.160 C 
ENDROOT
BRANCH   1   2
ATOM      2  C   UNL     1      -5.586   8.430  16.965  1.00  0.00     0.163 C 
ATOM      3  O   UNL     1      -4.433   8.884  16.722  1.00  0.00    -0.294 OA
BRANCH   2   4
ATOM      4  C   UNL     1      -6.735   9.353  16.840  1.00  0.00     0.048 C 
ATOM      5  C   UNL     1      -7.275  10.003  17.882  1.00  0.00     0.012 C 
BRANCH   5   6
ATOM      6  C   UNL     1      -8.420  10.939  17.760  1.00  0.00    -0.025 A 
ATOM      7  C   UNL     1      -8.252  12.311  17.482  1.00  0.00     0.012 A 
ATOM      8  C   UNL     1      -9.365  13.150  17.364  1.00  0.00     0.047 A 
ATOM      9  C   UNL     1     -10.656  12.635  17.510  1.00  0.00     0.115 A 
ATOM     10  C   UNL     1      -9.724  10.428  17.889  1.00  0.00     0.012 A 
ATOM     11  C   UNL     1     -10.833  11.270  17.770  1.00  0.00     0.047 A 
BRANCH   9  12
ATOM     12  O   UNL     1     -11.754  13.483  17.390  1.00  0.00    -0.508 OA
ATOM     13  H   UNL     1     -11.825  14.336  17.932  1.00  0.00     0.293 HD
ENDBRANCH   9  12
ENDBRANCH   5   6
ENDBRANCH   2   4
ENDBRANCH   1   2
BRANCH   1  14
ATOM     14  C   UNL     1      -6.412   6.158  16.305  1.00  0.00     0.163 C 
ATOM     15  O   UNL     1      -6.349   6.544  15.107  1.00  0.00    -0.294 OA
BRANCH  14  16
ATOM     16  C   UNL     1      -7.136   4.919  16.672  1.00  0.00     0.048 C 
ATOM     17  C   UNL     1      -6.928   3.707  16.137  1.00  0.00     0.012 C 
BRANCH  17  18
ATOM     18  C   UNL     1      -5.825   3.352  15.221  1.00  0.00    -0.025 A 
ATOM     19  C   UNL     1      -4.524   3.226  15.729  1.00  0.00     0.012 A 
ATOM     20  C   UNL     1      -6.036   3.239  13.835  1.00  0.00     0.012 A 
ATOM     21  C   UNL     1      -3.456   2.937  14.872  1.00  0.00     0.047 A 
ATOM     22  C   UNL     1      -4.967   2.950  12.981  1.00  0.00     0.047 A 
ATOM     23  C   UNL     1      -3.675   2.796  13.498  1.00  0.00     0.115 A 
BRANCH  23  24
ATOM     24  O   UNL     1      -2.603   2.508  12.657  1.00  0.00    -0.508 OA
ATOM     25  H   UNL     1      -2.731   2.386  11.659  1.00  0.00     0.293 HD
ENDBRANCH  23  24
ENDBRANCH  17  18
ENDBRANCH  14  16
ENDBRANCH   1  14
TORSDOF 8
ENDMDL
MODEL 2
REMARK VINA RESULT:    12.666      1.314      1.619
REMARK INTER + INTRA:          17.239
REMARK INTER:                  17.623
REMARK INTRA:                  -0.383
REMARK UNBOUND:                -0.610
REMARK SMILES O=C(C=Cc1ccc(O)cc1)CC(=O)C=Cc1ccc(O)cc1
REMARK SMILES IDX 12 1 2 2 1 3 3 4 4 5 5 6 6 7 7 8 8 9 11 10 10 11 9 12 13 14
REMARK SMILES IDX 14 15 15 16 16 17 17 18 18 19 23 20 19 21 22 22 20 23 21 24
REMARK H PARENT 9 13 21 25
REMARK Flexibility Score: inf
ROOT
ATOM      1  C   UNL     1      -6.002   6.520  16.471  1.00  0.00     0.160 C 
ENDROOT
BRANCH   1   2
ATOM      2  C   UNL     1      -5.767   7.886  17.071  1.00  0.00     0.163 C 
ATOM      3  O   UNL     1      -4.703   8.122  17.707  1.00  0.00    -0.294 OA
BRANCH   2   4
ATOM      4  C   UNL     1      -6.757   8.978  16.945  1.00  0.00     0.048 C 
ATOM      5  C   UNL     1      -7.444   9.473  17.987  1.00  0.00     0.012 C 
BRANCH   5   6
ATOM      6  C   UNL     1      -8.430  10.576  17.869  1.00  0.00    -0.025 A 
ATOM      7  C   UNL     1      -8.049  11.910  17.623  1.00  0.00     0.012 A 
ATOM      8  C   UNL     1      -9.017  12.913  17.506  1.00  0.00     0.047 A 
ATOM      9  C   UNL     1     -10.374  12.600  17.623  1.00  0.00     0.115 A 
ATOM     10  C   UNL     1      -9.799  10.269  17.968  1.00  0.00     0.012 A 
ATOM     11  C   UNL     1     -10.763  11.274  17.852  1.00  0.00     0.047 A 
BRANCH   9  12
ATOM     12  O   UNL     1     -11.326  13.609  17.506  1.00  0.00    -0.508 OA
ATOM     13  H   UNL     1     -12.050  13.575  16.798  1.00  0.00     0.293 HD
ENDBRANCH   9  12
ENDBRANCH   5   6
ENDBRANCH   2   4
ENDBRANCH   1   2
BRANCH   1  14
ATOM     14  C   UNL     1      -6.565   6.592  15.078  1.00  0.00     0.163 C 
ATOM     15  O   UNL     1      -6.161   7.497  14.300  1.00  0.00    -0.294 OA
BRANCH  14  16
ATOM     16  C   UNL     1      -7.597   5.620  14.651  1.00  0.00     0.048 C 
ATOM     17  C   UNL     1      -7.443   4.288  14.604  1.00  0.00     0.012 C 
BRANCH  17  18
ATOM     18  C   UNL     1      -6.286   3.540  15.139  1.00  0.00    -0.025 A 
ATOM     19  C   UNL     1      -6.361   2.985  16.424  1.00  0.00     0.012 A 
ATOM     20  C   UNL     1      -5.077   3.463  14.425  1.00  0.00     0.012 A 
ATOM     21  C   UNL     1      -5.261   2.313  16.969  1.00  0.00     0.047 A 
ATOM     22  C   UNL     1      -3.978   2.792  14.971  1.00  0.00     0.047 A 
ATOM     23  C   UNL     1      -4.069   2.213  16.244  1.00  0.00     0.115 A 
BRANCH  23  24
ATOM     24  O   UNL     1      -2.982   1.541  16.798  1.00  0.00    -0.508 OA
ATOM     25  H   UNL     1      -2.559   1.845  17.667  1.00  0.00     0.293 HD
ENDBRANCH  23  24
ENDBRANCH  17  18
ENDBRANCH  14  16
ENDBRANCH   1  14
TORSDOF 8
ENDMDL
