MODEL 1
REMARK VINA RESULT:    -2.935      0.000      0.000
REMARK INTER + INTRA:          -3.440
REMARK INTER:                  -3.193
REMARK INTRA:                  -0.247
REMARK UNBOUND:                -0.247
REMARK SMILES CC1(C)CC[C@@]2(C(=O)[O-])CC[C@]3(C)C(=CC[C@@H]4[C@@]5(C)CC[C@H](O)C(C)(C)[C@@H]5CC[C@@]43C)[C@H]2C1
REMARK SMILES IDX 6 1 5 2 10 3 32 4 4 5 11 6 14 7 33 8 2 9 12 10 15 11 1 12
REMARK SMILES IDX 3 13 13 14 30 15 16 16 17 17 29 18 31 19 18 20 28 21 27 22
REMARK SMILES IDX 20 23 19 24 24 25 21 26 22 27 25 28 26 29 7 30 8 31 9 32
REMARK SMILES IDX 23 33
REMARK H PARENT 23 34
REMARK Flexibility Score: inf
ROOT
ATOM      1  C   UNL     1      -0.826 -33.439 -12.248  1.00  0.00     0.017 C 
ATOM      2  C   UNL     1      -1.242 -32.453 -11.113  1.00  0.00     0.014 C 
ATOM      3  C   UNL     1      -2.074 -34.215 -12.791  1.00  0.00     0.014 C 
ATOM      4  C   UNL     1      -0.101 -32.665 -13.389  1.00  0.00     0.028 C 
ATOM      5  C   UNL     1      -1.980 -31.194 -11.598  1.00  0.00     0.007 C 
ATOM      6  C   UNL     1      -2.125 -34.484 -14.318  1.00  0.00     0.013 C 
ATOM      7  C   UNL     1       0.198 -33.563 -14.593  1.00  0.00    -0.064 C 
ATOM      8  C   UNL     1      -0.863 -31.397 -13.849  1.00  0.00     0.015 C 
ATOM      9  C   UNL     1      -1.210 -30.425 -12.696  1.00  0.00    -0.035 C 
ATOM     10  C   UNL     1      -0.746 -34.674 -15.042  1.00  0.00    -0.006 C 
ATOM     11  C   UNL     1       1.307 -33.312 -15.296  1.00  0.00    -0.027 C 
ATOM     12  C   UNL     1      -2.125 -29.310 -13.250  1.00  0.00     0.011 C 
ATOM     13  C   UNL     1       0.062 -29.753 -12.124  1.00  0.00     0.011 C 
ATOM     14  C   UNL     1      -0.142 -36.028 -14.558  1.00  0.00     0.017 C 
ATOM     15  C   UNL     1      -0.884 -34.653 -16.657  1.00  0.00    -0.020 C 
ATOM     16  C   UNL     1       1.613 -33.900 -16.640  1.00  0.00     0.032 C 
ATOM     17  C   UNL     1       0.545 -34.832 -17.336  1.00  0.00     0.006 C 
ATOM     18  C   UNL     1      -1.501 -33.280 -17.156  1.00  0.00     0.008 C 
ATOM     19  C   UNL     1      -1.821 -35.850 -17.070  1.00  0.00     0.012 C 
ATOM     20  C   UNL     1       0.574 -34.723 -18.960  1.00  0.00    -0.025 C 
ATOM     21  C   UNL     1      -0.949 -32.718 -18.499  1.00  0.00     0.005 C 
ATOM     22  C   UNL     1      -0.642 -33.868 -19.471  1.00  0.00     0.003 C 
ATOM     23  C   UNL     1       0.425 -36.119 -19.633  1.00  0.00     0.010 C 
ATOM     24  C   UNL     1       1.962 -34.158 -19.429  1.00  0.00     0.012 C 
ATOM     25  C   UNL     1      -0.754 -33.638 -21.027  1.00  0.00    -0.006 C 
ATOM     26  C   UNL     1       0.312 -36.051 -21.181  1.00  0.00     0.033 C 
ATOM     27  C   UNL     1      -0.749 -35.057 -21.714  1.00  0.00     0.120 C 
ATOM     28  C   UNL     1      -2.122 -32.974 -21.359  1.00  0.00     0.014 C 
ATOM     29  C   UNL     1       0.341 -32.705 -21.605  1.00  0.00     0.014 C 
ENDROOT
BRANCH   1  30
ATOM     30  C   UNL     1       0.129 -34.431 -11.583  1.00  0.00     0.048 C 
ATOM     31  O   UNL     1       1.353 -34.166 -11.428  1.00  0.00    -0.550 OA
ATOM     32  O   UNL     1      -0.359 -35.636 -11.088  1.00  0.00    -0.550 OA
ENDBRANCH   1  30
BRANCH  27  33
ATOM     33  O   UNL     1      -0.585 -34.933 -23.106  1.00  0.00    -0.393 OA
ATOM     34  H   UNL     1      -0.508 -33.966 -23.315  1.00  0.00     0.210 HD
ENDBRANCH  27  33
TORSDOF 2
ENDMDL
MODEL 2
REMARK VINA RESULT:    -2.432      1.848      8.400
REMARK INTER + INTRA:          -2.893
REMARK INTER:                  -2.645
REMARK INTRA:                  -0.248
REMARK UNBOUND:                -0.247
REMARK SMILES CC1(C)CC[C@@]2(C(=O)[O-])CC[C@]3(C)C(=CC[C@@H]4[C@@]5(C)CC[C@H](O)C(C)(C)[C@@H]5CC[C@@]43C)[C@H]2C1
REMARK SMILES IDX 6 1 5 2 10 3 32 4 4 5 11 6 14 7 33 8 2 9 12 10 15 11 1 12
REMARK SMILES IDX 3 13 13 14 30 15 16 16 17 17 29 18 31 19 18 20 28 21 27 22
REMARK SMILES IDX 20 23 19 24 24 25 21 26 22 27 25 28 26 29 7 30 8 31 9 32
REMARK SMILES IDX 23 33
REMARK H PARENT 23 34
REMARK Flexibility Score: inf
ROOT
ATOM      1  C   UNL     1       0.961 -33.961 -23.346  1.00  0.00     0.017 C 
ATOM      2  C   UNL     1       0.831 -33.057 -24.611  1.00  0.00     0.014 C 
ATOM      3  C   UNL     1       2.281 -33.635 -22.568  1.00  0.00     0.014 C 
ATOM      4  C   UNL     1      -0.291 -33.787 -22.435  1.00  0.00     0.028 C 
ATOM      5  C   UNL     1       0.454 -31.596 -24.317  1.00  0.00     0.007 C 
ATOM      6  C   UNL     1       2.209 -33.664 -21.019  1.00  0.00     0.013 C 
ATOM      7  C   UNL     1      -0.145 -34.541 -21.110  1.00  0.00    -0.064 C 
ATOM      8  C   UNL     1      -0.651 -32.305 -22.165  1.00  0.00     0.015 C 
ATOM      9  C   UNL     1      -0.819 -31.460 -23.451  1.00  0.00    -0.035 C 
ATOM     10  C   UNL     1       1.190 -34.674 -20.383  1.00  0.00    -0.006 C 
ATOM     11  C   UNL     1      -1.252 -35.048 -20.558  1.00  0.00    -0.027 C 
ATOM     12  C   UNL     1      -0.985 -29.978 -23.048  1.00  0.00     0.011 C 
ATOM     13  C   UNL     1      -2.083 -31.880 -24.240  1.00  0.00     0.011 C 
ATOM     14  C   UNL     1       1.727 -36.115 -20.648  1.00  0.00     0.017 C 
ATOM     15  C   UNL     1       0.975 -34.425 -18.797  1.00  0.00    -0.020 C 
ATOM     16  C   UNL     1      -1.342 -35.568 -19.155  1.00  0.00     0.032 C 
ATOM     17  C   UNL     1      -0.079 -35.465 -18.212  1.00  0.00     0.006 C 
ATOM     18  C   UNL     1       0.433 -32.961 -18.520  1.00  0.00     0.008 C 
ATOM     19  C   UNL     1       2.368 -34.630 -18.090  1.00  0.00     0.012 C 
ATOM     20  C   UNL     1      -0.477 -35.264 -16.646  1.00  0.00    -0.025 C 
ATOM     21  C   UNL     1      -0.592 -32.808 -17.357  1.00  0.00     0.005 C 
ATOM     22  C   UNL     1      -0.244 -33.772 -16.212  1.00  0.00     0.003 C 
ATOM     23  C   UNL     1       0.422 -36.125 -15.710  1.00  0.00     0.010 C 
ATOM     24  C   UNL     1      -1.950 -35.751 -16.406  1.00  0.00     0.012 C 
ATOM     25  C   UNL     1      -0.604 -33.393 -14.724  1.00  0.00    -0.006 C 
ATOM     26  C   UNL     1       0.171 -35.864 -14.199  1.00  0.00     0.033 C 
ATOM     27  C   UNL     1       0.195 -34.373 -13.783  1.00  0.00     0.120 C 
ATOM     28  C   UNL     1      -0.101 -31.952 -14.416  1.00  0.00     0.014 C 
ATOM     29  C   UNL     1      -2.125 -33.403 -14.424  1.00  0.00     0.014 C 
ENDROOT
BRANCH   1  30
ATOM     30  C   UNL     1       1.037 -35.390 -23.885  1.00  0.00     0.048 C 
ATOM     31  O   UNL     1      -0.002 -36.037 -24.188  1.00  0.00    -0.550 OA
ATOM     32  O   UNL     1       2.278 -35.984 -24.096  1.00  0.00    -0.550 OA
ENDBRANCH   1  30
BRANCH  27  33
ATOM     33  O   UNL     1      -0.267 -34.273 -12.457  1.00  0.00    -0.393 OA
ATOM     34  H   UNL     1       0.191 -34.974 -11.925  1.00  0.00     0.210 HD
ENDBRANCH  27  33
TORSDOF 2
ENDMDL
MODEL 3
REMARK VINA RESULT:    -2.254      8.361     12.852
REMARK INTER + INTRA:          -2.700
REMARK INTER:                  -2.452
REMARK INTRA:                  -0.248
REMARK UNBOUND:                -0.247
REMARK SMILES CC1(C)CC[C@@]2(C(=O)[O-])CC[C@]3(C)C(=CC[C@@H]4[C@@]5(C)CC[C@H](O)C(C)(C)[C@@H]5CC[C@@]43C)[C@H]2C1
REMARK SMILES IDX 6 1 5 2 10 3 32 4 4 5 11 6 14 7 33 8 2 9 12 10 15 11 1 12
REMARK SMILES IDX 3 13 13 14 30 15 16 16 17 17 29 18 31 19 18 20 28 21 27 22
REMARK SMILES IDX 20 23 19 24 24 25 21 26 22 27 25 28 26 29 7 30 8 31 9 32
REMARK SMILES IDX 23 33
REMARK H PARENT 23 34
REMARK Flexibility Score: inf
ROOT
ATOM      1  C   UNL     1      -0.824 -28.196  -9.623  1.00  0.00     0.017 C 
ATOM      2  C   UNL     1      -1.240 -29.403  -8.726  1.00  0.00     0.014 C 
ATOM      3  C   UNL     1      -2.073 -27.596 -10.354  1.00  0.00     0.014 C 
ATOM      4  C   UNL     1      -0.099 -27.117  -8.763  1.00  0.00     0.028 C 
ATOM      5  C   UNL     1      -1.976 -29.016  -7.433  1.00  0.00     0.007 C 
ATOM      6  C   UNL     1      -2.125 -26.053 -10.505  1.00  0.00     0.013 C 
ATOM      7  C   UNL     1       0.198 -25.848  -9.568  1.00  0.00    -0.064 C 
ATOM      8  C   UNL     1      -0.861 -26.756  -7.464  1.00  0.00     0.015 C 
ATOM      9  C   UNL     1      -1.207 -27.980  -6.583  1.00  0.00    -0.035 C 
ATOM     10  C   UNL     1      -0.746 -25.315 -10.640  1.00  0.00    -0.006 C 
ATOM     11  C   UNL     1       1.307 -25.165  -9.264  1.00  0.00    -0.027 C 
ATOM     12  C   UNL     1      -2.121 -27.513  -5.428  1.00  0.00     0.011 C 
ATOM     13  C   UNL     1       0.065 -28.601  -5.957  1.00  0.00     0.011 C 
ATOM     14  C   UNL     1      -0.143 -25.695 -12.028  1.00  0.00     0.017 C 
ATOM     15  C   UNL     1      -0.885 -23.707 -10.496  1.00  0.00    -0.020 C 
ATOM     16  C   UNL     1       1.612 -23.780  -9.748  1.00  0.00     0.032 C 
ATOM     17  C   UNL     1       0.543 -23.016 -10.624  1.00  0.00     0.006 C 
ATOM     18  C   UNL     1      -1.502 -23.315  -9.089  1.00  0.00     0.008 C 
ATOM     19  C   UNL     1      -1.823 -23.205 -11.658  1.00  0.00     0.012 C 
ATOM     20  C   UNL     1       0.572 -21.405 -10.390  1.00  0.00    -0.025 C 
ATOM     21  C   UNL     1      -0.950 -22.018  -8.426  1.00  0.00     0.005 C 
ATOM     22  C   UNL     1      -0.644 -20.961  -9.498  1.00  0.00     0.003 C 
ATOM     23  C   UNL     1       0.422 -20.627 -11.731  1.00  0.00     0.010 C 
ATOM     24  C   UNL     1       1.960 -20.980  -9.792  1.00  0.00     0.012 C 
ATOM     25  C   UNL     1      -0.756 -19.428  -9.150  1.00  0.00    -0.006 C 
ATOM     26  C   UNL     1       0.308 -19.089 -11.545  1.00  0.00     0.033 C 
ATOM     27  C   UNL     1      -0.753 -18.634 -10.512  1.00  0.00     0.120 C 
ATOM     28  C   UNL     1      -2.124 -19.148  -8.462  1.00  0.00     0.014 C 
ATOM     29  C   UNL     1       0.339 -18.922  -8.176  1.00  0.00     0.014 C 
ENDROOT
BRANCH   1  30
ATOM     30  C   UNL     1       0.130 -28.783 -10.663  1.00  0.00     0.048 C 
ATOM     31  O   UNL     1       1.351 -28.972 -10.405  1.00  0.00    -0.550 OA
ATOM     32  O   UNL     1      -0.355 -29.167 -11.909  1.00  0.00    -0.550 OA
ENDBRANCH   1  30
BRANCH  27  33
ATOM     33  O   UNL     1      -0.589 -17.255 -10.283  1.00  0.00    -0.393 OA
ATOM     34  H   UNL     1       0.139 -16.936 -10.877  1.00  0.00     0.210 HD
ENDBRANCH  27  33
TORSDOF 2
ENDMDL
MODEL 4
REMARK VINA RESULT:    -1.930      1.949      2.948
REMARK INTER + INTRA:          -2.347
REMARK INTER:                  -2.144
REMARK INTRA:                  -0.202
REMARK UNBOUND:                -0.247
REMARK SMILES CC1(C)CC[C@@]2(C(=O)[O-])CC[C@]3(C)C(=CC[C@@H]4[C@@]5(C)CC[C@H](O)C(C)(C)[C@@H]5CC[C@@]43C)[C@H]2C1
REMARK SMILES IDX 6 1 5 2 10 3 32 4 4 5 11 6 14 7 33 8 2 9 12 10 15 11 1 12
REMARK SMILES IDX 3 13 13 14 30 15 16 16 17 17 29 18 31 19 18 20 28 21 27 22
REMARK SMILES IDX 20 23 19 24 24 25 21 26 22 27 25 28 26 29 7 30 8 31 9 32
REMARK SMILES IDX 23 33
REMARK H PARENT 23 34
REMARK Flexibility Score: inf
ROOT
ATOM      1  C   UNL     1      -0.550 -33.563  -9.370  1.00  0.00     0.017 C 
ATOM      2  C   UNL     1      -0.745 -32.571  -8.182  1.00  0.00     0.014 C 
ATOM      3  C   UNL     1      -1.934 -34.081  -9.890  1.00  0.00     0.014 C 
ATOM      4  C   UNL     1       0.262 -32.877 -10.510  1.00  0.00     0.028 C 
ATOM      5  C   UNL     1      -1.263 -31.181  -8.588  1.00  0.00     0.007 C 
ATOM      6  C   UNL     1      -2.084 -34.268 -11.422  1.00  0.00     0.013 C 
ATOM      7  C   UNL     1       0.354 -33.760 -11.758  1.00  0.00    -0.064 C 
ATOM      8  C   UNL     1      -0.278 -31.476 -10.889  1.00  0.00     0.015 C 
ATOM      9  C   UNL     1      -0.407 -30.511  -9.686  1.00  0.00    -0.035 C 
ATOM     10  C   UNL     1      -0.786 -34.665 -12.210  1.00  0.00    -0.006 C 
ATOM     11  C   UNL     1       1.466 -33.677 -12.497  1.00  0.00    -0.027 C 
ATOM     12  C   UNL     1      -1.128 -29.229 -10.159  1.00  0.00     0.011 C 
ATOM     13  C   UNL     1       0.982 -30.099  -9.142  1.00  0.00     0.011 C 
ATOM     14  C   UNL     1      -0.417 -36.125 -11.803  1.00  0.00     0.017 C 
ATOM     15  C   UNL     1      -0.974 -34.547 -13.816  1.00  0.00    -0.020 C 
ATOM     16  C   UNL     1       1.616 -34.248 -13.874  1.00  0.00     0.032 C 
ATOM     17  C   UNL     1       0.376 -34.945 -14.560  1.00  0.00     0.006 C 
ATOM     18  C   UNL     1      -1.354 -33.067 -14.236  1.00  0.00     0.008 C 
ATOM     19  C   UNL     1      -2.122 -35.542 -14.234  1.00  0.00     0.012 C 
ATOM     20  C   UNL     1       0.369 -34.770 -16.179  1.00  0.00    -0.025 C 
ATOM     21  C   UNL     1      -0.757 -32.551 -15.579  1.00  0.00     0.005 C 
ATOM     22  C   UNL     1      -0.692 -33.692 -16.606  1.00  0.00     0.003 C 
ATOM     23  C   UNL     1      -0.049 -36.087 -16.898  1.00  0.00     0.010 C 
ATOM     24  C   UNL     1       1.818 -34.437 -16.683  1.00  0.00     0.012 C 
ATOM     25  C   UNL     1      -0.814 -33.377 -18.145  1.00  0.00    -0.006 C 
ATOM     26  C   UNL     1      -0.201 -35.930 -18.436  1.00  0.00     0.033 C 
ATOM     27  C   UNL     1      -1.086 -34.741 -18.885  1.00  0.00     0.120 C 
ATOM     28  C   UNL     1      -2.054 -32.467 -18.395  1.00  0.00     0.014 C 
ATOM     29  C   UNL     1       0.409 -32.626 -18.732  1.00  0.00     0.014 C 
ENDROOT
BRANCH   1  30
ATOM     30  C   UNL     1       0.236 -34.736  -8.784  1.00  0.00     0.048 C 
ATOM     31  O   UNL     1      -0.320 -35.837  -8.520  1.00  0.00    -0.550 OA
ATOM     32  O   UNL     1       1.607 -34.616  -8.577  1.00  0.00    -0.550 OA
ENDBRANCH   1  30
BRANCH  27  33
ATOM     33  O   UNL     1      -0.950 -34.586 -20.278  1.00  0.00    -0.393 OA
ATOM     34  H   UNL     1      -1.778 -34.932 -20.701  1.00  0.00     0.210 HD
ENDBRANCH  27  33
TORSDOF 2
ENDMDL
MODEL 5
REMARK VINA RESULT:     0.046      2.230      8.896
REMARK INTER + INTRA:          -0.197
REMARK INTER:                   0.036
REMARK INTRA:                  -0.233
REMARK UNBOUND:                -0.247
REMARK SMILES CC1(C)CC[C@@]2(C(=O)[O-])CC[C@]3(C)C(=CC[C@@H]4[C@@]5(C)CC[C@H](O)C(C)(C)[C@@H]5CC[C@@]43C)[C@H]2C1
REMARK SMILES IDX 6 1 5 2 10 3 32 4 4 5 11 6 14 7 33 8 2 9 12 10 15 11 1 12
REMARK SMILES IDX 3 13 13 14 30 15 16 16 17 17 29 18 31 19 18 20 28 21 27 22
REMARK SMILES IDX 20 23 19 24 24 25 21 26 22 27 25 28 26 29 7 30 8 31 9 32
REMARK SMILES IDX 23 33
REMARK H PARENT 23 34
REMARK Flexibility Score: inf
ROOT
ATOM      1  C   UNL     1       0.403 -34.146 -23.835  1.00  0.00     0.017 C 
ATOM      2  C   UNL     1       1.324 -34.608 -25.006  1.00  0.00     0.014 C 
ATOM      3  C   UNL     1      -0.529 -35.316 -23.370  1.00  0.00     0.014 C 
ATOM      4  C   UNL     1       1.269 -33.610 -22.655  1.00  0.00     0.028 C 
ATOM      5  C   UNL     1       2.476 -35.537 -24.586  1.00  0.00     0.007 C 
ATOM      6  C   UNL     1      -0.800 -35.437 -21.848  1.00  0.00     0.013 C 
ATOM      7  C   UNL     1       0.419 -33.281 -21.424  1.00  0.00    -0.064 C 
ATOM      8  C   UNL     1       2.425 -34.563 -22.262  1.00  0.00     0.015 C 
ATOM      9  C   UNL     1       3.341 -34.954 -23.447  1.00  0.00    -0.035 C 
ATOM     10  C   UNL     1      -0.806 -34.099 -21.028  1.00  0.00    -0.006 C 
ATOM     11  C   UNL     1       0.816 -32.266 -20.648  1.00  0.00    -0.027 C 
ATOM     12  C   UNL     1       4.326 -36.044 -22.969  1.00  0.00     0.011 C 
ATOM     13  C   UNL     1       4.175 -33.745 -23.937  1.00  0.00     0.011 C 
ATOM     14  C   UNL     1      -2.069 -33.289 -21.456  1.00  0.00     0.017 C 
ATOM     15  C   UNL     1      -0.800 -34.351 -19.428  1.00  0.00    -0.020 C 
ATOM     16  C   UNL     1       0.276 -31.979 -19.281  1.00  0.00     0.032 C 
ATOM     17  C   UNL     1      -0.789 -32.961 -18.650  1.00  0.00     0.006 C 
ATOM     18  C   UNL     1       0.479 -35.176 -18.987  1.00  0.00     0.008 C 
ATOM     19  C   UNL     1      -2.111 -35.148 -19.068  1.00  0.00     0.012 C 
ATOM     20  C   UNL     1      -0.674 -33.060 -17.029  1.00  0.00    -0.025 C 
ATOM     21  C   UNL     1       1.112 -34.798 -17.615  1.00  0.00     0.005 C 
ATOM     22  C   UNL     1       0.014 -34.410 -16.612  1.00  0.00     0.003 C 
ATOM     23  C   UNL     1      -2.077 -33.070 -16.353  1.00  0.00     0.010 C 
ATOM     24  C   UNL     1       0.071 -31.795 -16.472  1.00  0.00     0.012 C 
ATOM     25  C   UNL     1       0.229 -34.659 -15.070  1.00  0.00    -0.006 C 
ATOM     26  C   UNL     1      -2.021 -33.299 -14.817  1.00  0.00     0.033 C 
ATOM     27  C   UNL     1      -1.175 -34.516 -14.370  1.00  0.00     0.120 C 
ATOM     28  C   UNL     1       0.708 -36.123 -14.840  1.00  0.00     0.014 C 
ATOM     29  C   UNL     1       1.300 -33.740 -14.428  1.00  0.00     0.014 C 
ENDROOT
BRANCH   1  30
ATOM     30  C   UNL     1      -0.454 -33.024 -24.422  1.00  0.00     0.048 C 
ATOM     31  O   UNL     1      -1.568 -33.261 -24.964  1.00  0.00    -0.550 OA
ATOM     32  O   UNL     1      -0.031 -31.703 -24.318  1.00  0.00    -0.550 OA
ENDBRANCH   1  30
BRANCH  27  33
ATOM     33  O   UNL     1      -1.029 -34.467 -12.971  1.00  0.00    -0.393 OA
ATOM     34  H   UNL     1      -0.483 -33.667 -12.753  1.00  0.00     0.210 HD
ENDBRANCH  27  33
TORSDOF 2
ENDMDL
