MODEL 1
REMARK VINA RESULT:     7.270      0.000      0.000
REMARK INTER + INTRA:           7.832
REMARK INTER:                   7.908
REMARK INTRA:                  -0.076
REMARK UNBOUND:                -0.076
REMARK SMILES CC1=C2C[C@H](C(C)(C)O)CC[C@]2(C)CCC1
REMARK SMILES IDX 6 1 7 2 8 3 5 4 1 5 2 6 3 7 16 8 4 9 12 10 15 11 11 12 14 13
REMARK SMILES IDX 13 14 10 15 9 16
REMARK H PARENT 9 17
REMARK Flexibility Score: inf
ROOT
ATOM      1  C   UNL     1     -37.458  24.178   7.126  1.00  0.00     0.062 C 
ATOM      2  C   UNL     1     -36.451  25.341   7.166  1.00  0.00     0.042 C 
ATOM      3  C   UNL     1     -36.695  22.863   7.422  1.00  0.00     0.042 C 
ENDROOT
BRANCH   1   4
ATOM      4  C   UNL     1     -38.672  24.372   8.120  1.00  0.00     0.024 C 
ATOM      5  C   UNL     1     -41.064  25.049   4.735  1.00  0.00     0.039 C 
ATOM      6  C   UNL     1     -41.320  23.877   5.655  1.00  0.00    -0.074 C 
ATOM      7  C   UNL     1     -40.896  23.868   6.957  1.00  0.00    -0.065 C 
ATOM      8  C   UNL     1     -42.111  22.726   5.076  1.00  0.00     0.031 C 
ATOM      9  C   UNL     1     -39.978  24.949   7.508  1.00  0.00     0.038 C 
ATOM     10  C   UNL     1     -41.267  22.738   7.936  1.00  0.00    -0.011 C 
ATOM     11  C   UNL     1     -41.811  21.424   5.804  1.00  0.00     0.005 C 
ATOM     12  C   UNL     1     -39.951  22.117   8.473  1.00  0.00     0.011 C 
ATOM     13  C   UNL     1     -42.125  21.610   7.282  1.00  0.00     0.011 C 
ATOM     14  C   UNL     1     -42.096  23.312   9.112  1.00  0.00     0.016 C 
ATOM     15  C   UNL     1     -38.949  23.146   9.037  1.00  0.00     0.008 C 
ENDBRANCH   1   4
BRANCH   1  16
ATOM     16  O   UNL     1     -37.946  24.106   5.806  1.00  0.00    -0.390 OA
ATOM     17  H   UNL     1     -38.023  25.032   5.452  1.00  0.00     0.211 HD
ENDBRANCH   1  16
TORSDOF 2
ENDMDL
