MODEL 1
REMARK VINA RESULT:    -3.675      0.000      0.000
REMARK INTER + INTRA:          -7.708
REMARK INTER:                  -5.716
REMARK INTRA:                  -1.991
REMARK UNBOUND:                -1.991
REMARK SMILES COc1cc(CNC(=O)CCCCC=CC(C)C)ccc1O
REMARK SMILES IDX 11 1 12 2 13 3 14 4 15 5 16 6 17 7 18 8 10 9 8 10 9 11 7 12
REMARK SMILES IDX 6 14 5 15 4 16 19 17 3 18 20 19 21 20 2 21 1 22 22 23
REMARK H PARENT 7 13 22 24
REMARK Flexibility Score: inf
ROOT
ATOM      1  C   UNL     1     119.080 118.101 120.499  1.00  0.00     0.010 C 
ENDROOT
BRANCH   1   2
ATOM      2  C   UNL     1     120.434 118.802 120.310  1.00  0.00     0.005 C 
BRANCH   2   3
ATOM      3  C   UNL     1     120.974 119.409 121.615  1.00  0.00     0.027 C 
BRANCH   3   4
ATOM      4  C   UNL     1     122.476 119.351 121.657  1.00  0.00    -0.031 C 
ATOM      5  C   UNL     1     123.182 118.739 120.690  1.00  0.00    -0.028 C 
BRANCH   5   6
ATOM      6  C   UNL     1     124.693 118.676 120.694  1.00  0.00     0.005 C 
ATOM      7  C   UNL     1     125.212 117.654 119.674  1.00  0.00     0.012 C 
ATOM      8  C   UNL     1     125.307 120.060 120.457  1.00  0.00     0.012 C 
ENDBRANCH   5   6
ENDBRANCH   3   4
ENDBRANCH   2   3
ENDBRANCH   1   2
BRANCH   1   9
ATOM      9  C   UNL     1     118.581 117.417 119.219  1.00  0.00     0.100 C 
BRANCH   9  10
ATOM     10  C   UNL     1     119.575 116.394 118.758  1.00  0.00     0.220 C 
ATOM     11  O   UNL     1     120.062 116.482 117.597  1.00  0.00    -0.275 OA
ATOM     12  N   UNL     1     120.000 115.350 119.644  1.00  0.00    -0.352 N 
ATOM     13  H   UNL     1     119.555 115.270 120.587  1.00  0.00     0.163 HD
BRANCH  12  14
ATOM     14  C   UNL     1     121.124 114.470 119.335  1.00  0.00     0.151 C 
BRANCH  14  15
ATOM     15  C   UNL     1     122.233 114.695 120.323  1.00  0.00    -0.025 A 
ATOM     16  C   UNL     1     123.486 114.097 120.116  1.00  0.00     0.056 A 
ATOM     17  C   UNL     1     122.016 115.457 121.481  1.00  0.00     0.009 A 
ATOM     18  C   UNL     1     124.530 114.278 121.046  1.00  0.00     0.160 A 
ATOM     19  C   UNL     1     123.046 115.642 122.405  1.00  0.00     0.050 A 
ATOM     20  C   UNL     1     124.302 115.059 122.191  1.00  0.00     0.157 A 
BRANCH  18  21
ATOM     21  O   UNL     1     125.799 113.702 120.871  1.00  0.00    -0.493 OA
ATOM     22  C   UNL     1     126.397 113.438 119.604  1.00  0.00     0.278 C 
ENDBRANCH  18  21
BRANCH  20  23
ATOM     23  O   UNL     1     125.331 115.248 123.111  1.00  0.00    -0.504 OA
ATOM     24  H   UNL     1     125.623 114.508 123.739  1.00  0.00     0.293 HD
ENDBRANCH  20  23
ENDBRANCH  14  15
ENDBRANCH  12  14
ENDBRANCH   9  10
ENDBRANCH   1   9
TORSDOF 10
ENDMDL
MODEL 2
REMARK VINA RESULT:    -3.659      5.819      8.570
REMARK INTER + INTRA:          -7.682
REMARK INTER:                  -5.411
REMARK INTRA:                  -2.272
REMARK UNBOUND:                -1.991
REMARK SMILES COc1cc(CNC(=O)CCCCC=CC(C)C)ccc1O
REMARK SMILES IDX 11 1 12 2 13 3 14 4 15 5 16 6 17 7 18 8 10 9 8 10 9 11 7 12
REMARK SMILES IDX 6 14 5 15 4 16 19 17 3 18 20 19 21 20 2 21 1 22 22 23
REMARK H PARENT 7 13 22 24
REMARK Flexibility Score: inf
ROOT
ATOM      1  C   UNL     1     115.133 114.520 118.850  1.00  0.00     0.010 C 
ENDROOT
BRANCH   1   2
ATOM      2  C   UNL     1     113.699 114.908 118.458  1.00  0.00     0.005 C 
BRANCH   2   3
ATOM      3  C   UNL     1     113.225 116.198 119.146  1.00  0.00     0.027 C 
BRANCH   3   4
ATOM      4  C   UNL     1     113.586 117.409 118.332  1.00  0.00    -0.031 C 
ATOM      5  C   UNL     1     113.667 118.630 118.889  1.00  0.00    -0.028 C 
BRANCH   5   6
ATOM      6  C   UNL     1     114.043 119.866 118.103  1.00  0.00     0.005 C 
ATOM      7  C   UNL     1     113.856 121.139 118.939  1.00  0.00     0.012 C 
ATOM      8  C   UNL     1     115.471 119.765 117.556  1.00  0.00     0.012 C 
ENDBRANCH   5   6
ENDBRANCH   3   4
ENDBRANCH   2   3
ENDBRANCH   1   2
BRANCH   1   9
ATOM      9  C   UNL     1     116.120 114.633 117.680  1.00  0.00     0.100 C 
BRANCH   9  10
ATOM     10  C   UNL     1     117.016 115.819 117.872  1.00  0.00     0.220 C 
ATOM     11  O   UNL     1     117.133 116.664 116.941  1.00  0.00    -0.275 OA
ATOM     12  N   UNL     1     117.700 116.015 119.117  1.00  0.00    -0.352 N 
ATOM     13  H   UNL     1     117.622 115.283 119.861  1.00  0.00     0.163 HD
BRANCH  12  14
ATOM     14  C   UNL     1     118.396 117.256 119.441  1.00  0.00     0.151 C 
BRANCH  14  15
ATOM     15  C   UNL     1     117.499 118.145 120.257  1.00  0.00    -0.025 A 
ATOM     16  C   UNL     1     117.775 119.518 120.353  1.00  0.00     0.056 A 
ATOM     17  C   UNL     1     116.415 117.608 120.967  1.00  0.00     0.009 A 
ATOM     18  C   UNL     1     116.958 120.360 121.134  1.00  0.00     0.160 A 
ATOM     19  C   UNL     1     115.600 118.437 121.740  1.00  0.00     0.050 A 
ATOM     20  C   UNL     1     115.865 119.811 121.823  1.00  0.00     0.157 A 
BRANCH  18  21
ATOM     21  O   UNL     1     117.197 121.740 121.250  1.00  0.00    -0.493 OA
ATOM     22  C   UNL     1     116.923 122.694 120.228  1.00  0.00     0.278 C 
ENDBRANCH  18  21
BRANCH  20  23
ATOM     23  O   UNL     1     115.049 120.639 122.591  1.00  0.00    -0.504 OA
ATOM     24  H   UNL     1     114.622 121.472 122.200  1.00  0.00     0.293 HD
ENDBRANCH  20  23
ENDBRANCH  14  15
ENDBRANCH  12  14
ENDBRANCH   9  10
ENDBRANCH   1   9
TORSDOF 10
ENDMDL
MODEL 3
REMARK VINA RESULT:    -3.533      6.680      9.655
REMARK INTER + INTRA:          -7.486
REMARK INTER:                  -5.715
REMARK INTRA:                  -1.771
REMARK UNBOUND:                -1.991
REMARK SMILES COc1cc(CNC(=O)CCCCC=CC(C)C)ccc1O
REMARK SMILES IDX 11 1 12 2 13 3 14 4 15 5 16 6 17 7 18 8 10 9 8 10 9 11 7 12
REMARK SMILES IDX 6 14 5 15 4 16 19 17 3 18 20 19 21 20 2 21 1 22 22 23
REMARK H PARENT 7 13 22 24
REMARK Flexibility Score: inf
ROOT
ATOM      1  C   UNL     1     120.392 120.799 121.405  1.00  0.00     0.010 C 
ENDROOT
BRANCH   1   2
ATOM      2  C   UNL     1     120.537 121.315 122.844  1.00  0.00     0.005 C 
BRANCH   2   3
ATOM      3  C   UNL     1     121.964 121.793 123.161  1.00  0.00     0.027 C 
BRANCH   3   4
ATOM      4  C   UNL     1     122.729 122.083 121.900  1.00  0.00    -0.031 C 
ATOM      5  C   UNL     1     123.402 123.236 121.738  1.00  0.00    -0.028 C 
BRANCH   5   6
ATOM      6  C   UNL     1     124.194 123.554 120.490  1.00  0.00     0.005 C 
ATOM      7  C   UNL     1     123.281 123.672 119.263  1.00  0.00     0.012 C 
ATOM      8  C   UNL     1     125.041 124.818 120.676  1.00  0.00     0.012 C 
ENDBRANCH   5   6
ENDBRANCH   3   4
ENDBRANCH   2   3
ENDBRANCH   1   2
BRANCH   1   9
ATOM      9  C   UNL     1     118.957 120.365 121.071  1.00  0.00     0.100 C 
BRANCH   9  10
ATOM     10  C   UNL     1     118.093 121.567 120.842  1.00  0.00     0.220 C 
ATOM     11  O   UNL     1     116.922 121.589 121.313  1.00  0.00    -0.275 OA
ATOM     12  N   UNL     1     118.607 122.701 120.130  1.00  0.00    -0.352 N 
ATOM     13  H   UNL     1     119.565 122.649 119.713  1.00  0.00     0.163 HD
BRANCH  12  14
ATOM     14  C   UNL     1     117.900 123.977 120.075  1.00  0.00     0.151 C 
BRANCH  14  15
ATOM     15  C   UNL     1     118.744 125.055 120.695  1.00  0.00    -0.025 A 
ATOM     16  C   UNL     1     118.216 126.344 120.868  1.00  0.00     0.056 A 
ATOM     17  C   UNL     1     120.075 124.800 121.059  1.00  0.00     0.009 A 
ATOM     18  C   UNL     1     119.004 127.372 121.425  1.00  0.00     0.160 A 
ATOM     19  C   UNL     1     120.859 125.813 121.614  1.00  0.00     0.050 A 
ATOM     20  C   UNL     1     120.328 127.096 121.802  1.00  0.00     0.157 A 
BRANCH  18  21
ATOM     21  O   UNL     1     118.510 128.674 121.620  1.00  0.00    -0.493 OA
ATOM     22  C   UNL     1     118.431 129.666 120.600  1.00  0.00     0.278 C 
ENDBRANCH  18  21
BRANCH  20  23
ATOM     23  O   UNL     1     121.110 128.106 122.360  1.00  0.00    -0.504 OA
ATOM     24  H   UNL     1     121.356 128.937 121.835  1.00  0.00     0.293 HD
ENDBRANCH  20  23
ENDBRANCH  14  15
ENDBRANCH  12  14
ENDBRANCH   9  10
ENDBRANCH   1   9
TORSDOF 10
ENDMDL
MODEL 4
REMARK VINA RESULT:    -3.510      5.680      8.557
REMARK INTER + INTRA:          -7.451
REMARK INTER:                  -5.518
REMARK INTRA:                  -1.933
REMARK UNBOUND:                -1.991
REMARK SMILES COc1cc(CNC(=O)CCCCC=CC(C)C)ccc1O
REMARK SMILES IDX 11 1 12 2 13 3 14 4 15 5 16 6 17 7 18 8 10 9 8 10 9 11 7 12
REMARK SMILES IDX 6 14 5 15 4 16 19 17 3 18 20 19 21 20 2 21 1 22 22 23
REMARK H PARENT 7 13 22 24
REMARK Flexibility Score: inf
ROOT
ATOM      1  C   UNL     1     124.910 119.302 119.970  1.00  0.00     0.010 C 
ENDROOT
BRANCH   1   2
ATOM      2  C   UNL     1     123.882 120.420 120.201  1.00  0.00     0.005 C 
BRANCH   2   3
ATOM      3  C   UNL     1     123.885 120.938 121.648  1.00  0.00     0.027 C 
BRANCH   3   4
ATOM      4  C   UNL     1     123.946 122.440 121.685  1.00  0.00    -0.031 C 
ATOM      5  C   UNL     1     124.545 123.142 120.707  1.00  0.00    -0.028 C 
BRANCH   5   6
ATOM      6  C   UNL     1     124.612 124.652 120.705  1.00  0.00     0.005 C 
ATOM      7  C   UNL     1     125.602 125.168 119.653  1.00  0.00     0.012 C 
ATOM      8  C   UNL     1     123.222 125.270 120.511  1.00  0.00     0.012 C 
ENDBRANCH   5   6
ENDBRANCH   3   4
ENDBRANCH   2   3
ENDBRANCH   1   2
BRANCH   1   9
ATOM      9  C   UNL     1     125.375 119.214 118.510  1.00  0.00     0.100 C 
BRANCH   9  10
ATOM     10  C   UNL     1     126.679 119.931 118.338  1.00  0.00     0.220 C 
ATOM     11  O   UNL     1     127.004 120.362 117.197  1.00  0.00    -0.275 OA
ATOM     12  N   UNL     1     127.530 120.164 119.469  1.00  0.00    -0.352 N 
ATOM     13  H   UNL     1     127.262 119.765 120.398  1.00  0.00     0.163 HD
BRANCH  12  14
ATOM     14  C   UNL     1     128.690 121.048 119.407  1.00  0.00     0.151 C 
BRANCH  14  15
ATOM     15  C   UNL     1     128.519 122.182 120.380  1.00  0.00    -0.025 A 
ATOM     16  C   UNL     1     129.129 123.420 120.124  1.00  0.00     0.056 A 
ATOM     17  C   UNL     1     127.797 122.001 121.569  1.00  0.00     0.009 A 
ATOM     18  C   UNL     1     128.998 124.485 121.039  1.00  0.00     0.160 A 
ATOM     19  C   UNL     1     127.661 123.052 122.477  1.00  0.00     0.050 A 
ATOM     20  C   UNL     1     128.257 124.294 122.215  1.00  0.00     0.157 A 
BRANCH  18  21
ATOM     21  O   UNL     1     129.588 125.741 120.817  1.00  0.00    -0.493 OA
ATOM     22  C   UNL     1     130.565 126.006 119.813  1.00  0.00     0.278 C 
ENDBRANCH  18  21
BRANCH  20  23
ATOM     23  O   UNL     1     128.117 125.345 123.120  1.00  0.00    -0.504 OA
ATOM     24  H   UNL     1     128.890 125.648 123.702  1.00  0.00     0.293 HD
ENDBRANCH  20  23
ENDBRANCH  14  15
ENDBRANCH  12  14
ENDBRANCH   9  10
ENDBRANCH   1   9
TORSDOF 10
ENDMDL
MODEL 5
REMARK VINA RESULT:    -3.444      6.520      9.972
REMARK INTER + INTRA:          -7.349
REMARK INTER:                  -5.223
REMARK INTRA:                  -2.126
REMARK UNBOUND:                -1.991
REMARK SMILES COc1cc(CNC(=O)CCCCC=CC(C)C)ccc1O
REMARK SMILES IDX 11 1 12 2 13 3 14 4 15 5 16 6 17 7 18 8 10 9 8 10 9 11 7 12
REMARK SMILES IDX 6 14 5 15 4 16 19 17 3 18 20 19 21 20 2 21 1 22 22 23
REMARK H PARENT 7 13 22 24
REMARK Flexibility Score: inf
ROOT
ATOM      1  C   UNL     1     127.863 120.612 118.750  1.00  0.00     0.010 C 
ENDROOT
BRANCH   1   2
ATOM      2  C   UNL     1     128.851 121.336 119.677  1.00  0.00     0.005 C 
BRANCH   2   3
ATOM      3  C   UNL     1     128.177 121.894 120.941  1.00  0.00     0.027 C 
BRANCH   3   4
ATOM      4  C   UNL     1     126.695 121.639 120.921  1.00  0.00    -0.031 C 
ATOM      5  C   UNL     1     125.852 122.344 121.695  1.00  0.00    -0.028 C 
BRANCH   5   6
ATOM      6  C   UNL     1     124.356 122.124 121.688  1.00  0.00     0.005 C 
ATOM      7  C   UNL     1     123.602 123.417 121.351  1.00  0.00     0.012 C 
ATOM      8  C   UNL     1     123.965 120.987 120.737  1.00  0.00     0.012 C 
ENDBRANCH   5   6
ENDBRANCH   3   4
ENDBRANCH   2   3
ENDBRANCH   1   2
BRANCH   1   9
ATOM      9  C   UNL     1     127.791 121.241 117.351  1.00  0.00     0.100 C 
BRANCH   9  10
ATOM     10  C   UNL     1     127.302 122.654 117.444  1.00  0.00     0.220 C 
ATOM     11  O   UNL     1     126.077 122.874 117.654  1.00  0.00    -0.275 OA
ATOM     12  N   UNL     1     128.225 123.746 117.338  1.00  0.00    -0.352 N 
ATOM     13  H   UNL     1     129.229 123.545 117.125  1.00  0.00     0.163 HD
BRANCH  12  14
ATOM     14  C   UNL     1     127.849 125.122 117.647  1.00  0.00     0.151 C 
BRANCH  14  15
ATOM     15  C   UNL     1     127.927 125.352 119.130  1.00  0.00    -0.025 A 
ATOM     16  C   UNL     1     129.174 125.343 119.774  1.00  0.00     0.056 A 
ATOM     17  C   UNL     1     126.760 125.528 119.889  1.00  0.00     0.009 A 
ATOM     18  C   UNL     1     129.262 125.533 121.168  1.00  0.00     0.160 A 
ATOM     19  C   UNL     1     126.840 125.719 121.269  1.00  0.00     0.050 A 
ATOM     20  C   UNL     1     128.087 125.725 121.911  1.00  0.00     0.157 A 
BRANCH  18  21
ATOM     21  O   UNL     1     130.492 125.536 121.849  1.00  0.00    -0.493 OA
ATOM     22  C   UNL     1     131.732 125.134 121.273  1.00  0.00     0.278 C 
ENDBRANCH  18  21
BRANCH  20  23
ATOM     23  O   UNL     1     128.167 125.921 123.289  1.00  0.00    -0.504 OA
ATOM     24  H   UNL     1     127.708 126.705 123.740  1.00  0.00     0.293 HD
ENDBRANCH  20  23
ENDBRANCH  14  15
ENDBRANCH  12  14
ENDBRANCH   9  10
ENDBRANCH   1   9
TORSDOF 10
ENDMDL
MODEL 6
REMARK VINA RESULT:    -3.440      3.250      6.067
REMARK INTER + INTRA:          -7.343
REMARK INTER:                  -6.155
REMARK INTRA:                  -1.188
REMARK UNBOUND:                -1.991
REMARK SMILES COc1cc(CNC(=O)CCCCC=CC(C)C)ccc1O
REMARK SMILES IDX 11 1 12 2 13 3 14 4 15 5 16 6 17 7 18 8 10 9 8 10 9 11 7 12
REMARK SMILES IDX 6 14 5 15 4 16 19 17 3 18 20 19 21 20 2 21 1 22 22 23
REMARK H PARENT 7 13 22 24
REMARK Flexibility Score: inf
ROOT
ATOM      1  C   UNL     1     114.868 114.810 118.072  1.00  0.00     0.010 C 
ENDROOT
BRANCH   1   2
ATOM      2  C   UNL     1     113.582 115.160 118.836  1.00  0.00     0.005 C 
BRANCH   2   3
ATOM      3  C   UNL     1     113.296 116.670 118.854  1.00  0.00     0.027 C 
BRANCH   3   4
ATOM      4  C   UNL     1     114.426 117.427 119.494  1.00  0.00    -0.031 C 
ATOM      5  C   UNL     1     114.533 117.529 120.831  1.00  0.00    -0.028 C 
BRANCH   5   6
ATOM      6  C   UNL     1     115.664 118.269 121.508  1.00  0.00     0.005 C 
ATOM      7  C   UNL     1     117.010 117.972 120.834  1.00  0.00     0.012 C 
ATOM      8  C   UNL     1     115.389 119.776 121.560  1.00  0.00     0.012 C 
ENDBRANCH   5   6
ENDBRANCH   3   4
ENDBRANCH   2   3
ENDBRANCH   1   2
BRANCH   1   9
ATOM      9  C   UNL     1     115.953 114.210 118.978  1.00  0.00     0.100 C 
BRANCH   9  10
ATOM     10  C   UNL     1     117.289 114.280 118.302  1.00  0.00     0.220 C 
ATOM     11  O   UNL     1     117.368 114.751 117.134  1.00  0.00    -0.275 OA
ATOM     12  N   UNL     1     118.471 113.854 118.993  1.00  0.00    -0.352 N 
ATOM     13  H   UNL     1     118.379 113.429 119.944  1.00  0.00     0.163 HD
BRANCH  12  14
ATOM     14  C   UNL     1     119.813 114.110 118.478  1.00  0.00     0.151 C 
BRANCH  14  15
ATOM     15  C   UNL     1     120.558 115.012 119.422  1.00  0.00    -0.025 A 
ATOM     16  C   UNL     1     120.141 116.341 119.595  1.00  0.00     0.056 A 
ATOM     17  C   UNL     1     121.700 114.553 120.096  1.00  0.00     0.009 A 
ATOM     18  C   UNL     1     120.844 117.205 120.458  1.00  0.00     0.160 A 
ATOM     19  C   UNL     1     122.399 115.404 120.955  1.00  0.00     0.050 A 
ATOM     20  C   UNL     1     121.974 116.727 121.140  1.00  0.00     0.157 A 
BRANCH  18  21
ATOM     21  O   UNL     1     120.455 118.540 120.662  1.00  0.00    -0.493 OA
ATOM     22  C   UNL     1     120.715 119.604 119.750  1.00  0.00     0.278 C 
ENDBRANCH  18  21
BRANCH  20  23
ATOM     23  O   UNL     1     122.669 117.574 122.001  1.00  0.00    -0.504 OA
ATOM     24  H   UNL     1     122.299 118.481 122.264  1.00  0.00     0.293 HD
ENDBRANCH  20  23
ENDBRANCH  14  15
ENDBRANCH  12  14
ENDBRANCH   9  10
ENDBRANCH   1   9
TORSDOF 10
ENDMDL
MODEL 7
REMARK VINA RESULT:    -3.440      2.595      4.716
REMARK INTER + INTRA:          -7.342
REMARK INTER:                  -6.056
REMARK INTRA:                  -1.286
REMARK UNBOUND:                -1.991
REMARK SMILES COc1cc(CNC(=O)CCCCC=CC(C)C)ccc1O
REMARK SMILES IDX 11 1 12 2 13 3 14 4 15 5 16 6 17 7 18 8 10 9 8 10 9 11 7 12
REMARK SMILES IDX 6 14 5 15 4 16 19 17 3 18 20 19 21 20 2 21 1 22 22 23
REMARK H PARENT 7 13 22 24
REMARK Flexibility Score: inf
ROOT
ATOM      1  C   UNL     1     115.498 115.476 118.615  1.00  0.00     0.010 C 
ENDROOT
BRANCH   1   2
ATOM      2  C   UNL     1     116.072 116.554 119.546  1.00  0.00     0.005 C 
BRANCH   2   3
ATOM      3  C   UNL     1     116.792 117.676 118.781  1.00  0.00     0.027 C 
BRANCH   3   4
ATOM      4  C   UNL     1     116.601 119.003 119.461  1.00  0.00    -0.031 C 
ATOM      5  C   UNL     1     117.227 119.297 120.614  1.00  0.00    -0.028 C 
BRANCH   5   6
ATOM      6  C   UNL     1     117.070 120.627 121.316  1.00  0.00     0.005 C 
ATOM      7  C   UNL     1     115.896 120.604 122.303  1.00  0.00     0.012 C 
ATOM      8  C   UNL     1     118.371 121.047 122.009  1.00  0.00     0.012 C 
ENDBRANCH   5   6
ENDBRANCH   3   4
ENDBRANCH   2   3
ENDBRANCH   1   2
BRANCH   1   9
ATOM      9  C   UNL     1     116.145 114.100 118.828  1.00  0.00     0.100 C 
BRANCH   9  10
ATOM     10  C   UNL     1     117.535 114.090 118.268  1.00  0.00     0.220 C 
ATOM     11  O   UNL     1     117.709 114.316 117.038  1.00  0.00    -0.275 OA
ATOM     12  N   UNL     1     118.660 113.868 119.129  1.00  0.00    -0.352 N 
ATOM     13  H   UNL     1     118.492 113.643 120.137  1.00  0.00     0.163 HD
BRANCH  12  14
ATOM     14  C   UNL     1     120.036 114.072 118.688  1.00  0.00     0.151 C 
BRANCH  14  15
ATOM     15  C   UNL     1     120.700 115.107 119.553  1.00  0.00    -0.025 A 
ATOM     16  C   UNL     1     121.808 114.754 120.339  1.00  0.00     0.056 A 
ATOM     17  C   UNL     1     120.194 116.413 119.621  1.00  0.00     0.009 A 
ATOM     18  C   UNL     1     122.427 115.707 121.173  1.00  0.00     0.160 A 
ATOM     19  C   UNL     1     120.803 117.362 120.443  1.00  0.00     0.050 A 
ATOM     20  C   UNL     1     121.920 117.015 121.217  1.00  0.00     0.157 A 
BRANCH  18  21
ATOM     21  O   UNL     1     123.541 115.395 121.971  1.00  0.00    -0.493 OA
ATOM     22  C   UNL     1     124.886 115.367 121.501  1.00  0.00     0.278 C 
ENDBRANCH  18  21
BRANCH  20  23
ATOM     23  O   UNL     1     122.531 117.964 122.034  1.00  0.00    -0.504 OA
ATOM     24  H   UNL     1     123.535 117.976 122.173  1.00  0.00     0.293 HD
ENDBRANCH  20  23
ENDBRANCH  14  15
ENDBRANCH  12  14
ENDBRANCH   9  10
ENDBRANCH   1   9
TORSDOF 10
ENDMDL
MODEL 8
REMARK VINA RESULT:    -3.373      2.797      5.210
REMARK INTER + INTRA:          -7.238
REMARK INTER:                  -5.678
REMARK INTRA:                  -1.560
REMARK UNBOUND:                -1.991
REMARK SMILES COc1cc(CNC(=O)CCCCC=CC(C)C)ccc1O
REMARK SMILES IDX 11 1 12 2 13 3 14 4 15 5 16 6 17 7 18 8 10 9 8 10 9 11 7 12
REMARK SMILES IDX 6 14 5 15 4 16 19 17 3 18 20 19 21 20 2 21 1 22 22 23
REMARK H PARENT 7 13 22 24
REMARK Flexibility Score: inf
ROOT
ATOM      1  C   UNL     1     123.586 122.789 121.521  1.00  0.00     0.010 C 
ENDROOT
BRANCH   1   2
ATOM      2  C   UNL     1     122.959 121.999 122.680  1.00  0.00     0.005 C 
BRANCH   2   3
ATOM      3  C   UNL     1     121.492 122.383 122.934  1.00  0.00     0.027 C 
BRANCH   3   4
ATOM      4  C   UNL     1     120.575 121.222 122.665  1.00  0.00    -0.031 C 
ATOM      5  C   UNL     1     120.034 121.023 121.450  1.00  0.00    -0.028 C 
BRANCH   5   6
ATOM      6  C   UNL     1     119.120 119.859 121.141  1.00  0.00     0.005 C 
ATOM      7  C   UNL     1     117.645 120.278 121.183  1.00  0.00     0.012 C 
ATOM      8  C   UNL     1     119.477 119.213 119.798  1.00  0.00     0.012 C 
ENDBRANCH   5   6
ENDBRANCH   3   4
ENDBRANCH   2   3
ENDBRANCH   1   2
BRANCH   1   9
ATOM      9  C   UNL     1     125.112 122.641 121.458  1.00  0.00     0.100 C 
BRANCH   9  10
ATOM     10  C   UNL     1     125.481 121.396 120.709  1.00  0.00     0.220 C 
ATOM     11  O   UNL     1     126.671 120.978 120.749  1.00  0.00    -0.275 OA
ATOM     12  N   UNL     1     124.480 120.662 119.991  1.00  0.00    -0.352 N 
ATOM     13  H   UNL     1     123.508 121.047 119.937  1.00  0.00     0.163 HD
BRANCH  12  14
ATOM     14  C   UNL     1     124.727 119.333 119.440  1.00  0.00     0.151 C 
BRANCH  14  15
ATOM     15  C   UNL     1     124.089 118.292 120.315  1.00  0.00    -0.025 A 
ATOM     16  C   UNL     1     124.615 116.991 120.351  1.00  0.00     0.056 A 
ATOM     17  C   UNL     1     122.940 118.592 121.062  1.00  0.00     0.009 A 
ATOM     18  C   UNL     1     124.013 115.996 121.149  1.00  0.00     0.160 A 
ATOM     19  C   UNL     1     122.341 117.613 121.856  1.00  0.00     0.050 A 
ATOM     20  C   UNL     1     122.875 116.317 121.905  1.00  0.00     0.157 A 
BRANCH  18  21
ATOM     21  O   UNL     1     124.513 114.684 121.216  1.00  0.00    -0.493 OA
ATOM     22  C   UNL     1     124.374 113.716 120.180  1.00  0.00     0.278 C 
ENDBRANCH  18  21
BRANCH  20  23
ATOM     23  O   UNL     1     122.279 115.341 122.701  1.00  0.00    -0.504 OA
ATOM     24  H   UNL     1     121.293 115.122 122.621  1.00  0.00     0.293 HD
ENDBRANCH  20  23
ENDBRANCH  14  15
ENDBRANCH  12  14
ENDBRANCH   9  10
ENDBRANCH   1   9
TORSDOF 10
ENDMDL
MODEL 9
REMARK VINA RESULT:    -3.350      2.909      5.217
REMARK INTER + INTRA:          -7.203
REMARK INTER:                  -5.796
REMARK INTRA:                  -1.406
REMARK UNBOUND:                -1.991
REMARK SMILES COc1cc(CNC(=O)CCCCC=CC(C)C)ccc1O
REMARK SMILES IDX 11 1 12 2 13 3 14 4 15 5 16 6 17 7 18 8 10 9 8 10 9 11 7 12
REMARK SMILES IDX 6 14 5 15 4 16 19 17 3 18 20 19 21 20 2 21 1 22 22 23
REMARK H PARENT 7 13 22 24
REMARK Flexibility Score: inf
ROOT
ATOM      1  C   UNL     1     125.910 122.380 121.686  1.00  0.00     0.010 C 
ENDROOT
BRANCH   1   2
ATOM      2  C   UNL     1     124.436 122.788 121.544  1.00  0.00     0.005 C 
BRANCH   2   3
ATOM      3  C   UNL     1     123.488 121.869 122.331  1.00  0.00     0.027 C 
BRANCH   3   4
ATOM      4  C   UNL     1     122.230 121.596 121.555  1.00  0.00    -0.031 C 
ATOM      5  C   UNL     1     121.182 120.967 122.116  1.00  0.00    -0.028 C 
BRANCH   5   6
ATOM      6  C   UNL     1     119.897 120.691 121.368  1.00  0.00     0.005 C 
ATOM      7  C   UNL     1     119.800 119.219 120.947  1.00  0.00     0.012 C 
ATOM      8  C   UNL     1     118.674 121.117 122.189  1.00  0.00     0.012 C 
ENDBRANCH   5   6
ENDBRANCH   3   4
ENDBRANCH   2   3
ENDBRANCH   1   2
BRANCH   1   9
ATOM      9  C   UNL     1     126.610 122.202 120.331  1.00  0.00     0.100 C 
BRANCH   9  10
ATOM     10  C   UNL     1     126.058 121.006 119.616  1.00  0.00     0.220 C 
ATOM     11  O   UNL     1     125.537 121.151 118.476  1.00  0.00    -0.275 OA
ATOM     12  N   UNL     1     126.160 119.702 120.205  1.00  0.00    -0.352 N 
ATOM     13  H   UNL     1     126.558 119.608 121.168  1.00  0.00     0.163 HD
BRANCH  12  14
ATOM     14  C   UNL     1     125.851 118.482 119.464  1.00  0.00     0.151 C 
BRANCH  14  15
ATOM     15  C   UNL     1     124.896 117.633 120.256  1.00  0.00    -0.025 A 
ATOM     16  C   UNL     1     125.119 116.252 120.370  1.00  0.00     0.056 A 
ATOM     17  C   UNL     1     123.755 118.199 120.843  1.00  0.00     0.009 A 
ATOM     18  C   UNL     1     124.219 115.439 121.088  1.00  0.00     0.160 A 
ATOM     19  C   UNL     1     122.861 117.400 121.558  1.00  0.00     0.050 A 
ATOM     20  C   UNL     1     123.091 116.023 121.685  1.00  0.00     0.157 A 
BRANCH  18  21
ATOM     21  O   UNL     1     124.409 114.053 121.230  1.00  0.00    -0.493 OA
ATOM     22  C   UNL     1     124.103 113.091 120.224  1.00  0.00     0.278 C 
ENDBRANCH  18  21
BRANCH  20  23
ATOM     23  O   UNL     1     122.201 115.225 122.403  1.00  0.00    -0.504 OA
ATOM     24  H   UNL     1     121.544 114.611 121.936  1.00  0.00     0.293 HD
ENDBRANCH  20  23
ENDBRANCH  14  15
ENDBRANCH  12  14
ENDBRANCH   9  10
ENDBRANCH   1   9
TORSDOF 10
ENDMDL
