MODEL 1
REMARK VINA RESULT:    -3.632      0.000      0.000
REMARK INTER + INTRA:          -5.672
REMARK INTER:                  -5.543
REMARK INTRA:                  -0.129
REMARK UNBOUND:                -0.129
REMARK SMILES CC1=CCC[C@H](C)C(=O)C[C@H](C(C)C)C(=O)C1
REMARK SMILES IDX 8 1 9 2 6 3 7 4 5 5 4 6 3 7 2 8 1 9 10 11 11 12 15 13 16 14
REMARK SMILES IDX 17 15 12 17 13 18 14 19
REMARK H PARENT
REMARK Flexibility Score: 70.00
ROOT
ATOM      1  C   UNL     1     140.886 134.380 123.507  1.00  0.00     0.136 C 
ATOM      2  O   UNL     1     140.457 135.138 124.366  1.00  0.00    -0.299 OA
ENDROOT
BRANCH   1   3
ATOM      3  C   UNL     1     139.996 133.984 122.347  1.00  0.00     0.053 C 
ATOM      4  C   UNL     1     138.931 132.998 122.838  1.00  0.00     0.016 C 
BRANCH   3   5
ATOM      5  C   UNL     1     139.321 135.208 121.682  1.00  0.00     0.015 C 
BRANCH   5   6
ATOM      6  C   UNL     1     140.248 136.003 120.748  1.00  0.00     0.028 C 
BRANCH   6   7
ATOM      7  C   UNL     1     140.628 137.336 121.347  1.00  0.00    -0.028 C 
ATOM      8  C   UNL     1     141.884 137.705 121.690  1.00  0.00    -0.070 CG0
ATOM      9  C   UNL     1     142.080 139.071 122.296  1.00  0.00     0.039 C 
ATOM     10  G   UNL     1     143.090 136.803 121.497  1.00  0.00     0.000 G0
ENDBRANCH   6   7
ENDBRANCH   5   6
ENDBRANCH   3   5
ENDBRANCH   1   3
BRANCH   1  11
ATOM     11  C   UNL     1     142.282 133.818 123.654  1.00  0.00     0.087 C 
BRANCH  11  12
ATOM     12  C   UNL     1     143.280 134.363 122.602  1.00  0.00     0.066 C 
BRANCH  12  13
ATOM     13  C   UNL     1     143.410 135.881 122.684  1.00  0.00     0.140 C 
ATOM     14  O   UNL     1     143.798 136.387 123.727  1.00  0.00    -0.299 OA
BRANCH  13  15
ATOM     15  C   UNL     1     143.125 136.799 121.513  1.00  0.00     0.106 CG0
ATOM     16  G   UNL     1     141.899 137.677 121.692  1.00  0.00     0.000 G0
ENDBRANCH  13  15
ENDBRANCH  12  13
BRANCH  12  17
ATOM     17  C   UNL     1     144.658 133.636 122.690  1.00  0.00    -0.006 C 
ATOM     18  C   UNL     1     145.009 133.116 124.095  1.00  0.00     0.008 C 
ATOM     19  C   UNL     1     145.795 134.527 122.167  1.00  0.00     0.008 C 
ENDBRANCH  12  17
ENDBRANCH  11  12
ENDBRANCH   1  11
TORSDOF 1
ENDMDL
MODEL 2
REMARK VINA RESULT:    -3.468      2.334      4.830
REMARK INTER + INTRA:          -5.421
REMARK INTER:                  -5.131
REMARK INTRA:                  -0.290
REMARK UNBOUND:                -0.129
REMARK SMILES CC1=CCC[C@H](C)C(=O)C[C@H](C(C)C)C(=O)C1
REMARK SMILES IDX 8 1 9 2 6 3 7 4 5 5 4 6 3 7 2 8 1 9 10 11 11 12 15 13 16 14
REMARK SMILES IDX 17 15 12 17 13 18 14 19
REMARK H PARENT
REMARK Flexibility Score: 70.00
ROOT
ATOM      1  C   UNL     1     138.608 135.461 122.999  1.00  0.00     0.136 C 
ATOM      2  O   UNL     1     138.137 136.463 123.519  1.00  0.00    -0.299 OA
ENDROOT
BRANCH   1   3
ATOM      3  C   UNL     1     139.369 134.464 123.847  1.00  0.00     0.053 C 
ATOM      4  C   UNL     1     139.694 133.225 123.007  1.00  0.00     0.016 C 
BRANCH   3   5
ATOM      5  C   UNL     1     140.670 135.065 124.432  1.00  0.00     0.015 C 
BRANCH   5   6
ATOM      6  C   UNL     1     141.852 135.074 123.449  1.00  0.00     0.028 C 
BRANCH   6   7
ATOM      7  C   UNL     1     142.164 136.472 122.970  1.00  0.00    -0.028 C 
ATOM      8  C   UNL     1     141.889 136.949 121.733  1.00  0.00    -0.070 CG0
ATOM      9  C   UNL     1     142.288 138.368 121.416  1.00  0.00     0.039 C 
ATOM     10  G   UNL     1     141.207 136.117 120.662  1.00  0.00     0.000 G0
ENDBRANCH   6   7
ENDBRANCH   5   6
ENDBRANCH   3   5
ENDBRANCH   1   3
BRANCH   1  11
ATOM     11  C   UNL     1     138.458 135.271 121.506  1.00  0.00     0.087 C 
BRANCH  11  12
ATOM     12  C   UNL     1     138.575 136.590 120.703  1.00  0.00     0.066 C 
BRANCH  12  13
ATOM     13  C   UNL     1     139.950 136.736 120.059  1.00  0.00     0.140 C 
ATOM     14  O   UNL     1     140.064 137.416 119.050  1.00  0.00    -0.299 OA
BRANCH  13  15
ATOM     15  C   UNL     1     141.204 136.113 120.639  1.00  0.00     0.106 CG0
ATOM     16  G   UNL     1     141.879 136.949 121.712  1.00  0.00     0.000 G0
ENDBRANCH  13  15
ENDBRANCH  12  13
BRANCH  12  17
ATOM     17  C   UNL     1     137.411 136.738 119.672  1.00  0.00    -0.006 C 
ATOM     18  C   UNL     1     136.625 138.055 119.792  1.00  0.00     0.008 C 
ATOM     19  C   UNL     1     136.444 135.547 119.746  1.00  0.00     0.008 C 
ENDBRANCH  12  17
ENDBRANCH  11  12
ENDBRANCH   1  11
TORSDOF 1
ENDMDL
MODEL 3
REMARK VINA RESULT:    -3.458     12.514     14.846
REMARK INTER + INTRA:          -5.407
REMARK INTER:                  -4.934
REMARK INTRA:                  -0.473
REMARK UNBOUND:                -0.129
REMARK SMILES CC1=CCC[C@H](C)C(=O)C[C@H](C(C)C)C(=O)C1
REMARK SMILES IDX 8 1 9 2 6 3 7 4 5 5 4 6 3 7 2 8 1 9 10 11 11 12 15 13 16 14
REMARK SMILES IDX 17 15 12 17 13 18 14 19
REMARK H PARENT
REMARK Flexibility Score: 70.00
ROOT
ATOM      1  C   UNL     1     127.945 140.780 116.491  1.00  0.00     0.136 C 
ATOM      2  O   UNL     1     127.118 141.370 117.174  1.00  0.00    -0.299 OA
ENDROOT
BRANCH   1   3
ATOM      3  C   UNL     1     128.323 141.330 115.132  1.00  0.00     0.053 C 
ATOM      4  C   UNL     1     127.050 141.664 114.347  1.00  0.00     0.016 C 
BRANCH   3   5
ATOM      5  C   UNL     1     129.226 142.583 115.237  1.00  0.00     0.015 C 
BRANCH   5   6
ATOM      6  C   UNL     1     130.707 142.316 114.925  1.00  0.00     0.028 C 
BRANCH   6   7
ATOM      7  C   UNL     1     131.546 142.309 116.180  1.00  0.00    -0.028 C 
ATOM      8  C   UNL     1     132.163 141.221 116.698  1.00  0.00    -0.070 CG0
ATOM      9  C   UNL     1     132.947 141.392 117.974  1.00  0.00     0.039 C 
ATOM     10  G   UNL     1     132.092 139.849 116.054  1.00  0.00     0.000 G0
ENDBRANCH   6   7
ENDBRANCH   5   6
ENDBRANCH   3   5
ENDBRANCH   1   3
BRANCH   1  11
ATOM     11  C   UNL     1     128.531 139.485 117.006  1.00  0.00     0.087 C 
BRANCH  11  12
ATOM     12  C   UNL     1     129.590 138.868 116.058  1.00  0.00     0.066 C 
BRANCH  12  13
ATOM     13  C   UNL     1     130.992 138.948 116.654  1.00  0.00     0.140 C 
ATOM     14  O   UNL     1     131.268 138.248 117.617  1.00  0.00    -0.299 OA
BRANCH  13  15
ATOM     15  C   UNL     1     132.085 139.826 116.079  1.00  0.00     0.106 CG0
ATOM     16  G   UNL     1     132.159 141.214 116.691  1.00  0.00     0.000 G0
ENDBRANCH  13  15
ENDBRANCH  12  13
BRANCH  12  17
ATOM     17  C   UNL     1     129.201 137.418 115.632  1.00  0.00    -0.006 C 
ATOM     18  C   UNL     1     129.607 137.052 114.194  1.00  0.00     0.008 C 
ATOM     19  C   UNL     1     127.699 137.161 115.830  1.00  0.00     0.008 C 
ENDBRANCH  12  17
ENDBRANCH  11  12
ENDBRANCH   1  11
TORSDOF 1
ENDMDL
MODEL 4
REMARK VINA RESULT:    -3.447     14.114     16.708
REMARK INTER + INTRA:          -5.389
REMARK INTER:                  -5.407
REMARK INTRA:                   0.018
REMARK UNBOUND:                -0.129
REMARK SMILES CC1=CCC[C@H](C)C(=O)C[C@H](C(C)C)C(=O)C1
REMARK SMILES IDX 8 1 9 2 6 3 7 4 5 5 4 6 3 7 2 8 1 9 10 11 11 12 15 13 16 14
REMARK SMILES IDX 17 15 12 17 13 18 14 19
REMARK H PARENT
REMARK Flexibility Score: 70.00
ROOT
ATOM      1  C   UNL     1     130.660 140.657 115.544  1.00  0.00     0.136 C 
ATOM      2  O   UNL     1     131.136 141.638 114.990  1.00  0.00    -0.299 OA
ENDROOT
BRANCH   1   3
ATOM      3  C   UNL     1     131.495 139.402 115.691  1.00  0.00     0.053 C 
ATOM      4  C   UNL     1     131.315 138.835 117.103  1.00  0.00     0.016 C 
BRANCH   3   5
ATOM      5  C   UNL     1     131.130 138.328 114.637  1.00  0.00     0.015 C 
BRANCH   5   6
ATOM      6  C   UNL     1     129.992 137.389 115.067  1.00  0.00     0.028 C 
BRANCH   6   7
ATOM      7  C   UNL     1     128.980 137.203 113.963  1.00  0.00    -0.028 C 
ATOM      8  C   UNL     1     127.764 137.795 113.913  1.00  0.00    -0.070 CG0
ATOM      9  C   UNL     1     126.869 137.480 112.742  1.00  0.00     0.039 C 
ATOM     10  G   UNL     1     127.269 138.750 114.985  1.00  0.00     0.000 G0
ENDBRANCH   6   7
ENDBRANCH   5   6
ENDBRANCH   3   5
ENDBRANCH   1   3
BRANCH   1  11
ATOM     11  C   UNL     1     129.227 140.709 116.023  1.00  0.00     0.087 C 
BRANCH  11  12
ATOM     12  C   UNL     1     128.244 141.274 114.967  1.00  0.00     0.066 C 
BRANCH  12  13
ATOM     13  C   UNL     1     127.222 140.228 114.533  1.00  0.00     0.140 C 
ATOM     14  O   UNL     1     126.339 140.550 113.752  1.00  0.00    -0.299 OA
BRANCH  13  15
ATOM     15  C   UNL     1     127.273 138.784 114.990  1.00  0.00     0.106 CG0
ATOM     16  G   UNL     1     127.742 137.808 113.925  1.00  0.00     0.000 G0
ENDBRANCH  13  15
ENDBRANCH  12  13
BRANCH  12  17
ATOM     17  C   UNL     1     127.578 142.598 115.457  1.00  0.00    -0.006 C 
ATOM     18  C   UNL     1     128.576 143.679 115.906  1.00  0.00     0.008 C 
ATOM     19  C   UNL     1     126.561 142.331 116.577  1.00  0.00     0.008 C 
ENDBRANCH  12  17
ENDBRANCH  11  12
ENDBRANCH   1  11
TORSDOF 1
ENDMDL
MODEL 5
REMARK VINA RESULT:    -3.425      1.930      3.332
REMARK INTER + INTRA:          -5.356
REMARK INTER:                  -4.855
REMARK INTRA:                  -0.502
REMARK UNBOUND:                -0.129
REMARK SMILES CC1=CCC[C@H](C)C(=O)C[C@H](C(C)C)C(=O)C1
REMARK SMILES IDX 8 1 9 2 6 3 7 4 5 5 4 6 3 7 2 8 1 9 10 11 11 12 15 13 16 14
REMARK SMILES IDX 17 15 12 17 13 18 14 19
REMARK H PARENT
REMARK Flexibility Score: 70.00
ROOT
ATOM      1  C   UNL     1     141.428 135.447 124.500  1.00  0.00     0.136 C 
ATOM      2  O   UNL     1     141.139 135.434 125.689  1.00  0.00    -0.299 OA
ENDROOT
BRANCH   1   3
ATOM      3  C   UNL     1     141.585 134.140 123.753  1.00  0.00     0.053 C 
ATOM      4  C   UNL     1     142.464 133.189 124.572  1.00  0.00     0.016 C 
BRANCH   3   5
ATOM      5  C   UNL     1     140.222 133.472 123.446  1.00  0.00     0.015 C 
BRANCH   5   6
ATOM      6  C   UNL     1     139.693 133.752 122.031  1.00  0.00     0.028 C 
BRANCH   6   7
ATOM      7  C   UNL     1     138.636 134.830 122.037  1.00  0.00    -0.028 C 
ATOM      8  C   UNL     1     138.750 136.034 121.430  1.00  0.00    -0.070 CG0
ATOM      9  C   UNL     1     137.601 137.002 121.554  1.00  0.00     0.039 C 
ATOM     10  G   UNL     1     139.981 136.447 120.642  1.00  0.00     0.000 G0
ENDBRANCH   6   7
ENDBRANCH   5   6
ENDBRANCH   3   5
ENDBRANCH   1   3
BRANCH   1  11
ATOM     11  C   UNL     1     141.672 136.776 123.820  1.00  0.00     0.087 C 
BRANCH  11  12
ATOM     12  C   UNL     1     142.049 136.642 122.323  1.00  0.00     0.066 C 
BRANCH  12  13
ATOM     13  C   UNL     1     140.996 137.275 121.420  1.00  0.00     0.140 C 
ATOM     14  O   UNL     1     140.983 138.489 121.283  1.00  0.00    -0.299 OA
BRANCH  13  15
ATOM     15  C   UNL     1     139.982 136.463 120.638  1.00  0.00     0.106 CG0
ATOM     16  G   UNL     1     138.760 136.052 121.440  1.00  0.00     0.000 G0
ENDBRANCH  13  15
ENDBRANCH  12  13
BRANCH  12  17
ATOM     17  C   UNL     1     143.485 137.187 122.044  1.00  0.00    -0.006 C 
ATOM     18  C   UNL     1     144.284 136.365 121.018  1.00  0.00     0.008 C 
ATOM     19  C   UNL     1     144.294 137.324 123.343  1.00  0.00     0.008 C 
ENDBRANCH  12  17
ENDBRANCH  11  12
ENDBRANCH   1  11
TORSDOF 1
ENDMDL
MODEL 6
REMARK VINA RESULT:    -3.414     12.159     14.518
REMARK INTER + INTRA:          -5.339
REMARK INTER:                  -4.848
REMARK INTRA:                  -0.491
REMARK UNBOUND:                -0.129
REMARK SMILES CC1=CCC[C@H](C)C(=O)C[C@H](C(C)C)C(=O)C1
REMARK SMILES IDX 8 1 9 2 6 3 7 4 5 5 4 6 3 7 2 8 1 9 10 11 11 12 15 13 16 14
REMARK SMILES IDX 17 15 12 17 13 18 14 19
REMARK H PARENT
REMARK Flexibility Score: 70.00
ROOT
ATOM      1  C   UNL     1     132.600 139.644 116.129  1.00  0.00     0.136 C 
ATOM      2  O   UNL     1     133.698 139.227 115.784  1.00  0.00    -0.299 OA
ENDROOT
BRANCH   1   3
ATOM      3  C   UNL     1     132.397 140.134 117.547  1.00  0.00     0.053 C 
ATOM      4  C   UNL     1     133.079 139.167 118.521  1.00  0.00     0.016 C 
BRANCH   3   5
ATOM      5  C   UNL     1     132.941 141.568 117.755  1.00  0.00     0.015 C 
BRANCH   5   6
ATOM      6  C   UNL     1     132.191 142.644 116.953  1.00  0.00     0.028 C 
BRANCH   6   7
ATOM      7  C   UNL     1     130.817 142.904 117.524  1.00  0.00    -0.028 C 
ATOM      8  C   UNL     1     129.651 142.699 116.868  1.00  0.00    -0.070 CG0
ATOM      9  C   UNL     1     128.367 143.031 117.584  1.00  0.00     0.039 C 
ATOM     10  G   UNL     1     129.587 142.160 115.450  1.00  0.00     0.000 G0
ENDBRANCH   6   7
ENDBRANCH   5   6
ENDBRANCH   3   5
ENDBRANCH   1   3
BRANCH   1  11
ATOM     11  C   UNL     1     131.459 139.610 115.138  1.00  0.00     0.087 C 
BRANCH  11  12
ATOM     12  C   UNL     1     130.062 139.568 115.808  1.00  0.00     0.066 C 
BRANCH  12  13
ATOM     13  C   UNL     1     129.174 140.711 115.326  1.00  0.00     0.140 C 
ATOM     14  O   UNL     1     128.070 140.452 114.869  1.00  0.00    -0.299 OA
BRANCH  13  15
ATOM     15  C   UNL     1     129.575 142.169 115.429  1.00  0.00     0.106 CG0
ATOM     16  G   UNL     1     129.648 142.698 116.850  1.00  0.00     0.000 G0
ENDBRANCH  13  15
ENDBRANCH  12  13
BRANCH  12  17
ATOM     17  C   UNL     1     129.387 138.171 115.638  1.00  0.00    -0.006 C 
ATOM     18  C   UNL     1     129.440 137.287 116.897  1.00  0.00     0.008 C 
ATOM     19  C   UNL     1     129.975 137.407 114.442  1.00  0.00     0.008 C 
ENDBRANCH  12  17
ENDBRANCH  11  12
ENDBRANCH   1  11
TORSDOF 1
ENDMDL
MODEL 7
REMARK VINA RESULT:    -3.373      1.864      2.458
REMARK INTER + INTRA:          -5.277
REMARK INTER:                  -4.951
REMARK INTRA:                  -0.327
REMARK UNBOUND:                -0.129
REMARK SMILES CC1=CCC[C@H](C)C(=O)C[C@H](C(C)C)C(=O)C1
REMARK SMILES IDX 8 1 9 2 6 3 7 4 5 5 4 6 3 7 2 8 1 9 10 11 11 12 15 13 16 14
REMARK SMILES IDX 17 15 12 17 13 18 14 19
REMARK H PARENT
REMARK Flexibility Score: 70.00
ROOT
ATOM      1  C   UNL     1     140.049 135.414 123.571  1.00  0.00     0.136 C 
ATOM      2  O   UNL     1     139.538 135.446 124.682  1.00  0.00    -0.299 OA
ENDROOT
BRANCH   1   3
ATOM      3  C   UNL     1     139.388 134.614 122.467  1.00  0.00     0.053 C 
ATOM      4  C   UNL     1     139.037 133.218 122.993  1.00  0.00     0.016 C 
BRANCH   3   5
ATOM      5  C   UNL     1     138.119 135.310 121.918  1.00  0.00     0.015 C 
BRANCH   5   6
ATOM      6  C   UNL     1     138.219 135.715 120.438  1.00  0.00     0.028 C 
BRANCH   6   7
ATOM      7  C   UNL     1     138.313 137.214 120.279  1.00  0.00    -0.028 C 
ATOM      8  C   UNL     1     139.449 137.896 120.004  1.00  0.00    -0.070 CG0
ATOM      9  C   UNL     1     139.366 139.397 119.898  1.00  0.00     0.039 C 
ATOM     10  G   UNL     1     140.792 137.216 119.807  1.00  0.00     0.000 G0
ENDBRANCH   6   7
ENDBRANCH   5   6
ENDBRANCH   3   5
ENDBRANCH   1   3
BRANCH   1  11
ATOM     11  C   UNL     1     141.357 136.136 123.343  1.00  0.00     0.087 C 
BRANCH  11  12
ATOM     12  C   UNL     1     141.912 135.969 121.906  1.00  0.00     0.066 C 
BRANCH  12  13
ATOM     13  C   UNL     1     141.677 137.220 121.065  1.00  0.00     0.140 C 
ATOM     14  O   UNL     1     142.244 138.258 121.374  1.00  0.00    -0.299 OA
BRANCH  13  15
ATOM     15  C   UNL     1     140.805 137.231 119.826  1.00  0.00     0.106 CG0
ATOM     16  G   UNL     1     139.461 137.911 120.014  1.00  0.00     0.000 G0
ENDBRANCH  13  15
ENDBRANCH  12  13
BRANCH  12  17
ATOM     17  C   UNL     1     143.408 135.525 121.918  1.00  0.00    -0.006 C 
ATOM     18  C   UNL     1     143.636 134.063 121.497  1.00  0.00     0.008 C 
ATOM     19  C   UNL     1     144.057 135.779 123.287  1.00  0.00     0.008 C 
ENDBRANCH  12  17
ENDBRANCH  11  12
ENDBRANCH   1  11
TORSDOF 1
ENDMDL
MODEL 8
REMARK VINA RESULT:    -3.245      1.458      4.086
REMARK INTER + INTRA:          -5.081
REMARK INTER:                  -5.253
REMARK INTRA:                   0.171
REMARK UNBOUND:                -0.129
REMARK SMILES CC1=CCC[C@H](C)C(=O)C[C@H](C(C)C)C(=O)C1
REMARK SMILES IDX 8 1 9 2 6 3 7 4 5 5 4 6 3 7 2 8 1 9 10 11 11 12 15 13 16 14
REMARK SMILES IDX 17 15 12 17 13 18 14 19
REMARK H PARENT
REMARK Flexibility Score: 70.00
ROOT
ATOM      1  C   UNL     1     142.705 134.350 124.839  1.00  0.00     0.136 C 
ATOM      2  O   UNL     1     142.319 134.749 125.929  1.00  0.00    -0.299 OA
ENDROOT
BRANCH   1   3
ATOM      3  C   UNL     1     144.186 134.362 124.520  1.00  0.00     0.053 C 
ATOM      4  C   UNL     1     144.980 134.019 125.784  1.00  0.00     0.016 C 
BRANCH   3   5
ATOM      5  C   UNL     1     144.547 133.377 123.381  1.00  0.00     0.015 C 
BRANCH   5   6
ATOM      6  C   UNL     1     144.499 133.999 121.977  1.00  0.00     0.028 C 
BRANCH   6   7
ATOM      7  C   UNL     1     144.864 135.464 122.006  1.00  0.00    -0.028 C 
ATOM      8  C   UNL     1     143.991 136.486 121.843  1.00  0.00    -0.070 CG0
ATOM      9  C   UNL     1     144.532 137.892 121.882  1.00  0.00     0.039 C 
ATOM     10  G   UNL     1     142.505 136.273 121.619  1.00  0.00     0.000 G0
ENDBRANCH   6   7
ENDBRANCH   5   6
ENDBRANCH   3   5
ENDBRANCH   1   3
BRANCH   1  11
ATOM     11  C   UNL     1     141.684 133.903 123.818  1.00  0.00     0.087 C 
BRANCH  11  12
ATOM     12  C   UNL     1     140.804 135.058 123.280  1.00  0.00     0.066 C 
BRANCH  12  13
ATOM     13  C   UNL     1     141.646 136.260 122.863  1.00  0.00     0.140 C 
ATOM     14  O   UNL     1     141.675 137.244 123.588  1.00  0.00    -0.299 OA
BRANCH  13  15
ATOM     15  C   UNL     1     142.495 136.279 121.608  1.00  0.00     0.106 CG0
ATOM     16  G   UNL     1     143.980 136.465 121.860  1.00  0.00     0.000 G0
ENDBRANCH  13  15
ENDBRANCH  12  13
BRANCH  12  17
ATOM     17  C   UNL     1     139.851 134.570 122.143  1.00  0.00    -0.006 C 
ATOM     18  C   UNL     1     138.939 135.669 121.569  1.00  0.00     0.008 C 
ATOM     19  C   UNL     1     139.001 133.375 122.600  1.00  0.00     0.008 C 
ENDBRANCH  12  17
ENDBRANCH  11  12
ENDBRANCH   1  11
TORSDOF 1
ENDMDL
MODEL 9
REMARK VINA RESULT:    -3.150      4.751      6.968
REMARK INTER + INTRA:          -4.937
REMARK INTER:                  -4.493
REMARK INTRA:                  -0.444
REMARK UNBOUND:                -0.129
REMARK SMILES CC1=CCC[C@H](C)C(=O)C[C@H](C(C)C)C(=O)C1
REMARK SMILES IDX 8 1 9 2 6 3 7 4 5 5 4 6 3 7 2 8 1 9 10 11 11 12 15 13 16 14
REMARK SMILES IDX 17 15 12 17 13 18 14 19
REMARK H PARENT
REMARK Flexibility Score: 70.00
ROOT
ATOM      1  C   UNL     1     137.285 140.918 119.029  1.00  0.00     0.136 C 
ATOM      2  O   UNL     1     136.590 141.915 119.171  1.00  0.00    -0.299 OA
ENDROOT
BRANCH   1   3
ATOM      3  C   UNL     1     137.614 140.427 117.634  1.00  0.00     0.053 C 
ATOM      4  C   UNL     1     136.353 140.482 116.766  1.00  0.00     0.016 C 
BRANCH   3   5
ATOM      5  C   UNL     1     138.748 141.251 116.976  1.00  0.00     0.015 C 
BRANCH   5   6
ATOM      6  C   UNL     1     140.107 140.533 116.948  1.00  0.00     0.028 C 
BRANCH   6   7
ATOM      7  C   UNL     1     141.104 141.197 117.868  1.00  0.00    -0.028 C 
ATOM      8  C   UNL     1     141.626 140.636 118.984  1.00  0.00    -0.070 CG0
ATOM      9  C   UNL     1     142.597 141.451 119.799  1.00  0.00     0.039 C 
ATOM     10  G   UNL     1     141.270 139.234 119.446  1.00  0.00     0.000 G0
ENDBRANCH   6   7
ENDBRANCH   5   6
ENDBRANCH   3   5
ENDBRANCH   1   3
BRANCH   1  11
ATOM     11  C   UNL     1     137.755 140.171 120.256  1.00  0.00     0.087 C 
BRANCH  11  12
ATOM     12  C   UNL     1     138.658 138.955 119.930  1.00  0.00     0.066 C 
BRANCH  12  13
ATOM     13  C   UNL     1     140.090 139.174 120.410  1.00  0.00     0.140 C 
ATOM     14  O   UNL     1     140.306 139.266 121.609  1.00  0.00    -0.299 OA
BRANCH  13  15
ATOM     15  C   UNL     1     141.276 139.238 119.469  1.00  0.00     0.106 CG0
ATOM     16  G   UNL     1     141.629 140.639 119.002  1.00  0.00     0.000 G0
ENDBRANCH  13  15
ENDBRANCH  12  13
BRANCH  12  17
ATOM     17  C   UNL     1     138.043 137.625 120.466  1.00  0.00    -0.006 C 
ATOM     18  C   UNL     1     138.941 136.390 120.271  1.00  0.00     0.008 C 
ATOM     19  C   UNL     1     136.658 137.362 119.853  1.00  0.00     0.008 C 
ENDBRANCH  12  17
ENDBRANCH  11  12
ENDBRANCH   1  11
TORSDOF 1
ENDMDL
