MODEL 1
REMARK VINA RESULT:    -3.860      0.000      0.000
REMARK INTER + INTRA:          -4.827
REMARK INTER:                  -4.536
REMARK INTRA:                  -0.291
REMARK UNBOUND:                -0.291
REMARK SMILES O=c1cc(-c2ccc(O)c(O)c2)oc2cc(O)cc(O)c12
REMARK SMILES IDX 4 1 3 2 2 3 1 4 21 5 19 6 18 7 16 8 15 9 14 10 13 11 5 12
REMARK SMILES IDX 6 13 7 14 8 15 12 16 10 17 9 18 11 20 20 22 17 24
REMARK H PARENT 9 19 11 21 20 23 17 25
REMARK Flexibility Score: inf
ROOT
ATOM      1  C   UNL     1       8.359 -22.452 -19.707  1.00  0.00     0.138 A 
ATOM      2  C   UNL     1       7.029 -22.864 -19.539  1.00  0.00     0.100 A 
ATOM      3  C   UNL     1       6.403 -22.688 -18.305  1.00  0.00     0.197 A 
ATOM      4  O   UNL     1       5.231 -23.124 -18.166  1.00  0.00    -0.289 OA
ATOM      5  C   UNL     1       7.102 -22.067 -17.243  1.00  0.00     0.107 A 
ATOM      6  C   UNL     1       6.551 -21.798 -15.954  1.00  0.00     0.134 A 
ATOM      7  C   UNL     1       7.375 -21.285 -14.945  1.00  0.00     0.093 A 
ATOM      8  C   UNL     1       8.714 -20.973 -15.197  1.00  0.00     0.123 A 
ATOM      9  C   UNL     1       9.247 -21.181 -16.466  1.00  0.00     0.094 A 
ATOM     10  C   UNL     1       8.460 -21.725 -17.484  1.00  0.00     0.146 A 
ATOM     11  O   UNL     1       9.011 -21.922 -18.678  1.00  0.00    -0.456 OA
ENDROOT
BRANCH   1  12
ATOM     12  C   UNL     1       9.073 -22.614 -20.998  1.00  0.00     0.021 A 
ATOM     13  C   UNL     1      10.479 -22.627 -21.070  1.00  0.00     0.016 A 
ATOM     14  C   UNL     1      11.125 -22.791 -22.298  1.00  0.00     0.051 A 
ATOM     15  C   UNL     1      10.380 -22.954 -23.473  1.00  0.00     0.157 A 
ATOM     16  C   UNL     1       8.333 -22.792 -22.181  1.00  0.00     0.062 A 
ATOM     17  C   UNL     1       8.978 -22.956 -23.413  1.00  0.00     0.158 A 
BRANCH  15  18
ATOM     18  O   UNL     1      11.029 -23.116 -24.697  1.00  0.00    -0.504 OA
ATOM     19  H   UNL     1      10.851 -23.918 -25.291  1.00  0.00     0.293 HD
ENDBRANCH  15  18
BRANCH  17  20
ATOM     20  O   UNL     1       8.208 -23.120 -24.564  1.00  0.00    -0.504 OA
ATOM     21  H   UNL     1       7.897 -24.030 -24.879  1.00  0.00     0.293 HD
ENDBRANCH  17  20
ENDBRANCH   1  12
BRANCH   6  22
ATOM     22  O   UNL     1       5.207 -21.993 -15.624  1.00  0.00    -0.507 OA
ATOM     23  H   UNL     1       4.534 -21.254 -15.488  1.00  0.00     0.293 HD
ENDBRANCH   6  22
BRANCH   8  24
ATOM     24  O   UNL     1       9.522 -20.448 -14.190  1.00  0.00    -0.508 OA
ATOM     25  H   UNL     1      10.293 -20.977 -13.799  1.00  0.00     0.293 HD
ENDBRANCH   8  24
TORSDOF 5
ENDMDL
MODEL 2
REMARK VINA RESULT:    -3.098      1.139      2.651
REMARK INTER + INTRA:          -3.932
REMARK INTER:                  -3.616
REMARK INTRA:                  -0.316
REMARK UNBOUND:                -0.291
REMARK SMILES O=c1cc(-c2ccc(O)c(O)c2)oc2cc(O)cc(O)c12
REMARK SMILES IDX 4 1 3 2 2 3 1 4 21 5 19 6 18 7 16 8 15 9 14 10 13 11 5 12
REMARK SMILES IDX 6 13 7 14 8 15 12 16 10 17 9 18 11 20 20 22 17 24
REMARK H PARENT 9 19 11 21 20 23 17 25
REMARK Flexibility Score: inf
ROOT
ATOM      1  C   UNL     1       9.352 -22.001 -19.319  1.00  0.00     0.138 A 
ATOM      2  C   UNL     1      10.394 -21.772 -18.410  1.00  0.00     0.100 A 
ATOM      3  C   UNL     1      10.098 -21.508 -17.073  1.00  0.00     0.197 A 
ATOM      4  O   UNL     1      11.051 -21.246 -16.294  1.00  0.00    -0.289 OA
ATOM      5  C   UNL     1       8.751 -21.505 -16.637  1.00  0.00     0.107 A 
ATOM      6  C   UNL     1       8.333 -21.289 -15.290  1.00  0.00     0.134 A 
ATOM      7  C   UNL     1       6.967 -21.192 -14.999  1.00  0.00     0.093 A 
ATOM      8  C   UNL     1       6.003 -21.365 -15.996  1.00  0.00     0.123 A 
ATOM      9  C   UNL     1       6.401 -21.630 -17.305  1.00  0.00     0.094 A 
ATOM     10  C   UNL     1       7.756 -21.697 -17.633  1.00  0.00     0.146 A 
ATOM     11  O   UNL     1       8.094 -21.938 -18.896  1.00  0.00    -0.456 OA
ENDROOT
BRANCH   1  12
ATOM     12  C   UNL     1       9.610 -22.287 -20.753  1.00  0.00     0.021 A 
ATOM     13  C   UNL     1      10.899 -22.604 -21.223  1.00  0.00     0.016 A 
ATOM     14  C   UNL     1      11.111 -22.879 -22.577  1.00  0.00     0.051 A 
ATOM     15  C   UNL     1      10.042 -22.851 -23.481  1.00  0.00     0.157 A 
ATOM     16  C   UNL     1       8.539 -22.275 -21.665  1.00  0.00     0.062 A 
ATOM     17  C   UNL     1       8.750 -22.549 -23.021  1.00  0.00     0.158 A 
BRANCH  15  18
ATOM     18  O   UNL     1      10.259 -23.125 -24.831  1.00  0.00    -0.504 OA
ATOM     19  H   UNL     1      10.291 -22.387 -25.525  1.00  0.00     0.293 HD
ENDBRANCH  15  18
BRANCH  17  20
ATOM     20  O   UNL     1       7.664 -22.517 -23.896  1.00  0.00    -0.504 OA
ATOM     21  H   UNL     1       6.958 -23.243 -23.905  1.00  0.00     0.293 HD
ENDBRANCH  17  20
ENDBRANCH   1  12
BRANCH   6  22
ATOM     22  O   UNL     1       9.211 -21.189 -14.207  1.00  0.00    -0.507 OA
ATOM     23  H   UNL     1       9.726 -20.359 -13.957  1.00  0.00     0.293 HD
ENDBRANCH   6  22
BRANCH   8  24
ATOM     24  O   UNL     1       4.645 -21.282 -15.694  1.00  0.00    -0.508 OA
ATOM     25  H   UNL     1       3.949 -21.772 -16.245  1.00  0.00     0.293 HD
ENDBRANCH   8  24
TORSDOF 5
ENDMDL
