MODEL 1
REMARK VINA RESULT:    -3.764      0.000      0.000
REMARK INTER + INTRA:          -8.093
REMARK INTER:                  -6.405
REMARK INTRA:                  -1.688
REMARK UNBOUND:                -1.688
REMARK SMILES CCCCCCCCCCCCCC(=O)[O-]
REMARK SMILES IDX 8 1 9 2 10 3 11 4 12 5 13 6 14 7 15 8 16 9 7 10 6 11 5 12
REMARK SMILES IDX 4 13 3 14 2 15 1 16
REMARK H PARENT
REMARK Flexibility Score: inf
ROOT
ATOM      1  C   UNL     1     161.058 177.055 188.027  1.00  0.00     0.000 C 
ENDROOT
BRANCH   1   2
ATOM      2  C   UNL     1     160.633 175.638 187.603  1.00  0.00     0.000 C 
BRANCH   2   3
ATOM      3  C   UNL     1     161.812 174.783 187.109  1.00  0.00     0.000 C 
BRANCH   3   4
ATOM      4  C   UNL     1     163.165 175.272 187.650  1.00  0.00     0.000 C 
BRANCH   4   5
ATOM      5  C   UNL     1     164.099 175.776 186.536  1.00  0.00     0.006 C 
BRANCH   5   6
ATOM      6  C   UNL     1     165.058 176.867 187.033  1.00  0.00     0.053 C 
BRANCH   6   7
ATOM      7  C   UNL     1     164.955 178.115 186.210  1.00  0.00     0.041 C 
ATOM      8  O   UNL     1     165.344 178.119 185.014  1.00  0.00    -0.550 OA
ATOM      9  O   UNL     1     164.456 179.281 186.777  1.00  0.00    -0.550 OA
ENDBRANCH   6   7
ENDBRANCH   5   6
ENDBRANCH   4   5
ENDBRANCH   3   4
ENDBRANCH   2   3
ENDBRANCH   1   2
BRANCH   1  10
ATOM     10  C   UNL     1     160.590 178.185 187.090  1.00  0.00     0.000 C 
BRANCH  10  11
ATOM     11  C   UNL     1     161.230 178.109 185.694  1.00  0.00    -0.000 C 
BRANCH  11  12
ATOM     12  C   UNL     1     160.208 177.777 184.594  1.00  0.00    -0.000 C 
BRANCH  12  13
ATOM     13  C   UNL     1     160.806 176.915 183.468  1.00  0.00    -0.000 C 
BRANCH  13  14
ATOM     14  C   UNL     1     162.345 176.929 183.461  1.00  0.00    -0.000 C 
BRANCH  14  15
ATOM     15  C   UNL     1     162.976 177.787 182.349  1.00  0.00    -0.003 C 
ATOM     16  C   UNL     1     161.969 178.219 181.284  1.00  0.00     0.004 C 
ENDBRANCH  14  15
ENDBRANCH  13  14
ENDBRANCH  12  13
ENDBRANCH  11  12
ENDBRANCH  10  11
ENDBRANCH   1  10
TORSDOF 12
ENDMDL
MODEL 2
REMARK VINA RESULT:    -3.724      4.081      5.183
REMARK INTER + INTRA:          -8.025
REMARK INTER:                  -6.512
REMARK INTRA:                  -1.513
REMARK UNBOUND:                -1.688
REMARK SMILES CCCCCCCCCCCCCC(=O)[O-]
REMARK SMILES IDX 8 1 9 2 10 3 11 4 12 5 13 6 14 7 15 8 16 9 7 10 6 11 5 12
REMARK SMILES IDX 4 13 3 14 2 15 1 16
REMARK H PARENT
REMARK Flexibility Score: inf
ROOT
ATOM      1  C   UNL     1     161.512 175.646 187.570  1.00  0.00     0.000 C 
ENDROOT
BRANCH   1   2
ATOM      2  C   UNL     1     160.165 174.902 187.588  1.00  0.00     0.000 C 
BRANCH   2   3
ATOM      3  C   UNL     1     160.225 173.539 186.876  1.00  0.00     0.000 C 
BRANCH   3   4
ATOM      4  C   UNL     1     161.617 172.892 186.955  1.00  0.00     0.000 C 
BRANCH   4   5
ATOM      5  C   UNL     1     161.761 171.947 188.161  1.00  0.00     0.006 C 
BRANCH   5   6
ATOM      6  C   UNL     1     160.721 170.819 188.139  1.00  0.00     0.053 C 
BRANCH   6   7
ATOM      7  C   UNL     1     160.953 169.870 187.003  1.00  0.00     0.041 C 
ATOM      8  O   UNL     1     160.122 169.792 186.062  1.00  0.00    -0.550 OA
ATOM      9  O   UNL     1     162.075 169.050 187.001  1.00  0.00    -0.550 OA
ENDBRANCH   6   7
ENDBRANCH   5   6
ENDBRANCH   4   5
ENDBRANCH   3   4
ENDBRANCH   2   3
ENDBRANCH   1   2
BRANCH   1  10
ATOM     10  C   UNL     1     161.457 177.106 188.056  1.00  0.00     0.000 C 
BRANCH  10  11
ATOM     11  C   UNL     1     160.667 178.025 187.108  1.00  0.00    -0.000 C 
BRANCH  11  12
ATOM     12  C   UNL     1     161.215 178.001 185.672  1.00  0.00    -0.000 C 
BRANCH  12  13
ATOM     13  C   UNL     1     160.108 177.832 184.617  1.00  0.00    -0.000 C 
BRANCH  13  14
ATOM     14  C   UNL     1     160.547 176.961 183.426  1.00  0.00    -0.000 C 
BRANCH  14  15
ATOM     15  C   UNL     1     160.695 175.462 183.745  1.00  0.00    -0.003 C 
ATOM     16  C   UNL     1     162.136 174.966 183.629  1.00  0.00     0.004 C 
ENDBRANCH  14  15
ENDBRANCH  13  14
ENDBRANCH  12  13
ENDBRANCH  11  12
ENDBRANCH  10  11
ENDBRANCH   1  10
TORSDOF 12
ENDMDL
MODEL 3
REMARK VINA RESULT:    -3.698      1.002      2.198
REMARK INTER + INTRA:          -7.979
REMARK INTER:                  -6.655
REMARK INTRA:                  -1.324
REMARK UNBOUND:                -1.688
REMARK SMILES CCCCCCCCCCCCCC(=O)[O-]
REMARK SMILES IDX 8 1 9 2 10 3 11 4 12 5 13 6 14 7 15 8 16 9 7 10 6 11 5 12
REMARK SMILES IDX 4 13 3 14 2 15 1 16
REMARK H PARENT
REMARK Flexibility Score: inf
ROOT
ATOM      1  C   UNL     1     161.084 178.216 185.714  1.00  0.00     0.000 C 
ENDROOT
BRANCH   1   2
ATOM      2  C   UNL     1     160.530 178.246 187.150  1.00  0.00     0.000 C 
BRANCH   2   3
ATOM      3  C   UNL     1     161.435 177.511 188.155  1.00  0.00     0.000 C 
BRANCH   3   4
ATOM      4  C   UNL     1     162.231 176.368 187.507  1.00  0.00     0.000 C 
BRANCH   4   5
ATOM      5  C   UNL     1     163.752 176.543 187.667  1.00  0.00     0.006 C 
BRANCH   5   6
ATOM      6  C   UNL     1     164.449 176.807 186.326  1.00  0.00     0.053 C 
BRANCH   6   7
ATOM      7  C   UNL     1     165.066 178.172 186.279  1.00  0.00     0.041 C 
ATOM      8  O   UNL     1     166.150 178.357 185.669  1.00  0.00    -0.550 OA
ATOM      9  O   UNL     1     164.454 179.233 186.936  1.00  0.00    -0.550 OA
ENDBRANCH   6   7
ENDBRANCH   5   6
ENDBRANCH   4   5
ENDBRANCH   3   4
ENDBRANCH   2   3
ENDBRANCH   1   2
BRANCH   1  10
ATOM     10  C   UNL     1     160.064 177.819 184.631  1.00  0.00     0.000 C 
BRANCH  10  11
ATOM     11  C   UNL     1     160.703 177.063 183.454  1.00  0.00    -0.000 C 
BRANCH  11  12
ATOM     12  C   UNL     1     162.218 177.302 183.353  1.00  0.00    -0.000 C 
BRANCH  12  13
ATOM     13  C   UNL     1     162.689 177.527 181.906  1.00  0.00    -0.000 C 
BRANCH  13  14
ATOM     14  C   UNL     1     161.825 178.554 181.152  1.00  0.00    -0.000 C 
BRANCH  14  15
ATOM     15  C   UNL     1     161.449 178.149 179.715  1.00  0.00    -0.003 C 
ATOM     16  C   UNL     1     161.012 176.688 179.602  1.00  0.00     0.004 C 
ENDBRANCH  14  15
ENDBRANCH  13  14
ENDBRANCH  12  13
ENDBRANCH  11  12
ENDBRANCH  10  11
ENDBRANCH   1  10
TORSDOF 12
ENDMDL
MODEL 4
REMARK VINA RESULT:    -3.667      3.422      5.040
REMARK INTER + INTRA:          -7.927
REMARK INTER:                  -6.153
REMARK INTRA:                  -1.774
REMARK UNBOUND:                -1.688
REMARK SMILES CCCCCCCCCCCCCC(=O)[O-]
REMARK SMILES IDX 8 1 9 2 10 3 11 4 12 5 13 6 14 7 15 8 16 9 7 10 6 11 5 12
REMARK SMILES IDX 4 13 3 14 2 15 1 16
REMARK H PARENT
REMARK Flexibility Score: inf
ROOT
ATOM      1  C   UNL     1     161.239 177.915 185.579  1.00  0.00     0.000 C 
ENDROOT
BRANCH   1   2
ATOM      2  C   UNL     1     160.296 177.491 184.439  1.00  0.00     0.000 C 
BRANCH   2   3
ATOM      3  C   UNL     1     160.592 176.076 183.912  1.00  0.00     0.000 C 
BRANCH   3   4
ATOM      4  C   UNL     1     161.460 175.255 184.879  1.00  0.00     0.000 C 
BRANCH   4   5
ATOM      5  C   UNL     1     160.620 174.415 185.857  1.00  0.00     0.006 C 
BRANCH   5   6
ATOM      6  C   UNL     1     161.395 173.203 186.392  1.00  0.00     0.053 C 
BRANCH   6   7
ATOM      7  C   UNL     1     160.639 171.926 186.187  1.00  0.00     0.041 C 
ATOM      8  O   UNL     1     159.875 171.793 185.197  1.00  0.00    -0.550 OA
ATOM      9  O   UNL     1     160.759 170.892 187.109  1.00  0.00    -0.550 OA
ENDBRANCH   6   7
ENDBRANCH   5   6
ENDBRANCH   4   5
ENDBRANCH   3   4
ENDBRANCH   2   3
ENDBRANCH   1   2
BRANCH   1  10
ATOM     10  C   UNL     1     160.543 178.257 186.909  1.00  0.00     0.000 C 
BRANCH  10  11
ATOM     11  C   UNL     1     161.053 177.411 188.088  1.00  0.00    -0.000 C 
BRANCH  11  12
ATOM     12  C   UNL     1     162.584 177.446 188.219  1.00  0.00    -0.000 C 
BRANCH  12  13
ATOM     13  C   UNL     1     163.240 176.091 187.899  1.00  0.00    -0.000 C 
BRANCH  13  14
ATOM     14  C   UNL     1     164.360 176.205 186.850  1.00  0.00    -0.000 C 
BRANCH  14  15
ATOM     15  C   UNL     1     164.751 177.647 186.478  1.00  0.00    -0.003 C 
ATOM     16  C   UNL     1     164.791 177.885 184.969  1.00  0.00     0.004 C 
ENDBRANCH  14  15
ENDBRANCH  13  14
ENDBRANCH  12  13
ENDBRANCH  11  12
ENDBRANCH  10  11
ENDBRANCH   1  10
TORSDOF 12
ENDMDL
MODEL 5
REMARK VINA RESULT:    -3.663      1.901      4.160
REMARK INTER + INTRA:          -7.921
REMARK INTER:                  -6.033
REMARK INTRA:                  -1.888
REMARK UNBOUND:                -1.688
REMARK SMILES CCCCCCCCCCCCCC(=O)[O-]
REMARK SMILES IDX 8 1 9 2 10 3 11 4 12 5 13 6 14 7 15 8 16 9 7 10 6 11 5 12
REMARK SMILES IDX 4 13 3 14 2 15 1 16
REMARK H PARENT
REMARK Flexibility Score: inf
ROOT
ATOM      1  C   UNL     1     162.828 177.907 187.923  1.00  0.00     0.000 C 
ENDROOT
BRANCH   1   2
ATOM      2  C   UNL     1     163.616 178.595 186.794  1.00  0.00     0.000 C 
BRANCH   2   3
ATOM      3  C   UNL     1     165.000 177.964 186.562  1.00  0.00     0.000 C 
BRANCH   3   4
ATOM      4  C   UNL     1     165.283 177.689 185.077  1.00  0.00     0.000 C 
BRANCH   4   5
ATOM      5  C   UNL     1     164.268 176.714 184.454  1.00  0.00     0.006 C 
BRANCH   5   6
ATOM      6  C   UNL     1     164.242 176.807 182.922  1.00  0.00     0.053 C 
BRANCH   6   7
ATOM      7  C   UNL     1     163.126 177.681 182.437  1.00  0.00     0.041 C 
ATOM      8  O   UNL     1     163.311 178.915 182.275  1.00  0.00    -0.550 OA
ATOM      9  O   UNL     1     161.871 177.135 182.192  1.00  0.00    -0.550 OA
ENDBRANCH   6   7
ENDBRANCH   5   6
ENDBRANCH   4   5
ENDBRANCH   3   4
ENDBRANCH   2   3
ENDBRANCH   1   2
BRANCH   1  10
ATOM     10  C   UNL     1     161.301 177.877 187.728  1.00  0.00     0.000 C 
BRANCH  10  11
ATOM     11  C   UNL     1     160.888 177.689 186.258  1.00  0.00    -0.000 C 
BRANCH  11  12
ATOM     12  C   UNL     1     160.803 176.208 185.854  1.00  0.00    -0.000 C 
BRANCH  12  13
ATOM     13  C   UNL     1     160.310 175.307 187.001  1.00  0.00    -0.000 C 
BRANCH  13  14
ATOM     14  C   UNL     1     161.354 174.260 187.426  1.00  0.00    -0.000 C 
BRANCH  14  15
ATOM     15  C   UNL     1     162.655 174.276 186.603  1.00  0.00    -0.003 C 
ATOM     16  C   UNL     1     163.906 174.430 187.468  1.00  0.00     0.004 C 
ENDBRANCH  14  15
ENDBRANCH  13  14
ENDBRANCH  12  13
ENDBRANCH  11  12
ENDBRANCH  10  11
ENDBRANCH   1  10
TORSDOF 12
ENDMDL
MODEL 6
REMARK VINA RESULT:    -3.659      2.053      5.037
REMARK INTER + INTRA:          -7.913
REMARK INTER:                  -6.559
REMARK INTRA:                  -1.354
REMARK UNBOUND:                -1.688
REMARK SMILES CCCCCCCCCCCCCC(=O)[O-]
REMARK SMILES IDX 8 1 9 2 10 3 11 4 12 5 13 6 14 7 15 8 16 9 7 10 6 11 5 12
REMARK SMILES IDX 4 13 3 14 2 15 1 16
REMARK H PARENT
REMARK Flexibility Score: inf
ROOT
ATOM      1  C   UNL     1     161.255 177.919 185.502  1.00  0.00     0.000 C 
ENDROOT
BRANCH   1   2
ATOM      2  C   UNL     1     160.303 177.287 184.471  1.00  0.00     0.000 C 
BRANCH   2   3
ATOM      3  C   UNL     1     160.783 175.909 183.982  1.00  0.00     0.000 C 
BRANCH   3   4
ATOM      4  C   UNL     1     160.740 175.777 182.451  1.00  0.00     0.000 C 
BRANCH   4   5
ATOM      5  C   UNL     1     162.139 175.846 181.813  1.00  0.00     0.006 C 
BRANCH   5   6
ATOM      6  C   UNL     1     162.256 176.990 180.797  1.00  0.00     0.053 C 
BRANCH   6   7
ATOM      7  C   UNL     1     162.339 178.326 181.471  1.00  0.00     0.041 C 
ATOM      8  O   UNL     1     163.181 178.524 182.384  1.00  0.00    -0.550 OA
ATOM      9  O   UNL     1     161.465 179.343 181.107  1.00  0.00    -0.550 OA
ENDBRANCH   6   7
ENDBRANCH   5   6
ENDBRANCH   4   5
ENDBRANCH   3   4
ENDBRANCH   2   3
ENDBRANCH   1   2
BRANCH   1  10
ATOM     10  C   UNL     1     160.620 178.230 186.870  1.00  0.00     0.000 C 
BRANCH  10  11
ATOM     11  C   UNL     1     161.276 177.454 188.025  1.00  0.00    -0.000 C 
BRANCH  11  12
ATOM     12  C   UNL     1     162.651 176.882 187.645  1.00  0.00    -0.000 C 
BRANCH  12  13
ATOM     13  C   UNL     1     162.712 175.349 187.769  1.00  0.00    -0.000 C 
BRANCH  13  14
ATOM     14  C   UNL     1     161.361 174.674 187.468  1.00  0.00    -0.000 C 
BRANCH  14  15
ATOM     15  C   UNL     1     161.466 173.320 186.742  1.00  0.00    -0.003 C 
ATOM     16  C   UNL     1     160.668 172.212 187.428  1.00  0.00     0.004 C 
ENDBRANCH  14  15
ENDBRANCH  13  14
ENDBRANCH  12  13
ENDBRANCH  11  12
ENDBRANCH  10  11
ENDBRANCH   1  10
TORSDOF 12
ENDMDL
MODEL 7
REMARK VINA RESULT:    -3.622      3.838      6.826
REMARK INTER + INTRA:          -7.850
REMARK INTER:                  -7.093
REMARK INTRA:                  -0.757
REMARK UNBOUND:                -1.688
REMARK SMILES CCCCCCCCCCCCCC(=O)[O-]
REMARK SMILES IDX 8 1 9 2 10 3 11 4 12 5 13 6 14 7 15 8 16 9 7 10 6 11 5 12
REMARK SMILES IDX 4 13 3 14 2 15 1 16
REMARK H PARENT
REMARK Flexibility Score: inf
ROOT
ATOM      1  C   UNL     1     165.149 176.826 186.415  1.00  0.00     0.000 C 
ENDROOT
BRANCH   1   2
ATOM      2  C   UNL     1     164.579 178.254 186.491  1.00  0.00     0.000 C 
BRANCH   2   3
ATOM      3  C   UNL     1     163.414 178.380 187.489  1.00  0.00     0.000 C 
BRANCH   3   4
ATOM      4  C   UNL     1     162.678 177.048 187.710  1.00  0.00     0.000 C 
BRANCH   4   5
ATOM      5  C   UNL     1     161.149 177.199 187.629  1.00  0.00     0.006 C 
BRANCH   5   6
ATOM      6  C   UNL     1     160.723 178.208 186.554  1.00  0.00     0.053 C 
BRANCH   6   7
ATOM      7  C   UNL     1     160.421 177.536 185.249  1.00  0.00     0.041 C 
ATOM      8  O   UNL     1     160.267 176.289 185.199  1.00  0.00    -0.550 OA
ATOM      9  O   UNL     1     160.340 178.288 184.083  1.00  0.00    -0.550 OA
ENDBRANCH   6   7
ENDBRANCH   5   6
ENDBRANCH   4   5
ENDBRANCH   3   4
ENDBRANCH   2   3
ENDBRANCH   1   2
BRANCH   1  10
ATOM     10  C   UNL     1     166.493 176.621 187.137  1.00  0.00     0.000 C 
BRANCH  10  11
ATOM     11  C   UNL     1     167.290 177.927 187.302  1.00  0.00    -0.000 C 
BRANCH  11  12
ATOM     12  C   UNL     1     168.473 177.777 188.273  1.00  0.00    -0.000 C 
BRANCH  12  13
ATOM     13  C   UNL     1     169.833 177.758 187.554  1.00  0.00    -0.000 C 
BRANCH  13  14
ATOM     14  C   UNL     1     170.067 179.009 186.689  1.00  0.00    -0.000 C 
BRANCH  14  15
ATOM     15  C   UNL     1     170.875 180.125 187.376  1.00  0.00    -0.003 C 
ATOM     16  C   UNL     1     172.344 179.757 187.583  1.00  0.00     0.004 C 
ENDBRANCH  14  15
ENDBRANCH  13  14
ENDBRANCH  12  13
ENDBRANCH  11  12
ENDBRANCH  10  11
ENDBRANCH   1  10
TORSDOF 12
ENDMDL
MODEL 8
REMARK VINA RESULT:    -3.610      2.179      4.523
REMARK INTER + INTRA:          -7.831
REMARK INTER:                  -5.958
REMARK INTRA:                  -1.873
REMARK UNBOUND:                -1.688
REMARK SMILES CCCCCCCCCCCCCC(=O)[O-]
REMARK SMILES IDX 8 1 9 2 10 3 11 4 12 5 13 6 14 7 15 8 16 9 7 10 6 11 5 12
REMARK SMILES IDX 4 13 3 14 2 15 1 16
REMARK H PARENT
REMARK Flexibility Score: inf
ROOT
ATOM      1  C   UNL     1     161.238 177.913 185.387  1.00  0.00     0.000 C 
ENDROOT
BRANCH   1   2
ATOM      2  C   UNL     1     160.243 177.427 184.317  1.00  0.00     0.000 C 
BRANCH   2   3
ATOM      3  C   UNL     1     160.633 176.068 183.712  1.00  0.00     0.000 C 
BRANCH   3   4
ATOM      4  C   UNL     1     162.151 175.828 183.725  1.00  0.00     0.000 C 
BRANCH   4   5
ATOM      5  C   UNL     1     162.796 176.058 182.346  1.00  0.00     0.006 C 
BRANCH   5   6
ATOM      6  C   UNL     1     163.107 177.538 182.092  1.00  0.00     0.053 C 
BRANCH   6   7
ATOM      7  C   UNL     1     162.139 178.152 181.126  1.00  0.00     0.041 C 
ATOM      8  O   UNL     1     161.622 179.272 181.372  1.00  0.00    -0.550 OA
ATOM      9  O   UNL     1     161.787 177.469 179.968  1.00  0.00    -0.550 OA
ENDBRANCH   6   7
ENDBRANCH   5   6
ENDBRANCH   4   5
ENDBRANCH   3   4
ENDBRANCH   2   3
ENDBRANCH   1   2
BRANCH   1  10
ATOM     10  C   UNL     1     160.613 178.249 186.754  1.00  0.00     0.000 C 
BRANCH  10  11
ATOM     11  C   UNL     1     161.162 177.377 187.895  1.00  0.00    -0.000 C 
BRANCH  11  12
ATOM     12  C   UNL     1     161.394 175.919 187.464  1.00  0.00    -0.000 C 
BRANCH  12  13
ATOM     13  C   UNL     1     162.857 175.475 187.636  1.00  0.00    -0.000 C 
BRANCH  13  14
ATOM     14  C   UNL     1     163.854 176.639 187.494  1.00  0.00    -0.000 C 
BRANCH  14  15
ATOM     15  C   UNL     1     164.759 176.563 186.250  1.00  0.00    -0.003 C 
ATOM     16  C   UNL     1     164.862 177.893 185.505  1.00  0.00     0.004 C 
ENDBRANCH  14  15
ENDBRANCH  13  14
ENDBRANCH  12  13
ENDBRANCH  11  12
ENDBRANCH  10  11
ENDBRANCH   1  10
TORSDOF 12
ENDMDL
MODEL 9
REMARK VINA RESULT:    -3.587      1.966      4.568
REMARK INTER + INTRA:          -7.792
REMARK INTER:                  -5.901
REMARK INTRA:                  -1.891
REMARK UNBOUND:                -1.688
REMARK SMILES CCCCCCCCCCCCCC(=O)[O-]
REMARK SMILES IDX 8 1 9 2 10 3 11 4 12 5 13 6 14 7 15 8 16 9 7 10 6 11 5 12
REMARK SMILES IDX 4 13 3 14 2 15 1 16
REMARK H PARENT
REMARK Flexibility Score: inf
ROOT
ATOM      1  C   UNL     1     164.200 174.301 186.673  1.00  0.00     0.000 C 
ENDROOT
BRANCH   1   2
ATOM      2  C   UNL     1     163.220 174.296 187.860  1.00  0.00     0.000 C 
BRANCH   2   3
ATOM      3  C   UNL     1     161.752 174.447 187.423  1.00  0.00     0.000 C 
BRANCH   3   4
ATOM      4  C   UNL     1     161.584 174.422 185.896  1.00  0.00     0.000 C 
BRANCH   4   5
ATOM      5  C   UNL     1     160.682 175.558 185.383  1.00  0.00     0.006 C 
BRANCH   5   6
ATOM      6  C   UNL     1     161.022 175.961 183.942  1.00  0.00     0.053 C 
BRANCH   6   7
ATOM      7  C   UNL     1     161.149 177.447 183.795  1.00  0.00     0.041 C 
ATOM      8  O   UNL     1     160.208 178.202 184.152  1.00  0.00    -0.550 OA
ATOM      9  O   UNL     1     162.298 177.994 183.238  1.00  0.00    -0.550 OA
ENDBRANCH   6   7
ENDBRANCH   5   6
ENDBRANCH   4   5
ENDBRANCH   3   4
ENDBRANCH   2   3
ENDBRANCH   1   2
BRANCH   1  10
ATOM     10  C   UNL     1     165.191 175.480 186.651  1.00  0.00     0.000 C 
BRANCH  10  11
ATOM     11  C   UNL     1     164.799 176.574 185.644  1.00  0.00    -0.000 C 
BRANCH  11  12
ATOM     12  C   UNL     1     165.315 177.964 186.052  1.00  0.00    -0.000 C 
BRANCH  12  13
ATOM     13  C   UNL     1     164.303 178.745 186.908  1.00  0.00    -0.000 C 
BRANCH  13  14
ATOM     14  C   UNL     1     162.863 178.223 186.753  1.00  0.00    -0.000 C 
BRANCH  14  15
ATOM     15  C   UNL     1     162.160 177.870 188.077  1.00  0.00    -0.003 C 
ATOM     16  C   UNL     1     160.653 178.123 188.038  1.00  0.00     0.004 C 
ENDBRANCH  14  15
ENDBRANCH  13  14
ENDBRANCH  12  13
ENDBRANCH  11  12
ENDBRANCH  10  11
ENDBRANCH   1  10
TORSDOF 12
ENDMDL
