MODEL 1
REMARK VINA RESULT:    -4.852      0.000      0.000
REMARK INTER + INTRA:          -5.313
REMARK INTER:                  -5.278
REMARK INTRA:                  -0.035
REMARK UNBOUND:                -0.035
REMARK SMILES O=C([O-])c1ccc(O)cc1
REMARK SMILES IDX 4 1 5 2 10 3 6 4 9 5 7 6 2 7 1 8 3 9 8 10
REMARK H PARENT 8 11
REMARK Flexibility Score: inf
ROOT
ATOM      1  C   UNL     1      10.903   9.736  14.007  1.00  0.00    -0.003 A 
ATOM      2  C   UNL     1      10.056   9.376  12.944  1.00  0.00     0.014 A 
ATOM      3  C   UNL     1      10.340  10.002  15.269  1.00  0.00     0.014 A 
ATOM      4  C   UNL     1       8.674   9.285  13.140  1.00  0.00     0.047 A 
ATOM      5  C   UNL     1       8.957   9.910  15.460  1.00  0.00     0.047 A 
ATOM      6  C   UNL     1       8.122   9.553  14.398  1.00  0.00     0.115 A 
ENDROOT
BRANCH   1   7
ATOM      7  C   UNL     1      12.364   9.831  13.798  1.00  0.00     0.071 C 
ATOM      8  O   UNL     1      12.902   9.311  12.785  1.00  0.00    -0.545 OA
ATOM      9  O   UNL     1      13.165  10.499  14.718  1.00  0.00    -0.545 OA
ENDBRANCH   1   7
BRANCH   6  10
ATOM     10  O   UNL     1       6.747   9.466  14.604  1.00  0.00    -0.508 OA
ATOM     11  H   UNL     1       6.208   8.680  14.258  1.00  0.00     0.293 HD
ENDBRANCH   6  10
TORSDOF 2
ENDMDL
MODEL 2
REMARK VINA RESULT:    -4.848      0.035      1.532
REMARK INTER + INTRA:          -5.309
REMARK INTER:                  -5.273
REMARK INTRA:                  -0.035
REMARK UNBOUND:                -0.035
REMARK SMILES O=C([O-])c1ccc(O)cc1
REMARK SMILES IDX 4 1 5 2 10 3 6 4 9 5 7 6 2 7 1 8 3 9 8 10
REMARK H PARENT 8 11
REMARK Flexibility Score: inf
ROOT
ATOM      1  C   UNL     1      10.929   9.752  14.001  1.00  0.00    -0.003 A 
ATOM      2  C   UNL     1      10.373  10.003  15.268  1.00  0.00     0.014 A 
ATOM      3  C   UNL     1      10.075   9.406  12.938  1.00  0.00     0.014 A 
ATOM      4  C   UNL     1       8.991   9.910  15.466  1.00  0.00     0.047 A 
ATOM      5  C   UNL     1       8.694   9.315  13.140  1.00  0.00     0.047 A 
ATOM      6  C   UNL     1       8.149   9.565  14.402  1.00  0.00     0.115 A 
ENDROOT
BRANCH   1   7
ATOM      7  C   UNL     1      12.390   9.851  13.794  1.00  0.00     0.071 C 
ATOM      8  O   UNL     1      12.926   9.356  12.768  1.00  0.00    -0.545 OA
ATOM      9  O   UNL     1      13.193  10.493  14.730  1.00  0.00    -0.545 OA
ENDBRANCH   1   7
BRANCH   6  10
ATOM     10  O   UNL     1       6.772   9.469  14.588  1.00  0.00    -0.508 OA
ATOM     11  H   UNL     1       6.144  10.206  14.285  1.00  0.00     0.293 HD
ENDBRANCH   6  10
TORSDOF 2
ENDMDL
MODEL 3
REMARK VINA RESULT:    -4.800      1.217      4.037
REMARK INTER + INTRA:          -5.256
REMARK INTER:                  -5.221
REMARK INTRA:                  -0.036
REMARK UNBOUND:                -0.035
REMARK SMILES O=C([O-])c1ccc(O)cc1
REMARK SMILES IDX 4 1 5 2 10 3 6 4 9 5 7 6 2 7 1 8 3 9 8 10
REMARK H PARENT 8 11
REMARK Flexibility Score: inf
ROOT
ATOM      1  C   UNL     1       9.529   9.773  14.102  1.00  0.00    -0.003 A 
ATOM      2  C   UNL     1      10.674   9.364  13.396  1.00  0.00     0.014 A 
ATOM      3  C   UNL     1       9.685  10.538  15.273  1.00  0.00     0.014 A 
ATOM      4  C   UNL     1      11.949   9.713  13.854  1.00  0.00     0.047 A 
ATOM      5  C   UNL     1      10.962  10.884  15.727  1.00  0.00     0.047 A 
ATOM      6  C   UNL     1      12.096  10.474  15.020  1.00  0.00     0.115 A 
ENDROOT
BRANCH   1   7
ATOM      7  C   UNL     1       8.181   9.403  13.617  1.00  0.00     0.071 C 
ATOM      8  O   UNL     1       8.024   8.928  12.462  1.00  0.00    -0.545 OA
ATOM      9  O   UNL     1       7.067   9.574  14.433  1.00  0.00    -0.545 OA
ENDBRANCH   1   7
BRANCH   6  10
ATOM     10  O   UNL     1      13.360  10.827  15.485  1.00  0.00    -0.508 OA
ATOM     11  H   UNL     1      13.829  10.289  16.205  1.00  0.00     0.293 HD
ENDBRANCH   6  10
TORSDOF 2
ENDMDL
MODEL 4
REMARK VINA RESULT:    -4.784      1.196      4.269
REMARK INTER + INTRA:          -5.239
REMARK INTER:                  -5.203
REMARK INTRA:                  -0.036
REMARK UNBOUND:                -0.035
REMARK SMILES O=C([O-])c1ccc(O)cc1
REMARK SMILES IDX 4 1 5 2 10 3 6 4 9 5 7 6 2 7 1 8 3 9 8 10
REMARK H PARENT 8 11
REMARK Flexibility Score: inf
ROOT
ATOM      1  C   UNL     1       9.564   9.776  14.044  1.00  0.00    -0.003 A 
ATOM      2  C   UNL     1       9.721  10.519  15.228  1.00  0.00     0.014 A 
ATOM      3  C   UNL     1      10.709   9.395  13.320  1.00  0.00     0.014 A 
ATOM      4  C   UNL     1      10.998  10.873  15.677  1.00  0.00     0.047 A 
ATOM      5  C   UNL     1      11.983   9.751  13.773  1.00  0.00     0.047 A 
ATOM      6  C   UNL     1      12.132  10.490  14.950  1.00  0.00     0.115 A 
ENDROOT
BRANCH   1   7
ATOM      7  C   UNL     1       8.213   9.404  13.571  1.00  0.00     0.071 C 
ATOM      8  O   UNL     1       8.051   8.898  12.428  1.00  0.00    -0.545 OA
ATOM      9  O   UNL     1       7.102   9.605  14.382  1.00  0.00    -0.545 OA
ENDBRANCH   1   7
BRANCH   6  10
ATOM     10  O   UNL     1      13.408  10.836  15.388  1.00  0.00    -0.508 OA
ATOM     11  H   UNL     1      13.569  11.186  16.326  1.00  0.00     0.293 HD
ENDBRANCH   6  10
TORSDOF 2
ENDMDL
MODEL 5
REMARK VINA RESULT:    -4.599      1.781      2.489
REMARK INTER + INTRA:          -5.038
REMARK INTER:                  -5.007
REMARK INTRA:                  -0.031
REMARK UNBOUND:                -0.035
REMARK SMILES O=C([O-])c1ccc(O)cc1
REMARK SMILES IDX 4 1 5 2 10 3 6 4 9 5 7 6 2 7 1 8 3 9 8 10
REMARK H PARENT 8 11
REMARK Flexibility Score: inf
ROOT
ATOM      1  C   UNL     1      12.462  10.301  14.119  1.00  0.00    -0.003 A 
ATOM      2  C   UNL     1      11.396   9.399  14.287  1.00  0.00     0.014 A 
ATOM      3  C   UNL     1      12.308  11.629  14.559  1.00  0.00     0.014 A 
ATOM      4  C   UNL     1      10.203   9.816  14.884  1.00  0.00     0.047 A 
ATOM      5  C   UNL     1      11.112  12.042  15.155  1.00  0.00     0.047 A 
ATOM      6  C   UNL     1      10.058  11.139  15.319  1.00  0.00     0.115 A 
ENDROOT
BRANCH   1   7
ATOM      7  C   UNL     1      13.724   9.857  13.487  1.00  0.00     0.071 C 
ATOM      8  O   UNL     1      14.835  10.138  14.010  1.00  0.00    -0.545 OA
ATOM      9  O   UNL     1      13.700   9.123  12.307  1.00  0.00    -0.545 OA
ENDBRANCH   1   7
BRANCH   6  10
ATOM     10  O   UNL     1       8.873  11.566  15.914  1.00  0.00    -0.508 OA
ATOM     11  H   UNL     1       8.023  11.016  15.858  1.00  0.00     0.293 HD
ENDBRANCH   6  10
TORSDOF 2
ENDMDL
MODEL 6
REMARK VINA RESULT:    -4.590      1.789      2.676
REMARK INTER + INTRA:          -5.027
REMARK INTER:                  -4.996
REMARK INTRA:                  -0.031
REMARK UNBOUND:                -0.035
REMARK SMILES O=C([O-])c1ccc(O)cc1
REMARK SMILES IDX 4 1 5 2 10 3 6 4 9 5 7 6 2 7 1 8 3 9 8 10
REMARK H PARENT 8 11
REMARK Flexibility Score: inf
ROOT
ATOM      1  C   UNL     1      12.463  10.299  14.131  1.00  0.00    -0.003 A 
ATOM      2  C   UNL     1      12.326  11.632  14.559  1.00  0.00     0.014 A 
ATOM      3  C   UNL     1      11.387   9.411  14.311  1.00  0.00     0.014 A 
ATOM      4  C   UNL     1      11.136  12.065  15.154  1.00  0.00     0.047 A 
ATOM      5  C   UNL     1      10.200   9.848  14.907  1.00  0.00     0.047 A 
ATOM      6  C   UNL     1      10.071  11.174  15.330  1.00  0.00     0.115 A 
ENDROOT
BRANCH   1   7
ATOM      7  C   UNL     1      13.721   9.843  13.502  1.00  0.00     0.071 C 
ATOM      8  O   UNL     1      14.835  10.139  14.009  1.00  0.00    -0.545 OA
ATOM      9  O   UNL     1      13.692   9.078  12.341  1.00  0.00    -0.545 OA
ENDBRANCH   1   7
BRANCH   6  10
ATOM     10  O   UNL     1       8.882  11.595  15.921  1.00  0.00    -0.508 OA
ATOM     11  H   UNL     1       8.008  11.108  15.758  1.00  0.00     0.293 HD
ENDBRANCH   6  10
TORSDOF 2
ENDMDL
MODEL 7
REMARK VINA RESULT:    -4.493      1.602      2.136
REMARK INTER + INTRA:          -4.922
REMARK INTER:                  -4.893
REMARK INTRA:                  -0.029
REMARK UNBOUND:                -0.035
REMARK SMILES O=C([O-])c1ccc(O)cc1
REMARK SMILES IDX 4 1 5 2 10 3 6 4 9 5 7 6 2 7 1 8 3 9 8 10
REMARK H PARENT 8 11
REMARK Flexibility Score: inf
ROOT
ATOM      1  C   UNL     1      10.651  10.401  14.038  1.00  0.00    -0.003 A 
ATOM      2  C   UNL     1      10.947  10.016  12.718  1.00  0.00     0.014 A 
ATOM      3  C   UNL     1       9.397  10.068  14.582  1.00  0.00     0.014 A 
ATOM      4  C   UNL     1      10.007   9.311  11.959  1.00  0.00     0.047 A 
ATOM      5  C   UNL     1       8.460   9.363  13.819  1.00  0.00     0.047 A 
ATOM      6  C   UNL     1       8.761   8.984  12.508  1.00  0.00     0.115 A 
ENDROOT
BRANCH   1   7
ATOM      7  C   UNL     1      11.647  11.146  14.839  1.00  0.00     0.071 C 
ATOM      8  O   UNL     1      11.355  12.260  15.349  1.00  0.00    -0.545 OA
ATOM      9  O   UNL     1      12.921  10.626  15.040  1.00  0.00    -0.545 OA
ENDBRANCH   1   7
BRANCH   6  10
ATOM     10  O   UNL     1       7.817   8.283  11.761  1.00  0.00    -0.508 OA
ATOM     11  H   UNL     1       8.087   7.706  10.972  1.00  0.00     0.293 HD
ENDBRANCH   6  10
TORSDOF 2
ENDMDL
MODEL 8
REMARK VINA RESULT:    -4.460      1.803      2.435
REMARK INTER + INTRA:          -4.886
REMARK INTER:                  -4.855
REMARK INTRA:                  -0.031
REMARK UNBOUND:                -0.035
REMARK SMILES O=C([O-])c1ccc(O)cc1
REMARK SMILES IDX 4 1 5 2 10 3 6 4 9 5 7 6 2 7 1 8 3 9 8 10
REMARK H PARENT 8 11
REMARK Flexibility Score: inf
ROOT
ATOM      1  C   UNL     1      12.035  10.511  13.452  1.00  0.00    -0.003 A 
ATOM      2  C   UNL     1      11.850  11.835  13.891  1.00  0.00     0.014 A 
ATOM      3  C   UNL     1      11.160   9.511  13.914  1.00  0.00     0.014 A 
ATOM      4  C   UNL     1      10.812  12.149  14.774  1.00  0.00     0.047 A 
ATOM      5  C   UNL     1      10.123   9.830  14.797  1.00  0.00     0.047 A 
ATOM      6  C   UNL     1       9.947  11.147  15.229  1.00  0.00     0.115 A 
ENDROOT
BRANCH   1   7
ATOM      7  C   UNL     1      13.133  10.181  12.518  1.00  0.00     0.071 C 
ATOM      8  O   UNL     1      12.927   9.436  11.524  1.00  0.00    -0.545 OA
ATOM      9  O   UNL     1      14.411  10.690  12.725  1.00  0.00    -0.545 OA
ENDBRANCH   1   7
BRANCH   6  10
ATOM     10  O   UNL     1       8.909  11.449  16.109  1.00  0.00    -0.508 OA
ATOM     11  H   UNL     1       8.106  11.992  15.814  1.00  0.00     0.293 HD
ENDBRANCH   6  10
TORSDOF 2
ENDMDL
MODEL 9
REMARK VINA RESULT:    -4.343      2.031      2.626
REMARK INTER + INTRA:          -4.759
REMARK INTER:                  -4.723
REMARK INTRA:                  -0.036
REMARK UNBOUND:                -0.035
REMARK SMILES O=C([O-])c1ccc(O)cc1
REMARK SMILES IDX 4 1 5 2 10 3 6 4 9 5 7 6 2 7 1 8 3 9 8 10
REMARK H PARENT 8 11
REMARK Flexibility Score: inf
ROOT
ATOM      1  C   UNL     1      12.138  10.847  13.316  1.00  0.00    -0.003 A 
ATOM      2  C   UNL     1      11.434   9.680  13.663  1.00  0.00     0.014 A 
ATOM      3  C   UNL     1      11.849  12.046  13.994  1.00  0.00     0.014 A 
ATOM      4  C   UNL     1      10.462   9.713  14.668  1.00  0.00     0.047 A 
ATOM      5  C   UNL     1      10.875  12.073  14.999  1.00  0.00     0.047 A 
ATOM      6  C   UNL     1      10.180  10.910  15.338  1.00  0.00     0.115 A 
ENDROOT
BRANCH   1   7
ATOM      7  C   UNL     1      13.166  10.811  12.253  1.00  0.00     0.071 C 
ATOM      8  O   UNL     1      13.784  11.858  11.924  1.00  0.00    -0.545 OA
ATOM      9  O   UNL     1      13.465   9.619  11.602  1.00  0.00    -0.545 OA
ENDBRANCH   1   7
BRANCH   6  10
ATOM     10  O   UNL     1       9.214  10.953  16.340  1.00  0.00    -0.508 OA
ATOM     11  H   UNL     1       8.678  11.795  16.523  1.00  0.00     0.293 HD
ENDBRANCH   6  10
TORSDOF 2
ENDMDL
