MODEL 1
REMARK VINA RESULT:    -5.143      0.000      0.000
REMARK INTER + INTRA:         -10.977
REMARK INTER:                  -9.051
REMARK INTRA:                  -1.926
REMARK UNBOUND:                -1.926
REMARK SMILES CCCCCCC=CCCCCCCCC(=O)[O-]
REMARK SMILES IDX 10 1 11 2 12 3 13 4 14 5 15 6 16 7 17 8 18 9 9 10 8 11 7 12
REMARK SMILES IDX 6 13 5 14 4 15 3 16 2 17 1 18
REMARK H PARENT
REMARK Flexibility Score: inf
ROOT
ATOM      1  C   UNL     1      18.511  -3.273 -25.160  1.00  0.00     0.004 C 
ENDROOT
BRANCH   1   2
ATOM      2  C   UNL     1      19.256  -4.609 -25.038  1.00  0.00     0.000 C 
BRANCH   2   3
ATOM      3  C   UNL     1      20.449  -4.489 -24.084  1.00  0.00     0.000 C 
BRANCH   3   4
ATOM      4  C   UNL     1      20.890  -3.028 -23.935  1.00  0.00     0.000 C 
BRANCH   4   5
ATOM      5  C   UNL     1      22.341  -2.938 -23.446  1.00  0.00     0.006 C 
BRANCH   5   6
ATOM      6  C   UNL     1      23.225  -3.968 -24.153  1.00  0.00     0.053 C 
BRANCH   6   7
ATOM      7  C   UNL     1      24.180  -4.592 -23.184  1.00  0.00     0.041 C 
ATOM      8  O   UNL     1      25.422  -4.469 -23.352  1.00  0.00    -0.550 OA
ATOM      9  O   UNL     1      23.699  -5.352 -22.125  1.00  0.00    -0.550 OA
ENDBRANCH   6   7
ENDBRANCH   5   6
ENDBRANCH   4   5
ENDBRANCH   3   4
ENDBRANCH   2   3
ENDBRANCH   1   2
BRANCH   1  10
ATOM     10  C   UNL     1      17.622  -3.252 -26.407  1.00  0.00     0.027 C 
BRANCH  10  11
ATOM     11  C   UNL     1      17.927  -4.431 -27.296  1.00  0.00    -0.031 C 
ATOM     12  C   UNL     1      18.840  -4.428 -28.285  1.00  0.00    -0.031 C 
BRANCH  12  13
ATOM     13  C   UNL     1      19.757  -3.271 -28.600  1.00  0.00     0.027 C 
BRANCH  13  14
ATOM     14  C   UNL     1      21.162  -3.456 -27.993  1.00  0.00     0.004 C 
BRANCH  14  15
ATOM     15  C   UNL     1      21.722  -2.189 -27.324  1.00  0.00     0.000 C 
BRANCH  15  16
ATOM     16  C   UNL     1      23.257  -2.119 -27.370  1.00  0.00    -0.000 C 
BRANCH  16  17
ATOM     17  C   UNL     1      23.786  -0.686 -27.208  1.00  0.00    -0.003 C 
ATOM     18  C   UNL     1      23.926  -0.268 -25.744  1.00  0.00     0.004 C 
ENDBRANCH  16  17
ENDBRANCH  15  16
ENDBRANCH  14  15
ENDBRANCH  13  14
ENDBRANCH  12  13
ENDBRANCH  10  11
ENDBRANCH   1  10
TORSDOF 13
ENDMDL
MODEL 2
REMARK VINA RESULT:    -5.056     10.132     11.689
REMARK INTER + INTRA:         -10.824
REMARK INTER:                  -9.975
REMARK INTRA:                  -0.849
REMARK UNBOUND:                -1.926
REMARK SMILES CCCCCCC=CCCCCCCCC(=O)[O-]
REMARK SMILES IDX 10 1 11 2 12 3 13 4 14 5 15 6 16 7 17 8 18 9 9 10 8 11 7 12
REMARK SMILES IDX 6 13 5 14 4 15 3 16 2 17 1 18
REMARK H PARENT
REMARK Flexibility Score: inf
ROOT
ATOM      1  C   UNL     1      22.290   0.766 -16.336  1.00  0.00     0.004 C 
ENDROOT
BRANCH   1   2
ATOM      2  C   UNL     1      21.635   1.900 -17.137  1.00  0.00     0.000 C 
BRANCH   2   3
ATOM      3  C   UNL     1      20.110   1.868 -16.989  1.00  0.00     0.000 C 
BRANCH   3   4
ATOM      4  C   UNL     1      19.674   0.775 -16.007  1.00  0.00     0.000 C 
BRANCH   4   5
ATOM      5  C   UNL     1      18.309   1.101 -15.390  1.00  0.00     0.006 C 
BRANCH   5   6
ATOM      6  C   UNL     1      17.265   1.374 -16.476  1.00  0.00     0.053 C 
BRANCH   6   7
ATOM      7  C   UNL     1      16.266   0.261 -16.533  1.00  0.00     0.041 C 
ATOM      8  O   UNL     1      16.652  -0.937 -16.546  1.00  0.00    -0.550 OA
ATOM      9  O   UNL     1      14.910   0.549 -16.625  1.00  0.00    -0.550 OA
ENDBRANCH   6   7
ENDBRANCH   5   6
ENDBRANCH   4   5
ENDBRANCH   3   4
ENDBRANCH   2   3
ENDBRANCH   1   2
BRANCH   1  10
ATOM     10  C   UNL     1      23.661   0.405 -16.916  1.00  0.00     0.027 C 
BRANCH  10  11
ATOM     11  C   UNL     1      24.504  -0.298 -15.882  1.00  0.00    -0.031 C 
ATOM     12  C   UNL     1      25.531  -1.122 -16.164  1.00  0.00    -0.031 C 
BRANCH  12  13
ATOM     13  C   UNL     1      26.047  -1.401 -17.555  1.00  0.00     0.027 C 
BRANCH  13  14
ATOM     14  C   UNL     1      27.346  -2.232 -17.541  1.00  0.00     0.004 C 
BRANCH  14  15
ATOM     15  C   UNL     1      28.567  -1.487 -18.106  1.00  0.00     0.000 C 
BRANCH  15  16
ATOM     16  C   UNL     1      29.165  -0.481 -17.109  1.00  0.00    -0.000 C 
BRANCH  16  17
ATOM     17  C   UNL     1      29.840  -1.168 -15.912  1.00  0.00    -0.003 C 
ATOM     18  C   UNL     1      29.416  -0.572 -14.570  1.00  0.00     0.004 C 
ENDBRANCH  16  17
ENDBRANCH  15  16
ENDBRANCH  14  15
ENDBRANCH  13  14
ENDBRANCH  12  13
ENDBRANCH  10  11
ENDBRANCH   1  10
TORSDOF 13
ENDMDL
MODEL 3
REMARK VINA RESULT:    -4.944      9.752     11.865
REMARK INTER + INTRA:         -10.627
REMARK INTER:                  -9.963
REMARK INTRA:                  -0.664
REMARK UNBOUND:                -1.926
REMARK SMILES CCCCCCC=CCCCCCCCC(=O)[O-]
REMARK SMILES IDX 10 1 11 2 12 3 13 4 14 5 15 6 16 7 17 8 18 9 9 10 8 11 7 12
REMARK SMILES IDX 6 13 5 14 4 15 3 16 2 17 1 18
REMARK H PARENT
REMARK Flexibility Score: inf
ROOT
ATOM      1  C   UNL     1      25.337  -1.095 -15.757  1.00  0.00     0.004 C 
ENDROOT
BRANCH   1   2
ATOM      2  C   UNL     1      26.485  -1.633 -16.621  1.00  0.00     0.000 C 
BRANCH   2   3
ATOM      3  C   UNL     1      27.841  -1.140 -16.104  1.00  0.00     0.000 C 
BRANCH   3   4
ATOM      4  C   UNL     1      28.840  -0.970 -17.255  1.00  0.00     0.000 C 
BRANCH   4   5
ATOM      5  C   UNL     1      30.253  -1.382 -16.823  1.00  0.00     0.006 C 
BRANCH   5   6
ATOM      6  C   UNL     1      31.040  -0.179 -16.298  1.00  0.00     0.053 C 
BRANCH   6   7
ATOM      7  C   UNL     1      32.509  -0.466 -16.314  1.00  0.00     0.041 C 
ATOM      8  O   UNL     1      33.113  -0.740 -15.244  1.00  0.00    -0.550 OA
ATOM      9  O   UNL     1      33.220  -0.383 -17.505  1.00  0.00    -0.550 OA
ENDBRANCH   6   7
ENDBRANCH   5   6
ENDBRANCH   4   5
ENDBRANCH   3   4
ENDBRANCH   2   3
ENDBRANCH   1   2
BRANCH   1  10
ATOM     10  C   UNL     1      24.300  -0.363 -16.614  1.00  0.00     0.027 C 
BRANCH  10  11
ATOM     11  C   UNL     1      23.500   0.599 -15.771  1.00  0.00    -0.031 C 
ATOM     12  C   UNL     1      22.537   1.411 -16.245  1.00  0.00    -0.031 C 
BRANCH  12  13
ATOM     13  C   UNL     1      22.053   1.423 -17.674  1.00  0.00     0.027 C 
BRANCH  13  14
ATOM     14  C   UNL     1      20.717   2.177 -17.834  1.00  0.00     0.004 C 
BRANCH  14  15
ATOM     15  C   UNL     1      19.494   1.253 -17.963  1.00  0.00     0.000 C 
BRANCH  15  16
ATOM     16  C   UNL     1      18.296   1.729 -17.125  1.00  0.00    -0.000 C 
BRANCH  16  17
ATOM     17  C   UNL     1      17.946   0.754 -15.991  1.00  0.00    -0.003 C 
ATOM     18  C   UNL     1      19.027   0.687 -14.911  1.00  0.00     0.004 C 
ENDBRANCH  16  17
ENDBRANCH  15  16
ENDBRANCH  14  15
ENDBRANCH  13  14
ENDBRANCH  12  13
ENDBRANCH  10  11
ENDBRANCH   1  10
TORSDOF 13
ENDMDL
MODEL 4
REMARK VINA RESULT:    -4.904      9.020     11.250
REMARK INTER + INTRA:         -10.557
REMARK INTER:                  -9.715
REMARK INTRA:                  -0.842
REMARK UNBOUND:                -1.926
REMARK SMILES CCCCCCC=CCCCCCCCC(=O)[O-]
REMARK SMILES IDX 10 1 11 2 12 3 13 4 14 5 15 6 16 7 17 8 18 9 9 10 8 11 7 12
REMARK SMILES IDX 6 13 5 14 4 15 3 16 2 17 1 18
REMARK H PARENT
REMARK Flexibility Score: inf
ROOT
ATOM      1  C   UNL     1      23.330   0.494 -16.367  1.00  0.00     0.004 C 
ENDROOT
BRANCH   1   2
ATOM      2  C   UNL     1      24.356  -0.479 -16.963  1.00  0.00     0.000 C 
BRANCH   2   3
ATOM      3  C   UNL     1      25.436  -0.838 -15.935  1.00  0.00     0.000 C 
BRANCH   3   4
ATOM      4  C   UNL     1      26.601  -1.581 -16.599  1.00  0.00     0.000 C 
BRANCH   4   5
ATOM      5  C   UNL     1      27.926  -1.270 -15.892  1.00  0.00     0.006 C 
BRANCH   5   6
ATOM      6  C   UNL     1      29.109  -1.421 -16.851  1.00  0.00     0.053 C 
BRANCH   6   7
ATOM      7  C   UNL     1      30.320  -0.732 -16.303  1.00  0.00     0.041 C 
ATOM      8  O   UNL     1      31.471  -1.082 -16.675  1.00  0.00    -0.550 OA
ATOM      9  O   UNL     1      30.178   0.263 -15.345  1.00  0.00    -0.550 OA
ENDBRANCH   6   7
ENDBRANCH   5   6
ENDBRANCH   4   5
ENDBRANCH   3   4
ENDBRANCH   2   3
ENDBRANCH   1   2
BRANCH   1  10
ATOM     10  C   UNL     1      22.244   0.841 -17.390  1.00  0.00     0.027 C 
BRANCH  10  11
ATOM     11  C   UNL     1      21.410   1.999 -16.903  1.00  0.00    -0.031 C 
ATOM     12  C   UNL     1      20.247   1.877 -16.235  1.00  0.00    -0.031 C 
BRANCH  12  13
ATOM     13  C   UNL     1      19.646   0.563 -15.797  1.00  0.00     0.027 C 
BRANCH  13  14
ATOM     14  C   UNL     1      18.389   0.756 -14.925  1.00  0.00     0.004 C 
BRANCH  14  15
ATOM     15  C   UNL     1      17.069   0.506 -15.675  1.00  0.00     0.000 C 
BRANCH  15  16
ATOM     16  C   UNL     1      17.257  -0.334 -16.948  1.00  0.00    -0.000 C 
BRANCH  16  17
ATOM     17  C   UNL     1      16.886   0.438 -18.223  1.00  0.00    -0.003 C 
ATOM     18  C   UNL     1      18.107   0.816 -19.063  1.00  0.00     0.004 C 
ENDBRANCH  16  17
ENDBRANCH  15  16
ENDBRANCH  14  15
ENDBRANCH  13  14
ENDBRANCH  12  13
ENDBRANCH  10  11
ENDBRANCH   1  10
TORSDOF 13
ENDMDL
MODEL 5
REMARK VINA RESULT:    -4.894      9.638     12.235
REMARK INTER + INTRA:         -10.538
REMARK INTER:                  -9.234
REMARK INTRA:                  -1.304
REMARK UNBOUND:                -1.926
REMARK SMILES CCCCCCC=CCCCCCCCC(=O)[O-]
REMARK SMILES IDX 10 1 11 2 12 3 13 4 14 5 15 6 16 7 17 8 18 9 9 10 8 11 7 12
REMARK SMILES IDX 6 13 5 14 4 15 3 16 2 17 1 18
REMARK H PARENT
REMARK Flexibility Score: inf
ROOT
ATOM      1  C   UNL     1      26.696  -1.360 -16.007  1.00  0.00     0.004 C 
ENDROOT
BRANCH   1   2
ATOM      2  C   UNL     1      25.932  -1.572 -17.319  1.00  0.00     0.000 C 
BRANCH   2   3
ATOM      3  C   UNL     1      24.638  -0.750 -17.343  1.00  0.00     0.000 C 
BRANCH   3   4
ATOM      4  C   UNL     1      24.296  -0.222 -15.945  1.00  0.00     0.000 C 
BRANCH   4   5
ATOM      5  C   UNL     1      23.211   0.860 -16.014  1.00  0.00     0.006 C 
BRANCH   5   6
ATOM      6  C   UNL     1      22.368   0.712 -17.283  1.00  0.00     0.053 C 
BRANCH   6   7
ATOM      7  C   UNL     1      21.931   2.054 -17.781  1.00  0.00     0.041 C 
ATOM      8  O   UNL     1      22.778   2.864 -18.243  1.00  0.00    -0.550 OA
ATOM      9  O   UNL     1      20.597   2.429 -17.688  1.00  0.00    -0.550 OA
ENDBRANCH   6   7
ENDBRANCH   5   6
ENDBRANCH   4   5
ENDBRANCH   3   4
ENDBRANCH   2   3
ENDBRANCH   1   2
BRANCH   1  10
ATOM     10  C   UNL     1      28.204  -1.263 -16.258  1.00  0.00     0.027 C 
BRANCH  10  11
ATOM     11  C   UNL     1      28.941  -1.010 -14.967  1.00  0.00    -0.031 C 
ATOM     12  C   UNL     1      30.038  -0.238 -14.851  1.00  0.00    -0.031 C 
BRANCH  12  13
ATOM     13  C   UNL     1      30.647   0.559 -15.979  1.00  0.00     0.027 C 
BRANCH  13  14
ATOM     14  C   UNL     1      31.973  -0.051 -16.478  1.00  0.00     0.004 C 
BRANCH  14  15
ATOM     15  C   UNL     1      31.991  -0.350 -17.986  1.00  0.00     0.000 C 
BRANCH  15  16
ATOM     16  C   UNL     1      30.632  -0.101 -18.660  1.00  0.00    -0.000 C 
BRANCH  16  17
ATOM     17  C   UNL     1      30.023  -1.382 -19.251  1.00  0.00    -0.003 C 
ATOM     18  C   UNL     1      28.683  -1.136 -19.944  1.00  0.00     0.004 C 
ENDBRANCH  16  17
ENDBRANCH  15  16
ENDBRANCH  14  15
ENDBRANCH  13  14
ENDBRANCH  12  13
ENDBRANCH  10  11
ENDBRANCH   1  10
TORSDOF 13
ENDMDL
MODEL 6
REMARK VINA RESULT:    -4.870      2.025      4.430
REMARK INTER + INTRA:         -10.498
REMARK INTER:                  -8.904
REMARK INTRA:                  -1.594
REMARK UNBOUND:                -1.926
REMARK SMILES CCCCCCC=CCCCCCCCC(=O)[O-]
REMARK SMILES IDX 10 1 11 2 12 3 13 4 14 5 15 6 16 7 17 8 18 9 9 10 8 11 7 12
REMARK SMILES IDX 6 13 5 14 4 15 3 16 2 17 1 18
REMARK H PARENT
REMARK Flexibility Score: inf
ROOT
ATOM      1  C   UNL     1      21.884  -3.492 -23.619  1.00  0.00     0.004 C 
ENDROOT
BRANCH   1   2
ATOM      2  C   UNL     1      22.570  -4.514 -22.704  1.00  0.00     0.000 C 
BRANCH   2   3
ATOM      3  C   UNL     1      23.983  -4.838 -23.202  1.00  0.00     0.000 C 
BRANCH   3   4
ATOM      4  C   UNL     1      24.986  -4.849 -22.042  1.00  0.00     0.000 C 
BRANCH   4   5
ATOM      5  C   UNL     1      24.843  -3.589 -21.179  1.00  0.00     0.006 C 
BRANCH   5   6
ATOM      6  C   UNL     1      26.060  -3.405 -20.269  1.00  0.00     0.053 C 
BRANCH   6   7
ATOM      7  C   UNL     1      27.294  -3.174 -21.084  1.00  0.00     0.041 C 
ATOM      8  O   UNL     1      28.268  -3.967 -20.997  1.00  0.00    -0.550 OA
ATOM      9  O   UNL     1      27.387  -2.054 -21.901  1.00  0.00    -0.550 OA
ENDBRANCH   6   7
ENDBRANCH   5   6
ENDBRANCH   4   5
ENDBRANCH   3   4
ENDBRANCH   2   3
ENDBRANCH   1   2
BRANCH   1  10
ATOM     10  C   UNL     1      22.174  -3.791 -25.093  1.00  0.00     0.027 C 
BRANCH  10  11
ATOM     11  C   UNL     1      22.059  -2.536 -25.921  1.00  0.00    -0.031 C 
ATOM     12  C   UNL     1      21.576  -2.490 -27.177  1.00  0.00    -0.031 C 
BRANCH  12  13
ATOM     13  C   UNL     1      20.998  -3.672 -27.915  1.00  0.00     0.027 C 
BRANCH  13  14
ATOM     14  C   UNL     1      19.666  -3.332 -28.615  1.00  0.00     0.004 C 
BRANCH  14  15
ATOM     15  C   UNL     1      18.424  -3.867 -27.881  1.00  0.00     0.000 C 
BRANCH  15  16
ATOM     16  C   UNL     1      18.750  -5.024 -26.924  1.00  0.00    -0.000 C 
BRANCH  16  17
ATOM     17  C   UNL     1      18.233  -4.774 -25.499  1.00  0.00    -0.003 C 
ATOM     18  C   UNL     1      18.416  -3.324 -25.048  1.00  0.00     0.004 C 
ENDBRANCH  16  17
ENDBRANCH  15  16
ENDBRANCH  14  15
ENDBRANCH  13  14
ENDBRANCH  12  13
ENDBRANCH  10  11
ENDBRANCH   1  10
TORSDOF 13
ENDMDL
MODEL 7
REMARK VINA RESULT:    -4.861      3.290      6.440
REMARK INTER + INTRA:         -10.480
REMARK INTER:                  -9.615
REMARK INTRA:                  -0.866
REMARK UNBOUND:                -1.926
REMARK SMILES CCCCCCC=CCCCCCCCC(=O)[O-]
REMARK SMILES IDX 10 1 11 2 12 3 13 4 14 5 15 6 16 7 17 8 18 9 9 10 8 11 7 12
REMARK SMILES IDX 6 13 5 14 4 15 3 16 2 17 1 18
REMARK H PARENT
REMARK Flexibility Score: inf
ROOT
ATOM      1  C   UNL     1      22.398  -2.120 -25.765  1.00  0.00     0.004 C 
ENDROOT
BRANCH   1   2
ATOM      2  C   UNL     1      22.036  -2.345 -27.238  1.00  0.00     0.000 C 
BRANCH   2   3
ATOM      3  C   UNL     1      21.031  -3.492 -27.390  1.00  0.00     0.000 C 
BRANCH   3   4
ATOM      4  C   UNL     1      20.198  -3.329 -28.667  1.00  0.00     0.000 C 
BRANCH   4   5
ATOM      5  C   UNL     1      18.754  -3.798 -28.447  1.00  0.00     0.006 C 
BRANCH   5   6
ATOM      6  C   UNL     1      18.308  -3.547 -27.004  1.00  0.00     0.053 C 
BRANCH   6   7
ATOM      7  C   UNL     1      17.609  -4.750 -26.455  1.00  0.00     0.041 C 
ATOM      8  O   UNL     1      16.874  -5.451 -27.200  1.00  0.00    -0.550 OA
ATOM      9  O   UNL     1      17.729  -5.069 -25.108  1.00  0.00    -0.550 OA
ENDBRANCH   6   7
ENDBRANCH   5   6
ENDBRANCH   4   5
ENDBRANCH   3   4
ENDBRANCH   2   3
ENDBRANCH   1   2
BRANCH   1  10
ATOM     10  C   UNL     1      22.050  -3.348 -24.919  1.00  0.00     0.027 C 
BRANCH  10  11
ATOM     11  C   UNL     1      22.029  -2.994 -23.453  1.00  0.00    -0.031 C 
ATOM     12  C   UNL     1      22.611  -3.723 -22.482  1.00  0.00    -0.031 C 
BRANCH  12  13
ATOM     13  C   UNL     1      23.443  -4.960 -22.722  1.00  0.00     0.027 C 
BRANCH  13  14
ATOM     14  C   UNL     1      24.920  -4.624 -23.012  1.00  0.00     0.004 C 
BRANCH  14  15
ATOM     15  C   UNL     1      25.857  -4.862 -21.816  1.00  0.00     0.000 C 
BRANCH  15  16
ATOM     16  C   UNL     1      26.611  -3.592 -21.388  1.00  0.00    -0.000 C 
BRANCH  16  17
ATOM     17  C   UNL     1      28.086  -3.866 -21.058  1.00  0.00    -0.003 C 
ATOM     18  C   UNL     1      28.928  -2.591 -21.002  1.00  0.00     0.004 C 
ENDBRANCH  16  17
ENDBRANCH  15  16
ENDBRANCH  14  15
ENDBRANCH  13  14
ENDBRANCH  12  13
ENDBRANCH  10  11
ENDBRANCH   1  10
TORSDOF 13
ENDMDL
MODEL 8
REMARK VINA RESULT:    -4.843      9.801     11.926
REMARK INTER + INTRA:         -10.450
REMARK INTER:                  -9.683
REMARK INTRA:                  -0.767
REMARK UNBOUND:                -1.926
REMARK SMILES CCCCCCC=CCCCCCCCC(=O)[O-]
REMARK SMILES IDX 10 1 11 2 12 3 13 4 14 5 15 6 16 7 17 8 18 9 9 10 8 11 7 12
REMARK SMILES IDX 6 13 5 14 4 15 3 16 2 17 1 18
REMARK H PARENT
REMARK Flexibility Score: inf
ROOT
ATOM      1  C   UNL     1      23.898   0.119 -16.029  1.00  0.00     0.004 C 
ENDROOT
BRANCH   1   2
ATOM      2  C   UNL     1      23.528   0.248 -17.512  1.00  0.00     0.000 C 
BRANCH   2   3
ATOM      3  C   UNL     1      22.246   1.069 -17.691  1.00  0.00     0.000 C 
BRANCH   3   4
ATOM      4  C   UNL     1      21.627   1.426 -16.335  1.00  0.00     0.000 C 
BRANCH   4   5
ATOM      5  C   UNL     1      20.104   1.570 -16.445  1.00  0.00     0.006 C 
BRANCH   5   6
ATOM      6  C   UNL     1      19.390   0.529 -15.580  1.00  0.00     0.053 C 
BRANCH   6   7
ATOM      7  C   UNL     1      17.946   0.432 -15.961  1.00  0.00     0.041 C 
ATOM      8  O   UNL     1      17.060   0.940 -15.224  1.00  0.00    -0.550 OA
ATOM      9  O   UNL     1      17.575  -0.263 -17.105  1.00  0.00    -0.550 OA
ENDBRANCH   6   7
ENDBRANCH   5   6
ENDBRANCH   4   5
ENDBRANCH   3   4
ENDBRANCH   2   3
ENDBRANCH   1   2
BRANCH   1  10
ATOM     10  C   UNL     1      25.047  -0.875 -15.833  1.00  0.00     0.027 C 
BRANCH  10  11
ATOM     11  C   UNL     1      25.436  -1.501 -17.149  1.00  0.00    -0.031 C 
ATOM     12  C   UNL     1      26.696  -1.818 -17.503  1.00  0.00    -0.031 C 
BRANCH  12  13
ATOM     13  C   UNL     1      27.899  -1.673 -16.603  1.00  0.00     0.027 C 
BRANCH  13  14
ATOM     14  C   UNL     1      29.190  -1.384 -17.394  1.00  0.00     0.004 C 
BRANCH  14  15
ATOM     15  C   UNL     1      29.648   0.082 -17.321  1.00  0.00     0.000 C 
BRANCH  15  16
ATOM     16  C   UNL     1      30.610   0.349 -16.152  1.00  0.00    -0.000 C 
BRANCH  16  17
ATOM     17  C   UNL     1      32.075   0.446 -16.604  1.00  0.00    -0.003 C 
ATOM     18  C   UNL     1      32.948  -0.670 -16.031  1.00  0.00     0.004 C 
ENDBRANCH  16  17
ENDBRANCH  15  16
ENDBRANCH  14  15
ENDBRANCH  13  14
ENDBRANCH  12  13
ENDBRANCH  10  11
ENDBRANCH   1  10
TORSDOF 13
ENDMDL
MODEL 9
REMARK VINA RESULT:    -4.726      1.327      2.048
REMARK INTER + INTRA:         -10.243
REMARK INTER:                  -8.328
REMARK INTRA:                  -1.916
REMARK UNBOUND:                -1.926
REMARK SMILES CCCCCCC=CCCCCCCCC(=O)[O-]
REMARK SMILES IDX 10 1 11 2 12 3 13 4 14 5 15 6 16 7 17 8 18 9 9 10 8 11 7 12
REMARK SMILES IDX 6 13 5 14 4 15 3 16 2 17 1 18
REMARK H PARENT
REMARK Flexibility Score: inf
ROOT
ATOM      1  C   UNL     1      19.991  -3.955 -24.385  1.00  0.00     0.004 C 
ENDROOT
BRANCH   1   2
ATOM      2  C   UNL     1      20.739  -2.694 -23.935  1.00  0.00     0.000 C 
BRANCH   2   3
ATOM      3  C   UNL     1      21.977  -3.054 -23.105  1.00  0.00     0.000 C 
BRANCH   3   4
ATOM      4  C   UNL     1      22.260  -4.559 -23.164  1.00  0.00     0.000 C 
BRANCH   4   5
ATOM      5  C   UNL     1      23.549  -4.908 -22.410  1.00  0.00     0.006 C 
BRANCH   5   6
ATOM      6  C   UNL     1      24.721  -4.054 -22.901  1.00  0.00     0.053 C 
BRANCH   6   7
ATOM      7  C   UNL     1      25.423  -3.414 -21.745  1.00  0.00     0.041 C 
ATOM      8  O   UNL     1      24.770  -3.036 -20.737  1.00  0.00    -0.550 OA
ATOM      9  O   UNL     1      26.793  -3.189 -21.802  1.00  0.00    -0.550 OA
ENDBRANCH   6   7
ENDBRANCH   5   6
ENDBRANCH   4   5
ENDBRANCH   3   4
ENDBRANCH   2   3
ENDBRANCH   1   2
BRANCH   1  10
ATOM     10  C   UNL     1      18.659  -3.596 -25.051  1.00  0.00     0.027 C 
BRANCH  10  11
ATOM     11  C   UNL     1      18.238  -4.680 -26.011  1.00  0.00    -0.031 C 
ATOM     12  C   UNL     1      18.362  -4.608 -27.349  1.00  0.00    -0.031 C 
BRANCH  12  13
ATOM     13  C   UNL     1      19.021  -3.468 -28.087  1.00  0.00     0.027 C 
BRANCH  13  14
ATOM     14  C   UNL     1      20.525  -3.714 -28.324  1.00  0.00     0.004 C 
BRANCH  14  15
ATOM     15  C   UNL     1      21.439  -2.677 -27.650  1.00  0.00     0.000 C 
BRANCH  15  16
ATOM     16  C   UNL     1      22.622  -3.318 -26.907  1.00  0.00    -0.000 C 
BRANCH  16  17
ATOM     17  C   UNL     1      23.631  -2.277 -26.398  1.00  0.00    -0.003 C 
ATOM     18  C   UNL     1      23.684  -1.025 -27.275  1.00  0.00     0.004 C 
ENDBRANCH  16  17
ENDBRANCH  15  16
ENDBRANCH  14  15
ENDBRANCH  13  14
ENDBRANCH  12  13
ENDBRANCH  10  11
ENDBRANCH   1  10
TORSDOF 13
ENDMDL
