MODEL 1
REMARK VINA RESULT:    -4.764      0.000      0.000
REMARK INTER + INTRA:          -5.888
REMARK INTER:                  -5.599
REMARK INTRA:                  -0.289
REMARK UNBOUND:                -0.289
REMARK SMILES O=c1cc(-c2ccc(O)c(O)c2)oc2cc(O)cc(O)c12
REMARK SMILES IDX 4 1 3 2 2 3 1 4 21 5 19 6 18 7 16 8 15 9 14 10 13 11 5 12
REMARK SMILES IDX 6 13 7 14 8 15 12 16 10 17 9 18 11 20 20 22 17 24
REMARK H PARENT 9 19 11 21 20 23 17 25
REMARK Flexibility Score: inf
ROOT
ATOM      1  C   UNL     1       8.336 -31.742  15.595  1.00  0.00     0.138 A 
ATOM      2  C   UNL     1       7.093 -32.289  15.248  1.00  0.00     0.100 A 
ATOM      3  C   UNL     1       7.019 -33.248  14.237  1.00  0.00     0.197 A 
ATOM      4  O   UNL     1       5.900 -33.765  13.990  1.00  0.00    -0.289 OA
ATOM      5  C   UNL     1       8.193 -33.637  13.549  1.00  0.00     0.107 A 
ATOM      6  C   UNL     1       8.232 -34.575  12.474  1.00  0.00     0.134 A 
ATOM      7  C   UNL     1       9.468 -34.970  11.947  1.00  0.00     0.093 A 
ATOM      8  C   UNL     1      10.662 -34.415  12.416  1.00  0.00     0.123 A 
ATOM      9  C   UNL     1      10.630 -33.459  13.428  1.00  0.00     0.094 A 
ATOM     10  C   UNL     1       9.416 -33.070  13.998  1.00  0.00     0.146 A 
ATOM     11  O   UNL     1       9.431 -32.165  14.971  1.00  0.00    -0.456 OA
ENDROOT
BRANCH   1  12
ATOM     12  C   UNL     1       8.472 -30.719  16.662  1.00  0.00     0.021 A 
ATOM     13  C   UNL     1       7.853 -30.873  17.918  1.00  0.00     0.016 A 
ATOM     14  C   UNL     1       7.990 -29.889  18.901  1.00  0.00     0.051 A 
ATOM     15  C   UNL     1       8.738 -28.733  18.645  1.00  0.00     0.157 A 
ATOM     16  C   UNL     1       9.210 -29.548  16.409  1.00  0.00     0.062 A 
ATOM     17  C   UNL     1       9.348 -28.562  17.397  1.00  0.00     0.158 A 
BRANCH  15  18
ATOM     18  O   UNL     1       8.877 -27.751  19.623  1.00  0.00    -0.504 OA
ATOM     19  H   UNL     1       9.527 -26.981  19.512  1.00  0.00     0.293 HD
ENDBRANCH  15  18
BRANCH  17  20
ATOM     20  O   UNL     1      10.088 -27.408  17.143  1.00  0.00    -0.504 OA
ATOM     21  H   UNL     1      10.928 -27.431  16.578  1.00  0.00     0.293 HD
ENDBRANCH  17  20
ENDBRANCH   1  12
BRANCH   6  22
ATOM     22  O   UNL     1       7.095 -35.125  11.875  1.00  0.00    -0.507 OA
ATOM     23  H   UNL     1       7.082 -35.585  10.978  1.00  0.00     0.293 HD
ENDBRANCH   6  22
BRANCH   8  24
ATOM     24  O   UNL     1      11.886 -34.802  11.875  1.00  0.00    -0.508 OA
ATOM     25  H   UNL     1      12.165 -35.776  11.837  1.00  0.00     0.293 HD
ENDBRANCH   8  24
TORSDOF 5
ENDMDL
MODEL 2
REMARK VINA RESULT:    -4.453      1.610      1.828
REMARK INTER + INTRA:          -5.523
REMARK INTER:                  -5.234
REMARK INTRA:                  -0.288
REMARK UNBOUND:                -0.289
REMARK SMILES O=c1cc(-c2ccc(O)c(O)c2)oc2cc(O)cc(O)c12
REMARK SMILES IDX 4 1 3 2 2 3 1 4 21 5 19 6 18 7 16 8 15 9 14 10 13 11 5 12
REMARK SMILES IDX 6 13 7 14 8 15 12 16 10 17 9 18 11 20 20 22 17 24
REMARK H PARENT 9 19 11 21 20 23 17 25
REMARK Flexibility Score: inf
ROOT
ATOM      1  C   UNL     1       8.084 -31.278  15.608  1.00  0.00     0.138 A 
ATOM      2  C   UNL     1       7.392 -32.478  15.399  1.00  0.00     0.100 A 
ATOM      3  C   UNL     1       7.878 -33.403  14.473  1.00  0.00     0.197 A 
ATOM      4  O   UNL     1       7.270 -34.497  14.352  1.00  0.00    -0.289 OA
ATOM      5  C   UNL     1       9.046 -33.108  13.731  1.00  0.00     0.107 A 
ATOM      6  C   UNL     1       9.610 -33.957  12.732  1.00  0.00     0.134 A 
ATOM      7  C   UNL     1      10.834 -33.613  12.145  1.00  0.00     0.093 A 
ATOM      8  C   UNL     1      11.484 -32.421  12.478  1.00  0.00     0.123 A 
ATOM      9  C   UNL     1      10.914 -31.560  13.413  1.00  0.00     0.094 A 
ATOM     10  C   UNL     1       9.711 -31.891  14.041  1.00  0.00     0.146 A 
ATOM     11  O   UNL     1       9.209 -31.049  14.938  1.00  0.00    -0.456 OA
ENDROOT
BRANCH   1  12
ATOM     12  C   UNL     1       7.612 -30.259  16.580  1.00  0.00     0.021 A 
ATOM     13  C   UNL     1       6.290 -29.774  16.559  1.00  0.00     0.016 A 
ATOM     14  C   UNL     1       5.875 -28.808  17.479  1.00  0.00     0.051 A 
ATOM     15  C   UNL     1       6.772 -28.304  18.429  1.00  0.00     0.157 A 
ATOM     16  C   UNL     1       8.510 -29.737  17.528  1.00  0.00     0.062 A 
ATOM     17  C   UNL     1       8.092 -28.768  18.452  1.00  0.00     0.158 A 
BRANCH  15  18
ATOM     18  O   UNL     1       6.361 -27.341  19.348  1.00  0.00    -0.504 OA
ATOM     19  H   UNL     1       5.603 -26.700  19.141  1.00  0.00     0.293 HD
ENDBRANCH  15  18
BRANCH  17  20
ATOM     20  O   UNL     1       8.985 -28.261  19.395  1.00  0.00    -0.504 OA
ATOM     21  H   UNL     1       8.695 -27.585  20.091  1.00  0.00     0.293 HD
ENDBRANCH  17  20
ENDBRANCH   1  12
BRANCH   6  22
ATOM     22  O   UNL     1       9.001 -35.125  12.264  1.00  0.00    -0.507 OA
ATOM     23  H   UNL     1       8.782 -35.313  11.298  1.00  0.00     0.293 HD
ENDBRANCH   6  22
BRANCH   8  24
ATOM     24  O   UNL     1      12.693 -32.079  11.878  1.00  0.00    -0.508 OA
ATOM     25  H   UNL     1      12.735 -31.426  11.104  1.00  0.00     0.293 HD
ENDBRANCH   8  24
TORSDOF 5
ENDMDL
MODEL 3
REMARK VINA RESULT:    -3.605      2.138      7.188
REMARK INTER + INTRA:          -4.526
REMARK INTER:                  -4.208
REMARK INTRA:                  -0.317
REMARK UNBOUND:                -0.289
REMARK SMILES O=c1cc(-c2ccc(O)c(O)c2)oc2cc(O)cc(O)c12
REMARK SMILES IDX 4 1 3 2 2 3 1 4 21 5 19 6 18 7 16 8 15 9 14 10 13 11 5 12
REMARK SMILES IDX 6 13 7 14 8 15 12 16 10 17 9 18 11 20 20 22 17 24
REMARK H PARENT 9 19 11 21 20 23 17 25
REMARK Flexibility Score: inf
ROOT
ATOM      1  C   UNL     1       8.584 -30.988  14.765  1.00  0.00     0.138 A 
ATOM      2  C   UNL     1       9.405 -30.039  14.142  1.00  0.00     0.100 A 
ATOM      3  C   UNL     1      10.021 -29.049  14.910  1.00  0.00     0.197 A 
ATOM      4  O   UNL     1      10.801 -28.249  14.332  1.00  0.00    -0.289 OA
ATOM      5  C   UNL     1       9.785 -28.992  16.304  1.00  0.00     0.107 A 
ATOM      6  C   UNL     1      10.326 -28.003  17.180  1.00  0.00     0.134 A 
ATOM      7  C   UNL     1      10.118 -28.116  18.560  1.00  0.00     0.093 A 
ATOM      8  C   UNL     1       9.339 -29.148  19.090  1.00  0.00     0.123 A 
ATOM      9  C   UNL     1       8.762 -30.087  18.238  1.00  0.00     0.094 A 
ATOM     10  C   UNL     1       8.979 -30.021  16.860  1.00  0.00     0.146 A 
ATOM     11  O   UNL     1       8.423 -30.945  16.084  1.00  0.00    -0.456 OA
ENDROOT
BRANCH   1  12
ATOM     12  C   UNL     1       7.904 -32.062  13.997  1.00  0.00     0.021 A 
ATOM     13  C   UNL     1       7.907 -32.079  12.588  1.00  0.00     0.016 A 
ATOM     14  C   UNL     1       7.251 -33.096  11.891  1.00  0.00     0.051 A 
ATOM     15  C   UNL     1       6.575 -34.107  12.584  1.00  0.00     0.157 A 
ATOM     16  C   UNL     1       7.211 -33.074  14.685  1.00  0.00     0.062 A 
ATOM     17  C   UNL     1       6.553 -34.095  13.984  1.00  0.00     0.158 A 
BRANCH  15  18
ATOM     18  O   UNL     1       5.920 -35.124  11.892  1.00  0.00    -0.504 OA
ATOM     19  H   UNL     1       4.916 -35.107  11.750  1.00  0.00     0.293 HD
ENDBRANCH  15  18
BRANCH  17  20
ATOM     20  O   UNL     1       5.875 -35.100  14.672  1.00  0.00    -0.504 OA
ATOM     21  H   UNL     1       4.879 -35.043  14.849  1.00  0.00     0.293 HD
ENDBRANCH  17  20
ENDBRANCH   1  12
BRANCH   6  22
ATOM     22  O   UNL     1      11.047 -26.886  16.747  1.00  0.00    -0.507 OA
ATOM     23  H   UNL     1      11.957 -26.621  17.088  1.00  0.00     0.293 HD
ENDBRANCH   6  22
BRANCH   8  24
ATOM     24  O   UNL     1       9.124 -29.243  20.463  1.00  0.00    -0.508 OA
ATOM     25  H   UNL     1       9.867 -29.065  21.129  1.00  0.00     0.293 HD
ENDBRANCH   8  24
TORSDOF 5
ENDMDL
MODEL 4
REMARK VINA RESULT:    -3.362      1.873      3.156
REMARK INTER + INTRA:          -4.240
REMARK INTER:                  -3.960
REMARK INTRA:                  -0.280
REMARK UNBOUND:                -0.289
REMARK SMILES O=c1cc(-c2ccc(O)c(O)c2)oc2cc(O)cc(O)c12
REMARK SMILES IDX 4 1 3 2 2 3 1 4 21 5 19 6 18 7 16 8 15 9 14 10 13 11 5 12
REMARK SMILES IDX 6 13 7 14 8 15 12 16 10 17 9 18 11 20 20 22 17 24
REMARK H PARENT 9 19 11 21 20 23 17 25
REMARK Flexibility Score: inf
ROOT
ATOM      1  C   UNL     1       8.784 -30.300  15.394  1.00  0.00     0.138 A 
ATOM      2  C   UNL     1       9.984 -29.762  14.909  1.00  0.00     0.100 A 
ATOM      3  C   UNL     1      10.678 -30.426  13.896  1.00  0.00     0.197 A 
ATOM      4  O   UNL     1      11.718 -29.888  13.438  1.00  0.00    -0.289 OA
ATOM      5  C   UNL     1      10.182 -31.651  13.390  1.00  0.00     0.107 A 
ATOM      6  C   UNL     1      10.825 -32.435  12.386  1.00  0.00     0.134 A 
ATOM      7  C   UNL     1      10.181 -33.571  11.880  1.00  0.00     0.093 A 
ATOM      8  C   UNL     1       8.945 -33.984  12.384  1.00  0.00     0.123 A 
ATOM      9  C   UNL     1       8.335 -33.255  13.402  1.00  0.00     0.094 A 
ATOM     10  C   UNL     1       8.935 -32.098  13.903  1.00  0.00     0.146 A 
ATOM     11  O   UNL     1       8.312 -31.423  14.864  1.00  0.00    -0.456 OA
ENDROOT
BRANCH   1  12
ATOM     12  C   UNL     1       8.006 -29.636  16.471  1.00  0.00     0.021 A 
ATOM     13  C   UNL     1       6.600 -29.575  16.437  1.00  0.00     0.016 A 
ATOM     14  C   UNL     1       5.893 -28.936  17.459  1.00  0.00     0.051 A 
ATOM     15  C   UNL     1       6.577 -28.340  18.526  1.00  0.00     0.157 A 
ATOM     16  C   UNL     1       8.686 -29.024  17.540  1.00  0.00     0.062 A 
ATOM     17  C   UNL     1       7.975 -28.383  18.566  1.00  0.00     0.158 A 
BRANCH  15  18
ATOM     18  O   UNL     1       5.875 -27.702  19.547  1.00  0.00    -0.504 OA
ATOM     19  H   UNL     1       5.761 -28.130  20.459  1.00  0.00     0.293 HD
ENDBRANCH  15  18
BRANCH  17  20
ATOM     20  O   UNL     1       8.654 -27.785  19.627  1.00  0.00    -0.504 OA
ATOM     21  H   UNL     1       9.436 -28.242  20.081  1.00  0.00     0.293 HD
ENDBRANCH  17  20
ENDBRANCH   1  12
BRANCH   6  22
ATOM     22  O   UNL     1      12.097 -32.160  11.875  1.00  0.00    -0.507 OA
ATOM     23  H   UNL     1      12.307 -32.019  10.899  1.00  0.00     0.293 HD
ENDBRANCH   6  22
BRANCH   8  24
ATOM     24  O   UNL     1       8.320 -35.125  11.886  1.00  0.00    -0.508 OA
ATOM     25  H   UNL     1       8.604 -35.545  11.008  1.00  0.00     0.293 HD
ENDBRANCH   8  24
TORSDOF 5
ENDMDL
