MODEL 1
REMARK VINA RESULT:    -4.679      0.000      0.000
REMARK INTER + INTRA:          -9.157
REMARK INTER:                  -8.235
REMARK INTRA:                  -0.921
REMARK UNBOUND:                -0.921
REMARK SMILES CCCCCCCCCCCCCCC(=O)[O-]
REMARK SMILES IDX 9 1 10 2 11 3 12 4 13 5 14 6 15 7 16 8 17 9 8 10 7 11 6 12
REMARK SMILES IDX 5 13 4 14 3 15 2 16 1 17
REMARK H PARENT
REMARK Flexibility Score: inf
ROOT
ATOM      1  C   UNL     1       1.596  -0.539   7.549  1.00  0.00     0.000 C 
ENDROOT
BRANCH   1   2
ATOM      2  C   UNL     1       1.393   0.798   8.284  1.00  0.00     0.000 C 
BRANCH   2   3
ATOM      3  C   UNL     1       1.414   2.001   7.317  1.00  0.00     0.000 C 
BRANCH   3   4
ATOM      4  C   UNL     1       0.717   3.254   7.874  1.00  0.00     0.000 C 
BRANCH   4   5
ATOM      5  C   UNL     1       0.651   4.403   6.856  1.00  0.00     0.006 C 
BRANCH   5   6
ATOM      6  C   UNL     1       1.311   4.034   5.521  1.00  0.00     0.053 C 
BRANCH   6   7
ATOM      7  C   UNL     1       0.888   4.954   4.416  1.00  0.00     0.041 C 
ATOM      8  O   UNL     1      -0.291   5.396   4.378  1.00  0.00    -0.550 OA
ATOM      9  O   UNL     1       1.802   5.345   3.446  1.00  0.00    -0.550 OA
ENDBRANCH   6   7
ENDBRANCH   5   6
ENDBRANCH   4   5
ENDBRANCH   3   4
ENDBRANCH   2   3
ENDBRANCH   1   2
BRANCH   1  10
ATOM     10  C   UNL     1       1.674  -0.372   6.024  1.00  0.00     0.000 C 
BRANCH  10  11
ATOM     11  C   UNL     1       0.947  -1.492   5.267  1.00  0.00    -0.000 C 
BRANCH  11  12
ATOM     12  C   UNL     1      -0.024  -2.240   6.194  1.00  0.00    -0.000 C 
BRANCH  12  13
ATOM     13  C   UNL     1      -1.302  -2.692   5.468  1.00  0.00    -0.000 C 
BRANCH  13  14
ATOM     14  C   UNL     1      -1.856  -1.616   4.518  1.00  0.00    -0.000 C 
BRANCH  14  15
ATOM     15  C   UNL     1      -3.136  -2.065   3.790  1.00  0.00    -0.000 C 
BRANCH  15  16
ATOM     16  C   UNL     1      -4.341  -1.124   3.968  1.00  0.00    -0.003 C 
ATOM     17  C   UNL     1      -4.723  -0.913   5.434  1.00  0.00     0.004 C 
ENDBRANCH  15  16
ENDBRANCH  14  15
ENDBRANCH  13  14
ENDBRANCH  12  13
ENDBRANCH  11  12
ENDBRANCH  10  11
ENDBRANCH   1  10
TORSDOF 13
ENDMDL
MODEL 2
REMARK VINA RESULT:    -4.391      4.284      5.678
REMARK INTER + INTRA:          -8.649
REMARK INTER:                  -6.590
REMARK INTRA:                  -2.059
REMARK UNBOUND:                -0.921
REMARK SMILES CCCCCCCCCCCCCCC(=O)[O-]
REMARK SMILES IDX 9 1 10 2 11 3 12 4 13 5 14 6 15 7 16 8 17 9 8 10 7 11 6 12
REMARK SMILES IDX 5 13 4 14 3 15 2 16 1 17
REMARK H PARENT
REMARK Flexibility Score: inf
ROOT
ATOM      1  C   UNL     1      -3.255  -4.485   6.258  1.00  0.00     0.000 C 
ENDROOT
BRANCH   1   2
ATOM      2  C   UNL     1      -2.203  -3.876   7.202  1.00  0.00     0.000 C 
BRANCH   2   3
ATOM      3  C   UNL     1      -0.837  -3.689   6.506  1.00  0.00     0.000 C 
BRANCH   3   4
ATOM      4  C   UNL     1      -0.307  -2.246   6.564  1.00  0.00     0.000 C 
BRANCH   4   5
ATOM      5  C   UNL     1       0.477  -1.847   5.304  1.00  0.00     0.006 C 
BRANCH   5   6
ATOM      6  C   UNL     1       1.900  -1.375   5.632  1.00  0.00     0.053 C 
BRANCH   6   7
ATOM      7  C   UNL     1       2.920  -2.434   5.340  1.00  0.00     0.041 C 
ATOM      8  O   UNL     1       3.005  -3.451   6.078  1.00  0.00    -0.550 OA
ATOM      9  O   UNL     1       3.755  -2.311   4.237  1.00  0.00    -0.550 OA
ENDBRANCH   6   7
ENDBRANCH   5   6
ENDBRANCH   4   5
ENDBRANCH   3   4
ENDBRANCH   2   3
ENDBRANCH   1   2
BRANCH   1  10
ATOM     10  C   UNL     1      -2.676  -4.856   4.884  1.00  0.00     0.000 C 
BRANCH  10  11
ATOM     11  C   UNL     1      -3.392  -4.145   3.726  1.00  0.00    -0.000 C 
BRANCH  11  12
ATOM     12  C   UNL     1      -2.501  -3.051   3.120  1.00  0.00    -0.000 C 
BRANCH  12  13
ATOM     13  C   UNL     1      -2.689  -1.689   3.807  1.00  0.00    -0.000 C 
BRANCH  13  14
ATOM     14  C   UNL     1      -4.170  -1.297   3.948  1.00  0.00    -0.000 C 
BRANCH  14  15
ATOM     15  C   UNL     1      -4.559  -0.949   5.396  1.00  0.00    -0.000 C 
BRANCH  15  16
ATOM     16  C   UNL     1      -5.829  -1.652   5.907  1.00  0.00    -0.003 C 
ATOM     17  C   UNL     1      -6.530  -2.478   4.828  1.00  0.00     0.004 C 
ENDBRANCH  15  16
ENDBRANCH  14  15
ENDBRANCH  13  14
ENDBRANCH  12  13
ENDBRANCH  11  12
ENDBRANCH  10  11
ENDBRANCH   1  10
TORSDOF 13
ENDMDL
MODEL 3
REMARK VINA RESULT:    -4.309      4.109      5.718
REMARK INTER + INTRA:          -8.505
REMARK INTER:                  -6.327
REMARK INTRA:                  -2.178
REMARK UNBOUND:                -0.921
REMARK SMILES CCCCCCCCCCCCCCC(=O)[O-]
REMARK SMILES IDX 9 1 10 2 11 3 12 4 13 5 14 6 15 7 16 8 17 9 8 10 7 11 6 12
REMARK SMILES IDX 5 13 4 14 3 15 2 16 1 17
REMARK H PARENT
REMARK Flexibility Score: inf
ROOT
ATOM      1  C   UNL     1      -3.779  -4.065   6.752  1.00  0.00     0.000 C 
ENDROOT
BRANCH   1   2
ATOM      2  C   UNL     1      -2.288  -4.404   6.933  1.00  0.00     0.000 C 
BRANCH   2   3
ATOM      3  C   UNL     1      -1.461  -3.172   7.360  1.00  0.00     0.000 C 
BRANCH   3   4
ATOM      4  C   UNL     1      -0.124  -3.038   6.611  1.00  0.00     0.000 C 
BRANCH   4   5
ATOM      5  C   UNL     1       0.386  -1.589   6.555  1.00  0.00     0.006 C 
BRANCH   5   6
ATOM      6  C   UNL     1       1.180  -1.303   5.273  1.00  0.00     0.053 C 
BRANCH   6   7
ATOM      7  C   UNL     1       2.607  -1.745   5.391  1.00  0.00     0.041 C 
ATOM      8  O   UNL     1       3.164  -2.344   4.433  1.00  0.00    -0.550 OA
ATOM      9  O   UNL     1       3.329  -1.469   6.544  1.00  0.00    -0.550 OA
ENDBRANCH   6   7
ENDBRANCH   5   6
ENDBRANCH   4   5
ENDBRANCH   3   4
ENDBRANCH   2   3
ENDBRANCH   1   2
BRANCH   1  10
ATOM     10  C   UNL     1      -4.103  -2.605   7.105  1.00  0.00     0.000 C 
BRANCH  10  11
ATOM     11  C   UNL     1      -5.156  -1.990   6.172  1.00  0.00    -0.000 C 
BRANCH  11  12
ATOM     12  C   UNL     1      -4.548  -0.857   5.331  1.00  0.00    -0.000 C 
BRANCH  12  13
ATOM     13  C   UNL     1      -3.979  -1.356   3.993  1.00  0.00    -0.000 C 
BRANCH  13  14
ATOM     14  C   UNL     1      -2.474  -1.668   4.070  1.00  0.00    -0.000 C 
BRANCH  14  15
ATOM     15  C   UNL     1      -2.094  -2.961   3.327  1.00  0.00    -0.000 C 
BRANCH  15  16
ATOM     16  C   UNL     1      -3.283  -3.869   2.966  1.00  0.00    -0.003 C 
ATOM     17  C   UNL     1      -3.063  -5.329   3.367  1.00  0.00     0.004 C 
ENDBRANCH  15  16
ENDBRANCH  14  15
ENDBRANCH  13  14
ENDBRANCH  12  13
ENDBRANCH  11  12
ENDBRANCH  10  11
ENDBRANCH   1  10
TORSDOF 13
ENDMDL
MODEL 4
REMARK VINA RESULT:    -4.307      2.730      4.499
REMARK INTER + INTRA:          -8.502
REMARK INTER:                  -7.400
REMARK INTRA:                  -1.101
REMARK UNBOUND:                -0.921
REMARK SMILES CCCCCCCCCCCCCCC(=O)[O-]
REMARK SMILES IDX 9 1 10 2 11 3 12 4 13 5 14 6 15 7 16 8 17 9 8 10 7 11 6 12
REMARK SMILES IDX 5 13 4 14 3 15 2 16 1 17
REMARK H PARENT
REMARK Flexibility Score: inf
ROOT
ATOM      1  C   UNL     1       1.591   2.051   7.418  1.00  0.00     0.000 C 
ENDROOT
BRANCH   1   2
ATOM      2  C   UNL     1       1.032   3.330   8.065  1.00  0.00     0.000 C 
BRANCH   2   3
ATOM      3  C   UNL     1       0.575   4.363   7.012  1.00  0.00     0.000 C 
BRANCH   3   4
ATOM      4  C   UNL     1       1.257   4.192   5.644  1.00  0.00     0.000 C 
BRANCH   4   5
ATOM      5  C   UNL     1       0.657   5.101   4.560  1.00  0.00     0.006 C 
BRANCH   5   6
ATOM      6  C   UNL     1      -0.682   5.714   4.994  1.00  0.00     0.053 C 
BRANCH   6   7
ATOM      7  C   UNL     1      -0.607   7.208   5.088  1.00  0.00     0.041 C 
ATOM      8  O   UNL     1      -0.417   7.899   4.052  1.00  0.00    -0.550 OA
ATOM      9  O   UNL     1      -0.775   7.838   6.315  1.00  0.00    -0.550 OA
ENDBRANCH   6   7
ENDBRANCH   5   6
ENDBRANCH   4   5
ENDBRANCH   3   4
ENDBRANCH   2   3
ENDBRANCH   1   2
BRANCH   1  10
ATOM     10  C   UNL     1       1.425   0.812   8.311  1.00  0.00     0.000 C 
BRANCH  10  11
ATOM     11  C   UNL     1       1.365  -0.495   7.508  1.00  0.00    -0.000 C 
BRANCH  11  12
ATOM     12  C   UNL     1       1.146  -0.210   6.014  1.00  0.00    -0.000 C 
BRANCH  12  13
ATOM     13  C   UNL     1       1.162  -1.490   5.162  1.00  0.00    -0.000 C 
BRANCH  13  14
ATOM     14  C   UNL     1       2.305  -2.445   5.548  1.00  0.00    -0.000 C 
BRANCH  14  15
ATOM     15  C   UNL     1       3.672  -1.988   5.010  1.00  0.00    -0.000 C 
BRANCH  15  16
ATOM     16  C   UNL     1       4.723  -1.689   6.094  1.00  0.00    -0.003 C 
ATOM     17  C   UNL     1       4.446  -2.414   7.411  1.00  0.00     0.004 C 
ENDBRANCH  15  16
ENDBRANCH  14  15
ENDBRANCH  13  14
ENDBRANCH  12  13
ENDBRANCH  11  12
ENDBRANCH  10  11
ENDBRANCH   1  10
TORSDOF 13
ENDMDL
MODEL 5
REMARK VINA RESULT:    -4.295      4.456      7.057
REMARK INTER + INTRA:          -8.481
REMARK INTER:                  -6.805
REMARK INTRA:                  -1.677
REMARK UNBOUND:                -0.921
REMARK SMILES CCCCCCCCCCCCCCC(=O)[O-]
REMARK SMILES IDX 9 1 10 2 11 3 12 4 13 5 14 6 15 7 16 8 17 9 8 10 7 11 6 12
REMARK SMILES IDX 5 13 4 14 3 15 2 16 1 17
REMARK H PARENT
REMARK Flexibility Score: inf
ROOT
ATOM      1  C   UNL     1      -2.668  -5.144   3.796  1.00  0.00     0.000 C 
ENDROOT
BRANCH   1   2
ATOM      2  C   UNL     1      -2.582  -3.791   3.065  1.00  0.00     0.000 C 
BRANCH   2   3
ATOM      3  C   UNL     1      -3.767  -2.866   3.415  1.00  0.00     0.000 C 
BRANCH   3   4
ATOM      4  C   UNL     1      -3.338  -1.484   3.938  1.00  0.00     0.000 C 
BRANCH   4   5
ATOM      5  C   UNL     1      -4.432  -0.794   4.768  1.00  0.00     0.006 C 
BRANCH   5   6
ATOM      6  C   UNL     1      -4.878  -1.647   5.964  1.00  0.00     0.053 C 
BRANCH   6   7
ATOM      7  C   UNL     1      -5.531  -0.817   7.027  1.00  0.00     0.041 C 
ATOM      8  O   UNL     1      -5.749  -1.307   8.167  1.00  0.00    -0.550 OA
ATOM      9  O   UNL     1      -5.873   0.504   6.769  1.00  0.00    -0.550 OA
ENDBRANCH   6   7
ENDBRANCH   5   6
ENDBRANCH   4   5
ENDBRANCH   3   4
ENDBRANCH   2   3
ENDBRANCH   1   2
BRANCH   1  10
ATOM     10  C   UNL     1      -2.918  -4.989   5.304  1.00  0.00     0.000 C 
BRANCH  10  11
ATOM     11  C   UNL     1      -1.642  -4.642   6.084  1.00  0.00    -0.000 C 
BRANCH  11  12
ATOM     12  C   UNL     1      -1.833  -3.357   6.904  1.00  0.00    -0.000 C 
BRANCH  12  13
ATOM     13  C   UNL     1      -0.606  -2.432   6.845  1.00  0.00    -0.000 C 
BRANCH  13  14
ATOM     14  C   UNL     1      -0.056  -2.268   5.417  1.00  0.00    -0.000 C 
BRANCH  14  15
ATOM     15  C   UNL     1       1.270  -1.487   5.374  1.00  0.00    -0.000 C 
BRANCH  15  16
ATOM     16  C   UNL     1       2.506  -2.295   5.809  1.00  0.00    -0.003 C 
ATOM     17  C   UNL     1       3.526  -2.478   4.684  1.00  0.00     0.004 C 
ENDBRANCH  15  16
ENDBRANCH  14  15
ENDBRANCH  13  14
ENDBRANCH  12  13
ENDBRANCH  11  12
ENDBRANCH  10  11
ENDBRANCH   1  10
TORSDOF 13
ENDMDL
MODEL 6
REMARK VINA RESULT:    -4.232      6.253      9.032
REMARK INTER + INTRA:          -8.370
REMARK INTER:                  -7.278
REMARK INTRA:                  -1.092
REMARK UNBOUND:                -0.921
REMARK SMILES CCCCCCCCCCCCCCC(=O)[O-]
REMARK SMILES IDX 9 1 10 2 11 3 12 4 13 5 14 6 15 7 16 8 17 9 8 10 7 11 6 12
REMARK SMILES IDX 5 13 4 14 3 15 2 16 1 17
REMARK H PARENT
REMARK Flexibility Score: inf
ROOT
ATOM      1  C   UNL     1      -3.495  -6.015   1.655  1.00  0.00     0.000 C 
ENDROOT
BRANCH   1   2
ATOM      2  C   UNL     1      -4.301  -5.101   0.714  1.00  0.00     0.000 C 
BRANCH   2   3
ATOM      3  C   UNL     1      -3.737  -5.104  -0.723  1.00  0.00     0.000 C 
BRANCH   3   4
ATOM      4  C   UNL     1      -2.259  -5.523  -0.805  1.00  0.00     0.000 C 
BRANCH   4   5
ATOM      5  C   UNL     1      -1.302  -4.323  -0.879  1.00  0.00     0.006 C 
BRANCH   5   6
ATOM      6  C   UNL     1      -0.730  -4.123  -2.289  1.00  0.00     0.053 C 
BRANCH   6   7
ATOM      7  C   UNL     1       0.314  -5.147  -2.617  1.00  0.00     0.041 C 
ATOM      8  O   UNL     1       0.127  -5.961  -3.560  1.00  0.00    -0.550 OA
ATOM      9  O   UNL     1       1.504  -5.183  -1.902  1.00  0.00    -0.550 OA
ENDBRANCH   6   7
ENDBRANCH   5   6
ENDBRANCH   4   5
ENDBRANCH   3   4
ENDBRANCH   2   3
ENDBRANCH   1   2
BRANCH   1  10
ATOM     10  C   UNL     1      -3.008  -5.286   2.917  1.00  0.00     0.000 C 
BRANCH  10  11
ATOM     11  C   UNL     1      -2.800  -3.781   2.689  1.00  0.00    -0.000 C 
BRANCH  11  12
ATOM     12  C   UNL     1      -2.079  -3.140   3.884  1.00  0.00    -0.000 C 
BRANCH  12  13
ATOM     13  C   UNL     1      -2.551  -1.703   4.156  1.00  0.00    -0.000 C 
BRANCH  13  14
ATOM     14  C   UNL     1      -3.964  -1.431   3.612  1.00  0.00    -0.000 C 
BRANCH  14  15
ATOM     15  C   UNL     1      -5.068  -1.728   4.644  1.00  0.00    -0.000 C 
BRANCH  15  16
ATOM     16  C   UNL     1      -4.749  -1.268   6.078  1.00  0.00    -0.003 C 
ATOM     17  C   UNL     1      -5.707  -0.189   6.585  1.00  0.00     0.004 C 
ENDBRANCH  15  16
ENDBRANCH  14  15
ENDBRANCH  13  14
ENDBRANCH  12  13
ENDBRANCH  11  12
ENDBRANCH  10  11
ENDBRANCH   1  10
TORSDOF 13
ENDMDL
MODEL 7
REMARK VINA RESULT:    -4.204      3.999      5.792
REMARK INTER + INTRA:          -8.321
REMARK INTER:                  -6.381
REMARK INTRA:                  -1.939
REMARK UNBOUND:                -0.921
REMARK SMILES CCCCCCCCCCCCCCC(=O)[O-]
REMARK SMILES IDX 9 1 10 2 11 3 12 4 13 5 14 6 15 7 16 8 17 9 8 10 7 11 6 12
REMARK SMILES IDX 5 13 4 14 3 15 2 16 1 17
REMARK H PARENT
REMARK Flexibility Score: inf
ROOT
ATOM      1  C   UNL     1      -2.770  -5.616   5.466  1.00  0.00     0.000 C 
ENDROOT
BRANCH   1   2
ATOM      2  C   UNL     1      -3.323  -4.519   6.393  1.00  0.00     0.000 C 
BRANCH   2   3
ATOM      3  C   UNL     1      -2.265  -4.022   7.401  1.00  0.00     0.000 C 
BRANCH   3   4
ATOM      4  C   UNL     1      -1.514  -2.762   6.936  1.00  0.00     0.000 C 
BRANCH   4   5
ATOM      5  C   UNL     1      -0.205  -3.085   6.199  1.00  0.00     0.006 C 
BRANCH   5   6
ATOM      6  C   UNL     1       0.194  -1.978   5.214  1.00  0.00     0.053 C 
BRANCH   6   7
ATOM      7  C   UNL     1       1.615  -1.544   5.408  1.00  0.00     0.041 C 
ATOM      8  O   UNL     1       2.541  -2.101   4.761  1.00  0.00    -0.550 OA
ATOM      9  O   UNL     1       1.914  -0.506   6.282  1.00  0.00    -0.550 OA
ENDBRANCH   6   7
ENDBRANCH   5   6
ENDBRANCH   4   5
ENDBRANCH   3   4
ENDBRANCH   2   3
ENDBRANCH   1   2
BRANCH   1  10
ATOM     10  C   UNL     1      -2.718  -5.179   3.994  1.00  0.00     0.000 C 
BRANCH  10  11
ATOM     11  C   UNL     1      -3.608  -3.961   3.706  1.00  0.00    -0.000 C 
BRANCH  11  12
ATOM     12  C   UNL     1      -2.785  -2.807   3.115  1.00  0.00    -0.000 C 
BRANCH  12  13
ATOM     13  C   UNL     1      -3.028  -1.475   3.843  1.00  0.00    -0.000 C 
BRANCH  13  14
ATOM     14  C   UNL     1      -4.491  -1.302   4.287  1.00  0.00    -0.000 C 
BRANCH  14  15
ATOM     15  C   UNL     1      -4.628  -1.038   5.797  1.00  0.00    -0.000 C 
BRANCH  15  16
ATOM     16  C   UNL     1      -6.075  -0.846   6.288  1.00  0.00    -0.003 C 
ATOM     17  C   UNL     1      -6.277   0.460   7.057  1.00  0.00     0.004 C 
ENDBRANCH  15  16
ENDBRANCH  14  15
ENDBRANCH  13  14
ENDBRANCH  12  13
ENDBRANCH  11  12
ENDBRANCH  10  11
ENDBRANCH   1  10
TORSDOF 13
ENDMDL
MODEL 8
REMARK VINA RESULT:    -4.180      2.010      3.089
REMARK INTER + INTRA:          -8.278
REMARK INTER:                  -7.331
REMARK INTRA:                  -0.947
REMARK UNBOUND:                -0.921
REMARK SMILES CCCCCCCCCCCCCCC(=O)[O-]
REMARK SMILES IDX 9 1 10 2 11 3 12 4 13 5 14 6 15 7 16 8 17 9 8 10 7 11 6 12
REMARK SMILES IDX 5 13 4 14 3 15 2 16 1 17
REMARK H PARENT
REMARK Flexibility Score: inf
ROOT
ATOM      1  C   UNL     1       2.010   0.416   8.146  1.00  0.00     0.000 C 
ENDROOT
BRANCH   1   2
ATOM      2  C   UNL     1       1.572   1.311   6.973  1.00  0.00     0.000 C 
BRANCH   2   3
ATOM      3  C   UNL     1       1.252   2.751   7.429  1.00  0.00     0.000 C 
BRANCH   3   4
ATOM      4  C   UNL     1       1.375   3.795   6.306  1.00  0.00     0.000 C 
BRANCH   4   5
ATOM      5  C   UNL     1       0.358   4.940   6.442  1.00  0.00     0.006 C 
BRANCH   5   6
ATOM      6  C   UNL     1      -0.219   5.367   5.085  1.00  0.00     0.053 C 
BRANCH   6   7
ATOM      7  C   UNL     1      -1.069   6.595   5.202  1.00  0.00     0.041 C 
ATOM      8  O   UNL     1      -1.061   7.460   4.286  1.00  0.00    -0.550 OA
ATOM      9  O   UNL     1      -1.891   6.771   6.307  1.00  0.00    -0.550 OA
ENDBRANCH   6   7
ENDBRANCH   5   6
ENDBRANCH   4   5
ENDBRANCH   3   4
ENDBRANCH   2   3
ENDBRANCH   1   2
BRANCH   1  10
ATOM     10  C   UNL     1       3.467  -0.054   8.022  1.00  0.00     0.000 C 
BRANCH  10  11
ATOM     11  C   UNL     1       3.582  -1.505   7.534  1.00  0.00    -0.000 C 
BRANCH  11  12
ATOM     12  C   UNL     1       3.955  -1.555   6.045  1.00  0.00    -0.000 C 
BRANCH  12  13
ATOM     13  C   UNL     1       2.998  -2.436   5.226  1.00  0.00    -0.000 C 
BRANCH  13  14
ATOM     14  C   UNL     1       1.598  -2.535   5.858  1.00  0.00    -0.000 C 
BRANCH  14  15
ATOM     15  C   UNL     1       0.569  -1.618   5.173  1.00  0.00    -0.000 C 
BRANCH  15  16
ATOM     16  C   UNL     1      -0.832  -2.233   5.008  1.00  0.00    -0.003 C 
ATOM     17  C   UNL     1      -1.432  -2.716   6.330  1.00  0.00     0.004 C 
ENDBRANCH  15  16
ENDBRANCH  14  15
ENDBRANCH  13  14
ENDBRANCH  12  13
ENDBRANCH  11  12
ENDBRANCH  10  11
ENDBRANCH   1  10
TORSDOF 13
ENDMDL
MODEL 9
REMARK VINA RESULT:    -4.037      4.036      5.327
REMARK INTER + INTRA:          -8.027
REMARK INTER:                  -6.394
REMARK INTRA:                  -1.633
REMARK UNBOUND:                -0.921
REMARK SMILES CCCCCCCCCCCCCCC(=O)[O-]
REMARK SMILES IDX 9 1 10 2 11 3 12 4 13 5 14 6 15 7 16 8 17 9 8 10 7 11 6 12
REMARK SMILES IDX 5 13 4 14 3 15 2 16 1 17
REMARK H PARENT
REMARK Flexibility Score: inf
ROOT
ATOM      1  C   UNL     1      -0.689  -2.580   6.545  1.00  0.00     0.000 C 
ENDROOT
BRANCH   1   2
ATOM      2  C   UNL     1      -0.250  -1.937   5.217  1.00  0.00     0.000 C 
BRANCH   2   3
ATOM      3  C   UNL     1       1.142  -1.278   5.323  1.00  0.00     0.000 C 
BRANCH   3   4
ATOM      4  C   UNL     1       2.307  -2.279   5.246  1.00  0.00     0.000 C 
BRANCH   4   5
ATOM      5  C   UNL     1       3.660  -1.649   5.610  1.00  0.00     0.006 C 
BRANCH   5   6
ATOM      6  C   UNL     1       4.201  -2.169   6.949  1.00  0.00     0.053 C 
BRANCH   6   7
ATOM      7  C   UNL     1       3.950  -1.200   8.065  1.00  0.00     0.041 C 
ATOM      8  O   UNL     1       3.371  -0.105   7.834  1.00  0.00    -0.550 OA
ATOM      9  O   UNL     1       4.329  -1.518   9.363  1.00  0.00    -0.550 OA
ENDBRANCH   6   7
ENDBRANCH   5   6
ENDBRANCH   4   5
ENDBRANCH   3   4
ENDBRANCH   2   3
ENDBRANCH   1   2
BRANCH   1  10
ATOM     10  C   UNL     1      -1.316  -3.970   6.352  1.00  0.00     0.000 C 
BRANCH  10  11
ATOM     11  C   UNL     1      -2.791  -4.018   6.775  1.00  0.00    -0.000 C 
BRANCH  11  12
ATOM     12  C   UNL     1      -3.354  -2.602   6.967  1.00  0.00    -0.000 C 
BRANCH  12  13
ATOM     13  C   UNL     1      -4.516  -2.294   6.008  1.00  0.00    -0.000 C 
BRANCH  13  14
ATOM     14  C   UNL     1      -4.228  -1.088   5.097  1.00  0.00    -0.000 C 
BRANCH  14  15
ATOM     15  C   UNL     1      -3.593  -1.494   3.755  1.00  0.00    -0.000 C 
BRANCH  15  16
ATOM     16  C   UNL     1      -3.854  -2.951   3.333  1.00  0.00    -0.003 C 
ATOM     17  C   UNL     1      -2.593  -3.669   2.853  1.00  0.00     0.004 C 
ENDBRANCH  15  16
ENDBRANCH  14  15
ENDBRANCH  13  14
ENDBRANCH  12  13
ENDBRANCH  11  12
ENDBRANCH  10  11
ENDBRANCH   1  10
TORSDOF 13
ENDMDL
