MODEL 1
REMARK VINA RESULT:    97.064      0.000      0.000
REMARK INTER + INTRA:         105.603
REMARK INTER:                 105.576
REMARK INTRA:                   0.027
REMARK UNBOUND:                 0.027
REMARK SMILES CC1(C)CC[C@]2(C(=O)[O-])CC[C@]3(C)C(=CC[C@@H]4[C@@]5(C)CC[C@H](O)C(C)(C)[C@H]5CC[C@@]43C)[C@@H]2C1
REMARK SMILES IDX 6 1 5 2 10 3 32 4 4 5 11 6 14 7 33 8 2 9 12 10 15 11 1 12
REMARK SMILES IDX 3 13 13 14 30 15 16 16 17 17 29 18 31 19 18 20 28 21 27 22
REMARK SMILES IDX 20 23 19 24 24 25 21 26 22 27 25 28 26 29 7 30 8 31 9 32
REMARK SMILES IDX 23 33
REMARK H PARENT 23 34
REMARK Flexibility Score: inf
ROOT
ATOM      1  C   UNL     1      -4.646  43.519  -0.577  1.00  0.00     0.017 C 
ATOM      2  C   UNL     1      -4.209  42.184   0.120  1.00  0.00     0.014 C 
ATOM      3  C   UNL     1      -5.086  44.530   0.528  1.00  0.00     0.014 C 
ATOM      4  C   UNL     1      -5.779  43.228  -1.643  1.00  0.00     0.028 C 
ATOM      5  C   UNL     1      -4.095  41.032  -0.886  1.00  0.00     0.007 C 
ATOM      6  C   UNL     1      -6.604  44.612   0.756  1.00  0.00     0.013 C 
ATOM      7  C   UNL     1      -6.837  44.330  -1.747  1.00  0.00    -0.064 C 
ATOM      8  C   UNL     1      -6.472  41.859  -1.427  1.00  0.00     0.015 C 
ATOM      9  C   UNL     1      -5.480  40.658  -1.498  1.00  0.00    -0.035 C 
ATOM     10  C   UNL     1      -7.475  44.962  -0.509  1.00  0.00    -0.006 C 
ATOM     11  C   UNL     1      -7.335  44.632  -2.960  1.00  0.00    -0.027 C 
ATOM     12  C   UNL     1      -5.292  40.217  -2.966  1.00  0.00     0.011 C 
ATOM     13  C   UNL     1      -6.085  39.470  -0.715  1.00  0.00     0.011 C 
ATOM     14  C   UNL     1      -8.842  44.234  -0.260  1.00  0.00     0.017 C 
ATOM     15  C   UNL     1      -7.699  46.559  -0.757  1.00  0.00    -0.020 C 
ATOM     16  C   UNL     1      -8.431  45.638  -3.125  1.00  0.00     0.032 C 
ATOM     17  C   UNL     1      -8.186  46.910  -2.257  1.00  0.00     0.006 C 
ATOM     18  C   UNL     1      -6.393  47.348  -0.451  1.00  0.00     0.008 C 
ATOM     19  C   UNL     1      -8.779  47.074   0.253  1.00  0.00     0.012 C 
ATOM     20  C   UNL     1      -7.366  48.023  -3.072  1.00  0.00    -0.025 C 
ATOM     21  C   UNL     1      -6.480  48.848  -0.717  1.00  0.00     0.005 C 
ATOM     22  C   UNL     1      -6.881  49.243  -2.164  1.00  0.00     0.003 C 
ATOM     23  C   UNL     1      -8.267  48.567  -4.236  1.00  0.00     0.010 C 
ATOM     24  C   UNL     1      -6.113  47.381  -3.768  1.00  0.00     0.012 C 
ATOM     25  C   UNL     1      -7.749  50.578  -2.238  1.00  0.00    -0.006 C 
ATOM     26  C   UNL     1      -7.778  49.909  -4.768  1.00  0.00     0.033 C 
ATOM     27  C   UNL     1      -7.997  51.026  -3.741  1.00  0.00     0.120 C 
ATOM     28  C   UNL     1      -9.124  50.417  -1.530  1.00  0.00     0.014 C 
ATOM     29  C   UNL     1      -7.006  51.721  -1.482  1.00  0.00     0.014 C 
ENDROOT
BRANCH   1  30
ATOM     30  C   UNL     1      -3.450  44.137  -1.299  1.00  0.00     0.048 C 
ATOM     31  O   UNL     1      -2.568  43.421  -1.845  1.00  0.00    -0.550 OA
ATOM     32  O   UNL     1      -3.278  45.515  -1.291  1.00  0.00    -0.550 OA
ENDBRANCH   1  30
BRANCH  27  33
ATOM     33  O   UNL     1      -7.188  52.125  -4.098  1.00  0.00    -0.393 OA
ATOM     34  H   UNL     1      -6.393  52.111  -3.499  1.00  0.00     0.210 HD
ENDBRANCH  27  33
TORSDOF 2
ENDMDL
