MODEL 1
REMARK VINA RESULT:    -4.342      0.000      0.000
REMARK INTER + INTRA:          -4.342
REMARK INTER:                  -4.342
REMARK INTRA:                   0.000
REMARK UNBOUND:                 0.000
REMARK SMILES c1ccc2ccccc2c1
REMARK SMILES IDX 2 1 1 2 10 3 9 4 8 5 7 6 6 7 5 8 4 9 3 10
REMARK H PARENT
REMARK Flexibility Score: inf
ROOT
ATOM      1  C   UNL     1      49.107  59.837 246.441  1.00  0.00     0.001 A 
ATOM      2  C   UNL     1      49.571  58.741 247.173  1.00  0.00     0.001 A 
ATOM      3  C   UNL     1      50.909  58.347 247.078  1.00  0.00     0.009 A 
ATOM      4  C   UNL     1      51.793  59.051 246.246  1.00  0.00    -0.018 A 
ATOM      5  C   UNL     1      53.139  58.666 246.142  1.00  0.00     0.009 A 
ATOM      6  C   UNL     1      54.008  59.377 245.310  1.00  0.00     0.001 A 
ATOM      7  C   UNL     1      53.544  60.473 244.578  1.00  0.00     0.001 A 
ATOM      8  C   UNL     1      52.206  60.867 244.673  1.00  0.00     0.009 A 
ATOM      9  C   UNL     1      51.322  60.163 245.505  1.00  0.00    -0.018 A 
ATOM     10  C   UNL     1      49.976  60.548 245.609  1.00  0.00     0.009 A 
ENDROOT
TORSDOF 0
ENDMDL
MODEL 2
REMARK VINA RESULT:    -4.295      0.179      3.439
REMARK INTER + INTRA:          -4.295
REMARK INTER:                  -4.295
REMARK INTRA:                   0.000
REMARK UNBOUND:                 0.000
REMARK SMILES c1ccc2ccccc2c1
REMARK SMILES IDX 2 1 1 2 10 3 9 4 8 5 7 6 6 7 5 8 4 9 3 10
REMARK H PARENT
REMARK Flexibility Score: inf
ROOT
ATOM      1  C   UNL     1      53.489  60.508 244.801  1.00  0.00     0.001 A 
ATOM      2  C   UNL     1      53.923  59.395 245.525  1.00  0.00     0.001 A 
ATOM      3  C   UNL     1      53.018  58.662 246.300  1.00  0.00     0.009 A 
ATOM      4  C   UNL     1      51.669  59.044 246.355  1.00  0.00    -0.018 A 
ATOM      5  C   UNL     1      50.750  58.318 247.130  1.00  0.00     0.009 A 
ATOM      6  C   UNL     1      49.409  58.708 247.175  1.00  0.00     0.001 A 
ATOM      7  C   UNL     1      48.975  59.822 246.452  1.00  0.00     0.001 A 
ATOM      8  C   UNL     1      49.880  60.555 245.676  1.00  0.00     0.009 A 
ATOM      9  C   UNL     1      51.229  60.173 245.621  1.00  0.00    -0.018 A 
ATOM     10  C   UNL     1      52.148  60.899 244.846  1.00  0.00     0.009 A 
ENDROOT
TORSDOF 0
ENDMDL
MODEL 3
REMARK VINA RESULT:    -4.291      0.134      2.085
REMARK INTER + INTRA:          -4.291
REMARK INTER:                  -4.291
REMARK INTRA:                   0.000
REMARK UNBOUND:                 0.000
REMARK SMILES c1ccc2ccccc2c1
REMARK SMILES IDX 2 1 1 2 10 3 9 4 8 5 7 6 6 7 5 8 4 9 3 10
REMARK H PARENT
REMARK Flexibility Score: inf
ROOT
ATOM      1  C   UNL     1      49.474  58.656 247.128  1.00  0.00     0.001 A 
ATOM      2  C   UNL     1      49.041  59.758 246.385  1.00  0.00     0.001 A 
ATOM      3  C   UNL     1      49.949  60.480 245.603  1.00  0.00     0.009 A 
ATOM      4  C   UNL     1      51.300  60.101 245.563  1.00  0.00    -0.018 A 
ATOM      5  C   UNL     1      52.221  60.818 244.783  1.00  0.00     0.009 A 
ATOM      6  C   UNL     1      53.563  60.429 244.751  1.00  0.00     0.001 A 
ATOM      7  C   UNL     1      53.996  59.328 245.494  1.00  0.00     0.001 A 
ATOM      8  C   UNL     1      53.088  58.605 246.276  1.00  0.00     0.009 A 
ATOM      9  C   UNL     1      51.737  58.984 246.316  1.00  0.00    -0.018 A 
ATOM     10  C   UNL     1      50.816  58.268 247.096  1.00  0.00     0.009 A 
ENDROOT
TORSDOF 0
ENDMDL
MODEL 4
REMARK VINA RESULT:    -4.276      0.182      4.019
REMARK INTER + INTRA:          -4.276
REMARK INTER:                  -4.276
REMARK INTRA:                   0.000
REMARK UNBOUND:                 0.000
REMARK SMILES c1ccc2ccccc2c1
REMARK SMILES IDX 2 1 1 2 10 3 9 4 8 5 7 6 6 7 5 8 4 9 3 10
REMARK H PARENT
REMARK Flexibility Score: inf
ROOT
ATOM      1  C   UNL     1      53.944  59.398 245.549  1.00  0.00     0.001 A 
ATOM      2  C   UNL     1      53.497  60.498 244.812  1.00  0.00     0.001 A 
ATOM      3  C   UNL     1      52.148  60.869 244.848  1.00  0.00     0.009 A 
ATOM      4  C   UNL     1      51.238  60.136 245.625  1.00  0.00    -0.018 A 
ATOM      5  C   UNL     1      49.882  60.497 245.670  1.00  0.00     0.009 A 
ATOM      6  C   UNL     1      48.986  59.760 246.449  1.00  0.00     0.001 A 
ATOM      7  C   UNL     1      49.433  58.660 247.186  1.00  0.00     0.001 A 
ATOM      8  C   UNL     1      50.782  58.290 247.150  1.00  0.00     0.009 A 
ATOM      9  C   UNL     1      51.692  59.022 246.373  1.00  0.00    -0.018 A 
ATOM     10  C   UNL     1      53.048  58.661 246.328  1.00  0.00     0.009 A 
ENDROOT
TORSDOF 0
ENDMDL
MODEL 5
REMARK VINA RESULT:    -4.229      6.147      8.328
REMARK INTER + INTRA:          -4.229
REMARK INTER:                  -4.229
REMARK INTRA:                   0.000
REMARK UNBOUND:                 0.000
REMARK SMILES c1ccc2ccccc2c1
REMARK SMILES IDX 2 1 1 2 10 3 9 4 8 5 7 6 6 7 5 8 4 9 3 10
REMARK H PARENT
REMARK Flexibility Score: inf
ROOT
ATOM      1  C   UNL     1      57.331  60.167 246.193  1.00  0.00     0.001 A 
ATOM      2  C   UNL     1      58.325  61.127 245.986  1.00  0.00     0.001 A 
ATOM      3  C   UNL     1      59.661  60.739 245.844  1.00  0.00     0.009 A 
ATOM      4  C   UNL     1      60.010  59.381 245.908  1.00  0.00    -0.018 A 
ATOM      5  C   UNL     1      61.347  58.977 245.767  1.00  0.00     0.009 A 
ATOM      6  C   UNL     1      61.680  57.622 245.833  1.00  0.00     0.001 A 
ATOM      7  C   UNL     1      60.686  56.661 246.040  1.00  0.00     0.001 A 
ATOM      8  C   UNL     1      59.350  57.050 246.182  1.00  0.00     0.009 A 
ATOM      9  C   UNL     1      59.002  58.408 246.118  1.00  0.00    -0.018 A 
ATOM     10  C   UNL     1      57.664  58.811 246.258  1.00  0.00     0.009 A 
ENDROOT
TORSDOF 0
ENDMDL
MODEL 6
REMARK VINA RESULT:    -4.212      8.102     10.625
REMARK INTER + INTRA:          -4.212
REMARK INTER:                  -4.212
REMARK INTRA:                   0.000
REMARK UNBOUND:                 0.000
REMARK SMILES c1ccc2ccccc2c1
REMARK SMILES IDX 2 1 1 2 10 3 9 4 8 5 7 6 6 7 5 8 4 9 3 10
REMARK H PARENT
REMARK Flexibility Score: inf
ROOT
ATOM      1  C   UNL     1      63.688  59.459 247.648  1.00  0.00     0.001 A 
ATOM      2  C   UNL     1      63.906  58.274 246.941  1.00  0.00     0.001 A 
ATOM      3  C   UNL     1      62.945  57.804 246.039  1.00  0.00     0.009 A 
ATOM      4  C   UNL     1      61.757  58.523 245.840  1.00  0.00    -0.018 A 
ATOM      5  C   UNL     1      60.784  58.063 244.938  1.00  0.00     0.009 A 
ATOM      6  C   UNL     1      59.605  58.789 244.749  1.00  0.00     0.001 A 
ATOM      7  C   UNL     1      59.387  59.975 245.456  1.00  0.00     0.001 A 
ATOM      8  C   UNL     1      60.347  60.444 246.357  1.00  0.00     0.009 A 
ATOM      9  C   UNL     1      61.536  59.725 246.556  1.00  0.00    -0.018 A 
ATOM     10  C   UNL     1      62.509  60.185 247.458  1.00  0.00     0.009 A 
ENDROOT
TORSDOF 0
ENDMDL
MODEL 7
REMARK VINA RESULT:    -4.186      8.149     10.311
REMARK INTER + INTRA:          -4.186
REMARK INTER:                  -4.186
REMARK INTRA:                   0.000
REMARK UNBOUND:                 0.000
REMARK SMILES c1ccc2ccccc2c1
REMARK SMILES IDX 2 1 1 2 10 3 9 4 8 5 7 6 6 7 5 8 4 9 3 10
REMARK H PARENT
REMARK Flexibility Score: inf
ROOT
ATOM      1  C   UNL     1      59.434  60.111 245.608  1.00  0.00     0.001 A 
ATOM      2  C   UNL     1      59.587  58.941 244.860  1.00  0.00     0.001 A 
ATOM      3  C   UNL     1      60.747  58.170 244.988  1.00  0.00     0.009 A 
ATOM      4  C   UNL     1      61.763  58.569 245.870  1.00  0.00    -0.018 A 
ATOM      5  C   UNL     1      62.932  57.804 246.009  1.00  0.00     0.009 A 
ATOM      6  C   UNL     1      63.936  58.212 246.891  1.00  0.00     0.001 A 
ATOM      7  C   UNL     1      63.783  59.382 247.640  1.00  0.00     0.001 A 
ATOM      8  C   UNL     1      62.623  60.153 247.511  1.00  0.00     0.009 A 
ATOM      9  C   UNL     1      61.607  59.755 246.629  1.00  0.00    -0.018 A 
ATOM     10  C   UNL     1      60.438  60.520 246.491  1.00  0.00     0.009 A 
ENDROOT
TORSDOF 0
ENDMDL
MODEL 8
REMARK VINA RESULT:    -4.169      6.339      8.382
REMARK INTER + INTRA:          -4.169
REMARK INTER:                  -4.169
REMARK INTRA:                   0.000
REMARK UNBOUND:                 0.000
REMARK SMILES c1ccc2ccccc2c1
REMARK SMILES IDX 2 1 1 2 10 3 9 4 8 5 7 6 6 7 5 8 4 9 3 10
REMARK H PARENT
REMARK Flexibility Score: inf
ROOT
ATOM      1  C   UNL     1      58.585  61.299 246.014  1.00  0.00     0.001 A 
ATOM      2  C   UNL     1      57.525  60.389 246.033  1.00  0.00     0.001 A 
ATOM      3  C   UNL     1      57.778  59.014 246.056  1.00  0.00     0.009 A 
ATOM      4  C   UNL     1      59.099  58.541 246.059  1.00  0.00    -0.018 A 
ATOM      5  C   UNL     1      59.367  57.163 246.082  1.00  0.00     0.009 A 
ATOM      6  C   UNL     1      60.687  56.706 246.086  1.00  0.00     0.001 A 
ATOM      7  C   UNL     1      61.748  57.616 246.066  1.00  0.00     0.001 A 
ATOM      8  C   UNL     1      61.495  58.992 246.044  1.00  0.00     0.009 A 
ATOM      9  C   UNL     1      60.174  59.464 246.040  1.00  0.00    -0.018 A 
ATOM     10  C   UNL     1      59.906  60.842 246.018  1.00  0.00     0.009 A 
ENDROOT
TORSDOF 0
ENDMDL
MODEL 9
REMARK VINA RESULT:    -4.168      6.158      8.654
REMARK INTER + INTRA:          -4.168
REMARK INTER:                  -4.168
REMARK INTRA:                   0.000
REMARK UNBOUND:                 0.000
REMARK SMILES c1ccc2ccccc2c1
REMARK SMILES IDX 2 1 1 2 10 3 9 4 8 5 7 6 6 7 5 8 4 9 3 10
REMARK H PARENT
REMARK Flexibility Score: inf
ROOT
ATOM      1  C   UNL     1      61.756  57.750 245.966  1.00  0.00     0.001 A 
ATOM      2  C   UNL     1      60.764  56.766 245.996  1.00  0.00     0.001 A 
ATOM      3  C   UNL     1      59.413  57.129 246.008  1.00  0.00     0.009 A 
ATOM      4  C   UNL     1      59.048  58.484 245.989  1.00  0.00    -0.018 A 
ATOM      5  C   UNL     1      57.696  58.861 246.001  1.00  0.00     0.009 A 
ATOM      6  C   UNL     1      57.346  60.214 245.981  1.00  0.00     0.001 A 
ATOM      7  C   UNL     1      58.338  61.198 245.950  1.00  0.00     0.001 A 
ATOM      8  C   UNL     1      59.689  60.835 245.938  1.00  0.00     0.009 A 
ATOM      9  C   UNL     1      60.054  59.480 245.957  1.00  0.00    -0.018 A 
ATOM     10  C   UNL     1      61.406  59.103 245.946  1.00  0.00     0.009 A 
ENDROOT
TORSDOF 0
ENDMDL
