MODEL 1
REMARK VINA RESULT:    -3.685      0.000      0.000
REMARK INTER + INTRA:          -7.439
REMARK INTER:                  -6.270
REMARK INTRA:                  -1.169
REMARK UNBOUND:                -1.169
REMARK SMILES CCCCCCCCCCCCCC(=O)[O-]
REMARK SMILES IDX 8 1 9 2 10 3 11 4 12 5 13 6 14 7 15 8 16 9 7 10 6 11 5 12
REMARK SMILES IDX 4 13 3 14 2 15 1 16
REMARK H PARENT
REMARK Flexibility Score: inf
ROOT
ATOM      1  C   UNL     1     -98.598  70.293  22.464  1.00  0.00     0.000 C 
ENDROOT
BRANCH   1   2
ATOM      2  C   UNL     1     -99.756  69.579  23.183  1.00  0.00     0.000 C 
BRANCH   2   3
ATOM      3  C   UNL     1     -99.270  68.438  24.090  1.00  0.00     0.000 C 
BRANCH   3   4
ATOM      4  C   UNL     1     -99.005  68.904  25.532  1.00  0.00     0.000 C 
BRANCH   4   5
ATOM      5  C   UNL     1    -100.210  69.631  26.154  1.00  0.00     0.006 C 
BRANCH   5   6
ATOM      6  C   UNL     1    -101.096  68.739  27.040  1.00  0.00     0.053 C 
BRANCH   6   7
ATOM      7  C   UNL     1    -100.672  68.776  28.476  1.00  0.00     0.041 C 
ATOM      8  O   UNL     1     -99.764  68.006  28.887  1.00  0.00    -0.550 OA
ATOM      9  O   UNL     1    -101.304  69.634  29.366  1.00  0.00    -0.550 OA
ENDBRANCH   6   7
ENDBRANCH   5   6
ENDBRANCH   4   5
ENDBRANCH   3   4
ENDBRANCH   2   3
ENDBRANCH   1   2
BRANCH   1  10
ATOM     10  C   UNL     1     -98.467  71.774  22.866  1.00  0.00     0.000 C 
BRANCH  10  11
ATOM     11  C   UNL     1     -97.549  72.034  24.075  1.00  0.00    -0.000 C 
BRANCH  11  12
ATOM     12  C   UNL     1     -96.534  73.162  23.821  1.00  0.00    -0.000 C 
BRANCH  12  13
ATOM     13  C   UNL     1     -95.389  72.726  22.892  1.00  0.00    -0.000 C 
BRANCH  13  14
ATOM     14  C   UNL     1     -95.222  73.664  21.684  1.00  0.00    -0.000 C 
BRANCH  14  15
ATOM     15  C   UNL     1     -95.719  73.031  20.374  1.00  0.00    -0.003 C 
ATOM     16  C   UNL     1     -97.051  73.614  19.905  1.00  0.00     0.004 C 
ENDBRANCH  14  15
ENDBRANCH  13  14
ENDBRANCH  12  13
ENDBRANCH  11  12
ENDBRANCH  10  11
ENDBRANCH   1  10
TORSDOF 12
ENDMDL
MODEL 2
REMARK VINA RESULT:    -3.621      1.456      2.610
REMARK INTER + INTRA:          -7.330
REMARK INTER:                  -5.715
REMARK INTRA:                  -1.614
REMARK UNBOUND:                -1.169
REMARK SMILES CCCCCCCCCCCCCC(=O)[O-]
REMARK SMILES IDX 8 1 9 2 10 3 11 4 12 5 13 6 14 7 15 8 16 9 7 10 6 11 5 12
REMARK SMILES IDX 4 13 3 14 2 15 1 16
REMARK H PARENT
REMARK Flexibility Score: inf
ROOT
ATOM      1  C   UNL     1     -99.334  68.415  23.912  1.00  0.00     0.000 C 
ENDROOT
BRANCH   1   2
ATOM      2  C   UNL     1     -99.064  68.734  25.393  1.00  0.00     0.000 C 
BRANCH   2   3
ATOM      3  C   UNL     1    -100.329  69.194  26.135  1.00  0.00     0.000 C 
BRANCH   3   4
ATOM      4  C   UNL     1    -100.091  70.463  26.973  1.00  0.00     0.000 C 
BRANCH   4   5
ATOM      5  C   UNL     1     -98.600  70.714  27.262  1.00  0.00     0.006 C 
BRANCH   5   6
ATOM      6  C   UNL     1     -98.226  70.640  28.752  1.00  0.00     0.053 C 
BRANCH   6   7
ATOM      7  C   UNL     1     -98.737  69.390  29.398  1.00  0.00     0.041 C 
ATOM      8  O   UNL     1     -99.563  69.460  30.347  1.00  0.00    -0.550 OA
ATOM      9  O   UNL     1     -98.274  68.150  28.977  1.00  0.00    -0.550 OA
ENDBRANCH   6   7
ENDBRANCH   5   6
ENDBRANCH   4   5
ENDBRANCH   3   4
ENDBRANCH   2   3
ENDBRANCH   1   2
BRANCH   1  10
ATOM     10  C   UNL     1     -98.918  69.558  22.968  1.00  0.00     0.000 C 
BRANCH  10  11
ATOM     11  C   UNL     1     -99.859  70.776  22.977  1.00  0.00    -0.000 C 
BRANCH  11  12
ATOM     12  C   UNL     1     -99.188  72.046  23.529  1.00  0.00    -0.000 C 
BRANCH  12  13
ATOM     13  C   UNL     1     -97.709  71.822  23.884  1.00  0.00    -0.000 C 
BRANCH  13  14
ATOM     14  C   UNL     1     -96.811  72.983  23.424  1.00  0.00    -0.000 C 
BRANCH  14  15
ATOM     15  C   UNL     1     -95.730  72.533  22.430  1.00  0.00    -0.003 C 
ATOM     16  C   UNL     1     -96.311  71.840  21.199  1.00  0.00     0.004 C 
ENDBRANCH  14  15
ENDBRANCH  13  14
ENDBRANCH  12  13
ENDBRANCH  11  12
ENDBRANCH  10  11
ENDBRANCH   1  10
TORSDOF 12
ENDMDL
MODEL 3
REMARK VINA RESULT:    -3.528      4.108      7.125
REMARK INTER + INTRA:          -7.172
REMARK INTER:                  -5.555
REMARK INTRA:                  -1.617
REMARK UNBOUND:                -1.169
REMARK SMILES CCCCCCCCCCCCCC(=O)[O-]
REMARK SMILES IDX 8 1 9 2 10 3 11 4 12 5 13 6 14 7 15 8 16 9 7 10 6 11 5 12
REMARK SMILES IDX 4 13 3 14 2 15 1 16
REMARK H PARENT
REMARK Flexibility Score: inf
ROOT
ATOM      1  C   UNL     1     -98.457  70.530  22.376  1.00  0.00     0.000 C 
ENDROOT
BRANCH   1   2
ATOM      2  C   UNL     1     -98.395  71.982  22.882  1.00  0.00     0.000 C 
BRANCH   2   3
ATOM      3  C   UNL     1     -97.391  72.162  24.030  1.00  0.00     0.000 C 
BRANCH   3   4
ATOM      4  C   UNL     1     -96.343  73.250  23.731  1.00  0.00     0.000 C 
BRANCH   4   5
ATOM      5  C   UNL     1     -95.318  72.813  22.670  1.00  0.00     0.006 C 
BRANCH   5   6
ATOM      6  C   UNL     1     -95.227  73.752  21.456  1.00  0.00     0.053 C 
BRANCH   6   7
ATOM      7  C   UNL     1     -95.755  73.111  20.209  1.00  0.00     0.041 C 
ATOM      8  O   UNL     1     -96.030  71.882  20.197  1.00  0.00    -0.550 OA
ATOM      9  O   UNL     1     -95.908  73.863  19.052  1.00  0.00    -0.550 OA
ENDBRANCH   6   7
ENDBRANCH   5   6
ENDBRANCH   4   5
ENDBRANCH   3   4
ENDBRANCH   2   3
ENDBRANCH   1   2
BRANCH   1  10
ATOM     10  C   UNL     1     -99.581  69.713  23.040  1.00  0.00     0.000 C 
BRANCH  10  11
ATOM     11  C   UNL     1     -99.099  68.656  24.051  1.00  0.00    -0.000 C 
BRANCH  11  12
ATOM     12  C   UNL     1     -99.725  68.833  25.445  1.00  0.00    -0.000 C 
BRANCH  12  13
ATOM     13  C   UNL     1     -98.919  69.794  26.334  1.00  0.00    -0.000 C 
BRANCH  13  14
ATOM     14  C   UNL     1     -99.814  70.808  27.067  1.00  0.00    -0.000 C 
BRANCH  14  15
ATOM     15  C   UNL     1    -100.852  71.457  26.138  1.00  0.00    -0.003 C 
ATOM     16  C   UNL     1    -100.531  72.917  25.822  1.00  0.00     0.004 C 
ENDBRANCH  14  15
ENDBRANCH  13  14
ENDBRANCH  12  13
ENDBRANCH  11  12
ENDBRANCH  10  11
ENDBRANCH   1  10
TORSDOF 12
ENDMDL
MODEL 4
REMARK VINA RESULT:    -3.514      2.058      3.969
REMARK INTER + INTRA:          -7.147
REMARK INTER:                  -5.028
REMARK INTRA:                  -2.120
REMARK UNBOUND:                -1.169
REMARK SMILES CCCCCCCCCCCCCC(=O)[O-]
REMARK SMILES IDX 8 1 9 2 10 3 11 4 12 5 13 6 14 7 15 8 16 9 7 10 6 11 5 12
REMARK SMILES IDX 4 13 3 14 2 15 1 16
REMARK H PARENT
REMARK Flexibility Score: inf
ROOT
ATOM      1  C   UNL     1     -98.763  70.185  22.564  1.00  0.00     0.000 C 
ENDROOT
BRANCH   1   2
ATOM      2  C   UNL     1     -99.826  69.561  23.486  1.00  0.00     0.000 C 
BRANCH   2   3
ATOM      3  C   UNL     1     -99.213  68.621  24.536  1.00  0.00     0.000 C 
BRANCH   3   4
ATOM      4  C   UNL     1     -99.713  68.925  25.960  1.00  0.00     0.000 C 
BRANCH   4   5
ATOM      5  C   UNL     1     -98.614  69.509  26.865  1.00  0.00     0.006 C 
BRANCH   5   6
ATOM      6  C   UNL     1     -99.125  70.039  28.215  1.00  0.00     0.053 C 
BRANCH   6   7
ATOM      7  C   UNL     1     -98.961  69.032  29.312  1.00  0.00     0.041 C 
ATOM      8  O   UNL     1     -99.472  69.241  30.444  1.00  0.00    -0.550 OA
ATOM      9  O   UNL     1     -98.213  67.882  29.094  1.00  0.00    -0.550 OA
ENDBRANCH   6   7
ENDBRANCH   5   6
ENDBRANCH   4   5
ENDBRANCH   3   4
ENDBRANCH   2   3
ENDBRANCH   1   2
BRANCH   1  10
ATOM     10  C   UNL     1     -98.551  71.687  22.828  1.00  0.00     0.000 C 
BRANCH  10  11
ATOM     11  C   UNL     1     -97.526  72.009  23.931  1.00  0.00    -0.000 C 
BRANCH  11  12
ATOM     12  C   UNL     1     -98.155  72.726  25.139  1.00  0.00    -0.000 C 
BRANCH  12  13
ATOM     13  C   UNL     1     -99.622  73.114  24.895  1.00  0.00    -0.000 C 
BRANCH  13  14
ATOM     14  C   UNL     1    -100.555  72.620  26.013  1.00  0.00    -0.000 C 
BRANCH  14  15
ATOM     15  C   UNL     1    -101.796  71.895  25.468  1.00  0.00    -0.003 C 
ATOM     16  C   UNL     1    -102.688  71.337  26.576  1.00  0.00     0.004 C 
ENDBRANCH  14  15
ENDBRANCH  13  14
ENDBRANCH  12  13
ENDBRANCH  11  12
ENDBRANCH  10  11
ENDBRANCH   1  10
TORSDOF 12
ENDMDL
MODEL 5
REMARK VINA RESULT:    -3.508     11.601     13.980
REMARK INTER + INTRA:          -7.138
REMARK INTER:                  -6.043
REMARK INTRA:                  -1.094
REMARK UNBOUND:                -1.169
REMARK SMILES CCCCCCCCCCCCCC(=O)[O-]
REMARK SMILES IDX 8 1 9 2 10 3 11 4 12 5 13 6 14 7 15 8 16 9 7 10 6 11 5 12
REMARK SMILES IDX 4 13 3 14 2 15 1 16
REMARK H PARENT
REMARK Flexibility Score: inf
ROOT
ATOM      1  C   UNL     1     -99.376  55.301  21.891  1.00  0.00     0.000 C 
ENDROOT
BRANCH   1   2
ATOM      2  C   UNL     1    -100.511  56.306  22.156  1.00  0.00     0.000 C 
BRANCH   2   3
ATOM      3  C   UNL     1    -100.214  57.696  21.571  1.00  0.00     0.000 C 
BRANCH   3   4
ATOM      4  C   UNL     1    -101.461  58.351  20.950  1.00  0.00     0.000 C 
BRANCH   4   5
ATOM      5  C   UNL     1    -102.339  59.066  21.992  1.00  0.00     0.006 C 
BRANCH   5   6
ATOM      6  C   UNL     1    -101.551  59.710  23.146  1.00  0.00     0.053 C 
BRANCH   6   7
ATOM      7  C   UNL     1    -101.350  61.179  22.937  1.00  0.00     0.041 C 
ATOM      8  O   UNL     1    -102.196  61.847  22.286  1.00  0.00    -0.550 OA
ATOM      9  O   UNL     1    -100.211  61.802  23.430  1.00  0.00    -0.550 OA
ENDBRANCH   6   7
ENDBRANCH   5   6
ENDBRANCH   4   5
ENDBRANCH   3   4
ENDBRANCH   2   3
ENDBRANCH   1   2
BRANCH   1  10
ATOM     10  C   UNL     1     -98.596  54.930  23.166  1.00  0.00     0.000 C 
BRANCH  10  11
ATOM     11  C   UNL     1     -97.079  55.184  23.090  1.00  0.00    -0.000 C 
BRANCH  11  12
ATOM     12  C   UNL     1     -96.728  56.487  22.351  1.00  0.00    -0.000 C 
BRANCH  12  13
ATOM     13  C   UNL     1     -95.663  56.277  21.262  1.00  0.00    -0.000 C 
BRANCH  13  14
ATOM     14  C   UNL     1     -96.263  55.759  19.944  1.00  0.00    -0.000 C 
BRANCH  14  15
ATOM     15  C   UNL     1     -96.165  56.788  18.807  1.00  0.00    -0.003 C 
ATOM     16  C   UNL     1     -97.073  57.998  19.026  1.00  0.00     0.004 C 
ENDBRANCH  14  15
ENDBRANCH  13  14
ENDBRANCH  12  13
ENDBRANCH  11  12
ENDBRANCH  10  11
ENDBRANCH   1  10
TORSDOF 12
ENDMDL
MODEL 6
REMARK VINA RESULT:    -3.494      1.192      2.313
REMARK INTER + INTRA:          -7.113
REMARK INTER:                  -5.814
REMARK INTRA:                  -1.299
REMARK UNBOUND:                -1.169
REMARK SMILES CCCCCCCCCCCCCC(=O)[O-]
REMARK SMILES IDX 8 1 9 2 10 3 11 4 12 5 13 6 14 7 15 8 16 9 7 10 6 11 5 12
REMARK SMILES IDX 4 13 3 14 2 15 1 16
REMARK H PARENT
REMARK Flexibility Score: inf
ROOT
ATOM      1  C   UNL     1     -98.541  71.188  21.966  1.00  0.00     0.000 C 
ENDROOT
BRANCH   1   2
ATOM      2  C   UNL     1     -98.641  70.514  23.345  1.00  0.00     0.000 C 
BRANCH   2   3
ATOM      3  C   UNL     1     -99.293  69.124  23.274  1.00  0.00     0.000 C 
BRANCH   3   4
ATOM      4  C   UNL     1     -99.295  68.404  24.634  1.00  0.00     0.000 C 
BRANCH   4   5
ATOM      5  C   UNL     1     -98.895  69.329  25.797  1.00  0.00     0.006 C 
BRANCH   5   6
ATOM      6  C   UNL     1     -99.970  69.474  26.887  1.00  0.00     0.053 C 
BRANCH   6   7
ATOM      7  C   UNL     1     -99.497  68.963  28.213  1.00  0.00     0.041 C 
ATOM      8  O   UNL     1    -100.116  68.029  28.789  1.00  0.00    -0.550 OA
ATOM      9  O   UNL     1     -98.396  69.543  28.830  1.00  0.00    -0.550 OA
ENDBRANCH   6   7
ENDBRANCH   5   6
ENDBRANCH   4   5
ENDBRANCH   3   4
ENDBRANCH   2   3
ENDBRANCH   1   2
BRANCH   1  10
ATOM     10  C   UNL     1     -97.090  71.311  21.465  1.00  0.00     0.000 C 
BRANCH  10  11
ATOM     11  C   UNL     1     -96.709  72.703  20.927  1.00  0.00    -0.000 C 
BRANCH  11  12
ATOM     12  C   UNL     1     -95.476  73.297  21.629  1.00  0.00    -0.000 C 
BRANCH  12  13
ATOM     13  C   UNL     1     -95.380  72.878  23.105  1.00  0.00    -0.000 C 
BRANCH  13  14
ATOM     14  C   UNL     1     -95.894  73.968  24.061  1.00  0.00    -0.000 C 
BRANCH  14  15
ATOM     15  C   UNL     1     -97.305  73.669  24.591  1.00  0.00    -0.003 C 
ATOM     16  C   UNL     1     -98.392  74.438  23.841  1.00  0.00     0.004 C 
ENDBRANCH  14  15
ENDBRANCH  13  14
ENDBRANCH  12  13
ENDBRANCH  11  12
ENDBRANCH  10  11
ENDBRANCH   1  10
TORSDOF 12
ENDMDL
MODEL 7
REMARK VINA RESULT:    -3.491      1.815      3.970
REMARK INTER + INTRA:          -7.108
REMARK INTER:                  -5.095
REMARK INTRA:                  -2.013
REMARK UNBOUND:                -1.169
REMARK SMILES CCCCCCCCCCCCCC(=O)[O-]
REMARK SMILES IDX 8 1 9 2 10 3 11 4 12 5 13 6 14 7 15 8 16 9 7 10 6 11 5 12
REMARK SMILES IDX 4 13 3 14 2 15 1 16
REMARK H PARENT
REMARK Flexibility Score: inf
ROOT
ATOM      1  C   UNL     1     -97.866  71.758  24.521  1.00  0.00     0.000 C 
ENDROOT
BRANCH   1   2
ATOM      2  C   UNL     1     -98.919  72.555  25.310  1.00  0.00     0.000 C 
BRANCH   2   3
ATOM      3  C   UNL     1     -99.859  71.647  26.119  1.00  0.00     0.000 C 
BRANCH   3   4
ATOM      4  C   UNL     1     -99.176  70.341  26.564  1.00  0.00     0.000 C 
BRANCH   4   5
ATOM      5  C   UNL     1    -100.010  69.091  26.234  1.00  0.00     0.006 C 
BRANCH   5   6
ATOM      6  C   UNL     1    -101.063  68.736  27.297  1.00  0.00     0.053 C 
BRANCH   6   7
ATOM      7  C   UNL     1    -100.524  68.874  28.688  1.00  0.00     0.041 C 
ATOM      8  O   UNL     1    -100.913  69.817  29.427  1.00  0.00    -0.550 OA
ATOM      9  O   UNL     1     -99.567  67.982  29.155  1.00  0.00    -0.550 OA
ENDBRANCH   6   7
ENDBRANCH   5   6
ENDBRANCH   4   5
ENDBRANCH   3   4
ENDBRANCH   2   3
ENDBRANCH   1   2
BRANCH   1  10
ATOM     10  C   UNL     1     -97.784  72.177  23.041  1.00  0.00     0.000 C 
BRANCH  10  11
ATOM     11  C   UNL     1     -98.334  71.138  22.046  1.00  0.00    -0.000 C 
BRANCH  11  12
ATOM     12  C   UNL     1     -98.868  69.873  22.738  1.00  0.00    -0.000 C 
BRANCH  12  13
ATOM     13  C   UNL     1    -100.402  69.779  22.691  1.00  0.00    -0.000 C 
BRANCH  13  14
ATOM     14  C   UNL     1    -101.047  71.016  22.042  1.00  0.00    -0.000 C 
BRANCH  14  15
ATOM     15  C   UNL     1    -101.952  71.788  23.015  1.00  0.00    -0.003 C 
ATOM     16  C   UNL     1    -102.738  70.866  23.946  1.00  0.00     0.004 C 
ENDBRANCH  14  15
ENDBRANCH  13  14
ENDBRANCH  12  13
ENDBRANCH  11  12
ENDBRANCH  10  11
ENDBRANCH   1  10
TORSDOF 12
ENDMDL
MODEL 8
REMARK VINA RESULT:    -3.484      1.900      3.399
REMARK INTER + INTRA:          -7.096
REMARK INTER:                  -5.220
REMARK INTRA:                  -1.876
REMARK UNBOUND:                -1.169
REMARK SMILES CCCCCCCCCCCCCC(=O)[O-]
REMARK SMILES IDX 8 1 9 2 10 3 11 4 12 5 13 6 14 7 15 8 16 9 7 10 6 11 5 12
REMARK SMILES IDX 4 13 3 14 2 15 1 16
REMARK H PARENT
REMARK Flexibility Score: inf
ROOT
ATOM      1  C   UNL     1    -101.508  71.825  24.332  1.00  0.00     0.000 C 
ENDROOT
BRANCH   1   2
ATOM      2  C   UNL     1    -102.241  70.721  25.114  1.00  0.00     0.000 C 
BRANCH   2   3
ATOM      3  C   UNL     1    -101.757  70.611  26.568  1.00  0.00     0.000 C 
BRANCH   3   4
ATOM      4  C   UNL     1    -101.230  69.206  26.909  1.00  0.00     0.000 C 
BRANCH   4   5
ATOM      5  C   UNL     1     -99.834  68.935  26.321  1.00  0.00     0.006 C 
BRANCH   5   6
ATOM      6  C   UNL     1     -98.703  69.736  26.988  1.00  0.00     0.053 C 
BRANCH   6   7
ATOM      7  C   UNL     1     -98.613  69.462  28.458  1.00  0.00     0.041 C 
ATOM      8  O   UNL     1     -98.784  70.395  29.287  1.00  0.00    -0.550 OA
ATOM      9  O   UNL     1     -98.305  68.186  28.911  1.00  0.00    -0.550 OA
ENDBRANCH   6   7
ENDBRANCH   5   6
ENDBRANCH   4   5
ENDBRANCH   3   4
ENDBRANCH   2   3
ENDBRANCH   1   2
BRANCH   1  10
ATOM     10  C   UNL     1    -101.113  71.387  22.909  1.00  0.00     0.000 C 
BRANCH  10  11
ATOM     11  C   UNL     1    -100.540  69.962  22.809  1.00  0.00    -0.000 C 
BRANCH  11  12
ATOM     12  C   UNL     1     -99.004  69.930  22.871  1.00  0.00    -0.000 C 
BRANCH  12  13
ATOM     13  C   UNL     1     -98.356  70.994  21.970  1.00  0.00    -0.000 C 
BRANCH  13  14
ATOM     14  C   UNL     1     -97.378  71.899  22.738  1.00  0.00    -0.000 C 
BRANCH  14  15
ATOM     15  C   UNL     1     -97.689  71.962  24.241  1.00  0.00    -0.003 C 
ATOM     16  C   UNL     1     -98.099  73.360  24.702  1.00  0.00     0.004 C 
ENDBRANCH  14  15
ENDBRANCH  13  14
ENDBRANCH  12  13
ENDBRANCH  11  12
ENDBRANCH  10  11
ENDBRANCH   1  10
TORSDOF 12
ENDMDL
MODEL 9
REMARK VINA RESULT:    -3.421      1.904      3.294
REMARK INTER + INTRA:          -6.990
REMARK INTER:                  -5.310
REMARK INTRA:                  -1.680
REMARK UNBOUND:                -1.169
REMARK SMILES CCCCCCCCCCCCCC(=O)[O-]
REMARK SMILES IDX 8 1 9 2 10 3 11 4 12 5 13 6 14 7 15 8 16 9 7 10 6 11 5 12
REMARK SMILES IDX 4 13 3 14 2 15 1 16
REMARK H PARENT
REMARK Flexibility Score: inf
ROOT
ATOM      1  C   UNL     1     -99.243  71.583  26.133  1.00  0.00     0.000 C 
ENDROOT
BRANCH   1   2
ATOM      2  C   UNL     1     -98.525  70.239  25.916  1.00  0.00     0.000 C 
BRANCH   2   3
ATOM      3  C   UNL     1     -99.506  69.062  25.796  1.00  0.00     0.000 C 
BRANCH   3   4
ATOM      4  C   UNL     1    -100.764  69.253  26.661  1.00  0.00     0.000 C 
BRANCH   4   5
ATOM      5  C   UNL     1    -100.672  68.527  28.015  1.00  0.00     0.006 C 
BRANCH   5   6
ATOM      6  C   UNL     1    -100.226  69.424  29.182  1.00  0.00     0.053 C 
BRANCH   6   7
ATOM      7  C   UNL     1     -99.378  68.682  30.168  1.00  0.00     0.041 C 
ATOM      8  O   UNL     1     -98.627  67.748  29.781  1.00  0.00    -0.550 OA
ATOM      9  O   UNL     1     -99.444  68.998  31.519  1.00  0.00    -0.550 OA
ENDBRANCH   6   7
ENDBRANCH   5   6
ENDBRANCH   4   5
ENDBRANCH   3   4
ENDBRANCH   2   3
ENDBRANCH   1   2
BRANCH   1  10
ATOM     10  C   UNL     1     -98.769  72.678  25.160  1.00  0.00     0.000 C 
BRANCH  10  11
ATOM     11  C   UNL     1     -97.595  72.268  24.251  1.00  0.00    -0.000 C 
BRANCH  11  12
ATOM     12  C   UNL     1     -97.914  72.433  22.755  1.00  0.00    -0.000 C 
BRANCH  12  13
ATOM     13  C   UNL     1     -97.881  71.097  21.996  1.00  0.00    -0.000 C 
BRANCH  13  14
ATOM     14  C   UNL     1     -99.043  70.168  22.387  1.00  0.00    -0.000 C 
BRANCH  14  15
ATOM     15  C   UNL     1    -100.416  70.766  22.041  1.00  0.00    -0.003 C 
ATOM     16  C   UNL     1    -101.389  70.731  23.219  1.00  0.00     0.004 C 
ENDBRANCH  14  15
ENDBRANCH  13  14
ENDBRANCH  12  13
ENDBRANCH  11  12
ENDBRANCH  10  11
ENDBRANCH   1  10
TORSDOF 12
ENDMDL
