MODEL 1
REMARK VINA RESULT:    -1.058      0.000      0.000
REMARK INTER + INTRA:           2.273
REMARK INTER:                  -1.831
REMARK INTRA:                   4.104
REMARK UNBOUND:                 4.104
REMARK SMILES OC[C@@H]1O[C@H](O[C@H]2[C@H](O)[C@H](O)[C@@H](O)O[C@@H]2CO)[C@@H](O)[C@@H](O)[C@@H]1O[C@@H]1O[C@H](CO)[C@H](O)[C@@H](O)[C@@H]1O
REMARK SMILES IDX 22 1 3 2 4 3 5 4 18 5 20 6 23 7 24 8 26 9 29 10 25 11 31 12
REMARK SMILES IDX 33 13 27 14 28 15 30 17 32 19 34 21 2 23 1 24 21 26 19 28
REMARK SMILES IDX 6 30 7 31 15 32 8 33 14 34 10 35 12 36 16 37 17 38 9 40
REMARK SMILES IDX 11 42 13 44
REMARK H PARENT 28 16 30 18 32 20 34 22 1 25 21 27 19 29 17 39 9 41 11 43
REMARK H PARENT 13 45
REMARK Flexibility Score: inf
ROOT
ATOM      1  C   UNL     1      12.177 -12.453  38.707  1.00  0.00     0.184 C 
ATOM      2  C   UNL     1      11.230 -13.625  38.246  1.00  0.00     0.178 C 
ATOM      3  O   UNL     1       9.931 -13.170  37.868  1.00  0.00    -0.341 OA
ATOM      4  C   UNL     1       9.447 -12.177  38.752  1.00  0.00     0.282 C 
ATOM      5  C   UNL     1      10.212 -10.856  38.504  1.00  0.00     0.202 C 
ATOM      6  C   UNL     1      11.688 -11.125  38.108  1.00  0.00     0.180 C 
ENDROOT
BRANCH   1   7
ATOM      7  O   UNL     1      13.536 -12.642  38.334  1.00  0.00    -0.341 OA
BRANCH   7   8
ATOM      8  C   UNL     1      13.852 -12.251  36.998  1.00  0.00     0.282 C 
ATOM      9  C   UNL     1      13.185 -10.924  35.172  1.00  0.00     0.178 C 
ATOM     10  C   UNL     1      14.386 -11.586  34.407  1.00  0.00     0.177 C 
ATOM     11  O   UNL     1      12.755 -11.679  36.301  1.00  0.00    -0.341 OA
ATOM     12  C   UNL     1      14.407 -13.111  34.650  1.00  0.00     0.179 C 
ATOM     13  C   UNL     1      14.433 -13.431  36.179  1.00  0.00     0.202 C 
BRANCH   9  14
ATOM     14  C   UNL     1      11.956 -10.689  34.269  1.00  0.00     0.191 C 
BRANCH  14  15
ATOM     15  O   UNL     1      11.012  -9.864  34.891  1.00  0.00    -0.394 OA
ATOM     16  H   UNL     1      10.131 -10.044  34.462  1.00  0.00     0.210 HD
ENDBRANCH  14  15
ENDBRANCH   9  14
BRANCH  10  17
ATOM     17  O   UNL     1      14.334 -11.329  33.028  1.00  0.00    -0.387 OA
ATOM     18  H   UNL     1      13.831 -10.471  32.918  1.00  0.00     0.211 HD
ENDBRANCH  10  17
BRANCH  12  19
ATOM     19  O   UNL     1      15.539 -13.683  34.045  1.00  0.00    -0.387 OA
ATOM     20  H   UNL     1      15.758 -13.136  33.239  1.00  0.00     0.211 HD
ENDBRANCH  12  19
BRANCH  13  21
ATOM     21  O   UNL     1      13.738 -14.630  36.437  1.00  0.00    -0.385 OA
ATOM     22  H   UNL     1      14.409 -15.362  36.521  1.00  0.00     0.211 HD
ENDBRANCH  13  21
ENDBRANCH   7   8
ENDBRANCH   1   7
BRANCH   2  23
ATOM     23  C   UNL     1      11.778 -14.485  37.078  1.00  0.00     0.191 C 
BRANCH  23  24
ATOM     24  O   UNL     1      11.079 -14.194  35.896  1.00  0.00    -0.394 OA
ATOM     25  H   UNL     1      11.441 -13.330  35.555  1.00  0.00     0.210 HD
ENDBRANCH  23  24
ENDBRANCH   2  23
BRANCH   6  26
ATOM     26  O   UNL     1      12.517 -10.073  38.529  1.00  0.00    -0.387 OA
ATOM     27  H   UNL     1      13.358 -10.134  37.998  1.00  0.00     0.211 HD
ENDBRANCH   6  26
BRANCH   5  28
ATOM     28  O   UNL     1      10.114 -10.011  39.631  1.00  0.00    -0.385 OA
ATOM     29  H   UNL     1      10.871  -9.370  39.586  1.00  0.00     0.211 HD
ENDBRANCH   5  28
BRANCH   4  30
ATOM     30  O   UNL     1       8.080 -11.945  38.472  1.00  0.00    -0.341 OA
BRANCH  30  31
ATOM     31  C   UNL     1       7.666 -12.326  37.165  1.00  0.00     0.184 C 
ATOM     32  C   UNL     1       7.708 -13.871  36.945  1.00  0.00     0.178 C 
ATOM     33  C   UNL     1       8.367 -11.572  36.001  1.00  0.00     0.180 C 
ATOM     34  O   UNL     1       7.416 -14.312  35.615  1.00  0.00    -0.342 OA
ATOM     35  C   UNL     1       7.909 -12.132  34.620  1.00  0.00     0.201 C 
ATOM     36  C   UNL     1       6.897 -13.301  34.766  1.00  0.00     0.279 C 
BRANCH  32  37
ATOM     37  C   UNL     1       6.777 -14.583  37.942  1.00  0.00     0.191 C 
BRANCH  37  38
ATOM     38  O   UNL     1       7.360 -14.626  39.223  1.00  0.00    -0.394 OA
ATOM     39  H   UNL     1       8.119 -15.275  39.183  1.00  0.00     0.210 HD
ENDBRANCH  37  38
ENDBRANCH  32  37
BRANCH  33  40
ATOM     40  O   UNL     1       8.179 -10.182  36.113  1.00  0.00    -0.387 OA
ATOM     41  H   UNL     1       7.288 -10.029  36.530  1.00  0.00     0.211 HD
ENDBRANCH  33  40
BRANCH  35  42
ATOM     42  O   UNL     1       7.423 -11.120  33.778  1.00  0.00    -0.385 OA
ATOM     43  H   UNL     1       7.440 -11.471  32.852  1.00  0.00     0.211 HD
ENDBRANCH  35  42
BRANCH  36  44
ATOM     44  O   UNL     1       6.612 -13.852  33.505  1.00  0.00    -0.366 OA
ATOM     45  H   UNL     1       6.702 -13.117  32.843  1.00  0.00     0.213 HD
ENDBRANCH  36  44
ENDBRANCH  30  31
ENDBRANCH   4  30
TORSDOF 18
ENDMDL
MODEL 2
REMARK VINA RESULT:    -0.692      1.558      6.153
REMARK INTER + INTRA:           2.906
REMARK INTER:                  -1.413
REMARK INTRA:                   4.318
REMARK UNBOUND:                 4.104
REMARK SMILES OC[C@@H]1O[C@H](O[C@H]2[C@H](O)[C@H](O)[C@@H](O)O[C@@H]2CO)[C@@H](O)[C@@H](O)[C@@H]1O[C@@H]1O[C@H](CO)[C@H](O)[C@@H](O)[C@@H]1O
REMARK SMILES IDX 22 1 3 2 4 3 5 4 18 5 20 6 23 7 24 8 26 9 29 10 25 11 31 12
REMARK SMILES IDX 33 13 27 14 28 15 30 17 32 19 34 21 2 23 1 24 21 26 19 28
REMARK SMILES IDX 6 30 7 31 15 32 8 33 14 34 10 35 12 36 16 37 17 38 9 40
REMARK SMILES IDX 11 42 13 44
REMARK H PARENT 28 16 30 18 32 20 34 22 1 25 21 27 19 29 17 39 9 41 11 43
REMARK H PARENT 13 45
REMARK Flexibility Score: inf
ROOT
ATOM      1  C   UNL     1       9.457 -14.373  37.894  1.00  0.00     0.184 C 
ATOM      2  C   UNL     1      10.152 -13.196  38.677  1.00  0.00     0.178 C 
ATOM      3  O   UNL     1      11.476 -12.930  38.216  1.00  0.00    -0.341 OA
ATOM      4  C   UNL     1      12.189 -14.124  37.955  1.00  0.00     0.282 C 
ATOM      5  C   UNL     1      11.642 -14.774  36.663  1.00  0.00     0.202 C 
ATOM      6  C   UNL     1      10.116 -14.539  36.516  1.00  0.00     0.180 C 
ENDROOT
BRANCH   1   7
ATOM      7  O   UNL     1       8.060 -14.182  37.706  1.00  0.00    -0.341 OA
BRANCH   7   8
ATOM      8  C   UNL     1       7.711 -13.374  36.581  1.00  0.00     0.282 C 
ATOM      9  C   UNL     1       8.470 -12.490  34.537  1.00  0.00     0.178 C 
ATOM     10  C   UNL     1       7.091 -11.740  34.487  1.00  0.00     0.177 C 
ATOM     11  O   UNL     1       8.835 -12.907  35.849  1.00  0.00    -0.341 OA
ATOM     12  C   UNL     1       6.772 -11.104  35.858  1.00  0.00     0.179 C 
ATOM     13  C   UNL     1       6.821 -12.174  36.994  1.00  0.00     0.202 C 
BRANCH   9  14
ATOM     14  C   UNL     1       9.632 -11.644  33.974  1.00  0.00     0.191 C 
BRANCH  14  15
ATOM     15  O   UNL     1      10.281 -10.927  34.986  1.00  0.00    -0.394 OA
ATOM     16  H   UNL     1       9.820 -11.140  35.843  1.00  0.00     0.210 HD
ENDBRANCH  14  15
ENDBRANCH   9  14
BRANCH  10  17
ATOM     17  O   UNL     1       7.068 -10.751  33.491  1.00  0.00    -0.387 OA
ATOM     18  H   UNL     1       7.842 -10.145  33.675  1.00  0.00     0.211 HD
ENDBRANCH  10  17
BRANCH  12  19
ATOM     19  O   UNL     1       5.494 -10.520  35.835  1.00  0.00    -0.387 OA
ATOM     20  H   UNL     1       5.124 -10.569  36.760  1.00  0.00     0.211 HD
ENDBRANCH  12  19
BRANCH  13  21
ATOM     21  O   UNL     1       7.270 -11.588  38.196  1.00  0.00    -0.385 OA
ATOM     22  H   UNL     1       6.595 -10.910  38.476  1.00  0.00     0.211 HD
ENDBRANCH  13  21
ENDBRANCH   7   8
ENDBRANCH   1   7
BRANCH   2  23
ATOM     23  C   UNL     1       9.376 -11.853  38.661  1.00  0.00     0.191 C 
BRANCH  23  24
ATOM     24  O   UNL     1      10.064 -10.910  37.882  1.00  0.00    -0.394 OA
ATOM     25  H   UNL     1       9.409 -10.550  37.222  1.00  0.00     0.210 HD
ENDBRANCH  23  24
ENDBRANCH   2  23
BRANCH   6  26
ATOM     26  O   UNL     1       9.512 -15.597  35.818  1.00  0.00    -0.387 OA
ATOM     27  H   UNL     1      10.226 -16.037  35.281  1.00  0.00     0.211 HD
ENDBRANCH   6  26
BRANCH   5  28
ATOM     28  O   UNL     1      11.970 -16.147  36.626  1.00  0.00    -0.385 OA
ATOM     29  H   UNL     1      12.881 -16.223  36.239  1.00  0.00     0.211 HD
ENDBRANCH   5  28
BRANCH   4  30
ATOM     30  O   UNL     1      13.549 -13.804  37.737  1.00  0.00    -0.341 OA
BRANCH  30  31
ATOM     31  C   UNL     1      13.771 -12.563  37.077  1.00  0.00     0.184 C 
ATOM     32  C   UNL     1      13.023 -11.374  37.758  1.00  0.00     0.178 C 
ATOM     33  C   UNL     1      13.529 -12.576  35.542  1.00  0.00     0.180 C 
ATOM     34  O   UNL     1      13.111 -10.119  37.075  1.00  0.00    -0.342 OA
ATOM     35  C   UNL     1      13.709 -11.149  34.939  1.00  0.00     0.201 C 
ATOM     36  C   UNL     1      14.059 -10.093  36.021  1.00  0.00     0.279 C 
BRANCH  32  37
ATOM     37  C   UNL     1      13.493 -11.204  39.213  1.00  0.00     0.191 C 
BRANCH  37  38
ATOM     38  O   UNL     1      12.478 -10.627  39.999  1.00  0.00    -0.394 OA
ATOM     39  H   UNL     1      12.336  -9.695  39.665  1.00  0.00     0.210 HD
ENDBRANCH  37  38
ENDBRANCH  32  37
BRANCH  33  40
ATOM     40  O   UNL     1      14.337 -13.539  34.910  1.00  0.00    -0.387 OA
ATOM     41  H   UNL     1      15.194 -13.098  34.657  1.00  0.00     0.211 HD
ENDBRANCH  33  40
BRANCH  35  42
ATOM     42  O   UNL     1      14.629 -11.140  33.879  1.00  0.00    -0.385 OA
ATOM     43  H   UNL     1      14.308 -10.481  33.213  1.00  0.00     0.211 HD
ENDBRANCH  35  42
BRANCH  36  44
ATOM     44  O   UNL     1      14.088  -8.810  35.451  1.00  0.00    -0.366 OA
ATOM     45  H   UNL     1      13.831  -8.913  34.497  1.00  0.00     0.213 HD
ENDBRANCH  36  44
ENDBRANCH  30  31
ENDBRANCH   4  30
TORSDOF 18
ENDMDL
MODEL 3
REMARK VINA RESULT:    -0.173      1.721      4.048
REMARK INTER + INTRA:           3.804
REMARK INTER:                   1.369
REMARK INTRA:                   2.435
REMARK UNBOUND:                 4.104
REMARK SMILES OC[C@@H]1O[C@H](O[C@H]2[C@H](O)[C@H](O)[C@@H](O)O[C@@H]2CO)[C@@H](O)[C@@H](O)[C@@H]1O[C@@H]1O[C@H](CO)[C@H](O)[C@@H](O)[C@@H]1O
REMARK SMILES IDX 22 1 3 2 4 3 5 4 18 5 20 6 23 7 24 8 26 9 29 10 25 11 31 12
REMARK SMILES IDX 33 13 27 14 28 15 30 17 32 19 34 21 2 23 1 24 21 26 19 28
REMARK SMILES IDX 6 30 7 31 15 32 8 33 14 34 10 35 12 36 16 37 17 38 9 40
REMARK SMILES IDX 11 42 13 44
REMARK H PARENT 28 16 30 18 32 20 34 22 1 25 21 27 19 29 17 39 9 41 11 43
REMARK H PARENT 13 45
REMARK Flexibility Score: inf
ROOT
ATOM      1  C   UNL     1      12.347 -13.660  35.753  1.00  0.00     0.184 C 
ATOM      2  C   UNL     1      11.259 -12.768  35.044  1.00  0.00     0.178 C 
ATOM      3  O   UNL     1       9.951 -12.957  35.582  1.00  0.00    -0.341 OA
ATOM      4  C   UNL     1       9.686 -14.323  35.843  1.00  0.00     0.282 C 
ATOM      5  C   UNL     1      10.491 -14.772  37.084  1.00  0.00     0.202 C 
ATOM      6  C   UNL     1      11.862 -14.049  37.158  1.00  0.00     0.180 C 
ENDROOT
BRANCH   1   7
ATOM      7  O   UNL     1      13.612 -13.022  35.874  1.00  0.00    -0.341 OA
BRANCH   7   8
ATOM      8  C   UNL     1      13.741 -12.152  36.999  1.00  0.00     0.282 C 
ATOM      9  C   UNL     1      12.676 -11.333  38.931  1.00  0.00     0.178 C 
ATOM     10  C   UNL     1      13.936 -10.408  39.087  1.00  0.00     0.177 C 
ATOM     11  O   UNL     1      12.500 -11.821  37.604  1.00  0.00    -0.341 OA
ATOM     12  C   UNL     1      14.306  -9.764  37.733  1.00  0.00     0.179 C 
ATOM     13  C   UNL     1      14.508 -10.855  36.634  1.00  0.00     0.202 C 
BRANCH   9  14
ATOM     14  C   UNL     1      11.365 -10.634  39.350  1.00  0.00     0.191 C 
BRANCH  14  15
ATOM     15  O   UNL     1      11.302  -9.324  38.861  1.00  0.00    -0.394 OA
ATOM     16  H   UNL     1      11.728  -9.323  37.960  1.00  0.00     0.210 HD
ENDBRANCH  14  15
ENDBRANCH   9  14
BRANCH  10  17
ATOM     17  O   UNL     1      13.733  -9.405  40.048  1.00  0.00    -0.387 OA
ATOM     18  H   UNL     1      13.733  -8.535  39.554  1.00  0.00     0.211 HD
ENDBRANCH  10  17
BRANCH  12  19
ATOM     19  O   UNL     1      15.490  -9.018  37.859  1.00  0.00    -0.387 OA
ATOM     20  H   UNL     1      15.997  -9.110  37.004  1.00  0.00     0.211 HD
ENDBRANCH  12  19
BRANCH  13  21
ATOM     21  O   UNL     1      14.110 -10.358  35.376  1.00  0.00    -0.385 OA
ATOM     22  H   UNL     1      13.130 -10.181  35.413  1.00  0.00     0.211 HD
ENDBRANCH  13  21
ENDBRANCH   7   8
ENDBRANCH   1   7
BRANCH   2  23
ATOM     23  C   UNL     1      11.552 -11.245  35.061  1.00  0.00     0.191 C 
BRANCH  23  24
ATOM     24  O   UNL     1      10.603 -10.581  35.855  1.00  0.00    -0.394 OA
ATOM     25  H   UNL     1      10.985  -9.687  36.071  1.00  0.00     0.210 HD
ENDBRANCH  23  24
ENDBRANCH   2  23
BRANCH   6  26
ATOM     26  O   UNL     1      12.820 -14.858  37.790  1.00  0.00    -0.387 OA
ATOM     27  H   UNL     1      13.499 -15.099  37.103  1.00  0.00     0.211 HD
ENDBRANCH   6  26
BRANCH   5  28
ATOM     28  O   UNL     1      10.635 -16.176  37.096  1.00  0.00    -0.385 OA
ATOM     29  H   UNL     1      10.026 -16.542  36.401  1.00  0.00     0.211 HD
ENDBRANCH   5  28
BRANCH   4  30
ATOM     30  O   UNL     1       8.311 -14.471  36.141  1.00  0.00    -0.341 OA
BRANCH  30  31
ATOM     31  C   UNL     1       7.576 -13.253  36.184  1.00  0.00     0.184 C 
ATOM     32  C   UNL     1       7.550 -12.514  34.809  1.00  0.00     0.178 C 
ATOM     33  C   UNL     1       7.963 -12.285  37.336  1.00  0.00     0.180 C 
ATOM     34  O   UNL     1       6.926 -11.226  34.813  1.00  0.00    -0.342 OA
ATOM     35  C   UNL     1       7.165 -10.949  37.232  1.00  0.00     0.201 C 
ATOM     36  C   UNL     1       6.216 -10.925  36.003  1.00  0.00     0.279 C 
BRANCH  32  37
ATOM     37  C   UNL     1       6.898 -13.401  33.733  1.00  0.00     0.191 C 
BRANCH  37  38
ATOM     38  O   UNL     1       7.880 -13.995  32.917  1.00  0.00    -0.394 OA
ATOM     39  H   UNL     1       7.617 -13.831  31.967  1.00  0.00     0.210 HD
ENDBRANCH  37  38
ENDBRANCH  32  37
BRANCH  33  40
ATOM     40  O   UNL     1       7.819 -12.907  38.590  1.00  0.00    -0.387 OA
ATOM     41  H   UNL     1       8.607 -12.659  39.145  1.00  0.00     0.211 HD
ENDBRANCH  33  40
BRANCH  35  42
ATOM     42  O   UNL     1       6.488 -10.648  38.423  1.00  0.00    -0.385 OA
ATOM     43  H   UNL     1       5.969 -11.451  38.681  1.00  0.00     0.211 HD
ENDBRANCH  35  42
BRANCH  36  44
ATOM     44  O   UNL     1       5.616  -9.661  35.882  1.00  0.00    -0.366 OA
ATOM     45  H   UNL     1       6.351  -9.004  35.765  1.00  0.00     0.213 HD
ENDBRANCH  36  44
ENDBRANCH  30  31
ENDBRANCH   4  30
TORSDOF 18
ENDMDL
MODEL 4
REMARK VINA RESULT:    -0.136      1.424      6.561
REMARK INTER + INTRA:           3.868
REMARK INTER:                   1.446
REMARK INTRA:                   2.422
REMARK UNBOUND:                 4.104
REMARK SMILES OC[C@@H]1O[C@H](O[C@H]2[C@H](O)[C@H](O)[C@@H](O)O[C@@H]2CO)[C@@H](O)[C@@H](O)[C@@H]1O[C@@H]1O[C@H](CO)[C@H](O)[C@@H](O)[C@@H]1O
REMARK SMILES IDX 22 1 3 2 4 3 5 4 18 5 20 6 23 7 24 8 26 9 29 10 25 11 31 12
REMARK SMILES IDX 33 13 27 14 28 15 30 17 32 19 34 21 2 23 1 24 21 26 19 28
REMARK SMILES IDX 6 30 7 31 15 32 8 33 14 34 10 35 12 36 16 37 17 38 9 40
REMARK SMILES IDX 11 42 13 44
REMARK H PARENT 28 16 30 18 32 20 34 22 1 25 21 27 19 29 17 39 9 41 11 43
REMARK H PARENT 13 45
REMARK Flexibility Score: inf
ROOT
ATOM      1  C   UNL     1       9.374 -10.679  37.096  1.00  0.00     0.184 C 
ATOM      2  C   UNL     1       9.940 -11.034  35.669  1.00  0.00     0.178 C 
ATOM      3  O   UNL     1      11.364 -11.123  35.644  1.00  0.00    -0.341 OA
ATOM      4  C   UNL     1      11.966 -10.095  36.407  1.00  0.00     0.282 C 
ATOM      5  C   UNL     1      11.762 -10.389  37.911  1.00  0.00     0.202 C 
ATOM      6  C   UNL     1      10.396 -11.077  38.172  1.00  0.00     0.180 C 
ENDROOT
BRANCH   1   7
ATOM      7  O   UNL     1       8.138 -11.317  37.390  1.00  0.00    -0.341 OA
BRANCH   7   8
ATOM      8  C   UNL     1       8.255 -12.573  38.059  1.00  0.00     0.282 C 
ATOM      9  C   UNL     1       9.724 -14.321  38.628  1.00  0.00     0.178 C 
ATOM     10  C   UNL     1       8.458 -15.026  39.234  1.00  0.00     0.177 C 
ATOM     11  O   UNL     1       9.402 -13.316  37.672  1.00  0.00    -0.341 OA
ATOM     12  C   UNL     1       7.265 -14.927  38.259  1.00  0.00     0.179 C 
ATOM     13  C   UNL     1       6.983 -13.440  37.872  1.00  0.00     0.202 C 
BRANCH   9  14
ATOM     14  C   UNL     1      10.697 -15.313  37.956  1.00  0.00     0.191 C 
BRANCH  14  15
ATOM     15  O   UNL     1      10.605 -15.255  36.560  1.00  0.00    -0.394 OA
ATOM     16  H   UNL     1       9.861 -14.631  36.338  1.00  0.00     0.210 HD
ENDBRANCH  14  15
ENDBRANCH   9  14
BRANCH  10  17
ATOM     17  O   UNL     1       8.705 -16.373  39.542  1.00  0.00    -0.387 OA
ATOM     18  H   UNL     1       9.285 -16.377  40.357  1.00  0.00     0.211 HD
ENDBRANCH  10  17
BRANCH  12  19
ATOM     19  O   UNL     1       6.111 -15.471  38.848  1.00  0.00    -0.387 OA
ATOM     20  H   UNL     1       5.424 -15.571  38.131  1.00  0.00     0.211 HD
ENDBRANCH  12  19
BRANCH  13  21
ATOM     21  O   UNL     1       6.497 -13.365  36.551  1.00  0.00    -0.385 OA
ATOM     22  H   UNL     1       5.766 -14.035  36.455  1.00  0.00     0.211 HD
ENDBRANCH  13  21
ENDBRANCH   7   8
ENDBRANCH   1   7
BRANCH   2  23
ATOM     23  C   UNL     1       9.382 -12.343  35.053  1.00  0.00     0.191 C 
BRANCH  23  24
ATOM     24  O   UNL     1       8.128 -12.104  34.467  1.00  0.00    -0.394 OA
ATOM     25  H   UNL     1       7.449 -12.217  35.188  1.00  0.00     0.210 HD
ENDBRANCH  23  24
ENDBRANCH   2  23
BRANCH   6  26
ATOM     26  O   UNL     1       9.906 -10.749  39.446  1.00  0.00    -0.387 OA
ATOM     27  H   UNL     1       9.248 -11.453  39.696  1.00  0.00     0.211 HD
ENDBRANCH   6  26
BRANCH   5  28
ATOM     28  O   UNL     1      11.910  -9.207  38.669  1.00  0.00    -0.385 OA
ATOM     29  H   UNL     1      11.228  -9.232  39.392  1.00  0.00     0.211 HD
ENDBRANCH   5  28
BRANCH   4  30
ATOM     30  O   UNL     1      13.357 -10.091  36.150  1.00  0.00    -0.341 OA
BRANCH  30  31
ATOM     31  C   UNL     1      13.900 -11.357  35.792  1.00  0.00     0.184 C 
ATOM     32  C   UNL     1      13.934 -11.584  34.248  1.00  0.00     0.178 C 
ATOM     33  C   UNL     1      13.278 -12.577  36.527  1.00  0.00     0.180 C 
ATOM     34  O   UNL     1      14.360 -12.883  33.825  1.00  0.00    -0.342 OA
ATOM     35  C   UNL     1      13.879 -13.914  35.991  1.00  0.00     0.201 C 
ATOM     36  C   UNL     1      14.915 -13.680  34.859  1.00  0.00     0.279 C 
BRANCH  32  37
ATOM     37  C   UNL     1      14.797 -10.509  33.564  1.00  0.00     0.191 C 
BRANCH  37  38
ATOM     38  O   UNL     1      15.506  -9.758  34.522  1.00  0.00    -0.394 OA
ATOM     39  H   UNL     1      14.842  -9.434  35.196  1.00  0.00     0.210 HD
ENDBRANCH  37  38
ENDBRANCH  32  37
BRANCH  33  40
ATOM     40  O   UNL     1      13.405 -12.446  37.921  1.00  0.00    -0.387 OA
ATOM     41  H   UNL     1      13.129 -13.309  38.334  1.00  0.00     0.211 HD
ENDBRANCH  33  40
BRANCH  35  42
ATOM     42  O   UNL     1      14.400 -14.706  37.025  1.00  0.00    -0.385 OA
ATOM     43  H   UNL     1      15.322 -14.960  36.767  1.00  0.00     0.211 HD
ENDBRANCH  35  42
BRANCH  36  44
ATOM     44  O   UNL     1      15.332 -14.911  34.326  1.00  0.00    -0.366 OA
ATOM     45  H   UNL     1      15.674 -14.729  33.412  1.00  0.00     0.213 HD
ENDBRANCH  36  44
ENDBRANCH  30  31
ENDBRANCH   4  30
TORSDOF 18
ENDMDL
MODEL 5
REMARK VINA RESULT:    -0.033      1.637      6.260
REMARK INTER + INTRA:           4.046
REMARK INTER:                   2.937
REMARK INTRA:                   1.109
REMARK UNBOUND:                 4.104
REMARK SMILES OC[C@@H]1O[C@H](O[C@H]2[C@H](O)[C@H](O)[C@@H](O)O[C@@H]2CO)[C@@H](O)[C@@H](O)[C@@H]1O[C@@H]1O[C@H](CO)[C@H](O)[C@@H](O)[C@@H]1O
REMARK SMILES IDX 22 1 3 2 4 3 5 4 18 5 20 6 23 7 24 8 26 9 29 10 25 11 31 12
REMARK SMILES IDX 33 13 27 14 28 15 30 17 32 19 34 21 2 23 1 24 21 26 19 28
REMARK SMILES IDX 6 30 7 31 15 32 8 33 14 34 10 35 12 36 16 37 17 38 9 40
REMARK SMILES IDX 11 42 13 44
REMARK H PARENT 28 16 30 18 32 20 34 22 1 25 21 27 19 29 17 39 9 41 11 43
REMARK H PARENT 13 45
REMARK Flexibility Score: inf
ROOT
ATOM      1  C   UNL     1       8.792 -11.193  37.972  1.00  0.00     0.184 C 
ATOM      2  C   UNL     1       8.528 -11.211  36.419  1.00  0.00     0.178 C 
ATOM      3  O   UNL     1       9.723 -11.067  35.653  1.00  0.00    -0.341 OA
ATOM      4  C   UNL     1      10.588 -10.096  36.211  1.00  0.00     0.282 C 
ATOM      5  C   UNL     1      11.231 -10.664  37.497  1.00  0.00     0.202 C 
ATOM      6  C   UNL     1      10.247 -11.595  38.255  1.00  0.00     0.180 C 
ENDROOT
BRANCH   1   7
ATOM      7  O   UNL     1       7.934 -12.060  38.703  1.00  0.00    -0.341 OA
BRANCH   7   8
ATOM      8  C   UNL     1       8.426 -13.390  38.872  1.00  0.00     0.282 C 
ATOM      9  C   UNL     1      10.260 -14.822  38.521  1.00  0.00     0.178 C 
ATOM     10  C   UNL     1       9.331 -15.954  39.087  1.00  0.00     0.177 C 
ATOM     11  O   UNL     1       9.539 -13.691  38.042  1.00  0.00    -0.341 OA
ATOM     12  C   UNL     1       7.925 -15.866  38.454  1.00  0.00     0.179 C 
ATOM     13  C   UNL     1       7.311 -14.443  38.654  1.00  0.00     0.202 C 
BRANCH   9  14
ATOM     14  C   UNL     1      11.174 -15.313  37.378  1.00  0.00     0.191 C 
BRANCH  14  15
ATOM     15  O   UNL     1      10.537 -15.218  36.135  1.00  0.00    -0.394 OA
ATOM     16  H   UNL     1      11.181 -15.539  35.446  1.00  0.00     0.210 HD
ENDBRANCH  14  15
ENDBRANCH   9  14
BRANCH  10  17
ATOM     17  O   UNL     1       9.868 -17.232  38.867  1.00  0.00    -0.387 OA
ATOM     18  H   UNL     1       9.209 -17.723  38.298  1.00  0.00     0.211 HD
ENDBRANCH  10  17
BRANCH  12  19
ATOM     19  O   UNL     1       7.070 -16.818  39.036  1.00  0.00    -0.387 OA
ATOM     20  H   UNL     1       6.595 -16.373  39.792  1.00  0.00     0.211 HD
ENDBRANCH  12  19
BRANCH  13  21
ATOM     21  O   UNL     1       6.492 -14.108  37.557  1.00  0.00    -0.385 OA
ATOM     22  H   UNL     1       7.068 -13.686  36.862  1.00  0.00     0.211 HD
ENDBRANCH  13  21
ENDBRANCH   7   8
ENDBRANCH   1   7
BRANCH   2  23
ATOM     23  C   UNL     1       7.792 -12.473  35.897  1.00  0.00     0.191 C 
BRANCH  23  24
ATOM     24  O   UNL     1       8.717 -13.381  35.359  1.00  0.00    -0.394 OA
ATOM     25  H   UNL     1       8.301 -14.285  35.422  1.00  0.00     0.210 HD
ENDBRANCH  23  24
ENDBRANCH   2  23
BRANCH   6  26
ATOM     26  O   UNL     1      10.495 -11.565  39.637  1.00  0.00    -0.387 OA
ATOM     27  H   UNL     1       9.853 -12.196  40.063  1.00  0.00     0.211 HD
ENDBRANCH   6  26
BRANCH   5  28
ATOM     28  O   UNL     1      11.701  -9.615  38.318  1.00  0.00    -0.385 OA
ATOM     29  H   UNL     1      12.561  -9.914  38.714  1.00  0.00     0.211 HD
ENDBRANCH   5  28
BRANCH   4  30
ATOM     30  O   UNL     1      11.627  -9.828  35.289  1.00  0.00    -0.341 OA
BRANCH  30  31
ATOM     31  C   UNL     1      12.655 -10.812  35.247  1.00  0.00     0.184 C 
ATOM     32  C   UNL     1      14.053 -10.211  34.899  1.00  0.00     0.178 C 
ATOM     33  C   UNL     1      12.343 -12.058  34.371  1.00  0.00     0.180 C 
ATOM     34  O   UNL     1      15.107 -11.163  34.725  1.00  0.00    -0.342 OA
ATOM     35  C   UNL     1      13.569 -13.022  34.321  1.00  0.00     0.201 C 
ATOM     36  C   UNL     1      14.776 -12.481  35.133  1.00  0.00     0.279 C 
BRANCH  32  37
ATOM     37  C   UNL     1      14.467  -9.167  35.951  1.00  0.00     0.191 C 
BRANCH  37  38
ATOM     38  O   UNL     1      14.172  -9.626  37.249  1.00  0.00    -0.394 OA
ATOM     39  H   UNL     1      14.955  -9.404  37.829  1.00  0.00     0.210 HD
ENDBRANCH  37  38
ENDBRANCH  32  37
BRANCH  33  40
ATOM     40  O   UNL     1      11.167 -12.697  34.801  1.00  0.00    -0.387 OA
ATOM     41  H   UNL     1      11.432 -13.495  35.335  1.00  0.00     0.211 HD
ENDBRANCH  33  40
BRANCH  35  42
ATOM     42  O   UNL     1      13.224 -14.328  34.699  1.00  0.00    -0.385 OA
ATOM     43  H   UNL     1      13.986 -14.915  34.463  1.00  0.00     0.211 HD
ENDBRANCH  35  42
BRANCH  36  44
ATOM     44  O   UNL     1      15.890 -13.318  34.955  1.00  0.00    -0.366 OA
ATOM     45  H   UNL     1      15.978 -13.477  33.979  1.00  0.00     0.213 HD
ENDBRANCH  36  44
ENDBRANCH  30  31
ENDBRANCH   4  30
TORSDOF 18
ENDMDL
MODEL 6
REMARK VINA RESULT:    -0.010      1.711      5.967
REMARK INTER + INTRA:           4.086
REMARK INTER:                   1.023
REMARK INTRA:                   3.063
REMARK UNBOUND:                 4.104
REMARK SMILES OC[C@@H]1O[C@H](O[C@H]2[C@H](O)[C@H](O)[C@@H](O)O[C@@H]2CO)[C@@H](O)[C@@H](O)[C@@H]1O[C@@H]1O[C@H](CO)[C@H](O)[C@@H](O)[C@@H]1O
REMARK SMILES IDX 22 1 3 2 4 3 5 4 18 5 20 6 23 7 24 8 26 9 29 10 25 11 31 12
REMARK SMILES IDX 33 13 27 14 28 15 30 17 32 19 34 21 2 23 1 24 21 26 19 28
REMARK SMILES IDX 6 30 7 31 15 32 8 33 14 34 10 35 12 36 16 37 17 38 9 40
REMARK SMILES IDX 11 42 13 44
REMARK H PARENT 28 16 30 18 32 20 34 22 1 25 21 27 19 29 17 39 9 41 11 43
REMARK H PARENT 13 45
REMARK Flexibility Score: inf
ROOT
ATOM      1  C   UNL     1       8.835 -11.097  38.262  1.00  0.00     0.184 C 
ATOM      2  C   UNL     1       8.547 -10.965  36.718  1.00  0.00     0.178 C 
ATOM      3  O   UNL     1       9.714 -10.643  35.963  1.00  0.00    -0.341 OA
ATOM      4  C   UNL     1      10.511  -9.674  36.619  1.00  0.00     0.282 C 
ATOM      5  C   UNL     1      11.217 -10.328  37.829  1.00  0.00     0.202 C 
ATOM      6  C   UNL     1      10.321 -11.411  38.487  1.00  0.00     0.180 C 
ENDROOT
BRANCH   1   7
ATOM      7  O   UNL     1       8.059 -12.104  38.899  1.00  0.00    -0.341 OA
BRANCH   7   8
ATOM      8  C   UNL     1       8.653 -13.403  38.907  1.00  0.00     0.282 C 
ATOM      9  C   UNL     1      10.443 -14.706  38.112  1.00  0.00     0.178 C 
ATOM     10  C   UNL     1       9.728 -15.908  38.826  1.00  0.00     0.177 C 
ATOM     11  O   UNL     1       9.570 -13.613  37.844  1.00  0.00    -0.341 OA
ATOM     12  C   UNL     1       8.214 -15.896  38.518  1.00  0.00     0.179 C 
ATOM     13  C   UNL     1       7.579 -14.521  38.900  1.00  0.00     0.202 C 
BRANCH   9  14
ATOM     14  C   UNL     1      11.109 -15.111  36.780  1.00  0.00     0.191 C 
BRANCH  14  15
ATOM     15  O   UNL     1      10.329 -14.735  35.681  1.00  0.00    -0.394 OA
ATOM     16  H   UNL     1      10.944 -14.355  34.996  1.00  0.00     0.210 HD
ENDBRANCH  14  15
ENDBRANCH   9  14
BRANCH  10  17
ATOM     17  O   UNL     1      10.276 -17.144  38.447  1.00  0.00    -0.387 OA
ATOM     18  H   UNL     1      10.716 -17.521  39.263  1.00  0.00     0.211 HD
ENDBRANCH  10  17
BRANCH  12  19
ATOM     19  O   UNL     1       7.565 -16.914  39.238  1.00  0.00    -0.387 OA
ATOM     20  H   UNL     1       8.183 -17.696  39.277  1.00  0.00     0.211 HD
ENDBRANCH  12  19
BRANCH  13  21
ATOM     21  O   UNL     1       6.520 -14.213  38.021  1.00  0.00    -0.385 OA
ATOM     22  H   UNL     1       6.565 -14.848  37.254  1.00  0.00     0.211 HD
ENDBRANCH  13  21
ENDBRANCH   7   8
ENDBRANCH   1   7
BRANCH   2  23
ATOM     23  C   UNL     1       7.903 -12.216  36.066  1.00  0.00     0.191 C 
BRANCH  23  24
ATOM     24  O   UNL     1       6.510 -12.185  36.237  1.00  0.00    -0.394 OA
ATOM     25  H   UNL     1       6.123 -11.855  35.380  1.00  0.00     0.210 HD
ENDBRANCH  23  24
ENDBRANCH   2  23
BRANCH   6  26
ATOM     26  O   UNL     1      10.589 -11.513  39.861  1.00  0.00    -0.387 OA
ATOM     27  H   UNL     1      11.458 -11.991  39.954  1.00  0.00     0.211 HD
ENDBRANCH   6  26
BRANCH   5  28
ATOM     28  O   UNL     1      11.618  -9.342  38.757  1.00  0.00    -0.385 OA
ATOM     29  H   UNL     1      10.793  -8.960  39.157  1.00  0.00     0.211 HD
ENDBRANCH   5  28
BRANCH   4  30
ATOM     30  O   UNL     1      11.510  -9.225  35.724  1.00  0.00    -0.341 OA
BRANCH  30  31
ATOM     31  C   UNL     1      12.404 -10.236  35.272  1.00  0.00     0.184 C 
ATOM     32  C   UNL     1      11.674 -11.565  34.902  1.00  0.00     0.178 C 
ATOM     33  C   UNL     1      13.625 -10.503  36.196  1.00  0.00     0.180 C 
ATOM     34  O   UNL     1      12.528 -12.660  34.551  1.00  0.00    -0.342 OA
ATOM     35  C   UNL     1      14.483 -11.688  35.655  1.00  0.00     0.201 C 
ATOM     36  C   UNL     1      13.887 -12.302  34.360  1.00  0.00     0.279 C 
BRANCH  32  37
ATOM     37  C   UNL     1      10.655 -11.324  33.775  1.00  0.00     0.191 C 
BRANCH  37  38
ATOM     38  O   UNL     1      10.813 -10.036  33.229  1.00  0.00    -0.394 OA
ATOM     39  H   UNL     1      11.699  -9.689  33.536  1.00  0.00     0.210 HD
ENDBRANCH  37  38
ENDBRANCH  32  37
BRANCH  33  40
ATOM     40  O   UNL     1      14.379  -9.331  36.388  1.00  0.00    -0.387 OA
ATOM     41  H   UNL     1      14.594  -9.263  37.358  1.00  0.00     0.211 HD
ENDBRANCH  33  40
BRANCH  35  42
ATOM     42  O   UNL     1      15.830 -11.331  35.495  1.00  0.00    -0.385 OA
ATOM     43  H   UNL     1      16.215 -11.930  34.807  1.00  0.00     0.211 HD
ENDBRANCH  35  42
BRANCH  36  44
ATOM     44  O   UNL     1      14.620 -13.440  33.984  1.00  0.00    -0.366 OA
ATOM     45  H   UNL     1      15.455 -13.115  33.556  1.00  0.00     0.213 HD
ENDBRANCH  36  44
ENDBRANCH  30  31
ENDBRANCH   4  30
TORSDOF 18
ENDMDL
MODEL 7
REMARK VINA RESULT:     0.148      1.666      5.988
REMARK INTER + INTRA:           4.361
REMARK INTER:                   0.375
REMARK INTRA:                   3.986
REMARK UNBOUND:                 4.104
REMARK SMILES OC[C@@H]1O[C@H](O[C@H]2[C@H](O)[C@H](O)[C@@H](O)O[C@@H]2CO)[C@@H](O)[C@@H](O)[C@@H]1O[C@@H]1O[C@H](CO)[C@H](O)[C@@H](O)[C@@H]1O
REMARK SMILES IDX 22 1 3 2 4 3 5 4 18 5 20 6 23 7 24 8 26 9 29 10 25 11 31 12
REMARK SMILES IDX 33 13 27 14 28 15 30 17 32 19 34 21 2 23 1 24 21 26 19 28
REMARK SMILES IDX 6 30 7 31 15 32 8 33 14 34 10 35 12 36 16 37 17 38 9 40
REMARK SMILES IDX 11 42 13 44
REMARK H PARENT 28 16 30 18 32 20 34 22 1 25 21 27 19 29 17 39 9 41 11 43
REMARK H PARENT 13 45
REMARK Flexibility Score: inf
ROOT
ATOM      1  C   UNL     1      11.984 -14.655  37.187  1.00  0.00     0.184 C 
ATOM      2  C   UNL     1      12.152 -13.392  38.115  1.00  0.00     0.178 C 
ATOM      3  O   UNL     1      12.631 -12.247  37.410  1.00  0.00    -0.341 OA
ATOM      4  C   UNL     1      13.650 -12.588  36.490  1.00  0.00     0.282 C 
ATOM      5  C   UNL     1      13.024 -13.329  35.286  1.00  0.00     0.202 C 
ATOM      6  C   UNL     1      11.822 -14.206  35.727  1.00  0.00     0.180 C 
ENDROOT
BRANCH   1   7
ATOM      7  O   UNL     1      10.872 -15.469  37.534  1.00  0.00    -0.341 OA
BRANCH   7   8
ATOM      8  C   UNL     1       9.596 -14.908  37.223  1.00  0.00     0.282 C 
ATOM      9  C   UNL     1       8.482 -13.163  36.106  1.00  0.00     0.178 C 
ATOM     10  C   UNL     1       7.170 -13.768  36.722  1.00  0.00     0.177 C 
ATOM     11  O   UNL     1       9.660 -13.553  36.804  1.00  0.00    -0.341 OA
ATOM     12  C   UNL     1       7.377 -14.101  38.215  1.00  0.00     0.179 C 
ATOM     13  C   UNL     1       8.609 -15.042  38.411  1.00  0.00     0.202 C 
BRANCH   9  14
ATOM     14  C   UNL     1       8.460 -11.621  36.049  1.00  0.00     0.191 C 
BRANCH  14  15
ATOM     15  O   UNL     1       8.253 -11.063  37.316  1.00  0.00    -0.394 OA
ATOM     16  H   UNL     1       7.726 -11.721  37.847  1.00  0.00     0.210 HD
ENDBRANCH  14  15
ENDBRANCH   9  14
BRANCH  10  17
ATOM     17  O   UNL     1       6.076 -12.900  36.579  1.00  0.00    -0.387 OA
ATOM     18  H   UNL     1       5.519 -13.265  35.833  1.00  0.00     0.211 HD
ENDBRANCH  10  17
BRANCH  12  19
ATOM     19  O   UNL     1       6.234 -14.733  38.734  1.00  0.00    -0.387 OA
ATOM     20  H   UNL     1       6.529 -15.323  39.483  1.00  0.00     0.211 HD
ENDBRANCH  12  19
BRANCH  13  21
ATOM     21  O   UNL     1       9.241 -14.767  39.641  1.00  0.00    -0.385 OA
ATOM     22  H   UNL     1       9.506 -13.806  39.640  1.00  0.00     0.211 HD
ENDBRANCH  13  21
ENDBRANCH   7   8
ENDBRANCH   1   7
BRANCH   2  23
ATOM     23  C   UNL     1      10.869 -12.966  38.875  1.00  0.00     0.191 C 
BRANCH  23  24
ATOM     24  O   UNL     1      10.713 -11.572  38.812  1.00  0.00    -0.394 OA
ATOM     25  H   UNL     1      10.988 -11.294  37.895  1.00  0.00     0.210 HD
ENDBRANCH  23  24
ENDBRANCH   2  23
BRANCH   6  26
ATOM     26  O   UNL     1      11.688 -15.326  34.891  1.00  0.00    -0.387 OA
ATOM     27  H   UNL     1      10.757 -15.319  34.539  1.00  0.00     0.211 HD
ENDBRANCH   6  26
BRANCH   5  28
ATOM     28  O   UNL     1      14.005 -14.083  34.607  1.00  0.00    -0.385 OA
ATOM     29  H   UNL     1      14.572 -14.519  35.296  1.00  0.00     0.211 HD
ENDBRANCH   5  28
BRANCH   4  30
ATOM     30  O   UNL     1      14.244 -11.399  36.006  1.00  0.00    -0.341 OA
BRANCH  30  31
ATOM     31  C   UNL     1      13.367 -10.280  35.938  1.00  0.00     0.184 C 
ATOM     32  C   UNL     1      12.714  -9.941  37.315  1.00  0.00     0.178 C 
ATOM     33  C   UNL     1      12.301 -10.340  34.808  1.00  0.00     0.180 C 
ATOM     34  O   UNL     1      11.732  -8.899  37.291  1.00  0.00    -0.342 OA
ATOM     35  C   UNL     1      11.340  -9.114  34.886  1.00  0.00     0.201 C 
ATOM     36  C   UNL     1      11.680  -8.174  36.073  1.00  0.00     0.279 C 
BRANCH  32  37
ATOM     37  C   UNL     1      13.795  -9.607  38.357  1.00  0.00     0.191 C 
BRANCH  37  38
ATOM     38  O   UNL     1      13.379  -9.993  39.646  1.00  0.00    -0.394 OA
ATOM     39  H   UNL     1      13.642  -9.261  40.275  1.00  0.00     0.210 HD
ENDBRANCH  37  38
ENDBRANCH  32  37
BRANCH  33  40
ATOM     40  O   UNL     1      12.909 -10.475  33.547  1.00  0.00    -0.387 OA
ATOM     41  H   UNL     1      13.036  -9.561  33.172  1.00  0.00     0.211 HD
ENDBRANCH  33  40
BRANCH  35  42
ATOM     42  O   UNL     1      11.276  -8.421  33.668  1.00  0.00    -0.385 OA
ATOM     43  H   UNL     1      10.403  -7.953  33.639  1.00  0.00     0.211 HD
ENDBRANCH  35  42
BRANCH  36  44
ATOM     44  O   UNL     1      10.715  -7.158  36.175  1.00  0.00    -0.366 OA
ATOM     45  H   UNL     1      10.057  -7.312  35.448  1.00  0.00     0.213 HD
ENDBRANCH  36  44
ENDBRANCH  30  31
ENDBRANCH   4  30
TORSDOF 18
ENDMDL
MODEL 8
REMARK VINA RESULT:     0.318      1.534      4.143
REMARK INTER + INTRA:           4.654
REMARK INTER:                   1.055
REMARK INTRA:                   3.599
REMARK UNBOUND:                 4.104
REMARK SMILES OC[C@@H]1O[C@H](O[C@H]2[C@H](O)[C@H](O)[C@@H](O)O[C@@H]2CO)[C@@H](O)[C@@H](O)[C@@H]1O[C@@H]1O[C@H](CO)[C@H](O)[C@@H](O)[C@@H]1O
REMARK SMILES IDX 22 1 3 2 4 3 5 4 18 5 20 6 23 7 24 8 26 9 29 10 25 11 31 12
REMARK SMILES IDX 33 13 27 14 28 15 30 17 32 19 34 21 2 23 1 24 21 26 19 28
REMARK SMILES IDX 6 30 7 31 15 32 8 33 14 34 10 35 12 36 16 37 17 38 9 40
REMARK SMILES IDX 11 42 13 44
REMARK H PARENT 28 16 30 18 32 20 34 22 1 25 21 27 19 29 17 39 9 41 11 43
REMARK H PARENT 13 45
REMARK Flexibility Score: inf
ROOT
ATOM      1  C   UNL     1      10.578 -10.245  34.787  1.00  0.00     0.184 C 
ATOM      2  C   UNL     1      10.525  -9.775  36.290  1.00  0.00     0.178 C 
ATOM      3  O   UNL     1       9.549 -10.481  37.056  1.00  0.00    -0.341 OA
ATOM      4  C   UNL     1       8.348 -10.666  36.330  1.00  0.00     0.282 C 
ATOM      5  C   UNL     1       8.572 -11.736  35.237  1.00  0.00     0.202 C 
ATOM      6  C   UNL     1      10.014 -11.669  34.669  1.00  0.00     0.180 C 
ENDROOT
BRANCH   1   7
ATOM      7  O   UNL     1      11.889 -10.232  34.235  1.00  0.00    -0.341 OA
BRANCH   7   8
ATOM      8  C   UNL     1      12.660 -11.407  34.491  1.00  0.00     0.282 C 
ATOM      9  C   UNL     1      12.685 -13.493  35.580  1.00  0.00     0.178 C 
ATOM     10  C   UNL     1      14.170 -13.601  35.078  1.00  0.00     0.177 C 
ATOM     11  O   UNL     1      12.199 -12.154  35.607  1.00  0.00    -0.341 OA
ATOM     12  C   UNL     1      14.921 -12.274  35.323  1.00  0.00     0.179 C 
ATOM     13  C   UNL     1      14.163 -11.075  34.669  1.00  0.00     0.202 C 
BRANCH   9  14
ATOM     14  C   UNL     1      12.484 -14.093  36.987  1.00  0.00     0.191 C 
BRANCH  14  15
ATOM     15  O   UNL     1      13.183 -13.368  37.959  1.00  0.00    -0.394 OA
ATOM     16  H   UNL     1      13.909 -13.957  38.304  1.00  0.00     0.210 HD
ENDBRANCH  14  15
ENDBRANCH   9  14
BRANCH  10  17
ATOM     17  O   UNL     1      14.857 -14.655  35.701  1.00  0.00    -0.387 OA
ATOM     18  H   UNL     1      14.896 -15.400  35.035  1.00  0.00     0.211 HD
ENDBRANCH  10  17
BRANCH  12  19
ATOM     19  O   UNL     1      16.217 -12.344  34.783  1.00  0.00    -0.387 OA
ATOM     20  H   UNL     1      16.138 -12.706  33.857  1.00  0.00     0.211 HD
ENDBRANCH  12  19
BRANCH  13  21
ATOM     21  O   UNL     1      14.347  -9.906  35.436  1.00  0.00    -0.385 OA
ATOM     22  H   UNL     1      14.310  -9.126  34.818  1.00  0.00     0.211 HD
ENDBRANCH  13  21
ENDBRANCH   7   8
ENDBRANCH   1   7
BRANCH   2  23
ATOM     23  C   UNL     1      11.872  -9.873  37.052  1.00  0.00     0.191 C 
BRANCH  23  24
ATOM     24  O   UNL     1      11.772  -9.219  38.290  1.00  0.00    -0.394 OA
ATOM     25  H   UNL     1      11.363  -9.869  38.926  1.00  0.00     0.210 HD
ENDBRANCH  23  24
ENDBRANCH   2  23
BRANCH   6  26
ATOM     26  O   UNL     1      10.043 -12.089  33.329  1.00  0.00    -0.387 OA
ATOM     27  H   UNL     1      10.999 -12.220  33.084  1.00  0.00     0.211 HD
ENDBRANCH   6  26
BRANCH   5  28
ATOM     28  O   UNL     1       7.599 -11.614  34.221  1.00  0.00    -0.385 OA
ATOM     29  H   UNL     1       6.716 -11.812  34.632  1.00  0.00     0.211 HD
ENDBRANCH   5  28
BRANCH   4  30
ATOM     30  O   UNL     1       7.352 -11.148  37.212  1.00  0.00    -0.341 OA
BRANCH  30  31
ATOM     31  C   UNL     1       7.688 -12.354  37.887  1.00  0.00     0.184 C 
ATOM     32  C   UNL     1       9.121 -12.323  38.505  1.00  0.00     0.178 C 
ATOM     33  C   UNL     1       7.455 -13.657  37.072  1.00  0.00     0.180 C 
ATOM     34  O   UNL     1       9.564 -13.548  39.097  1.00  0.00    -0.342 OA
ATOM     35  C   UNL     1       7.941 -14.906  37.869  1.00  0.00     0.201 C 
ATOM     36  C   UNL     1       8.546 -14.525  39.247  1.00  0.00     0.279 C 
BRANCH  32  37
ATOM     37  C   UNL     1       9.240 -11.181  39.530  1.00  0.00     0.191 C 
BRANCH  37  38
ATOM     38  O   UNL     1       7.978 -10.616  39.794  1.00  0.00    -0.394 OA
ATOM     39  H   UNL     1       7.373 -10.874  39.041  1.00  0.00     0.210 HD
ENDBRANCH  37  38
ENDBRANCH  32  37
BRANCH  33  40
ATOM     40  O   UNL     1       6.113 -13.764  36.662  1.00  0.00    -0.387 OA
ATOM     41  H   UNL     1       6.028 -14.590  36.112  1.00  0.00     0.211 HD
ENDBRANCH  33  40
BRANCH  35  42
ATOM     42  O   UNL     1       6.936 -15.877  37.988  1.00  0.00    -0.385 OA
ATOM     43  H   UNL     1       6.074 -15.440  37.769  1.00  0.00     0.211 HD
ENDBRANCH  35  42
BRANCH  36  44
ATOM     44  O   UNL     1       9.082 -15.665  39.870  1.00  0.00    -0.366 OA
ATOM     45  H   UNL     1       8.426 -15.952  40.558  1.00  0.00     0.213 HD
ENDBRANCH  36  44
ENDBRANCH  30  31
ENDBRANCH   4  30
TORSDOF 18
ENDMDL
MODEL 9
REMARK VINA RESULT:     0.401      1.813      4.236
REMARK INTER + INTRA:           4.797
REMARK INTER:                   2.018
REMARK INTRA:                   2.780
REMARK UNBOUND:                 4.104
REMARK SMILES OC[C@@H]1O[C@H](O[C@H]2[C@H](O)[C@H](O)[C@@H](O)O[C@@H]2CO)[C@@H](O)[C@@H](O)[C@@H]1O[C@@H]1O[C@H](CO)[C@H](O)[C@@H](O)[C@@H]1O
REMARK SMILES IDX 22 1 3 2 4 3 5 4 18 5 20 6 23 7 24 8 26 9 29 10 25 11 31 12
REMARK SMILES IDX 33 13 27 14 28 15 30 17 32 19 34 21 2 23 1 24 21 26 19 28
REMARK SMILES IDX 6 30 7 31 15 32 8 33 14 34 10 35 12 36 16 37 17 38 9 40
REMARK SMILES IDX 11 42 13 44
REMARK H PARENT 28 16 30 18 32 20 34 22 1 25 21 27 19 29 17 39 9 41 11 43
REMARK H PARENT 13 45
REMARK Flexibility Score: inf
ROOT
ATOM      1  C   UNL     1       9.633 -10.296  35.752  1.00  0.00     0.184 C 
ATOM      2  C   UNL     1       9.496 -10.931  37.187  1.00  0.00     0.178 C 
ATOM      3  O   UNL     1       9.087 -12.298  37.151  1.00  0.00    -0.341 OA
ATOM      4  C   UNL     1       8.079 -12.516  36.182  1.00  0.00     0.282 C 
ATOM      5  C   UNL     1       8.704 -12.446  34.770  1.00  0.00     0.202 C 
ATOM      6  C   UNL     1       9.854 -11.405  34.713  1.00  0.00     0.180 C 
ENDROOT
BRANCH   1   7
ATOM      7  O   UNL     1      10.698  -9.360  35.646  1.00  0.00    -0.341 OA
BRANCH   7   8
ATOM      8  C   UNL     1      11.971  -9.931  35.340  1.00  0.00     0.282 C 
ATOM      9  C   UNL     1      13.088 -11.883  34.648  1.00  0.00     0.178 C 
ATOM     10  C   UNL     1      14.408 -11.061  34.867  1.00  0.00     0.177 C 
ATOM     11  O   UNL     1      11.973 -11.351  35.355  1.00  0.00    -0.341 OA
ATOM     12  C   UNL     1      14.353 -10.296  36.208  1.00  0.00     0.179 C 
ATOM     13  C   UNL     1      13.078  -9.397  36.285  1.00  0.00     0.202 C 
BRANCH   9  14
ATOM     14  C   UNL     1      13.234 -13.366  35.049  1.00  0.00     0.191 C 
BRANCH  14  15
ATOM     15  O   UNL     1      13.232 -13.524  36.440  1.00  0.00    -0.394 OA
ATOM     16  H   UNL     1      12.716 -14.352  36.644  1.00  0.00     0.210 HD
ENDBRANCH  14  15
ENDBRANCH   9  14
BRANCH  10  17
ATOM     17  O   UNL     1      15.547 -11.880  34.837  1.00  0.00    -0.387 OA
ATOM     18  H   UNL     1      15.235 -12.790  34.564  1.00  0.00     0.211 HD
ENDBRANCH  10  17
BRANCH  12  19
ATOM     19  O   UNL     1      15.492  -9.486  36.351  1.00  0.00    -0.387 OA
ATOM     20  H   UNL     1      15.205  -8.538  36.229  1.00  0.00     0.211 HD
ENDBRANCH  12  19
BRANCH  13  21
ATOM     21  O   UNL     1      12.623  -9.312  37.616  1.00  0.00    -0.385 OA
ATOM     22  H   UNL     1      12.152 -10.163  37.834  1.00  0.00     0.211 HD
ENDBRANCH  13  21
ENDBRANCH   7   8
ENDBRANCH   1   7
BRANCH   2  23
ATOM     23  C   UNL     1      10.776 -10.853  38.060  1.00  0.00     0.191 C 
BRANCH  23  24
ATOM     24  O   UNL     1      11.390 -12.113  38.127  1.00  0.00    -0.394 OA
ATOM     25  H   UNL     1      11.593 -12.283  39.088  1.00  0.00     0.210 HD
ENDBRANCH  23  24
ENDBRANCH   2  23
BRANCH   6  26
ATOM     26  O   UNL     1       9.960 -10.848  33.429  1.00  0.00    -0.387 OA
ATOM     27  H   UNL     1       9.056 -10.897  33.013  1.00  0.00     0.211 HD
ENDBRANCH   6  26
BRANCH   5  28
ATOM     28  O   UNL     1       7.709 -12.184  33.803  1.00  0.00    -0.385 OA
ATOM     29  H   UNL     1       6.831 -12.208  34.268  1.00  0.00     0.211 HD
ENDBRANCH   5  28
BRANCH   4  30
ATOM     30  O   UNL     1       7.552 -13.817  36.358  1.00  0.00    -0.341 OA
BRANCH  30  31
ATOM     31  C   UNL     1       8.322 -14.663  37.205  1.00  0.00     0.184 C 
ATOM     32  C   UNL     1       8.215 -14.268  38.712  1.00  0.00     0.178 C 
ATOM     33  C   UNL     1       9.804 -14.856  36.778  1.00  0.00     0.180 C 
ATOM     34  O   UNL     1       9.057 -15.006  39.603  1.00  0.00    -0.342 OA
ATOM     35  C   UNL     1      10.575 -15.721  37.823  1.00  0.00     0.201 C 
ATOM     36  C   UNL     1       9.676 -16.140  39.017  1.00  0.00     0.279 C 
BRANCH  32  37
ATOM     37  C   UNL     1       6.755 -14.357  39.189  1.00  0.00     0.191 C 
BRANCH  37  38
ATOM     38  O   UNL     1       5.898 -14.662  38.114  1.00  0.00    -0.394 OA
ATOM     39  H   UNL     1       5.424 -15.513  38.343  1.00  0.00     0.210 HD
ENDBRANCH  37  38
ENDBRANCH  32  37
BRANCH  33  40
ATOM     40  O   UNL     1       9.890 -15.377  35.473  1.00  0.00    -0.387 OA
ATOM     41  H   UNL     1       9.215 -16.104  35.391  1.00  0.00     0.211 HD
ENDBRANCH  33  40
BRANCH  35  42
ATOM     42  O   UNL     1      11.206 -16.824  37.228  1.00  0.00    -0.385 OA
ATOM     43  H   UNL     1      11.990 -16.482  36.728  1.00  0.00     0.211 HD
ENDBRANCH  35  42
BRANCH  36  44
ATOM     44  O   UNL     1      10.444 -16.806  39.987  1.00  0.00    -0.366 OA
ATOM     45  H   UNL     1      10.067 -16.559  40.872  1.00  0.00     0.213 HD
ENDBRANCH  36  44
ENDBRANCH  30  31
ENDBRANCH   4  30
TORSDOF 18
ENDMDL
