MODEL 1
REMARK VINA RESULT:     3.702      0.000      0.000
REMARK INTER + INTRA:           7.841
REMARK INTER:                   8.031
REMARK INTRA:                  -0.190
REMARK UNBOUND:                -0.190
REMARK SMILES CCCCCCCCCCCCCCCCCCCCCC(=O)[O-]
REMARK SMILES IDX 12 1 11 2 10 3 9 4 8 5 7 6 6 7 5 8 4 9 3 10 2 11 1 12 13 13
REMARK SMILES IDX 14 14 15 15 16 16 17 17 18 18 19 19 20 20 21 21 22 22 23 23
REMARK SMILES IDX 24 24
REMARK H PARENT
REMARK Flexibility Score: inf
ROOT
ATOM      1  C   UNL     1      35.630 105.324 262.765  1.00  0.00     0.000 C 
ENDROOT
BRANCH   1   2
ATOM      2  C   UNL     1      35.246 104.732 264.129  1.00  0.00     0.000 C 
BRANCH   2   3
ATOM      3  C   UNL     1      34.925 105.839 265.140  1.00  0.00     0.000 C 
BRANCH   3   4
ATOM      4  C   UNL     1      34.875 107.214 264.457  1.00  0.00    -0.000 C 
BRANCH   4   5
ATOM      5  C   UNL     1      34.918 108.373 265.474  1.00  0.00    -0.000 C 
BRANCH   5   6
ATOM      6  C   UNL     1      35.835 108.102 266.679  1.00  0.00    -0.000 C 
BRANCH   6   7
ATOM      7  C   UNL     1      35.067 107.631 267.921  1.00  0.00    -0.000 C 
BRANCH   7   8
ATOM      8  C   UNL     1      35.081 106.101 268.030  1.00  0.00    -0.000 C 
BRANCH   8   9
ATOM      9  C   UNL     1      35.380 105.656 269.467  1.00  0.00    -0.000 C 
BRANCH   9  10
ATOM     10  C   UNL     1      36.129 106.754 270.237  1.00  0.00    -0.000 C 
BRANCH  10  11
ATOM     11  C   UNL     1      37.648 106.524 270.264  1.00  0.00    -0.003 C 
ATOM     12  C   UNL     1      38.075 105.508 271.322  1.00  0.00     0.004 C 
ENDBRANCH  10  11
ENDBRANCH   9  10
ENDBRANCH   8   9
ENDBRANCH   7   8
ENDBRANCH   6   7
ENDBRANCH   5   6
ENDBRANCH   4   5
ENDBRANCH   3   4
ENDBRANCH   2   3
ENDBRANCH   1   2
BRANCH   1  13
ATOM     13  C   UNL     1      36.089 104.242 261.764  1.00  0.00     0.000 C 
BRANCH  13  14
ATOM     14  C   UNL     1      35.791 104.590 260.293  1.00  0.00     0.000 C 
BRANCH  14  15
ATOM     15  C   UNL     1      35.573 106.087 260.015  1.00  0.00     0.000 C 
BRANCH  15  16
ATOM     16  C   UNL     1      35.992 106.497 258.595  1.00  0.00     0.000 C 
BRANCH  16  17
ATOM     17  C   UNL     1      36.776 105.373 257.909  1.00  0.00     0.000 C 
BRANCH  17  18
ATOM     18  C   UNL     1      38.283 105.511 258.173  1.00  0.00     0.000 C 
BRANCH  18  19
ATOM     19  C   UNL     1      38.855 104.331 258.974  1.00  0.00     0.000 C 
BRANCH  19  20
ATOM     20  C   UNL     1      38.995 104.646 260.474  1.00  0.00     0.006 C 
BRANCH  20  21
ATOM     21  C   UNL     1      38.911 106.151 260.761  1.00  0.00     0.053 C 
BRANCH  21  22
ATOM     22  C   UNL     1      39.257 106.469 262.183  1.00  0.00     0.041 C 
ATOM     23  O   UNL     1      40.455 106.429 262.568  1.00  0.00    -0.550 OA
ATOM     24  O   UNL     1      38.252 106.775 263.092  1.00  0.00    -0.550 OA
ENDBRANCH  21  22
ENDBRANCH  20  21
ENDBRANCH  19  20
ENDBRANCH  18  19
ENDBRANCH  17  18
ENDBRANCH  16  17
ENDBRANCH  15  16
ENDBRANCH  14  15
ENDBRANCH  13  14
ENDBRANCH   1  13
TORSDOF 20
ENDMDL
MODEL 2
REMARK VINA RESULT:     4.210      1.973      4.102
REMARK INTER + INTRA:           8.942
REMARK INTER:                   7.750
REMARK INTRA:                   1.192
REMARK UNBOUND:                -0.190
REMARK SMILES CCCCCCCCCCCCCCCCCCCCCC(=O)[O-]
REMARK SMILES IDX 12 1 11 2 10 3 9 4 8 5 7 6 6 7 5 8 4 9 3 10 2 11 1 12 13 13
REMARK SMILES IDX 14 14 15 15 16 16 17 17 18 18 19 19 20 20 21 21 22 22 23 23
REMARK SMILES IDX 24 24
REMARK H PARENT
REMARK Flexibility Score: inf
ROOT
ATOM      1  C   UNL     1      35.571 107.806 266.224  1.00  0.00     0.000 C 
ENDROOT
BRANCH   1   2
ATOM      2  C   UNL     1      34.877 107.257 267.478  1.00  0.00     0.000 C 
BRANCH   2   3
ATOM      3  C   UNL     1      35.052 105.737 267.585  1.00  0.00     0.000 C 
BRANCH   3   4
ATOM      4  C   UNL     1      35.106 105.289 269.053  1.00  0.00    -0.000 C 
BRANCH   4   5
ATOM      5  C   UNL     1      34.932 106.470 270.030  1.00  0.00    -0.000 C 
BRANCH   5   6
ATOM      6  C   UNL     1      36.251 106.945 270.664  1.00  0.00    -0.000 C 
BRANCH   6   7
ATOM      7  C   UNL     1      37.483 106.576 269.827  1.00  0.00    -0.000 C 
BRANCH   7   8
ATOM      8  C   UNL     1      38.766 106.677 270.662  1.00  0.00    -0.000 C 
BRANCH   8   9
ATOM      9  C   UNL     1      38.611 105.937 271.997  1.00  0.00    -0.000 C 
BRANCH   9  10
ATOM     10  C   UNL     1      38.119 104.500 271.774  1.00  0.00    -0.000 C 
BRANCH  10  11
ATOM     11  C   UNL     1      38.097 103.676 273.072  1.00  0.00    -0.003 C 
ATOM     12  C   UNL     1      39.422 102.965 273.343  1.00  0.00     0.004 C 
ENDBRANCH  10  11
ENDBRANCH   9  10
ENDBRANCH   8   9
ENDBRANCH   7   8
ENDBRANCH   6   7
ENDBRANCH   5   6
ENDBRANCH   4   5
ENDBRANCH   3   4
ENDBRANCH   2   3
ENDBRANCH   1   2
BRANCH   1  13
ATOM     13  C   UNL     1      35.002 107.198 264.924  1.00  0.00     0.000 C 
BRANCH  13  14
ATOM     14  C   UNL     1      35.506 105.772 264.632  1.00  0.00     0.000 C 
BRANCH  14  15
ATOM     15  C   UNL     1      35.317 105.305 263.179  1.00  0.00     0.000 C 
BRANCH  15  16
ATOM     16  C   UNL     1      36.141 106.128 262.177  1.00  0.00     0.000 C 
BRANCH  16  17
ATOM     17  C   UNL     1      37.449 105.411 261.822  1.00  0.00     0.000 C 
BRANCH  17  18
ATOM     18  C   UNL     1      37.885 105.738 260.386  1.00  0.00     0.000 C 
BRANCH  18  19
ATOM     19  C   UNL     1      37.508 104.634 259.386  1.00  0.00     0.000 C 
BRANCH  19  20
ATOM     20  C   UNL     1      37.200 105.185 257.983  1.00  0.00     0.006 C 
BRANCH  20  21
ATOM     21  C   UNL     1      35.819 105.851 257.911  1.00  0.00     0.053 C 
BRANCH  21  22
ATOM     22  C   UNL     1      35.852 107.261 258.414  1.00  0.00     0.041 C 
ATOM     23  O   UNL     1      36.636 107.584 259.346  1.00  0.00    -0.550 OA
ATOM     24  O   UNL     1      34.994 108.213 257.876  1.00  0.00    -0.550 OA
ENDBRANCH  21  22
ENDBRANCH  20  21
ENDBRANCH  19  20
ENDBRANCH  18  19
ENDBRANCH  17  18
ENDBRANCH  16  17
ENDBRANCH  15  16
ENDBRANCH  14  15
ENDBRANCH  13  14
ENDBRANCH   1  13
TORSDOF 20
ENDMDL
MODEL 3
REMARK VINA RESULT:     4.614      2.059      4.425
REMARK INTER + INTRA:           9.819
REMARK INTER:                  11.193
REMARK INTRA:                  -1.374
REMARK UNBOUND:                -0.190
REMARK SMILES CCCCCCCCCCCCCCCCCCCCCC(=O)[O-]
REMARK SMILES IDX 12 1 11 2 10 3 9 4 8 5 7 6 6 7 5 8 4 9 3 10 2 11 1 12 13 13
REMARK SMILES IDX 14 14 15 15 16 16 17 17 18 18 19 19 20 20 21 21 22 22 23 23
REMARK SMILES IDX 24 24
REMARK H PARENT
REMARK Flexibility Score: inf
ROOT
ATOM      1  C   UNL     1      36.370 107.634 266.391  1.00  0.00     0.000 C 
ENDROOT
BRANCH   1   2
ATOM      2  C   UNL     1      36.119 108.936 267.166  1.00  0.00     0.000 C 
BRANCH   2   3
ATOM      3  C   UNL     1      34.875 108.818 268.055  1.00  0.00     0.000 C 
BRANCH   3   4
ATOM      4  C   UNL     1      35.218 108.158 269.399  1.00  0.00    -0.000 C 
BRANCH   4   5
ATOM      5  C   UNL     1      35.135 106.619 269.332  1.00  0.00    -0.000 C 
BRANCH   5   6
ATOM      6  C   UNL     1      36.296 105.907 270.047  1.00  0.00    -0.000 C 
BRANCH   6   7
ATOM      7  C   UNL     1      37.617 106.684 269.961  1.00  0.00    -0.000 C 
BRANCH   7   8
ATOM      8  C   UNL     1      38.668 106.091 270.908  1.00  0.00    -0.000 C 
BRANCH   8   9
ATOM      9  C   UNL     1      38.007 105.219 271.983  1.00  0.00    -0.000 C 
BRANCH   9  10
ATOM     10  C   UNL     1      38.844 103.962 272.262  1.00  0.00    -0.000 C 
BRANCH  10  11
ATOM     11  C   UNL     1      38.174 103.019 273.273  1.00  0.00    -0.003 C 
ATOM     12  C   UNL     1      38.980 102.863 274.562  1.00  0.00     0.004 C 
ENDBRANCH  10  11
ENDBRANCH   9  10
ENDBRANCH   8   9
ENDBRANCH   7   8
ENDBRANCH   6   7
ENDBRANCH   5   6
ENDBRANCH   4   5
ENDBRANCH   3   4
ENDBRANCH   2   3
ENDBRANCH   1   2
BRANCH   1  13
ATOM     13  C   UNL     1      35.057 106.943 265.965  1.00  0.00     0.000 C 
BRANCH  13  14
ATOM     14  C   UNL     1      35.163 105.408 265.881  1.00  0.00     0.000 C 
BRANCH  14  15
ATOM     15  C   UNL     1      35.125 104.834 264.454  1.00  0.00     0.000 C 
BRANCH  15  16
ATOM     16  C   UNL     1      34.875 105.909 263.386  1.00  0.00     0.000 C 
BRANCH  16  17
ATOM     17  C   UNL     1      36.076 106.033 262.442  1.00  0.00     0.000 C 
BRANCH  17  18
ATOM     18  C   UNL     1      37.330 106.492 263.203  1.00  0.00     0.000 C 
BRANCH  18  19
ATOM     19  C   UNL     1      38.572 106.575 262.302  1.00  0.00     0.000 C 
BRANCH  19  20
ATOM     20  C   UNL     1      38.653 105.415 261.296  1.00  0.00     0.006 C 
BRANCH  20  21
ATOM     21  C   UNL     1      38.357 105.870 259.860  1.00  0.00     0.053 C 
BRANCH  21  22
ATOM     22  C   UNL     1      37.105 105.249 259.324  1.00  0.00     0.041 C 
ATOM     23  O   UNL     1      36.384 105.880 258.507  1.00  0.00    -0.550 OA
ATOM     24  O   UNL     1      36.715 103.986 259.752  1.00  0.00    -0.550 OA
ENDBRANCH  21  22
ENDBRANCH  20  21
ENDBRANCH  19  20
ENDBRANCH  18  19
ENDBRANCH  17  18
ENDBRANCH  16  17
ENDBRANCH  15  16
ENDBRANCH  14  15
ENDBRANCH  13  14
ENDBRANCH   1  13
TORSDOF 20
ENDMDL
MODEL 4
REMARK VINA RESULT:     4.624      1.306      3.828
REMARK INTER + INTRA:           9.839
REMARK INTER:                   7.639
REMARK INTRA:                   2.200
REMARK UNBOUND:                -0.190
REMARK SMILES CCCCCCCCCCCCCCCCCCCCCC(=O)[O-]
REMARK SMILES IDX 12 1 11 2 10 3 9 4 8 5 7 6 6 7 5 8 4 9 3 10 2 11 1 12 13 13
REMARK SMILES IDX 14 14 15 15 16 16 17 17 18 18 19 19 20 20 21 21 22 22 23 23
REMARK SMILES IDX 24 24
REMARK H PARENT
REMARK Flexibility Score: inf
ROOT
ATOM      1  C   UNL     1      35.894 107.349 266.526  1.00  0.00     0.000 C 
ENDROOT
BRANCH   1   2
ATOM      2  C   UNL     1      35.038 106.644 267.588  1.00  0.00     0.000 C 
BRANCH   2   3
ATOM      3  C   UNL     1      34.875 105.154 267.266  1.00  0.00     0.000 C 
BRANCH   3   4
ATOM      4  C   UNL     1      34.880 104.308 268.548  1.00  0.00    -0.000 C 
BRANCH   4   5
ATOM      5  C   UNL     1      34.911 105.178 269.821  1.00  0.00    -0.000 C 
BRANCH   5   6
ATOM      6  C   UNL     1      35.565 106.555 269.610  1.00  0.00    -0.000 C 
BRANCH   6   7
ATOM      7  C   UNL     1      36.515 106.946 270.750  1.00  0.00    -0.000 C 
BRANCH   7   8
ATOM      8  C   UNL     1      37.880 106.266 270.587  1.00  0.00    -0.000 C 
BRANCH   8   9
ATOM      9  C   UNL     1      38.408 105.764 271.937  1.00  0.00    -0.000 C 
BRANCH   9  10
ATOM     10  C   UNL     1      38.777 104.275 271.864  1.00  0.00    -0.000 C 
BRANCH  10  11
ATOM     11  C   UNL     1      38.295 103.487 273.092  1.00  0.00    -0.003 C 
ATOM     12  C   UNL     1      39.312 102.450 273.566  1.00  0.00     0.004 C 
ENDBRANCH  10  11
ENDBRANCH   9  10
ENDBRANCH   8   9
ENDBRANCH   7   8
ENDBRANCH   6   7
ENDBRANCH   5   6
ENDBRANCH   4   5
ENDBRANCH   3   4
ENDBRANCH   2   3
ENDBRANCH   1   2
BRANCH   1  13
ATOM     13  C   UNL     1      35.081 107.718 265.267  1.00  0.00     0.000 C 
BRANCH  13  14
ATOM     14  C   UNL     1      35.045 106.604 264.203  1.00  0.00     0.000 C 
BRANCH  14  15
ATOM     15  C   UNL     1      35.573 105.240 264.677  1.00  0.00     0.000 C 
BRANCH  15  16
ATOM     16  C   UNL     1      35.127 104.080 263.774  1.00  0.00     0.000 C 
BRANCH  16  17
ATOM     17  C   UNL     1      34.914 104.559 262.333  1.00  0.00     0.000 C 
BRANCH  17  18
ATOM     18  C   UNL     1      35.962 103.951 261.389  1.00  0.00     0.000 C 
BRANCH  18  19
ATOM     19  C   UNL     1      36.233 104.832 260.159  1.00  0.00     0.000 C 
BRANCH  19  20
ATOM     20  C   UNL     1      37.128 106.041 260.482  1.00  0.00     0.006 C 
BRANCH  20  21
ATOM     21  C   UNL     1      38.574 105.628 260.788  1.00  0.00     0.053 C 
BRANCH  21  22
ATOM     22  C   UNL     1      39.131 106.371 261.962  1.00  0.00     0.041 C 
ATOM     23  O   UNL     1      40.371 106.572 262.056  1.00  0.00    -0.550 OA
ATOM     24  O   UNL     1      38.285 106.813 262.972  1.00  0.00    -0.550 OA
ENDBRANCH  21  22
ENDBRANCH  20  21
ENDBRANCH  19  20
ENDBRANCH  18  19
ENDBRANCH  17  18
ENDBRANCH  16  17
ENDBRANCH  15  16
ENDBRANCH  14  15
ENDBRANCH  13  14
ENDBRANCH   1  13
TORSDOF 20
ENDMDL
MODEL 5
REMARK VINA RESULT:     4.877      2.313      4.139
REMARK INTER + INTRA:          10.389
REMARK INTER:                  10.684
REMARK INTRA:                  -0.295
REMARK UNBOUND:                -0.190
REMARK SMILES CCCCCCCCCCCCCCCCCCCCCC(=O)[O-]
REMARK SMILES IDX 12 1 11 2 10 3 9 4 8 5 7 6 6 7 5 8 4 9 3 10 2 11 1 12 13 13
REMARK SMILES IDX 14 14 15 15 16 16 17 17 18 18 19 19 20 20 21 21 22 22 23 23
REMARK SMILES IDX 24 24
REMARK H PARENT
REMARK Flexibility Score: inf
ROOT
ATOM      1  C   UNL     1      36.263 102.803 266.881  1.00  0.00     0.000 C 
ENDROOT
BRANCH   1   2
ATOM      2  C   UNL     1      34.931 102.891 267.640  1.00  0.00     0.000 C 
BRANCH   2   3
ATOM      3  C   UNL     1      34.875 104.151 268.512  1.00  0.00     0.000 C 
BRANCH   3   4
ATOM      4  C   UNL     1      34.900 105.422 267.649  1.00  0.00    -0.000 C 
BRANCH   4   5
ATOM      5  C   UNL     1      35.456 106.638 268.418  1.00  0.00    -0.000 C 
BRANCH   5   6
ATOM      6  C   UNL     1      35.948 106.299 269.836  1.00  0.00    -0.000 C 
BRANCH   6   7
ATOM      7  C   UNL     1      37.474 106.385 269.975  1.00  0.00    -0.000 C 
BRANCH   7   8
ATOM      8  C   UNL     1      37.915 106.073 271.411  1.00  0.00    -0.000 C 
BRANCH   8   9
ATOM      9  C   UNL     1      38.144 104.568 271.599  1.00  0.00    -0.000 C 
BRANCH   9  10
ATOM     10  C   UNL     1      38.832 104.281 272.942  1.00  0.00    -0.000 C 
BRANCH  10  11
ATOM     11  C   UNL     1      38.411 102.931 273.544  1.00  0.00    -0.003 C 
ATOM     12  C   UNL     1      39.578 101.955 273.683  1.00  0.00     0.004 C 
ENDBRANCH  10  11
ENDBRANCH   9  10
ENDBRANCH   8   9
ENDBRANCH   7   8
ENDBRANCH   6   7
ENDBRANCH   5   6
ENDBRANCH   4   5
ENDBRANCH   3   4
ENDBRANCH   2   3
ENDBRANCH   1   2
BRANCH   1  13
ATOM     13  C   UNL     1      36.099 103.096 265.373  1.00  0.00     0.000 C 
BRANCH  13  14
ATOM     14  C   UNL     1      34.879 103.975 265.040  1.00  0.00     0.000 C 
BRANCH  14  15
ATOM     15  C   UNL     1      34.951 104.692 263.681  1.00  0.00     0.000 C 
BRANCH  15  16
ATOM     16  C   UNL     1      36.378 104.756 263.116  1.00  0.00     0.000 C 
BRANCH  16  17
ATOM     17  C   UNL     1      36.624 106.088 262.398  1.00  0.00     0.000 C 
BRANCH  17  18
ATOM     18  C   UNL     1      38.112 106.468 262.436  1.00  0.00     0.000 C 
BRANCH  18  19
ATOM     19  C   UNL     1      38.830 106.181 261.108  1.00  0.00     0.000 C 
BRANCH  19  20
ATOM     20  C   UNL     1      38.334 104.891 260.433  1.00  0.00     0.006 C 
BRANCH  20  21
ATOM     21  C   UNL     1      37.940 105.117 258.967  1.00  0.00     0.053 C 
BRANCH  21  22
ATOM     22  C   UNL     1      36.663 105.890 258.846  1.00  0.00     0.041 C 
ATOM     23  O   UNL     1      35.648 105.359 258.321  1.00  0.00    -0.550 OA
ATOM     24  O   UNL     1      36.602 107.209 259.280  1.00  0.00    -0.550 OA
ENDBRANCH  21  22
ENDBRANCH  20  21
ENDBRANCH  19  20
ENDBRANCH  18  19
ENDBRANCH  17  18
ENDBRANCH  16  17
ENDBRANCH  15  16
ENDBRANCH  14  15
ENDBRANCH  13  14
ENDBRANCH   1  13
TORSDOF 20
ENDMDL
MODEL 6
REMARK VINA RESULT:     5.106      3.532      9.590
REMARK INTER + INTRA:          10.887
REMARK INTER:                  12.125
REMARK INTRA:                  -1.238
REMARK UNBOUND:                -0.190
REMARK SMILES CCCCCCCCCCCCCCCCCCCCCC(=O)[O-]
REMARK SMILES IDX 12 1 11 2 10 3 9 4 8 5 7 6 6 7 5 8 4 9 3 10 2 11 1 12 13 13
REMARK SMILES IDX 14 14 15 15 16 16 17 17 18 18 19 19 20 20 21 21 22 22 23 23
REMARK SMILES IDX 24 24
REMARK H PARENT
REMARK Flexibility Score: inf
ROOT
ATOM      1  C   UNL     1      36.614 107.697 265.356  1.00  0.00     0.000 C 
ENDROOT
BRANCH   1   2
ATOM      2  C   UNL     1      35.437 106.874 264.815  1.00  0.00     0.000 C 
BRANCH   2   3
ATOM      3  C   UNL     1      35.554 105.403 265.233  1.00  0.00     0.000 C 
BRANCH   3   4
ATOM      4  C   UNL     1      35.051 104.471 264.120  1.00  0.00    -0.000 C 
BRANCH   4   5
ATOM      5  C   UNL     1      34.984 105.179 262.751  1.00  0.00    -0.000 C 
BRANCH   5   6
ATOM      6  C   UNL     1      36.107 104.762 261.786  1.00  0.00    -0.000 C 
BRANCH   6   7
ATOM      7  C   UNL     1      37.227 105.806 261.685  1.00  0.00    -0.000 C 
BRANCH   7   8
ATOM      8  C   UNL     1      37.437 106.251 260.232  1.00  0.00    -0.000 C 
BRANCH   8   9
ATOM      9  C   UNL     1      37.667 105.042 259.316  1.00  0.00    -0.000 C 
BRANCH   9  10
ATOM     10  C   UNL     1      37.001 105.255 257.948  1.00  0.00    -0.000 C 
BRANCH  10  11
ATOM     11  C   UNL     1      35.616 105.912 258.062  1.00  0.00    -0.003 C 
ATOM     12  C   UNL     1      35.679 107.437 258.001  1.00  0.00     0.004 C 
ENDBRANCH  10  11
ENDBRANCH   9  10
ENDBRANCH   8   9
ENDBRANCH   7   8
ENDBRANCH   6   7
ENDBRANCH   5   6
ENDBRANCH   4   5
ENDBRANCH   3   4
ENDBRANCH   2   3
ENDBRANCH   1   2
BRANCH   1  13
ATOM     13  C   UNL     1      36.165 108.759 266.383  1.00  0.00     0.000 C 
BRANCH  13  14
ATOM     14  C   UNL     1      34.875 108.386 267.139  1.00  0.00     0.000 C 
BRANCH  14  15
ATOM     15  C   UNL     1      34.998 108.403 268.672  1.00  0.00     0.000 C 
BRANCH  15  16
ATOM     16  C   UNL     1      36.014 107.379 269.200  1.00  0.00     0.000 C 
BRANCH  16  17
ATOM     17  C   UNL     1      35.303 106.158 269.795  1.00  0.00     0.000 C 
BRANCH  17  18
ATOM     18  C   UNL     1      36.319 105.129 270.315  1.00  0.00     0.000 C 
BRANCH  18  19
ATOM     19  C   UNL     1      37.702 105.743 270.580  1.00  0.00     0.000 C 
BRANCH  19  20
ATOM     20  C   UNL     1      38.308 105.282 271.917  1.00  0.00     0.006 C 
BRANCH  20  21
ATOM     21  C   UNL     1      38.129 103.776 272.147  1.00  0.00     0.053 C 
BRANCH  21  22
ATOM     22  C   UNL     1      38.887 103.300 273.347  1.00  0.00     0.041 C 
ATOM     23  O   UNL     1      38.283 103.070 274.429  1.00  0.00    -0.550 OA
ATOM     24  O   UNL     1      40.266 103.143 273.283  1.00  0.00    -0.550 OA
ENDBRANCH  21  22
ENDBRANCH  20  21
ENDBRANCH  19  20
ENDBRANCH  18  19
ENDBRANCH  17  18
ENDBRANCH  16  17
ENDBRANCH  15  16
ENDBRANCH  14  15
ENDBRANCH  13  14
ENDBRANCH   1  13
TORSDOF 20
ENDMDL
MODEL 7
REMARK VINA RESULT:     5.214      3.704      9.530
REMARK INTER + INTRA:          11.120
REMARK INTER:                  12.085
REMARK INTRA:                  -0.965
REMARK UNBOUND:                -0.190
REMARK SMILES CCCCCCCCCCCCCCCCCCCCCC(=O)[O-]
REMARK SMILES IDX 12 1 11 2 10 3 9 4 8 5 7 6 6 7 5 8 4 9 3 10 2 11 1 12 13 13
REMARK SMILES IDX 14 14 15 15 16 16 17 17 18 18 19 19 20 20 21 21 22 22 23 23
REMARK SMILES IDX 24 24
REMARK H PARENT
REMARK Flexibility Score: inf
ROOT
ATOM      1  C   UNL     1      36.034 103.796 266.721  1.00  0.00     0.000 C 
ENDROOT
BRANCH   1   2
ATOM      2  C   UNL     1      35.588 102.820 265.623  1.00  0.00     0.000 C 
BRANCH   2   3
ATOM      3  C   UNL     1      34.883 103.560 264.480  1.00  0.00     0.000 C 
BRANCH   3   4
ATOM      4  C   UNL     1      35.874 104.430 263.691  1.00  0.00    -0.000 C 
BRANCH   4   5
ATOM      5  C   UNL     1      35.175 105.605 262.975  1.00  0.00    -0.000 C 
BRANCH   5   6
ATOM      6  C   UNL     1      36.117 106.428 262.079  1.00  0.00    -0.000 C 
BRANCH   6   7
ATOM      7  C   UNL     1      37.599 106.212 262.413  1.00  0.00    -0.000 C 
BRANCH   7   8
ATOM      8  C   UNL     1      38.440 106.093 261.135  1.00  0.00    -0.000 C 
BRANCH   8   9
ATOM      9  C   UNL     1      38.127 104.789 260.392  1.00  0.00    -0.000 C 
BRANCH   9  10
ATOM     10  C   UNL     1      36.740 104.850 259.734  1.00  0.00    -0.000 C 
BRANCH  10  11
ATOM     11  C   UNL     1      36.774 105.510 258.347  1.00  0.00    -0.003 C 
ATOM     12  C   UNL     1      36.140 106.900 258.337  1.00  0.00     0.004 C 
ENDBRANCH  10  11
ENDBRANCH   9  10
ENDBRANCH   8   9
ENDBRANCH   7   8
ENDBRANCH   6   7
ENDBRANCH   5   6
ENDBRANCH   4   5
ENDBRANCH   3   4
ENDBRANCH   2   3
ENDBRANCH   1   2
BRANCH   1  13
ATOM     13  C   UNL     1      34.875 104.685 267.222  1.00  0.00     0.000 C 
BRANCH  13  14
ATOM     14  C   UNL     1      35.131 105.320 268.603  1.00  0.00     0.000 C 
BRANCH  14  15
ATOM     15  C   UNL     1      35.005 106.852 268.642  1.00  0.00     0.000 C 
BRANCH  15  16
ATOM     16  C   UNL     1      36.114 107.520 269.469  1.00  0.00     0.000 C 
BRANCH  16  17
ATOM     17  C   UNL     1      36.756 106.518 270.436  1.00  0.00     0.000 C 
BRANCH  17  18
ATOM     18  C   UNL     1      38.269 106.759 270.554  1.00  0.00     0.000 C 
BRANCH  18  19
ATOM     19  C   UNL     1      38.993 105.626 271.298  1.00  0.00     0.000 C 
BRANCH  19  20
ATOM     20  C   UNL     1      38.115 104.972 272.379  1.00  0.00     0.006 C 
BRANCH  20  21
ATOM     21  C   UNL     1      38.250 103.444 272.389  1.00  0.00     0.053 C 
BRANCH  21  22
ATOM     22  C   UNL     1      39.044 102.961 273.564  1.00  0.00     0.041 C 
ATOM     23  O   UNL     1      38.655 103.207 274.736  1.00  0.00    -0.550 OA
ATOM     24  O   UNL     1      40.233 102.269 273.365  1.00  0.00    -0.550 OA
ENDBRANCH  21  22
ENDBRANCH  20  21
ENDBRANCH  19  20
ENDBRANCH  18  19
ENDBRANCH  17  18
ENDBRANCH  16  17
ENDBRANCH  15  16
ENDBRANCH  14  15
ENDBRANCH  13  14
ENDBRANCH   1  13
TORSDOF 20
ENDMDL
MODEL 8
REMARK VINA RESULT:     5.573      1.265      2.111
REMARK INTER + INTRA:          11.898
REMARK INTER:                  12.160
REMARK INTRA:                  -0.262
REMARK UNBOUND:                -0.190
REMARK SMILES CCCCCCCCCCCCCCCCCCCCCC(=O)[O-]
REMARK SMILES IDX 12 1 11 2 10 3 9 4 8 5 7 6 6 7 5 8 4 9 3 10 2 11 1 12 13 13
REMARK SMILES IDX 14 14 15 15 16 16 17 17 18 18 19 19 20 20 21 21 22 22 23 23
REMARK SMILES IDX 24 24
REMARK H PARENT
REMARK Flexibility Score: inf
ROOT
ATOM      1  C   UNL     1      36.437 103.530 265.707  1.00  0.00     0.000 C 
ENDROOT
BRANCH   1   2
ATOM      2  C   UNL     1      35.145 104.011 266.385  1.00  0.00     0.000 C 
BRANCH   2   3
ATOM      3  C   UNL     1      35.205 105.515 266.679  1.00  0.00     0.000 C 
BRANCH   3   4
ATOM      4  C   UNL     1      35.095 106.336 265.386  1.00  0.00    -0.000 C 
BRANCH   4   5
ATOM      5  C   UNL     1      35.529 107.802 265.587  1.00  0.00    -0.000 C 
BRANCH   5   6
ATOM      6  C   UNL     1      34.877 108.476 266.807  1.00  0.00    -0.000 C 
BRANCH   6   7
ATOM      7  C   UNL     1      35.864 108.708 267.960  1.00  0.00    -0.000 C 
BRANCH   7   8
ATOM      8  C   UNL     1      35.455 107.908 269.204  1.00  0.00    -0.000 C 
BRANCH   8   9
ATOM      9  C   UNL     1      36.068 106.503 269.178  1.00  0.00    -0.000 C 
BRANCH   9  10
ATOM     10  C   UNL     1      36.272 105.966 270.603  1.00  0.00    -0.000 C 
BRANCH  10  11
ATOM     11  C   UNL     1      37.748 105.683 270.921  1.00  0.00    -0.003 C 
ATOM     12  C   UNL     1      38.664 106.854 270.567  1.00  0.00     0.004 C 
ENDBRANCH  10  11
ENDBRANCH   9  10
ENDBRANCH   8   9
ENDBRANCH   7   8
ENDBRANCH   6   7
ENDBRANCH   5   6
ENDBRANCH   4   5
ENDBRANCH   3   4
ENDBRANCH   2   3
ENDBRANCH   1   2
BRANCH   1  13
ATOM     13  C   UNL     1      36.162 102.780 264.386  1.00  0.00     0.000 C 
BRANCH  13  14
ATOM     14  C   UNL     1      34.877 103.236 263.668  1.00  0.00     0.000 C 
BRANCH  14  15
ATOM     15  C   UNL     1      34.929 103.148 262.133  1.00  0.00     0.000 C 
BRANCH  15  16
ATOM     16  C   UNL     1      35.906 104.157 261.511  1.00  0.00     0.000 C 
BRANCH  16  17
ATOM     17  C   UNL     1      36.060 103.912 260.005  1.00  0.00     0.000 C 
BRANCH  17  18
ATOM     18  C   UNL     1      36.342 105.226 259.260  1.00  0.00     0.000 C 
BRANCH  18  19
ATOM     19  C   UNL     1      37.818 105.375 258.859  1.00  0.00     0.000 C 
BRANCH  19  20
ATOM     20  C   UNL     1      38.638 106.157 259.899  1.00  0.00     0.006 C 
BRANCH  20  21
ATOM     21  C   UNL     1      38.603 105.494 261.283  1.00  0.00     0.053 C 
BRANCH  21  22
ATOM     22  C   UNL     1      38.729 106.498 262.386  1.00  0.00     0.041 C 
ATOM     23  O   UNL     1      39.744 107.242 262.454  1.00  0.00    -0.550 OA
ATOM     24  O   UNL     1      37.742 106.591 263.361  1.00  0.00    -0.550 OA
ENDBRANCH  21  22
ENDBRANCH  20  21
ENDBRANCH  19  20
ENDBRANCH  18  19
ENDBRANCH  17  18
ENDBRANCH  16  17
ENDBRANCH  15  16
ENDBRANCH  14  15
ENDBRANCH  13  14
ENDBRANCH   1  13
TORSDOF 20
ENDMDL
