MODEL 1
REMARK VINA RESULT:    -4.254      0.000      0.000
REMARK INTER + INTRA:          -8.718
REMARK INTER:                  -7.238
REMARK INTRA:                  -1.481
REMARK UNBOUND:                -1.481
REMARK SMILES CCCCCCCCCCCCCC(=O)[O-]
REMARK SMILES IDX 8 1 9 2 10 3 11 4 12 5 13 6 14 7 15 8 16 9 7 10 6 11 5 12
REMARK SMILES IDX 4 13 3 14 2 15 1 16
REMARK H PARENT
REMARK Flexibility Score: inf
ROOT
ATOM      1  C   UNL     1      -1.001  44.169  23.590  1.00  0.00     0.000 C 
ENDROOT
BRANCH   1   2
ATOM      2  C   UNL     1      -1.089  43.353  22.289  1.00  0.00     0.000 C 
BRANCH   2   3
ATOM      3  C   UNL     1      -1.461  44.218  21.075  1.00  0.00     0.000 C 
BRANCH   3   4
ATOM      4  C   UNL     1      -2.835  43.850  20.488  1.00  0.00     0.000 C 
BRANCH   4   5
ATOM      5  C   UNL     1      -3.393  44.938  19.553  1.00  0.00     0.006 C 
BRANCH   5   6
ATOM      6  C   UNL     1      -4.610  44.494  18.725  1.00  0.00     0.053 C 
BRANCH   6   7
ATOM      7  C   UNL     1      -4.238  43.501  17.666  1.00  0.00     0.041 C 
ATOM      8  O   UNL     1      -4.108  42.284  17.958  1.00  0.00    -0.550 OA
ATOM      9  O   UNL     1      -4.002  43.926  16.365  1.00  0.00    -0.550 OA
ENDBRANCH   6   7
ENDBRANCH   5   6
ENDBRANCH   4   5
ENDBRANCH   3   4
ENDBRANCH   2   3
ENDBRANCH   1   2
BRANCH   1  10
ATOM     10  C   UNL     1      -1.340  43.335  24.835  1.00  0.00     0.000 C 
BRANCH  10  11
ATOM     11  C   UNL     1      -2.652  43.776  25.501  1.00  0.00    -0.000 C 
BRANCH  11  12
ATOM     12  C   UNL     1      -3.855  43.471  24.600  1.00  0.00    -0.000 C 
BRANCH  12  13
ATOM     13  C   UNL     1      -4.854  44.637  24.603  1.00  0.00    -0.000 C 
BRANCH  13  14
ATOM     14  C   UNL     1      -5.041  45.269  23.212  1.00  0.00    -0.000 C 
BRANCH  14  15
ATOM     15  C   UNL     1      -3.998  46.339  22.842  1.00  0.00    -0.003 C 
ATOM     16  C   UNL     1      -3.652  47.265  24.007  1.00  0.00     0.004 C 
ENDBRANCH  14  15
ENDBRANCH  13  14
ENDBRANCH  12  13
ENDBRANCH  11  12
ENDBRANCH  10  11
ENDBRANCH   1  10
TORSDOF 12
ENDMDL
MODEL 2
REMARK VINA RESULT:    -4.221      2.774      4.212
REMARK INTER + INTRA:          -8.663
REMARK INTER:                  -6.941
REMARK INTRA:                  -1.721
REMARK UNBOUND:                -1.481
REMARK SMILES CCCCCCCCCCCCCC(=O)[O-]
REMARK SMILES IDX 8 1 9 2 10 3 11 4 12 5 13 6 14 7 15 8 16 9 7 10 6 11 5 12
REMARK SMILES IDX 4 13 3 14 2 15 1 16
REMARK H PARENT
REMARK Flexibility Score: inf
ROOT
ATOM      1  C   UNL     1      -5.295  43.907  20.801  1.00  0.00     0.000 C 
ENDROOT
BRANCH   1   2
ATOM      2  C   UNL     1      -4.550  44.205  19.488  1.00  0.00     0.000 C 
BRANCH   2   3
ATOM      3  C   UNL     1      -3.214  44.927  19.720  1.00  0.00     0.000 C 
BRANCH   3   4
ATOM      4  C   UNL     1      -2.018  44.153  19.138  1.00  0.00     0.000 C 
BRANCH   4   5
ATOM      5  C   UNL     1      -1.076  43.606  20.227  1.00  0.00     0.006 C 
BRANCH   5   6
ATOM      6  C   UNL     1      -1.327  44.187  21.628  1.00  0.00     0.053 C 
BRANCH   6   7
ATOM      7  C   UNL     1      -0.361  43.650  22.640  1.00  0.00     0.041 C 
ATOM      8  O   UNL     1       0.533  42.837  22.291  1.00  0.00    -0.550 OA
ATOM      9  O   UNL     1      -0.472  44.021  23.974  1.00  0.00    -0.550 OA
ENDBRANCH   6   7
ENDBRANCH   5   6
ENDBRANCH   4   5
ENDBRANCH   3   4
ENDBRANCH   2   3
ENDBRANCH   1   2
BRANCH   1  10
ATOM     10  C   UNL     1      -5.149  42.444  21.245  1.00  0.00     0.000 C 
BRANCH  10  11
ATOM     11  C   UNL     1      -4.059  42.256  22.312  1.00  0.00    -0.000 C 
BRANCH  11  12
ATOM     12  C   UNL     1      -4.651  42.346  23.724  1.00  0.00    -0.000 C 
BRANCH  12  13
ATOM     13  C   UNL     1      -3.952  43.438  24.545  1.00  0.00    -0.000 C 
BRANCH  13  14
ATOM     14  C   UNL     1      -4.545  44.839  24.310  1.00  0.00    -0.000 C 
BRANCH  14  15
ATOM     15  C   UNL     1      -3.603  45.828  23.600  1.00  0.00    -0.003 C 
ATOM     16  C   UNL     1      -4.305  47.115  23.166  1.00  0.00     0.004 C 
ENDBRANCH  14  15
ENDBRANCH  13  14
ENDBRANCH  12  13
ENDBRANCH  11  12
ENDBRANCH  10  11
ENDBRANCH   1  10
TORSDOF 12
ENDMDL
MODEL 3
REMARK VINA RESULT:    -4.211      3.868      6.345
REMARK INTER + INTRA:          -8.646
REMARK INTER:                  -7.054
REMARK INTRA:                  -1.593
REMARK UNBOUND:                -1.481
REMARK SMILES CCCCCCCCCCCCCC(=O)[O-]
REMARK SMILES IDX 8 1 9 2 10 3 11 4 12 5 13 6 14 7 15 8 16 9 7 10 6 11 5 12
REMARK SMILES IDX 4 13 3 14 2 15 1 16
REMARK H PARENT
REMARK Flexibility Score: inf
ROOT
ATOM      1  C   UNL     1      -1.615  44.279  21.616  1.00  0.00     0.000 C 
ENDROOT
BRANCH   1   2
ATOM      2  C   UNL     1      -2.551  45.039  22.572  1.00  0.00     0.000 C 
BRANCH   2   3
ATOM      3  C   UNL     1      -2.404  44.579  24.030  1.00  0.00     0.000 C 
BRANCH   3   4
ATOM      4  C   UNL     1      -1.050  43.901  24.300  1.00  0.00     0.000 C 
BRANCH   4   5
ATOM      5  C   UNL     1      -1.200  42.485  24.885  1.00  0.00     0.006 C 
BRANCH   5   6
ATOM      6  C   UNL     1      -1.766  42.449  26.314  1.00  0.00     0.053 C 
BRANCH   6   7
ATOM      7  C   UNL     1      -1.791  41.059  26.875  1.00  0.00     0.041 C 
ATOM      8  O   UNL     1      -2.655  40.234  26.480  1.00  0.00    -0.550 OA
ATOM      9  O   UNL     1      -0.883  40.688  27.857  1.00  0.00    -0.550 OA
ENDBRANCH   6   7
ENDBRANCH   5   6
ENDBRANCH   4   5
ENDBRANCH   3   4
ENDBRANCH   2   3
ENDBRANCH   1   2
BRANCH   1  10
ATOM     10  C   UNL     1      -2.146  44.238  20.175  1.00  0.00     0.000 C 
BRANCH  10  11
ATOM     11  C   UNL     1      -3.432  45.061  19.997  1.00  0.00    -0.000 C 
BRANCH  11  12
ATOM     12  C   UNL     1      -4.559  44.200  19.415  1.00  0.00    -0.000 C 
BRANCH  12  13
ATOM     13  C   UNL     1      -5.491  43.691  20.525  1.00  0.00    -0.000 C 
BRANCH  13  14
ATOM     14  C   UNL     1      -5.384  42.172  20.748  1.00  0.00    -0.000 C 
BRANCH  14  15
ATOM     15  C   UNL     1      -4.319  41.742  21.773  1.00  0.00    -0.003 C 
ATOM     16  C   UNL     1      -4.780  41.909  23.221  1.00  0.00     0.004 C 
ENDBRANCH  14  15
ENDBRANCH  13  14
ENDBRANCH  12  13
ENDBRANCH  11  12
ENDBRANCH  10  11
ENDBRANCH   1  10
TORSDOF 12
ENDMDL
MODEL 4
REMARK VINA RESULT:    -4.150      3.408      5.717
REMARK INTER + INTRA:          -8.542
REMARK INTER:                  -6.308
REMARK INTRA:                  -2.234
REMARK UNBOUND:                -1.481
REMARK SMILES CCCCCCCCCCCCCC(=O)[O-]
REMARK SMILES IDX 8 1 9 2 10 3 11 4 12 5 13 6 14 7 15 8 16 9 7 10 6 11 5 12
REMARK SMILES IDX 4 13 3 14 2 15 1 16
REMARK H PARENT
REMARK Flexibility Score: inf
ROOT
ATOM      1  C   UNL     1      -4.646  43.900  19.168  1.00  0.00     0.000 C 
ENDROOT
BRANCH   1   2
ATOM      2  C   UNL     1      -3.634  45.031  19.425  1.00  0.00     0.000 C 
BRANCH   2   3
ATOM      3  C   UNL     1      -3.285  45.181  20.914  1.00  0.00     0.000 C 
BRANCH   3   4
ATOM      4  C   UNL     1      -1.970  44.475  21.285  1.00  0.00     0.000 C 
BRANCH   4   5
ATOM      5  C   UNL     1      -1.784  44.325  22.806  1.00  0.00     0.006 C 
BRANCH   5   6
ATOM      6  C   UNL     1      -2.686  45.243  23.646  1.00  0.00     0.053 C 
BRANCH   6   7
ATOM      7  C   UNL     1      -3.433  44.485  24.701  1.00  0.00     0.041 C 
ATOM      8  O   UNL     1      -4.690  44.532  24.744  1.00  0.00    -0.550 OA
ATOM      9  O   UNL     1      -2.738  43.755  25.657  1.00  0.00    -0.550 OA
ENDBRANCH   6   7
ENDBRANCH   5   6
ENDBRANCH   4   5
ENDBRANCH   3   4
ENDBRANCH   2   3
ENDBRANCH   1   2
BRANCH   1  10
ATOM     10  C   UNL     1      -5.542  43.620  20.384  1.00  0.00     0.000 C 
BRANCH  10  11
ATOM     11  C   UNL     1      -5.488  42.151  20.831  1.00  0.00    -0.000 C 
BRANCH  11  12
ATOM     12  C   UNL     1      -4.771  42.013  22.180  1.00  0.00    -0.000 C 
BRANCH  12  13
ATOM     13  C   UNL     1      -3.552  41.088  22.062  1.00  0.00    -0.000 C 
BRANCH  13  14
ATOM     14  C   UNL     1      -3.243  40.684  20.609  1.00  0.00    -0.000 C 
BRANCH  14  15
ATOM     15  C   UNL     1      -1.835  41.066  20.118  1.00  0.00    -0.003 C 
ATOM     16  C   UNL     1      -1.829  41.624  18.695  1.00  0.00     0.004 C 
ENDBRANCH  14  15
ENDBRANCH  13  14
ENDBRANCH  12  13
ENDBRANCH  11  12
ENDBRANCH  10  11
ENDBRANCH   1  10
TORSDOF 12
ENDMDL
MODEL 5
REMARK VINA RESULT:    -4.145      3.104      5.791
REMARK INTER + INTRA:          -8.533
REMARK INTER:                  -6.909
REMARK INTRA:                  -1.625
REMARK UNBOUND:                -1.481
REMARK SMILES CCCCCCCCCCCCCC(=O)[O-]
REMARK SMILES IDX 8 1 9 2 10 3 11 4 12 5 13 6 14 7 15 8 16 9 7 10 6 11 5 12
REMARK SMILES IDX 4 13 3 14 2 15 1 16
REMARK H PARENT
REMARK Flexibility Score: inf
ROOT
ATOM      1  C   UNL     1      -4.678  44.277  19.211  1.00  0.00     0.000 C 
ENDROOT
BRANCH   1   2
ATOM      2  C   UNL     1      -5.314  43.278  20.194  1.00  0.00     0.000 C 
BRANCH   2   3
ATOM      3  C   UNL     1      -5.008  43.620  21.660  1.00  0.00     0.000 C 
BRANCH   3   4
ATOM      4  C   UNL     1      -4.445  42.419  22.440  1.00  0.00     0.000 C 
BRANCH   4   5
ATOM      5  C   UNL     1      -4.237  42.725  23.935  1.00  0.00     0.006 C 
BRANCH   5   6
ATOM      6  C   UNL     1      -5.099  43.880  24.469  1.00  0.00     0.053 C 
BRANCH   6   7
ATOM      7  C   UNL     1      -4.265  44.995  25.022  1.00  0.00     0.041 C 
ATOM      8  O   UNL     1      -3.799  45.878  24.256  1.00  0.00    -0.550 OA
ATOM      9  O   UNL     1      -3.974  45.039  26.379  1.00  0.00    -0.550 OA
ENDBRANCH   6   7
ENDBRANCH   5   6
ENDBRANCH   4   5
ENDBRANCH   3   4
ENDBRANCH   2   3
ENDBRANCH   1   2
BRANCH   1  10
ATOM     10  C   UNL     1      -3.361  44.868  19.738  1.00  0.00     0.000 C 
BRANCH  10  11
ATOM     11  C   UNL     1      -2.128  44.288  19.028  1.00  0.00    -0.000 C 
BRANCH  11  12
ATOM     12  C   UNL     1      -1.116  43.742  20.042  1.00  0.00    -0.000 C 
BRANCH  12  13
ATOM     13  C   UNL     1      -1.471  44.189  21.468  1.00  0.00    -0.000 C 
BRANCH  13  14
ATOM     14  C   UNL     1      -0.523  43.608  22.532  1.00  0.00    -0.000 C 
BRANCH  14  15
ATOM     15  C   UNL     1      -0.695  44.199  23.943  1.00  0.00    -0.003 C 
ATOM     16  C   UNL     1      -0.855  43.129  25.023  1.00  0.00     0.004 C 
ENDBRANCH  14  15
ENDBRANCH  13  14
ENDBRANCH  12  13
ENDBRANCH  11  12
ENDBRANCH  10  11
ENDBRANCH   1  10
TORSDOF 12
ENDMDL
MODEL 6
REMARK VINA RESULT:    -4.143      2.785      5.085
REMARK INTER + INTRA:          -8.530
REMARK INTER:                  -6.890
REMARK INTRA:                  -1.639
REMARK UNBOUND:                -1.481
REMARK SMILES CCCCCCCCCCCCCC(=O)[O-]
REMARK SMILES IDX 8 1 9 2 10 3 11 4 12 5 13 6 14 7 15 8 16 9 7 10 6 11 5 12
REMARK SMILES IDX 4 13 3 14 2 15 1 16
REMARK H PARENT
REMARK Flexibility Score: inf
ROOT
ATOM      1  C   UNL     1       0.396  43.480  21.745  1.00  0.00     0.000 C 
ENDROOT
BRANCH   1   2
ATOM      2  C   UNL     1       0.333  42.898  23.169  1.00  0.00     0.000 C 
BRANCH   2   3
ATOM      3  C   UNL     1      -0.296  43.872  24.175  1.00  0.00     0.000 C 
BRANCH   3   4
ATOM      4  C   UNL     1      -1.646  43.370  24.716  1.00  0.00     0.000 C 
BRANCH   4   5
ATOM      5  C   UNL     1      -2.847  43.934  23.934  1.00  0.00     0.006 C 
BRANCH   5   6
ATOM      6  C   UNL     1      -2.675  45.392  23.478  1.00  0.00     0.053 C 
BRANCH   6   7
ATOM      7  C   UNL     1      -3.990  46.097  23.338  1.00  0.00     0.041 C 
ATOM      8  O   UNL     1      -4.023  47.325  23.065  1.00  0.00    -0.550 OA
ATOM      9  O   UNL     1      -5.176  45.404  23.543  1.00  0.00    -0.550 OA
ENDBRANCH   6   7
ENDBRANCH   5   6
ENDBRANCH   4   5
ENDBRANCH   3   4
ENDBRANCH   2   3
ENDBRANCH   1   2
BRANCH   1  10
ATOM     10  C   UNL     1      -0.870  43.179  20.928  1.00  0.00     0.000 C 
BRANCH  10  11
ATOM     11  C   UNL     1      -0.669  43.414  19.422  1.00  0.00    -0.000 C 
BRANCH  11  12
ATOM     12  C   UNL     1      -1.844  44.201  18.828  1.00  0.00    -0.000 C 
BRANCH  12  13
ATOM     13  C   UNL     1      -2.839  44.613  19.922  1.00  0.00    -0.000 C 
BRANCH  13  14
ATOM     14  C   UNL     1      -4.303  44.571  19.448  1.00  0.00    -0.000 C 
BRANCH  14  15
ATOM     15  C   UNL     1      -5.270  43.842  20.398  1.00  0.00    -0.003 C 
ATOM     16  C   UNL     1      -4.656  42.597  21.037  1.00  0.00     0.004 C 
ENDBRANCH  14  15
ENDBRANCH  13  14
ENDBRANCH  12  13
ENDBRANCH  11  12
ENDBRANCH  10  11
ENDBRANCH   1  10
TORSDOF 12
ENDMDL
MODEL 7
REMARK VINA RESULT:    -4.126      2.962      5.196
REMARK INTER + INTRA:          -8.502
REMARK INTER:                  -6.717
REMARK INTRA:                  -1.785
REMARK UNBOUND:                -1.481
REMARK SMILES CCCCCCCCCCCCCC(=O)[O-]
REMARK SMILES IDX 8 1 9 2 10 3 11 4 12 5 13 6 14 7 15 8 16 9 7 10 6 11 5 12
REMARK SMILES IDX 4 13 3 14 2 15 1 16
REMARK H PARENT
REMARK Flexibility Score: inf
ROOT
ATOM      1  C   UNL     1      -1.038  43.645  18.762  1.00  0.00     0.000 C 
ENDROOT
BRANCH   1   2
ATOM      2  C   UNL     1      -1.200  42.913  20.105  1.00  0.00     0.000 C 
BRANCH   2   3
ATOM      3  C   UNL     1      -0.283  43.480  21.200  1.00  0.00     0.000 C 
BRANCH   3   4
ATOM      4  C   UNL     1      -1.034  43.750  22.515  1.00  0.00     0.000 C 
BRANCH   4   5
ATOM      5  C   UNL     1      -2.223  44.712  22.334  1.00  0.00     0.006 C 
BRANCH   5   6
ATOM      6  C   UNL     1      -2.828  45.223  23.652  1.00  0.00     0.053 C 
BRANCH   6   7
ATOM      7  C   UNL     1      -4.061  46.043  23.424  1.00  0.00     0.041 C 
ATOM      8  O   UNL     1      -5.180  45.481  23.294  1.00  0.00    -0.550 OA
ATOM      9  O   UNL     1      -3.969  47.425  23.319  1.00  0.00    -0.550 OA
ENDBRANCH   6   7
ENDBRANCH   5   6
ENDBRANCH   4   5
ENDBRANCH   3   4
ENDBRANCH   2   3
ENDBRANCH   1   2
BRANCH   1  10
ATOM     10  C   UNL     1      -2.380  43.893  18.057  1.00  0.00     0.000 C 
BRANCH  10  11
ATOM     11  C   UNL     1      -3.289  44.854  18.840  1.00  0.00    -0.000 C 
BRANCH  11  12
ATOM     12  C   UNL     1      -4.739  44.354  18.848  1.00  0.00    -0.000 C 
BRANCH  12  13
ATOM     13  C   UNL     1      -5.183  43.976  20.268  1.00  0.00    -0.000 C 
BRANCH  13  14
ATOM     14  C   UNL     1      -5.412  42.464  20.443  1.00  0.00    -0.000 C 
BRANCH  14  15
ATOM     15  C   UNL     1      -4.391  41.756  21.351  1.00  0.00    -0.003 C 
ATOM     16  C   UNL     1      -4.675  41.956  22.839  1.00  0.00     0.004 C 
ENDBRANCH  14  15
ENDBRANCH  13  14
ENDBRANCH  12  13
ENDBRANCH  11  12
ENDBRANCH  10  11
ENDBRANCH   1  10
TORSDOF 12
ENDMDL
MODEL 8
REMARK VINA RESULT:    -4.086      3.364      5.750
REMARK INTER + INTRA:          -8.434
REMARK INTER:                  -6.639
REMARK INTRA:                  -1.795
REMARK UNBOUND:                -1.481
REMARK SMILES CCCCCCCCCCCCCC(=O)[O-]
REMARK SMILES IDX 8 1 9 2 10 3 11 4 12 5 13 6 14 7 15 8 16 9 7 10 6 11 5 12
REMARK SMILES IDX 4 13 3 14 2 15 1 16
REMARK H PARENT
REMARK Flexibility Score: inf
ROOT
ATOM      1  C   UNL     1      -3.429  44.972  19.408  1.00  0.00     0.000 C 
ENDROOT
BRANCH   1   2
ATOM      2  C   UNL     1      -3.134  45.005  20.917  1.00  0.00     0.000 C 
BRANCH   2   3
ATOM      3  C   UNL     1      -1.846  44.252  21.282  1.00  0.00     0.000 C 
BRANCH   3   4
ATOM      4  C   UNL     1      -1.419  44.489  22.741  1.00  0.00     0.000 C 
BRANCH   4   5
ATOM      5  C   UNL     1      -0.647  43.296  23.336  1.00  0.00     0.006 C 
BRANCH   5   6
ATOM      6  C   UNL     1      -0.596  43.279  24.872  1.00  0.00     0.053 C 
BRANCH   6   7
ATOM      7  C   UNL     1      -1.176  42.020  25.440  1.00  0.00     0.041 C 
ATOM      8  O   UNL     1      -1.191  40.965  24.754  1.00  0.00    -0.550 OA
ATOM      9  O   UNL     1      -1.731  42.021  26.713  1.00  0.00    -0.550 OA
ENDBRANCH   6   7
ENDBRANCH   5   6
ENDBRANCH   4   5
ENDBRANCH   3   4
ENDBRANCH   2   3
ENDBRANCH   1   2
BRANCH   1  10
ATOM     10  C   UNL     1      -4.749  44.260  19.078  1.00  0.00     0.000 C 
BRANCH  10  11
ATOM     11  C   UNL     1      -5.409  43.636  20.317  1.00  0.00    -0.000 C 
BRANCH  11  12
ATOM     12  C   UNL     1      -5.176  42.121  20.360  1.00  0.00    -0.000 C 
BRANCH  12  13
ATOM     13  C   UNL     1      -5.404  41.569  21.774  1.00  0.00    -0.000 C 
BRANCH  13  14
ATOM     14  C   UNL     1      -4.179  41.740  22.690  1.00  0.00    -0.000 C 
BRANCH  14  15
ATOM     15  C   UNL     1      -4.495  42.273  24.099  1.00  0.00    -0.003 C 
ATOM     16  C   UNL     1      -4.640  43.794  24.144  1.00  0.00     0.004 C 
ENDBRANCH  14  15
ENDBRANCH  13  14
ENDBRANCH  12  13
ENDBRANCH  11  12
ENDBRANCH  10  11
ENDBRANCH   1  10
TORSDOF 12
ENDMDL
MODEL 9
REMARK VINA RESULT:    -4.081      3.103      5.129
REMARK INTER + INTRA:          -8.425
REMARK INTER:                  -6.707
REMARK INTRA:                  -1.718
REMARK UNBOUND:                -1.481
REMARK SMILES CCCCCCCCCCCCCC(=O)[O-]
REMARK SMILES IDX 8 1 9 2 10 3 11 4 12 5 13 6 14 7 15 8 16 9 7 10 6 11 5 12
REMARK SMILES IDX 4 13 3 14 2 15 1 16
REMARK H PARENT
REMARK Flexibility Score: inf
ROOT
ATOM      1  C   UNL     1      -0.883  43.933  24.147  1.00  0.00     0.000 C 
ENDROOT
BRANCH   1   2
ATOM      2  C   UNL     1      -1.132  43.005  25.349  1.00  0.00     0.000 C 
BRANCH   2   3
ATOM      3  C   UNL     1      -2.499  42.307  25.279  1.00  0.00     0.000 C 
BRANCH   3   4
ATOM      4  C   UNL     1      -3.186  42.491  23.915  1.00  0.00     0.000 C 
BRANCH   4   5
ATOM      5  C   UNL     1      -4.525  43.244  24.020  1.00  0.00     0.006 C 
BRANCH   5   6
ATOM      6  C   UNL     1      -4.485  44.681  23.475  1.00  0.00     0.053 C 
BRANCH   6   7
ATOM      7  C   UNL     1      -4.155  45.679  24.542  1.00  0.00     0.041 C 
ATOM      8  O   UNL     1      -4.238  45.357  25.756  1.00  0.00    -0.550 OA
ATOM      9  O   UNL     1      -3.789  46.973  24.197  1.00  0.00    -0.550 OA
ENDBRANCH   6   7
ENDBRANCH   5   6
ENDBRANCH   4   5
ENDBRANCH   3   4
ENDBRANCH   2   3
ENDBRANCH   1   2
BRANCH   1  10
ATOM     10  C   UNL     1       0.323  43.496  23.302  1.00  0.00     0.000 C 
BRANCH  10  11
ATOM     11  C   UNL     1      -0.037  43.294  21.821  1.00  0.00    -0.000 C 
BRANCH  11  12
ATOM     12  C   UNL     1      -1.258  44.137  21.433  1.00  0.00    -0.000 C 
BRANCH  12  13
ATOM     13  C   UNL     1      -2.107  43.419  20.373  1.00  0.00    -0.000 C 
BRANCH  13  14
ATOM     14  C   UNL     1      -2.849  44.392  19.440  1.00  0.00    -0.000 C 
BRANCH  14  15
ATOM     15  C   UNL     1      -4.324  44.640  19.804  1.00  0.00    -0.003 C 
ATOM     16  C   UNL     1      -5.112  43.348  20.020  1.00  0.00     0.004 C 
ENDBRANCH  14  15
ENDBRANCH  13  14
ENDBRANCH  12  13
ENDBRANCH  11  12
ENDBRANCH  10  11
ENDBRANCH   1  10
TORSDOF 12
ENDMDL
