MODEL 1
REMARK VINA RESULT:    -3.393      0.000      0.000
REMARK INTER + INTRA:          -4.069
REMARK INTER:                  -3.889
REMARK INTRA:                  -0.180
REMARK UNBOUND:                -0.180
REMARK SMILES CC=Cc1ccc(O)c(OC)c1
REMARK SMILES IDX 4 1 12 2 9 3 7 4 6 5 5 6 3 7 1 8 2 9 10 10 11 11 8 12
REMARK H PARENT 8 13
REMARK Flexibility Score: inf
ROOT
ATOM      1  C   UNL     1     109.879 107.892 105.616  1.00  0.00    -0.022 A 
ATOM      2  C   UNL     1     109.484 107.939 106.969  1.00  0.00     0.058 A 
ATOM      3  C   UNL     1     108.245 107.404 107.376  1.00  0.00     0.161 A 
ATOM      4  C   UNL     1     107.395 106.826 106.416  1.00  0.00     0.157 A 
ATOM      5  C   UNL     1     107.779 106.794 105.073  1.00  0.00     0.051 A 
ATOM      6  C   UNL     1     109.006 107.326 104.674  1.00  0.00     0.012 A 
ENDROOT
BRANCH   1   7
ATOM      7  C   UNL     1     111.168 108.451 105.140  1.00  0.00     0.003 C 
ATOM      8  C   UNL     1     113.411 108.357 104.125  1.00  0.00     0.035 C 
ATOM      9  C   UNL     1     112.143 107.716 104.594  1.00  0.00    -0.030 C 
ENDBRANCH   1   7
BRANCH   3  10
ATOM     10  O   UNL     1     107.828 107.432 108.717  1.00  0.00    -0.493 OA
ATOM     11  C   UNL     1     108.275 106.529 109.723  1.00  0.00     0.278 C 
ENDBRANCH   3  10
BRANCH   4  12
ATOM     12  O   UNL     1     106.163 106.282 106.777  1.00  0.00    -0.504 OA
ATOM     13  H   UNL     1     105.463 106.815 107.277  1.00  0.00     0.293 HD
ENDBRANCH   4  12
TORSDOF 3
ENDMDL
MODEL 2
REMARK VINA RESULT:    -3.386      4.137      4.823
REMARK INTER + INTRA:          -4.061
REMARK INTER:                  -3.885
REMARK INTRA:                  -0.176
REMARK UNBOUND:                -0.180
REMARK SMILES CC=Cc1ccc(O)c(OC)c1
REMARK SMILES IDX 4 1 12 2 9 3 7 4 6 5 5 6 3 7 1 8 2 9 10 10 11 11 8 12
REMARK H PARENT 8 13
REMARK Flexibility Score: inf
ROOT
ATOM      1  C   UNL     1     112.240 110.001 105.597  1.00  0.00    -0.022 A 
ATOM      2  C   UNL     1     112.260 109.616 106.953  1.00  0.00     0.058 A 
ATOM      3  C   UNL     1     112.777 108.362 107.338  1.00  0.00     0.161 A 
ATOM      4  C   UNL     1     113.268 107.488 106.352  1.00  0.00     0.157 A 
ATOM      5  C   UNL     1     113.233 107.863 105.006  1.00  0.00     0.051 A 
ATOM      6  C   UNL     1     112.719 109.104 104.630  1.00  0.00     0.012 A 
ENDROOT
BRANCH   1   7
ATOM      7  C   UNL     1     111.697 111.306 105.145  1.00  0.00     0.003 C 
ATOM      8  C   UNL     1     111.799 113.526 104.083  1.00  0.00     0.035 C 
ATOM      9  C   UNL     1     112.423 112.240 104.522  1.00  0.00    -0.030 C 
ENDBRANCH   1   7
BRANCH   3  10
ATOM     10  O   UNL     1     112.815 107.954 108.681  1.00  0.00    -0.493 OA
ATOM     11  C   UNL     1     111.720 107.371 109.381  1.00  0.00     0.278 C 
ENDBRANCH   3  10
BRANCH   4  12
ATOM     12  O   UNL     1     113.792 106.240 106.690  1.00  0.00    -0.504 OA
ATOM     13  H   UNL     1     113.601 105.408 106.144  1.00  0.00     0.293 HD
ENDBRANCH   4  12
TORSDOF 3
ENDMDL
MODEL 3
REMARK VINA RESULT:    -3.339      3.859      4.124
REMARK INTER + INTRA:          -4.007
REMARK INTER:                  -3.861
REMARK INTRA:                  -0.146
REMARK UNBOUND:                -0.180
REMARK SMILES CC=Cc1ccc(O)c(OC)c1
REMARK SMILES IDX 4 1 12 2 9 3 7 4 6 5 5 6 3 7 1 8 2 9 10 10 11 11 8 12
REMARK H PARENT 8 13
REMARK Flexibility Score: inf
ROOT
ATOM      1  C   UNL     1     108.178 110.033 104.848  1.00  0.00    -0.022 A 
ATOM      2  C   UNL     1     108.203 110.257 106.240  1.00  0.00     0.058 A 
ATOM      3  C   UNL     1     107.458 111.307 106.814  1.00  0.00     0.161 A 
ATOM      4  C   UNL     1     106.690 112.142 105.981  1.00  0.00     0.157 A 
ATOM      5  C   UNL     1     106.679 111.930 104.600  1.00  0.00     0.051 A 
ATOM      6  C   UNL     1     107.419 110.890 104.037  1.00  0.00     0.012 A 
ENDROOT
BRANCH   1   7
ATOM      7  C   UNL     1     108.953 108.946 104.201  1.00  0.00     0.003 C 
ATOM      8  C   UNL     1     110.900 107.473 103.875  1.00  0.00     0.035 C 
ATOM      9  C   UNL     1     110.189 108.590 104.569  1.00  0.00    -0.030 C 
ENDBRANCH   1   7
BRANCH   3  10
ATOM     10  O   UNL     1     107.458 111.552 108.196  1.00  0.00    -0.493 OA
ATOM     11  C   UNL     1     107.486 110.539 109.198  1.00  0.00     0.278 C 
ENDBRANCH   3  10
BRANCH   4  12
ATOM     12  O   UNL     1     105.935 113.190 106.507  1.00  0.00    -0.504 OA
ATOM     13  H   UNL     1     105.302 113.738 105.938  1.00  0.00     0.293 HD
ENDBRANCH   4  12
TORSDOF 3
ENDMDL
MODEL 4
REMARK VINA RESULT:    -3.298      2.054      2.380
REMARK INTER + INTRA:          -3.960
REMARK INTER:                  -3.818
REMARK INTRA:                  -0.142
REMARK UNBOUND:                -0.180
REMARK SMILES CC=Cc1ccc(O)c(OC)c1
REMARK SMILES IDX 4 1 12 2 9 3 7 4 6 5 5 6 3 7 1 8 2 9 10 10 11 11 8 12
REMARK H PARENT 8 13
REMARK Flexibility Score: inf
ROOT
ATOM      1  C   UNL     1     109.170 109.060 104.889  1.00  0.00    -0.022 A 
ATOM      2  C   UNL     1     108.633 109.116 106.191  1.00  0.00     0.058 A 
ATOM      3  C   UNL     1     107.893 108.034 106.712  1.00  0.00     0.161 A 
ATOM      4  C   UNL     1     107.686 106.894 105.913  1.00  0.00     0.157 A 
ATOM      5  C   UNL     1     108.205 106.846 104.617  1.00  0.00     0.051 A 
ATOM      6  C   UNL     1     108.935 107.920 104.106  1.00  0.00     0.012 A 
ENDROOT
BRANCH   1   7
ATOM      7  C   UNL     1     109.946 110.178 104.297  1.00  0.00     0.003 C 
ATOM      8  C   UNL     1     110.557 112.538 103.942  1.00  0.00     0.035 C 
ATOM      9  C   UNL     1     109.720 111.468 104.568  1.00  0.00    -0.030 C 
ENDBRANCH   1   7
BRANCH   3  10
ATOM     10  O   UNL     1     107.351 108.058 108.007  1.00  0.00    -0.493 OA
ATOM     11  C   UNL     1     107.590 109.083 108.966  1.00  0.00     0.278 C 
ENDBRANCH   3  10
BRANCH   4  12
ATOM     12  O   UNL     1     106.964 105.801 106.391  1.00  0.00    -0.504 OA
ATOM     13  H   UNL     1     106.037 105.897 106.786  1.00  0.00     0.293 HD
ENDBRANCH   4  12
TORSDOF 3
ENDMDL
MODEL 5
REMARK VINA RESULT:    -3.267      3.925      4.974
REMARK INTER + INTRA:          -3.924
REMARK INTER:                  -3.782
REMARK INTRA:                  -0.142
REMARK UNBOUND:                -0.180
REMARK SMILES CC=Cc1ccc(O)c(OC)c1
REMARK SMILES IDX 4 1 12 2 9 3 7 4 6 5 5 6 3 7 1 8 2 9 10 10 11 11 8 12
REMARK H PARENT 8 13
REMARK Flexibility Score: inf
ROOT
ATOM      1  C   UNL     1     111.557 109.989 104.755  1.00  0.00    -0.022 A 
ATOM      2  C   UNL     1     111.623 109.707 106.135  1.00  0.00     0.058 A 
ATOM      3  C   UNL     1     112.521 108.738 106.629  1.00  0.00     0.161 A 
ATOM      4  C   UNL     1     113.349 108.044 105.729  1.00  0.00     0.157 A 
ATOM      5  C   UNL     1     113.271 108.311 104.360  1.00  0.00     0.051 A 
ATOM      6  C   UNL     1     112.380 109.270 103.875  1.00  0.00     0.012 A 
ENDROOT
BRANCH   1   7
ATOM      7  C   UNL     1     110.622 110.992 104.189  1.00  0.00     0.003 C 
ATOM      8  C   UNL     1     108.636 112.450 104.185  1.00  0.00     0.035 C 
ATOM      9  C   UNL     1     109.522 111.423 104.816  1.00  0.00    -0.030 C 
ENDBRANCH   1   7
BRANCH   3  10
ATOM     10  O   UNL     1     112.613 108.440 107.998  1.00  0.00    -0.493 OA
ATOM     11  C   UNL     1     111.882 107.409 108.654  1.00  0.00     0.278 C 
ENDBRANCH   3  10
BRANCH   4  12
ATOM     12  O   UNL     1     114.253 107.081 106.177  1.00  0.00    -0.504 OA
ATOM     13  H   UNL     1     115.245 107.269 106.258  1.00  0.00     0.293 HD
ENDBRANCH   4  12
TORSDOF 3
ENDMDL
MODEL 6
REMARK VINA RESULT:    -3.248      4.273      4.558
REMARK INTER + INTRA:          -3.902
REMARK INTER:                  -3.759
REMARK INTRA:                  -0.143
REMARK UNBOUND:                -0.180
REMARK SMILES CC=Cc1ccc(O)c(OC)c1
REMARK SMILES IDX 4 1 12 2 9 3 7 4 6 5 5 6 3 7 1 8 2 9 10 10 11 11 8 12
REMARK H PARENT 8 13
REMARK Flexibility Score: inf
ROOT
ATOM      1  C   UNL     1     109.200 111.054 104.836  1.00  0.00    -0.022 A 
ATOM      2  C   UNL     1     109.261 111.628 106.123  1.00  0.00     0.058 A 
ATOM      3  C   UNL     1     108.138 112.276 106.676  1.00  0.00     0.161 A 
ATOM      4  C   UNL     1     106.950 112.356 105.926  1.00  0.00     0.157 A 
ATOM      5  C   UNL     1     106.895 111.802 104.645  1.00  0.00     0.051 A 
ATOM      6  C   UNL     1     108.010 111.162 104.101  1.00  0.00     0.012 A 
ENDROOT
BRANCH   1   7
ATOM      7  C   UNL     1     110.359 110.371 104.211  1.00  0.00     0.003 C 
ATOM      8  C   UNL     1     112.637 109.435 104.145  1.00  0.00     0.035 C 
ATOM      9  C   UNL     1     111.519 110.144 104.839  1.00  0.00    -0.030 C 
ENDBRANCH   1   7
BRANCH   3  10
ATOM     10  O   UNL     1     108.166 112.852 107.956  1.00  0.00    -0.493 OA
ATOM     11  C   UNL     1     109.153 112.577 108.946  1.00  0.00     0.278 C 
ENDBRANCH   3  10
BRANCH   4  12
ATOM     12  O   UNL     1     105.815 112.985 106.437  1.00  0.00    -0.504 OA
ATOM     13  H   UNL     1     105.069 112.469 106.889  1.00  0.00     0.293 HD
ENDBRANCH   4  12
TORSDOF 3
ENDMDL
MODEL 7
REMARK VINA RESULT:    -3.225      2.241      2.860
REMARK INTER + INTRA:          -3.876
REMARK INTER:                  -3.700
REMARK INTRA:                  -0.176
REMARK UNBOUND:                -0.180
REMARK SMILES CC=Cc1ccc(O)c(OC)c1
REMARK SMILES IDX 4 1 12 2 9 3 7 4 6 5 5 6 3 7 1 8 2 9 10 10 11 11 8 12
REMARK H PARENT 8 13
REMARK Flexibility Score: inf
ROOT
ATOM      1  C   UNL     1     109.252 109.395 105.833  1.00  0.00    -0.022 A 
ATOM      2  C   UNL     1     108.296 108.565 106.454  1.00  0.00     0.058 A 
ATOM      3  C   UNL     1     107.864 107.375 105.833  1.00  0.00     0.161 A 
ATOM      4  C   UNL     1     108.390 107.023 104.577  1.00  0.00     0.157 A 
ATOM      5  C   UNL     1     109.325 107.854 103.955  1.00  0.00     0.051 A 
ATOM      6  C   UNL     1     109.749 109.031 104.572  1.00  0.00     0.012 A 
ENDROOT
BRANCH   1   7
ATOM      7  C   UNL     1     109.729 110.660 106.444  1.00  0.00     0.003 C 
ATOM      8  C   UNL     1     111.312 112.511 106.813  1.00  0.00     0.035 C 
ATOM      9  C   UNL     1     110.909 111.225 106.166  1.00  0.00    -0.030 C 
ENDBRANCH   1   7
BRANCH   3  10
ATOM     10  O   UNL     1     106.917 106.527 106.430  1.00  0.00    -0.493 OA
ATOM     11  C   UNL     1     106.784 106.321 107.832  1.00  0.00     0.278 C 
ENDBRANCH   3  10
BRANCH   4  12
ATOM     12  O   UNL     1     107.993 105.853 103.931  1.00  0.00    -0.504 OA
ATOM     13  H   UNL     1     107.731 105.017 104.439  1.00  0.00     0.293 HD
ENDBRANCH   4  12
TORSDOF 3
ENDMDL
MODEL 8
REMARK VINA RESULT:    -3.223      4.706      6.160
REMARK INTER + INTRA:          -3.874
REMARK INTER:                  -3.717
REMARK INTRA:                  -0.157
REMARK UNBOUND:                -0.180
REMARK SMILES CC=Cc1ccc(O)c(OC)c1
REMARK SMILES IDX 4 1 12 2 9 3 7 4 6 5 5 6 3 7 1 8 2 9 10 10 11 11 8 12
REMARK H PARENT 8 13
REMARK Flexibility Score: inf
ROOT
ATOM      1  C   UNL     1     110.836 111.087 104.858  1.00  0.00    -0.022 A 
ATOM      2  C   UNL     1     111.308 111.130 106.185  1.00  0.00     0.058 A 
ATOM      3  C   UNL     1     112.059 112.230 106.647  1.00  0.00     0.161 A 
ATOM      4  C   UNL     1     112.343 113.289 105.765  1.00  0.00     0.157 A 
ATOM      5  C   UNL     1     111.890 113.238 104.445  1.00  0.00     0.051 A 
ATOM      6  C   UNL     1     111.148 112.147 103.992  1.00  0.00     0.012 A 
ENDROOT
BRANCH   1   7
ATOM      7  C   UNL     1     110.051 109.946 104.326  1.00  0.00     0.003 C 
ATOM      8  C   UNL     1     109.516 107.567 103.973  1.00  0.00     0.035 C 
ATOM      9  C   UNL     1     110.368 108.663 104.530  1.00  0.00    -0.030 C 
ENDBRANCH   1   7
BRANCH   3  10
ATOM     10  O   UNL     1     112.537 112.304 107.965  1.00  0.00    -0.493 OA
ATOM     11  C   UNL     1     111.807 112.842 109.063  1.00  0.00     0.278 C 
ENDBRANCH   3  10
BRANCH   4  12
ATOM     12  O   UNL     1     113.080 114.397 106.182  1.00  0.00    -0.504 OA
ATOM     13  H   UNL     1     114.058 114.331 106.437  1.00  0.00     0.293 HD
ENDBRANCH   4  12
TORSDOF 3
ENDMDL
MODEL 9
REMARK VINA RESULT:    -2.715      5.476      6.824
REMARK INTER + INTRA:          -3.292
REMARK INTER:                  -3.121
REMARK INTRA:                  -0.171
REMARK UNBOUND:                -0.180
REMARK SMILES CC=Cc1ccc(O)c(OC)c1
REMARK SMILES IDX 4 1 12 2 9 3 7 4 6 5 5 6 3 7 1 8 2 9 10 10 11 11 8 12
REMARK H PARENT 8 13
REMARK Flexibility Score: inf
ROOT
ATOM      1  C   UNL     1     110.185 112.192 105.220  1.00  0.00    -0.022 A 
ATOM      2  C   UNL     1     110.552 112.058 106.574  1.00  0.00     0.058 A 
ATOM      3  C   UNL     1     111.767 112.593 107.047  1.00  0.00     0.161 A 
ATOM      4  C   UNL     1     112.622 113.259 106.150  1.00  0.00     0.157 A 
ATOM      5  C   UNL     1     112.265 113.377 104.804  1.00  0.00     0.051 A 
ATOM      6  C   UNL     1     111.062 112.845 104.340  1.00  0.00     0.012 A 
ENDROOT
BRANCH   1   7
ATOM      7  C   UNL     1     108.921 111.636 104.676  1.00  0.00     0.003 C 
ATOM      8  C   UNL     1     106.593 111.736 103.875  1.00  0.00     0.035 C 
ATOM      9  C   UNL     1     107.826 112.367 104.439  1.00  0.00    -0.030 C 
ENDBRANCH   1   7
BRANCH   3  10
ATOM     10  O   UNL     1     112.157 112.480 108.392  1.00  0.00    -0.493 OA
ATOM     11  C   UNL     1     112.612 111.278 109.005  1.00  0.00     0.278 C 
ENDBRANCH   3  10
BRANCH   4  12
ATOM     12  O   UNL     1     113.831 113.807 106.577  1.00  0.00    -0.504 OA
ATOM     13  H   UNL     1     114.191 114.677 106.205  1.00  0.00     0.293 HD
ENDBRANCH   4  12
TORSDOF 3
ENDMDL
