MODEL 1
REMARK VINA RESULT:    -3.147      0.000      0.000
REMARK INTER + INTRA:          -3.578
REMARK INTER:                  -3.515
REMARK INTRA:                  -0.064
REMARK UNBOUND:                -0.064
REMARK SMILES CCCC(=O)[O-]
REMARK SMILES IDX 3 1 4 2 5 3 6 4 2 5 1 6
REMARK H PARENT
REMARK Flexibility Score: inf
ROOT
ATOM      1  C   UNL     1      16.257 -38.103  27.425  1.00  0.00     0.052 C 
ENDROOT
BRANCH   1   2
ATOM      2  C   UNL     1      17.201 -37.269  26.613  1.00  0.00     0.041 C 
ATOM      3  O   UNL     1      18.280 -37.761  26.191  1.00  0.00    -0.550 OA
ATOM      4  O   UNL     1      16.871 -35.957  26.295  1.00  0.00    -0.550 OA
ENDBRANCH   1   2
BRANCH   1   5
ATOM      5  C   UNL     1      16.044 -37.517  28.827  1.00  0.00     0.003 C 
ATOM      6  C   UNL     1      17.273 -37.684  29.720  1.00  0.00     0.004 C 
ENDBRANCH   1   5
TORSDOF 2
ENDMDL
MODEL 2
REMARK VINA RESULT:    -2.942      9.028      9.707
REMARK INTER + INTRA:          -3.350
REMARK INTER:                  -3.314
REMARK INTRA:                  -0.036
REMARK UNBOUND:                -0.064
REMARK SMILES CCCC(=O)[O-]
REMARK SMILES IDX 3 1 4 2 5 3 6 4 2 5 1 6
REMARK H PARENT
REMARK Flexibility Score: inf
ROOT
ATOM      1  C   UNL     1      13.077 -30.985  23.216  1.00  0.00     0.052 C 
ENDROOT
BRANCH   1   2
ATOM      2  C   UNL     1      12.645 -30.971  21.781  1.00  0.00     0.041 C 
ATOM      3  O   UNL     1      13.425 -31.372  20.879  1.00  0.00    -0.550 OA
ATOM      4  O   UNL     1      11.366 -30.544  21.446  1.00  0.00    -0.550 OA
ENDBRANCH   1   2
BRANCH   1   5
ATOM      5  C   UNL     1      13.591 -29.613  23.669  1.00  0.00     0.003 C 
ATOM      6  C   UNL     1      12.485 -28.751  24.279  1.00  0.00     0.004 C 
ENDBRANCH   1   5
TORSDOF 2
ENDMDL
MODEL 3
REMARK VINA RESULT:    -2.936      8.323      9.146
REMARK INTER + INTRA:          -3.343
REMARK INTER:                  -3.327
REMARK INTRA:                  -0.017
REMARK UNBOUND:                -0.064
REMARK SMILES CCCC(=O)[O-]
REMARK SMILES IDX 3 1 4 2 5 3 6 4 2 5 1 6
REMARK H PARENT
REMARK Flexibility Score: inf
ROOT
ATOM      1  C   UNL     1      13.395 -31.732  20.628  1.00  0.00     0.052 C 
ENDROOT
BRANCH   1   2
ATOM      2  C   UNL     1      14.257 -32.941  20.831  1.00  0.00     0.041 C 
ATOM      3  O   UNL     1      14.675 -33.236  21.982  1.00  0.00    -0.550 OA
ATOM      4  O   UNL     1      14.572 -33.759  19.754  1.00  0.00    -0.550 OA
ENDBRANCH   1   2
BRANCH   1   5
ATOM      5  C   UNL     1      13.119 -31.002  21.948  1.00  0.00     0.003 C 
ATOM      6  C   UNL     1      11.719 -30.391  21.993  1.00  0.00     0.004 C 
ENDBRANCH   1   5
TORSDOF 2
ENDMDL
MODEL 4
REMARK VINA RESULT:    -2.905     14.567     15.518
REMARK INTER + INTRA:          -3.308
REMARK INTER:                  -3.284
REMARK INTRA:                  -0.024
REMARK UNBOUND:                -0.064
REMARK SMILES CCCC(=O)[O-]
REMARK SMILES IDX 3 1 4 2 5 3 6 4 2 5 1 6
REMARK H PARENT
REMARK Flexibility Score: inf
ROOT
ATOM      1  C   UNL     1      22.103 -24.949  20.707  1.00  0.00     0.052 C 
ENDROOT
BRANCH   1   2
ATOM      2  C   UNL     1      23.194 -24.572  19.752  1.00  0.00     0.041 C 
ATOM      3  O   UNL     1      23.304 -25.166  18.648  1.00  0.00    -0.550 OA
ATOM      4  O   UNL     1      24.067 -23.539  20.069  1.00  0.00    -0.550 OA
ENDBRANCH   1   2
BRANCH   1   5
ATOM      5  C   UNL     1      20.827 -25.379  19.972  1.00  0.00     0.003 C 
ATOM      6  C   UNL     1      20.170 -26.601  20.615  1.00  0.00     0.004 C 
ENDBRANCH   1   5
TORSDOF 2
ENDMDL
MODEL 5
REMARK VINA RESULT:    -2.890     15.650     16.489
REMARK INTER + INTRA:          -3.291
REMARK INTER:                  -3.284
REMARK INTRA:                  -0.007
REMARK UNBOUND:                -0.064
REMARK SMILES CCCC(=O)[O-]
REMARK SMILES IDX 3 1 4 2 5 3 6 4 2 5 1 6
REMARK H PARENT
REMARK Flexibility Score: inf
ROOT
ATOM      1  C   UNL     1      23.113 -24.186  21.128  1.00  0.00     0.052 C 
ENDROOT
BRANCH   1   2
ATOM      2  C   UNL     1      22.592 -24.761  19.847  1.00  0.00     0.041 C 
ATOM      3  O   UNL     1      21.421 -25.221  19.787  1.00  0.00    -0.550 OA
ATOM      4  O   UNL     1      23.389 -24.757  18.709  1.00  0.00    -0.550 OA
ENDBRANCH   1   2
BRANCH   1   5
ATOM      5  C   UNL     1      24.069 -23.013  20.878  1.00  0.00     0.003 C 
ATOM      6  C   UNL     1      24.255 -22.140  22.119  1.00  0.00     0.004 C 
ENDBRANCH   1   5
TORSDOF 2
ENDMDL
MODEL 6
REMARK VINA RESULT:    -2.883      7.246      8.148
REMARK INTER + INTRA:          -3.284
REMARK INTER:                  -3.246
REMARK INTRA:                  -0.038
REMARK UNBOUND:                -0.064
REMARK SMILES CCCC(=O)[O-]
REMARK SMILES IDX 3 1 4 2 5 3 6 4 2 5 1 6
REMARK H PARENT
REMARK Flexibility Score: inf
ROOT
ATOM      1  C   UNL     1      16.414 -34.757  19.557  1.00  0.00     0.052 C 
ENDROOT
BRANCH   1   2
ATOM      2  C   UNL     1      15.227 -34.227  20.302  1.00  0.00     0.041 C 
ATOM      3  O   UNL     1      15.162 -34.338  21.554  1.00  0.00    -0.550 OA
ATOM      4  O   UNL     1      14.209 -33.579  19.614  1.00  0.00    -0.550 OA
ENDBRANCH   1   2
BRANCH   1   5
ATOM      5  C   UNL     1      16.469 -36.290  19.593  1.00  0.00     0.003 C 
ATOM      6  C   UNL     1      17.545 -36.811  20.546  1.00  0.00     0.004 C 
ENDBRANCH   1   5
TORSDOF 2
ENDMDL
MODEL 7
REMARK VINA RESULT:    -2.873      9.422     10.343
REMARK INTER + INTRA:          -3.272
REMARK INTER:                  -3.259
REMARK INTRA:                  -0.013
REMARK UNBOUND:                -0.064
REMARK SMILES CCCC(=O)[O-]
REMARK SMILES IDX 3 1 4 2 5 3 6 4 2 5 1 6
REMARK H PARENT
REMARK Flexibility Score: inf
ROOT
ATOM      1  C   UNL     1      24.031 -36.408  33.700  1.00  0.00     0.052 C 
ENDROOT
BRANCH   1   2
ATOM      2  C   UNL     1      23.101 -36.024  34.811  1.00  0.00     0.041 C 
ATOM      3  O   UNL     1      23.533 -35.393  35.810  1.00  0.00    -0.550 OA
ATOM      4  O   UNL     1      21.750 -36.336  34.724  1.00  0.00    -0.550 OA
ENDBRANCH   1   2
BRANCH   1   5
ATOM      5  C   UNL     1      25.391 -36.875  34.234  1.00  0.00     0.003 C 
ATOM      6  C   UNL     1      26.497 -36.766  33.184  1.00  0.00     0.004 C 
ENDBRANCH   1   5
TORSDOF 2
ENDMDL
MODEL 8
REMARK VINA RESULT:    -2.820      8.340      9.252
REMARK INTER + INTRA:          -3.214
REMARK INTER:                  -3.145
REMARK INTRA:                  -0.069
REMARK UNBOUND:                -0.064
REMARK SMILES CCCC(=O)[O-]
REMARK SMILES IDX 3 1 4 2 5 3 6 4 2 5 1 6
REMARK H PARENT
REMARK Flexibility Score: inf
ROOT
ATOM      1  C   UNL     1      13.750 -30.265  22.416  1.00  0.00     0.052 C 
ENDROOT
BRANCH   1   2
ATOM      2  C   UNL     1      12.743 -30.891  21.500  1.00  0.00     0.041 C 
ATOM      3  O   UNL     1      11.522 -30.606  21.610  1.00  0.00    -0.550 OA
ATOM      4  O   UNL     1      13.160 -31.764  20.503  1.00  0.00    -0.550 OA
ENDBRANCH   1   2
BRANCH   1   5
ATOM      5  C   UNL     1      13.530 -30.685  23.874  1.00  0.00     0.003 C 
ATOM      6  C   UNL     1      13.837 -32.164  24.106  1.00  0.00     0.004 C 
ENDBRANCH   1   5
TORSDOF 2
ENDMDL
MODEL 9
REMARK VINA RESULT:    -2.791     13.523     14.474
REMARK INTER + INTRA:          -3.181
REMARK INTER:                  -3.144
REMARK INTRA:                  -0.037
REMARK UNBOUND:                -0.064
REMARK SMILES CCCC(=O)[O-]
REMARK SMILES IDX 3 1 4 2 5 3 6 4 2 5 1 6
REMARK H PARENT
REMARK Flexibility Score: inf
ROOT
ATOM      1  C   UNL     1      21.064 -25.437  20.026  1.00  0.00     0.052 C 
ENDROOT
BRANCH   1   2
ATOM      2  C   UNL     1      22.526 -25.575  19.732  1.00  0.00     0.041 C 
ATOM      3  O   UNL     1      23.147 -26.615  20.074  1.00  0.00    -0.550 OA
ATOM      4  O   UNL     1      23.196 -24.567  19.050  1.00  0.00    -0.550 OA
ENDBRANCH   1   2
BRANCH   1   5
ATOM      5  C   UNL     1      20.591 -26.469  21.057  1.00  0.00     0.003 C 
ATOM      6  C   UNL     1      19.555 -27.434  20.481  1.00  0.00     0.004 C 
ENDBRANCH   1   5
TORSDOF 2
ENDMDL
