MODEL 1
REMARK VINA RESULT:    -6.259      0.000      0.000
REMARK INTER + INTRA:          -6.442
REMARK INTER:                  -6.442
REMARK INTRA:                   0.000
REMARK UNBOUND:                 0.000
REMARK SMILES Cc1ccccc1O
REMARK SMILES IDX 1 1 2 2 3 3 4 4 5 5 6 6 7 7 8 8
REMARK H PARENT 8 9
REMARK Flexibility Score: inf
ROOT
ATOM      1  C   UNL     1      83.676  69.614 105.314  1.00  0.00     0.048 C 
ATOM      2  C   UNL     1      85.043  69.064 105.027  1.00  0.00    -0.009 A 
ATOM      3  C   UNL     1      85.703  68.270 105.980  1.00  0.00     0.007 A 
ATOM      4  C   UNL     1      86.977  67.758 105.713  1.00  0.00     0.001 A 
ATOM      5  C   UNL     1      87.601  68.034 104.495  1.00  0.00     0.004 A 
ATOM      6  C   UNL     1      86.954  68.822 103.540  1.00  0.00     0.046 A 
ATOM      7  C   UNL     1      85.676  69.341 103.799  1.00  0.00     0.118 A 
ENDROOT
BRANCH   7   8
ATOM      8  O   UNL     1      85.033  70.127 102.843  1.00  0.00    -0.508 OA
ATOM      9  H   UNL     1      84.778  69.756 101.936  1.00  0.00     0.293 HD
ENDBRANCH   7   8
TORSDOF 1
ENDMDL
MODEL 2
REMARK VINA RESULT:    -5.975      1.897      3.515
REMARK INTER + INTRA:          -6.150
REMARK INTER:                  -6.150
REMARK INTRA:                   0.000
REMARK UNBOUND:                 0.000
REMARK SMILES Cc1ccccc1O
REMARK SMILES IDX 1 1 2 2 3 3 4 4 5 5 6 6 7 7 8 8
REMARK H PARENT 8 9
REMARK Flexibility Score: inf
ROOT
ATOM      1  C   UNL     1      88.223  67.602 104.837  1.00  0.00     0.048 C 
ATOM      2  C   UNL     1      86.952  68.386 104.687  1.00  0.00    -0.009 A 
ATOM      3  C   UNL     1      86.637  69.001 103.463  1.00  0.00     0.007 A 
ATOM      4  C   UNL     1      85.453  69.732 103.324  1.00  0.00     0.001 A 
ATOM      5  C   UNL     1      84.575  69.854 104.402  1.00  0.00     0.004 A 
ATOM      6  C   UNL     1      84.877  69.246 105.623  1.00  0.00     0.046 A 
ATOM      7  C   UNL     1      86.062  68.512 105.773  1.00  0.00     0.118 A 
ENDROOT
BRANCH   7   8
ATOM      8  O   UNL     1      86.361  67.906 106.994  1.00  0.00    -0.508 OA
ATOM      9  H   UNL     1      85.649  67.437 107.541  1.00  0.00     0.293 HD
ENDBRANCH   7   8
TORSDOF 1
ENDMDL
MODEL 3
REMARK VINA RESULT:    -5.788      1.140      2.231
REMARK INTER + INTRA:          -5.957
REMARK INTER:                  -5.957
REMARK INTRA:                   0.000
REMARK UNBOUND:                 0.000
REMARK SMILES Cc1ccccc1O
REMARK SMILES IDX 1 1 2 2 3 3 4 4 5 5 6 6 7 7 8 8
REMARK H PARENT 8 9
REMARK Flexibility Score: inf
ROOT
ATOM      1  C   UNL     1      85.223  70.520 102.941  1.00  0.00     0.048 C 
ATOM      2  C   UNL     1      85.716  69.515 103.942  1.00  0.00    -0.009 A 
ATOM      3  C   UNL     1      87.021  69.003 103.849  1.00  0.00     0.007 A 
ATOM      4  C   UNL     1      87.480  68.066 104.781  1.00  0.00     0.001 A 
ATOM      5  C   UNL     1      86.642  67.635 105.811  1.00  0.00     0.004 A 
ATOM      6  C   UNL     1      85.342  68.139 105.913  1.00  0.00     0.046 A 
ATOM      7  C   UNL     1      84.873  69.078 104.982  1.00  0.00     0.118 A 
ENDROOT
BRANCH   7   8
ATOM      8  O   UNL     1      83.575  69.578 105.087  1.00  0.00    -0.508 OA
ATOM      9  H   UNL     1      82.798  69.143 104.603  1.00  0.00     0.293 HD
ENDBRANCH   7   8
TORSDOF 1
ENDMDL
MODEL 4
REMARK VINA RESULT:    -5.617      1.502      2.812
REMARK INTER + INTRA:          -5.781
REMARK INTER:                  -5.781
REMARK INTRA:                   0.000
REMARK UNBOUND:                 0.000
REMARK SMILES Cc1ccccc1O
REMARK SMILES IDX 1 1 2 2 3 3 4 4 5 5 6 6 7 7 8 8
REMARK H PARENT 8 9
REMARK Flexibility Score: inf
ROOT
ATOM      1  C   UNL     1      85.946  67.788 106.004  1.00  0.00     0.048 C 
ATOM      2  C   UNL     1      85.554  68.953 105.141  1.00  0.00    -0.009 A 
ATOM      3  C   UNL     1      84.453  69.754 105.488  1.00  0.00     0.007 A 
ATOM      4  C   UNL     1      84.088  70.838 104.684  1.00  0.00     0.001 A 
ATOM      5  C   UNL     1      84.817  71.132 103.531  1.00  0.00     0.004 A 
ATOM      6  C   UNL     1      85.914  70.342 103.177  1.00  0.00     0.046 A 
ATOM      7  C   UNL     1      86.288  69.252 103.976  1.00  0.00     0.118 A 
ENDROOT
BRANCH   7   8
ATOM      8  O   UNL     1      87.384  68.466 103.620  1.00  0.00    -0.508 OA
ATOM      9  H   UNL     1      88.079  68.794 102.960  1.00  0.00     0.293 HD
ENDBRANCH   7   8
TORSDOF 1
ENDMDL
MODEL 5
REMARK VINA RESULT:    -5.280      8.158      8.702
REMARK INTER + INTRA:          -5.434
REMARK INTER:                  -5.434
REMARK INTRA:                   0.000
REMARK UNBOUND:                 0.000
REMARK SMILES Cc1ccccc1O
REMARK SMILES IDX 1 1 2 2 3 3 4 4 5 5 6 6 7 7 8 8
REMARK H PARENT 8 9
REMARK Flexibility Score: inf
ROOT
ATOM      1  C   UNL     1      79.987  63.827 101.859  1.00  0.00     0.048 C 
ATOM      2  C   UNL     1      79.881  63.447 103.308  1.00  0.00    -0.009 A 
ATOM      3  C   UNL     1      80.943  62.783 103.946  1.00  0.00     0.007 A 
ATOM      4  C   UNL     1      80.843  62.428 105.295  1.00  0.00     0.001 A 
ATOM      5  C   UNL     1      79.688  62.732 106.017  1.00  0.00     0.004 A 
ATOM      6  C   UNL     1      78.627  63.393 105.392  1.00  0.00     0.046 A 
ATOM      7  C   UNL     1      78.716  63.753 104.039  1.00  0.00     0.118 A 
ENDROOT
BRANCH   7   8
ATOM      8  O   UNL     1      77.655  64.412 103.418  1.00  0.00    -0.508 OA
ATOM      9  H   UNL     1      77.721  65.385 103.147  1.00  0.00     0.293 HD
ENDBRANCH   7   8
TORSDOF 1
ENDMDL
MODEL 6
REMARK VINA RESULT:    -5.113      9.874     10.722
REMARK INTER + INTRA:          -5.262
REMARK INTER:                  -5.262
REMARK INTRA:                   0.000
REMARK UNBOUND:                 0.000
REMARK SMILES Cc1ccccc1O
REMARK SMILES IDX 1 1 2 2 3 3 4 4 5 5 6 6 7 7 8 8
REMARK H PARENT 8 9
REMARK Flexibility Score: inf
ROOT
ATOM      1  C   UNL     1      78.664  64.361 107.756  1.00  0.00     0.048 C 
ATOM      2  C   UNL     1      78.558  62.993 107.147  1.00  0.00    -0.009 A 
ATOM      3  C   UNL     1      79.376  62.634 106.062  1.00  0.00     0.007 A 
ATOM      4  C   UNL     1      79.277  61.360 105.494  1.00  0.00     0.001 A 
ATOM      5  C   UNL     1      78.363  60.435 106.004  1.00  0.00     0.004 A 
ATOM      6  C   UNL     1      77.545  60.781 107.083  1.00  0.00     0.046 A 
ATOM      7  C   UNL     1      77.637  62.057 107.658  1.00  0.00     0.118 A 
ENDROOT
BRANCH   7   8
ATOM      8  O   UNL     1      76.819  62.399 108.735  1.00  0.00    -0.508 OA
ATOM      9  H   UNL     1      76.665  63.365 108.999  1.00  0.00     0.293 HD
ENDBRANCH   7   8
TORSDOF 1
ENDMDL
MODEL 7
REMARK VINA RESULT:    -5.028      8.214      8.783
REMARK INTER + INTRA:          -5.174
REMARK INTER:                  -5.174
REMARK INTRA:                   0.000
REMARK UNBOUND:                 0.000
REMARK SMILES Cc1ccccc1O
REMARK SMILES IDX 1 1 2 2 3 3 4 4 5 5 6 6 7 7 8 8
REMARK H PARENT 8 9
REMARK Flexibility Score: inf
ROOT
ATOM      1  C   UNL     1      78.495  62.866 107.118  1.00  0.00     0.048 C 
ATOM      2  C   UNL     1      79.196  62.983 105.796  1.00  0.00    -0.009 A 
ATOM      3  C   UNL     1      80.503  62.489 105.640  1.00  0.00     0.007 A 
ATOM      4  C   UNL     1      81.156  62.598 104.408  1.00  0.00     0.001 A 
ATOM      5  C   UNL     1      80.513  63.199 103.324  1.00  0.00     0.004 A 
ATOM      6  C   UNL     1      79.213  63.692 103.469  1.00  0.00     0.046 A 
ATOM      7  C   UNL     1      78.550  63.588 104.700  1.00  0.00     0.118 A 
ENDROOT
BRANCH   7   8
ATOM      8  O   UNL     1      77.253  64.082 104.840  1.00  0.00    -0.508 OA
ATOM      9  H   UNL     1      77.059  64.919 105.377  1.00  0.00     0.293 HD
ENDBRANCH   7   8
TORSDOF 1
ENDMDL
MODEL 8
REMARK VINA RESULT:    -5.021      8.257      9.023
REMARK INTER + INTRA:          -5.168
REMARK INTER:                  -5.168
REMARK INTRA:                   0.000
REMARK UNBOUND:                 0.000
REMARK SMILES Cc1ccccc1O
REMARK SMILES IDX 1 1 2 2 3 3 4 4 5 5 6 6 7 7 8 8
REMARK H PARENT 8 9
REMARK Flexibility Score: inf
ROOT
ATOM      1  C   UNL     1      81.060  62.454 104.573  1.00  0.00     0.048 C 
ATOM      2  C   UNL     1      80.046  63.234 103.787  1.00  0.00    -0.009 A 
ATOM      3  C   UNL     1      80.281  63.544 102.436  1.00  0.00     0.007 A 
ATOM      4  C   UNL     1      79.337  64.271 101.704  1.00  0.00     0.001 A 
ATOM      5  C   UNL     1      78.153  64.694 102.312  1.00  0.00     0.004 A 
ATOM      6  C   UNL     1      77.909  64.391 103.654  1.00  0.00     0.046 A 
ATOM      7  C   UNL     1      78.850  63.663 104.397  1.00  0.00     0.118 A 
ENDROOT
BRANCH   7   8
ATOM      8  O   UNL     1      78.603  63.363 105.737  1.00  0.00    -0.508 OA
ATOM      9  H   UNL     1      77.667  63.166 106.072  1.00  0.00     0.293 HD
ENDBRANCH   7   8
TORSDOF 1
ENDMDL
MODEL 9
REMARK VINA RESULT:    -4.888      7.958      8.452
REMARK INTER + INTRA:          -5.031
REMARK INTER:                  -5.031
REMARK INTRA:                   0.000
REMARK UNBOUND:                 0.000
REMARK SMILES Cc1ccccc1O
REMARK SMILES IDX 1 1 2 2 3 3 4 4 5 5 6 6 7 7 8 8
REMARK H PARENT 8 9
REMARK Flexibility Score: inf
ROOT
ATOM      1  C   UNL     1      77.775  64.601 103.151  1.00  0.00     0.048 C 
ATOM      2  C   UNL     1      78.792  63.837 103.949  1.00  0.00    -0.009 A 
ATOM      3  C   UNL     1      78.529  63.488 105.285  1.00  0.00     0.007 A 
ATOM      4  C   UNL     1      79.476  62.778 106.029  1.00  0.00     0.001 A 
ATOM      5  C   UNL     1      80.690  62.409 105.448  1.00  0.00     0.004 A 
ATOM      6  C   UNL     1      80.962  62.750 104.120  1.00  0.00     0.046 A 
ATOM      7  C   UNL     1      80.019  63.463 103.366  1.00  0.00     0.118 A 
ENDROOT
BRANCH   7   8
ATOM      8  O   UNL     1      80.294  63.802 102.041  1.00  0.00    -0.508 OA
ATOM      9  H   UNL     1      81.002  64.487 101.804  1.00  0.00     0.293 HD
ENDBRANCH   7   8
TORSDOF 1
ENDMDL
