MODEL 1
REMARK VINA RESULT:    -5.226      0.000      0.000
REMARK INTER + INTRA:          -6.869
REMARK INTER:                  -7.364
REMARK INTRA:                   0.495
REMARK UNBOUND:                 0.495
REMARK SMILES CC1=CCC(=C(C)C)C(=O)CC(C)=CCC1
REMARK SMILES IDX 12 1 14 2 13 3 15 4 16 5 2 6 1 7 3 8 11 10 9 11 10 12 5 13
REMARK SMILES IDX 6 14 7 15 8 16 4 17
REMARK H PARENT
REMARK Flexibility Score: 60.00
ROOT
ATOM      1  C   UNL     1     -41.223  14.092  10.022  1.00  0.00    -0.070 C 
ATOM      2  C   UNL     1     -39.967  14.580  10.166  1.00  0.00    -0.027 C 
ATOM      3  C   UNL     1     -42.313  14.719  10.856  1.00  0.00     0.039 C 
ENDROOT
BRANCH   2   4
ATOM      4  C   UNL     1     -38.754  14.177   9.363  1.00  0.00     0.032 C 
BRANCH   4   5
ATOM      5  C   UNL     1     -37.996  12.991   9.991  1.00  0.00     0.034 C 
BRANCH   5   6
ATOM      6  C   UNL     1     -37.597  11.956   8.957  1.00  0.00    -0.077 C 
ATOM      7  C   UNL     1     -36.495  12.300   7.987  1.00  0.00     0.039 C 
ATOM      8  C   UNL     1     -38.191  10.747   8.839  1.00  0.00    -0.023 CG0
ATOM      9  G   UNL     1     -39.329  10.235   9.689  1.00  0.00     0.000 G0
ENDBRANCH   5   6
ENDBRANCH   4   5
ENDBRANCH   2   4
BRANCH   1  10
ATOM     10  C   UNL     1     -41.597  13.004   9.029  1.00  0.00     0.111 C 
BRANCH  10  11
ATOM     11  C   UNL     1     -41.493  11.630   9.644  1.00  0.00     0.163 C 
ATOM     12  O   UNL     1     -42.089  11.422  10.735  1.00  0.00    -0.294 OA
BRANCH  11  13
ATOM     13  C   UNL     1     -40.667  10.547   9.026  1.00  0.00    -0.002 C 
ATOM     14  C   UNL     1     -41.054   9.916   7.876  1.00  0.00    -0.069 C 
ATOM     15  C   UNL     1     -42.300  10.329   7.126  1.00  0.00     0.039 C 
ATOM     16  C   UNL     1     -40.232   8.795   7.276  1.00  0.00     0.039 C 
BRANCH  13  17
ATOM     17  C   UNL     1     -39.339  10.227   9.688  1.00  0.00     0.066 CG0
ATOM     18  G   UNL     1     -38.205  10.749   8.839  1.00  0.00     0.000 G0
ENDBRANCH  13  17
ENDBRANCH  11  13
ENDBRANCH  10  11
ENDBRANCH   1  10
TORSDOF 0
ENDMDL
MODEL 2
REMARK VINA RESULT:    -5.209     10.997     12.521
REMARK INTER + INTRA:          -6.845
REMARK INTER:                  -7.248
REMARK INTRA:                   0.403
REMARK UNBOUND:                 0.495
REMARK SMILES CC1=CCC(=C(C)C)C(=O)CC(C)=CCC1
REMARK SMILES IDX 12 1 14 2 13 3 15 4 16 5 2 6 1 7 3 8 11 10 9 11 10 12 5 13
REMARK SMILES IDX 6 14 7 15 8 16 4 17
REMARK H PARENT
REMARK Flexibility Score: 60.00
ROOT
ATOM      1  C   UNL     1     -31.659  15.536   2.988  1.00  0.00    -0.070 C 
ATOM      2  C   UNL     1     -30.340  15.735   3.224  1.00  0.00    -0.027 C 
ATOM      3  C   UNL     1     -32.587  16.709   3.194  1.00  0.00     0.039 C 
ENDROOT
BRANCH   2   4
ATOM      4  C   UNL     1     -29.229  14.741   2.983  1.00  0.00     0.032 C 
BRANCH   4   5
ATOM      5  C   UNL     1     -28.637  14.848   1.564  1.00  0.00     0.034 C 
BRANCH   5   6
ATOM      6  C   UNL     1     -28.343  13.488   0.963  1.00  0.00    -0.077 C 
ATOM      7  C   UNL     1     -27.110  12.753   1.425  1.00  0.00     0.039 C 
ATOM      8  C   UNL     1     -29.111  12.905   0.015  1.00  0.00    -0.023 CG0
ATOM      9  G   UNL     1     -30.359  13.495  -0.596  1.00  0.00     0.000 G0
ENDBRANCH   5   6
ENDBRANCH   4   5
ENDBRANCH   2   4
BRANCH   1  10
ATOM     10  C   UNL     1     -32.238  14.229   2.470  1.00  0.00     0.111 C 
BRANCH  10  11
ATOM     11  C   UNL     1     -32.271  14.197   0.962  1.00  0.00     0.163 C 
ATOM     12  O   UNL     1     -32.924  15.094   0.364  1.00  0.00    -0.294 OA
BRANCH  11  13
ATOM     13  C   UNL     1     -31.604  13.111   0.179  1.00  0.00    -0.002 C 
ATOM     14  C   UNL     1     -32.119  11.845   0.123  1.00  0.00    -0.069 C 
ATOM     15  C   UNL     1     -33.430  11.493   0.789  1.00  0.00     0.039 C 
ATOM     16  C   UNL     1     -31.418  10.741  -0.640  1.00  0.00     0.039 C 
BRANCH  13  17
ATOM     17  C   UNL     1     -30.368  13.491  -0.616  1.00  0.00     0.066 CG0
ATOM     18  G   UNL     1     -29.139  12.909   0.040  1.00  0.00     0.000 G0
ENDBRANCH  13  17
ENDBRANCH  11  13
ENDBRANCH  10  11
ENDBRANCH   1  10
TORSDOF 0
ENDMDL
MODEL 3
REMARK VINA RESULT:    -5.100      2.069      4.210
REMARK INTER + INTRA:          -6.691
REMARK INTER:                  -7.340
REMARK INTRA:                   0.649
REMARK UNBOUND:                 0.495
REMARK SMILES CC1=CCC(=C(C)C)C(=O)CC(C)=CCC1
REMARK SMILES IDX 12 1 14 2 13 3 15 4 16 5 2 6 1 7 3 8 11 10 9 11 10 12 5 13
REMARK SMILES IDX 6 14 7 15 8 16 4 17
REMARK H PARENT
REMARK Flexibility Score: 60.00
ROOT
ATOM      1  C   UNL     1     -39.862  13.401   9.414  1.00  0.00    -0.070 C 
ATOM      2  C   UNL     1     -39.002  12.374   9.216  1.00  0.00    -0.027 C 
ATOM      3  C   UNL     1     -39.325  14.638  10.089  1.00  0.00     0.039 C 
ENDROOT
BRANCH   2   4
ATOM      4  C   UNL     1     -39.294  11.093   8.471  1.00  0.00     0.032 C 
BRANCH   4   5
ATOM      5  C   UNL     1     -40.457  10.298   9.096  1.00  0.00     0.034 C 
BRANCH   5   6
ATOM      6  C   UNL     1     -40.297  10.132  10.594  1.00  0.00    -0.077 C 
ATOM      7  C   UNL     1     -39.091   9.386  11.107  1.00  0.00     0.039 C 
ATOM      8  C   UNL     1     -41.187  10.596  11.500  1.00  0.00    -0.023 CG0
ATOM      9  G   UNL     1     -42.466  11.334  11.183  1.00  0.00     0.000 G0
ENDBRANCH   5   6
ENDBRANCH   4   5
ENDBRANCH   2   4
BRANCH   1  10
ATOM     10  C   UNL     1     -41.306  13.396   8.938  1.00  0.00     0.111 C 
BRANCH  10  11
ATOM     11  C   UNL     1     -42.266  13.654  10.073  1.00  0.00     0.163 C 
ATOM     12  O   UNL     1     -43.080  14.609   9.956  1.00  0.00    -0.294 OA
BRANCH  11  13
ATOM     13  C   UNL     1     -42.234  12.850  11.334  1.00  0.00    -0.002 C 
ATOM     14  C   UNL     1     -42.069  13.438  12.558  1.00  0.00    -0.069 C 
ATOM     15  C   UNL     1     -41.984  14.940  12.711  1.00  0.00     0.039 C 
ATOM     16  C   UNL     1     -42.000  12.614  13.826  1.00  0.00     0.039 C 
BRANCH  13  17
ATOM     17  C   UNL     1     -42.468  11.355  11.207  1.00  0.00     0.066 CG0
ATOM     18  G   UNL     1     -41.185  10.610  11.486  1.00  0.00     0.000 G0
ENDBRANCH  13  17
ENDBRANCH  11  13
ENDBRANCH  10  11
ENDBRANCH   1  10
TORSDOF 0
ENDMDL
MODEL 4
REMARK VINA RESULT:    -5.046      8.081     10.695
REMARK INTER + INTRA:          -6.616
REMARK INTER:                  -7.176
REMARK INTRA:                   0.560
REMARK UNBOUND:                 0.495
REMARK SMILES CC1=CCC(=C(C)C)C(=O)CC(C)=CCC1
REMARK SMILES IDX 12 1 14 2 13 3 15 4 16 5 2 6 1 7 3 8 11 10 9 11 10 12 5 13
REMARK SMILES IDX 6 14 7 15 8 16 4 17
REMARK H PARENT
REMARK Flexibility Score: 60.00
ROOT
ATOM      1  C   UNL     1     -30.921  15.561   2.381  1.00  0.00    -0.070 C 
ATOM      2  C   UNL     1     -30.698  15.432   1.052  1.00  0.00    -0.027 C 
ATOM      3  C   UNL     1     -29.736  15.409   3.304  1.00  0.00     0.039 C 
ENDROOT
BRANCH   2   4
ATOM      4  C   UNL     1     -31.708  15.649  -0.050  1.00  0.00     0.032 C 
BRANCH   4   5
ATOM      5  C   UNL     1     -32.427  14.348  -0.457  1.00  0.00     0.034 C 
BRANCH   5   6
ATOM      6  C   UNL     1     -33.910  14.394  -0.146  1.00  0.00    -0.077 C 
ATOM      7  C   UNL     1     -34.825  15.088  -1.123  1.00  0.00     0.039 C 
ATOM      8  C   UNL     1     -34.459  13.869   0.973  1.00  0.00    -0.023 CG0
ATOM      9  G   UNL     1     -33.708  13.169   2.080  1.00  0.00     0.000 G0
ENDBRANCH   5   6
ENDBRANCH   4   5
ENDBRANCH   2   4
BRANCH   1  10
ATOM     10  C   UNL     1     -32.273  15.912   2.981  1.00  0.00     0.111 C 
BRANCH  10  11
ATOM     11  C   UNL     1     -32.798  14.800   3.855  1.00  0.00     0.163 C 
ATOM     12  O   UNL     1     -32.240  14.607   4.968  1.00  0.00    -0.294 OA
BRANCH  11  13
ATOM     13  C   UNL     1     -33.911  13.904   3.411  1.00  0.00    -0.002 C 
ATOM     14  C   UNL     1     -35.082  13.812   4.111  1.00  0.00    -0.069 C 
ATOM     15  C   UNL     1     -35.345  14.666   5.331  1.00  0.00     0.039 C 
ATOM     16  C   UNL     1     -36.189  12.875   3.677  1.00  0.00     0.039 C 
BRANCH  13  17
ATOM     17  C   UNL     1     -33.716  13.155   2.105  1.00  0.00     0.066 CG0
ATOM     18  G   UNL     1     -34.435  13.875   0.990  1.00  0.00     0.000 G0
ENDBRANCH  13  17
ENDBRANCH  11  13
ENDBRANCH  10  11
ENDBRANCH   1  10
TORSDOF 0
ENDMDL
MODEL 5
REMARK VINA RESULT:    -5.034      1.496      3.607
REMARK INTER + INTRA:          -6.598
REMARK INTER:                  -7.377
REMARK INTRA:                   0.779
REMARK UNBOUND:                 0.495
REMARK SMILES CC1=CCC(=C(C)C)C(=O)CC(C)=CCC1
REMARK SMILES IDX 12 1 14 2 13 3 15 4 16 5 2 6 1 7 3 8 11 10 9 11 10 12 5 13
REMARK SMILES IDX 6 14 7 15 8 16 4 17
REMARK H PARENT
REMARK Flexibility Score: 60.00
ROOT
ATOM      1  C   UNL     1     -37.943  12.081   9.182  1.00  0.00    -0.070 C 
ATOM      2  C   UNL     1     -38.210  13.404   9.069  1.00  0.00    -0.027 C 
ATOM      3  C   UNL     1     -37.208  11.419   8.043  1.00  0.00     0.039 C 
ENDROOT
BRANCH   2   4
ATOM      4  C   UNL     1     -38.835  14.284  10.125  1.00  0.00     0.032 C 
BRANCH   4   5
ATOM      5  C   UNL     1     -40.315  14.598   9.833  1.00  0.00     0.034 C 
BRANCH   5   6
ATOM      6  C   UNL     1     -41.255  13.761  10.678  1.00  0.00    -0.077 C 
ATOM      7  C   UNL     1     -41.611  14.256  12.057  1.00  0.00     0.039 C 
ATOM      8  C   UNL     1     -41.775  12.579  10.275  1.00  0.00    -0.023 CG0
ATOM      9  G   UNL     1     -41.511  11.904   8.951  1.00  0.00     0.000 G0
ENDBRANCH   5   6
ENDBRANCH   4   5
ENDBRANCH   2   4
BRANCH   1  10
ATOM     10  C   UNL     1     -38.283  11.253  10.411  1.00  0.00     0.111 C 
BRANCH  10  11
ATOM     11  C   UNL     1     -39.709  10.761  10.372  1.00  0.00     0.163 C 
ATOM     12  O   UNL     1     -40.202  10.285  11.430  1.00  0.00    -0.294 OA
BRANCH  11  13
ATOM     13  C   UNL     1     -40.516  10.774   9.112  1.00  0.00    -0.002 C 
ATOM     14  C   UNL     1     -40.402   9.784   8.175  1.00  0.00    -0.069 C 
ATOM     15  C   UNL     1     -39.511   8.583   8.396  1.00  0.00     0.039 C 
ATOM     16  C   UNL     1     -41.194   9.823   6.886  1.00  0.00     0.039 C 
BRANCH  13  17
ATOM     17  C   UNL     1     -41.524  11.897   8.949  1.00  0.00     0.066 CG0
ATOM     18  G   UNL     1     -41.760  12.571  10.279  1.00  0.00     0.000 G0
ENDBRANCH  13  17
ENDBRANCH  11  13
ENDBRANCH  10  11
ENDBRANCH   1  10
TORSDOF 0
ENDMDL
MODEL 6
REMARK VINA RESULT:    -4.998      2.115      4.661
REMARK INTER + INTRA:          -6.548
REMARK INTER:                  -7.160
REMARK INTRA:                   0.613
REMARK UNBOUND:                 0.495
REMARK SMILES CC1=CCC(=C(C)C)C(=O)CC(C)=CCC1
REMARK SMILES IDX 12 1 14 2 13 3 15 4 16 5 2 6 1 7 3 8 11 10 9 11 10 12 5 13
REMARK SMILES IDX 6 14 7 15 8 16 4 17
REMARK H PARENT
REMARK Flexibility Score: 60.00
ROOT
ATOM      1  C   UNL     1     -40.414  10.125  10.779  1.00  0.00    -0.070 C 
ATOM      2  C   UNL     1     -41.430  10.520  11.583  1.00  0.00    -0.027 C 
ATOM      3  C   UNL     1     -39.119   9.721  11.440  1.00  0.00     0.039 C 
ENDROOT
BRANCH   2   4
ATOM      4  C   UNL     1     -42.834  10.863  11.147  1.00  0.00     0.032 C 
BRANCH   4   5
ATOM      5  C   UNL     1     -43.049  12.380  10.984  1.00  0.00     0.034 C 
BRANCH   5   6
ATOM      6  C   UNL     1     -41.958  13.187  11.658  1.00  0.00    -0.077 C 
ATOM      7  C   UNL     1     -42.012  13.354  13.156  1.00  0.00     0.039 C 
ATOM      8  C   UNL     1     -40.948  13.790  10.990  1.00  0.00    -0.023 CG0
ATOM      9  G   UNL     1     -40.743  13.768   9.494  1.00  0.00     0.000 G0
ENDBRANCH   5   6
ENDBRANCH   4   5
ENDBRANCH   2   4
BRANCH   1  10
ATOM     10  C   UNL     1     -40.531  10.006   9.268  1.00  0.00     0.111 C 
BRANCH  10  11
ATOM     11  C   UNL     1     -40.674  11.358   8.614  1.00  0.00     0.163 C 
ATOM     12  O   UNL     1     -41.424  11.452   7.605  1.00  0.00    -0.294 OA
BRANCH  11  13
ATOM     13  C   UNL     1     -39.916  12.554   9.096  1.00  0.00    -0.002 C 
ATOM     14  C   UNL     1     -38.548  12.578   9.114  1.00  0.00    -0.069 C 
ATOM     15  C   UNL     1     -37.728  11.427   8.578  1.00  0.00     0.039 C 
ATOM     16  C   UNL     1     -37.788  13.778   9.638  1.00  0.00     0.039 C 
BRANCH  13  17
ATOM     17  C   UNL     1     -40.728  13.773   9.495  1.00  0.00     0.066 CG0
ATOM     18  G   UNL     1     -40.964  13.765  10.986  1.00  0.00     0.000 G0
ENDBRANCH  13  17
ENDBRANCH  11  13
ENDBRANCH  10  11
ENDBRANCH   1  10
TORSDOF 0
ENDMDL
MODEL 7
REMARK VINA RESULT:    -4.969     10.571     12.862
REMARK INTER + INTRA:          -6.507
REMARK INTER:                  -7.132
REMARK INTRA:                   0.625
REMARK UNBOUND:                 0.495
REMARK SMILES CC1=CCC(=C(C)C)C(=O)CC(C)=CCC1
REMARK SMILES IDX 12 1 14 2 13 3 15 4 16 5 2 6 1 7 3 8 11 10 9 11 10 12 5 13
REMARK SMILES IDX 6 14 7 15 8 16 4 17
REMARK H PARENT
REMARK Flexibility Score: 60.00
ROOT
ATOM      1  C   UNL     1     -30.474  15.378   2.041  1.00  0.00    -0.070 C 
ATOM      2  C   UNL     1     -29.276  15.168   1.444  1.00  0.00    -0.027 C 
ATOM      3  C   UNL     1     -30.617  14.950   3.481  1.00  0.00     0.039 C 
ENDROOT
BRANCH   2   4
ATOM      4  C   UNL     1     -28.880  15.611   0.055  1.00  0.00     0.032 C 
BRANCH   4   5
ATOM      5  C   UNL     1     -28.974  14.471  -0.977  1.00  0.00     0.034 C 
BRANCH   5   6
ATOM      6  C   UNL     1     -29.165  13.118  -0.320  1.00  0.00    -0.077 C 
ATOM      7  C   UNL     1     -27.959  12.433   0.272  1.00  0.00     0.039 C 
ATOM      8  C   UNL     1     -30.354  12.477  -0.256  1.00  0.00    -0.023 CG0
ATOM      9  G   UNL     1     -31.661  12.981  -0.818  1.00  0.00     0.000 G0
ENDBRANCH   5   6
ENDBRANCH   4   5
ENDBRANCH   2   4
BRANCH   1  10
ATOM     10  C   UNL     1     -31.644  16.073   1.365  1.00  0.00     0.111 C 
BRANCH  10  11
ATOM     11  C   UNL     1     -32.111  15.316   0.147  1.00  0.00     0.163 C 
ATOM     12  O   UNL     1     -32.303  15.965  -0.917  1.00  0.00    -0.294 OA
BRANCH  11  13
ATOM     13  C   UNL     1     -32.397  13.848   0.189  1.00  0.00    -0.002 C 
ATOM     14  C   UNL     1     -33.316  13.320   1.054  1.00  0.00    -0.069 C 
ATOM     15  C   UNL     1     -34.145  14.198   1.963  1.00  0.00     0.039 C 
ATOM     16  C   UNL     1     -33.573  11.829   1.118  1.00  0.00     0.039 C 
BRANCH  13  17
ATOM     17  C   UNL     1     -31.679  12.974  -0.823  1.00  0.00     0.066 CG0
ATOM     18  G   UNL     1     -30.366  12.499  -0.249  1.00  0.00     0.000 G0
ENDBRANCH  13  17
ENDBRANCH  11  13
ENDBRANCH  10  11
ENDBRANCH   1  10
TORSDOF 0
ENDMDL
MODEL 8
REMARK VINA RESULT:    -4.960     10.722     13.583
REMARK INTER + INTRA:          -6.495
REMARK INTER:                  -7.116
REMARK INTRA:                   0.621
REMARK UNBOUND:                 0.495
REMARK SMILES CC1=CCC(=C(C)C)C(=O)CC(C)=CCC1
REMARK SMILES IDX 12 1 14 2 13 3 15 4 16 5 2 6 1 7 3 8 11 10 9 11 10 12 5 13
REMARK SMILES IDX 6 14 7 15 8 16 4 17
REMARK H PARENT
REMARK Flexibility Score: 60.00
ROOT
ATOM      1  C   UNL     1     -29.703  12.661  -0.061  1.00  0.00    -0.070 C 
ATOM      2  C   UNL     1     -30.851  11.943  -0.097  1.00  0.00    -0.027 C 
ATOM      3  C   UNL     1     -28.583  12.138   0.804  1.00  0.00     0.039 C 
ENDROOT
BRANCH   2   4
ATOM      4  C   UNL     1     -32.052  12.221  -0.969  1.00  0.00     0.032 C 
BRANCH   4   5
ATOM      5  C   UNL     1     -32.784  13.518  -0.573  1.00  0.00     0.034 C 
BRANCH   5   6
ATOM      6  C   UNL     1     -32.950  13.644   0.929  1.00  0.00    -0.077 C 
ATOM      7  C   UNL     1     -33.839  12.653   1.637  1.00  0.00     0.039 C 
ATOM      8  C   UNL     1     -32.364  14.612   1.670  1.00  0.00    -0.023 CG0
ATOM      9  G   UNL     1     -31.472  15.710   1.142  1.00  0.00     0.000 G0
ENDBRANCH   5   6
ENDBRANCH   4   5
ENDBRANCH   2   4
BRANCH   1  10
ATOM     10  C   UNL     1     -29.464  13.915  -0.887  1.00  0.00     0.111 C 
BRANCH  10  11
ATOM     11  C   UNL     1     -29.240  15.122  -0.011  1.00  0.00     0.163 C 
ATOM     12  O   UNL     1     -28.352  15.947  -0.354  1.00  0.00    -0.294 OA
BRANCH  11  13
ATOM     13  C   UNL     1     -29.999  15.328   1.262  1.00  0.00    -0.002 C 
ATOM     14  C   UNL     1     -29.392  15.233   2.484  1.00  0.00    -0.069 C 
ATOM     15  C   UNL     1     -27.906  14.989   2.613  1.00  0.00     0.039 C 
ATOM     16  C   UNL     1     -30.174  15.406   3.769  1.00  0.00     0.039 C 
BRANCH  13  17
ATOM     17  C   UNL     1     -31.460  15.722   1.140  1.00  0.00     0.066 CG0
ATOM     18  G   UNL     1     -32.336  14.610   1.665  1.00  0.00     0.000 G0
ENDBRANCH  13  17
ENDBRANCH  11  13
ENDBRANCH  10  11
ENDBRANCH   1  10
TORSDOF 0
ENDMDL
MODEL 9
REMARK VINA RESULT:    -4.860      9.922     12.678
REMARK INTER + INTRA:          -6.353
REMARK INTER:                  -6.911
REMARK INTRA:                   0.558
REMARK UNBOUND:                 0.495
REMARK SMILES CC1=CCC(=C(C)C)C(=O)CC(C)=CCC1
REMARK SMILES IDX 12 1 14 2 13 3 15 4 16 5 2 6 1 7 3 8 11 10 9 11 10 12 5 13
REMARK SMILES IDX 6 14 7 15 8 16 4 17
REMARK H PARENT
REMARK Flexibility Score: 60.00
ROOT
ATOM      1  C   UNL     1     -28.758  14.608   2.624  1.00  0.00    -0.070 C 
ATOM      2  C   UNL     1     -29.484  15.448   3.400  1.00  0.00    -0.027 C 
ATOM      3  C   UNL     1     -27.300  14.938   2.417  1.00  0.00     0.039 C 
ENDROOT
BRANCH   2   4
ATOM      4  C   UNL     1     -30.921  15.256   3.824  1.00  0.00     0.032 C 
BRANCH   4   5
ATOM      5  C   UNL     1     -31.910  16.029   2.930  1.00  0.00     0.034 C 
BRANCH   5   6
ATOM      6  C   UNL     1     -33.002  15.133   2.379  1.00  0.00    -0.077 C 
ATOM      7  C   UNL     1     -34.181  14.814   3.263  1.00  0.00     0.039 C 
ATOM      8  C   UNL     1     -32.968  14.582   1.145  1.00  0.00    -0.023 CG0
ATOM      9  G   UNL     1     -31.863  14.753   0.131  1.00  0.00     0.000 G0
ENDBRANCH   5   6
ENDBRANCH   4   5
ENDBRANCH   2   4
BRANCH   1  10
ATOM     10  C   UNL     1     -29.311  13.331   2.014  1.00  0.00     0.111 C 
BRANCH  10  11
ATOM     11  C   UNL     1     -29.646  13.512   0.554  1.00  0.00     0.163 C 
ATOM     12  O   UNL     1     -28.703  13.761  -0.244  1.00  0.00    -0.294 OA
BRANCH  11  13
ATOM     13  C   UNL     1     -31.055  13.459   0.053  1.00  0.00    -0.002 C 
ATOM     14  C   UNL     1     -31.615  12.293  -0.393  1.00  0.00    -0.069 C 
ATOM     15  C   UNL     1     -30.866  10.981  -0.335  1.00  0.00     0.039 C 
ATOM     16  C   UNL     1     -33.028  12.254  -0.933  1.00  0.00     0.039 C 
BRANCH  13  17
ATOM     17  C   UNL     1     -31.866  14.740   0.131  1.00  0.00     0.066 CG0
ATOM     18  G   UNL     1     -32.980  14.580   1.138  1.00  0.00     0.000 G0
ENDBRANCH  13  17
ENDBRANCH  11  13
ENDBRANCH  10  11
ENDBRANCH   1  10
TORSDOF 0
ENDMDL
