MODEL 1
REMARK VINA RESULT:    -6.176      0.000      0.000
REMARK INTER + INTRA:         -12.054
REMARK INTER:                 -10.148
REMARK INTRA:                  -1.906
REMARK UNBOUND:                -1.906
REMARK SMILES COc1ccc([C@@H]2CC(=O)c3c(O)cc(O[C@@H]4O[C@H](CO[C@@H]5O[C@@H](C)[C@@H](O)[C@@H](O)[C@H]5O)[C@@H](O)[C@H](O)[C@H]4O)cc3O2)cc1O
REMARK SMILES IDX 19 1 32 2 34 3 36 4 17 5 18 6 20 7 21 8 22 9 25 10 24 11
REMARK SMILES IDX 26 12 23 13 28 14 30 15 27 16 29 18 31 20 33 22 35 24 16 26
REMARK SMILES IDX 15 27 14 28 38 29 12 30 39 31 11 32 40 33 9 34 7 35 10 36
REMARK SMILES IDX 8 37 13 38 6 40 41 41 5 42 42 43 4 44 3 45 43 46 2 48 1 49
REMARK SMILES IDX 37 50
REMARK H PARENT 27 17 29 19 31 21 33 23 35 25 13 39 43 47 37 51
REMARK Flexibility Score: inf
ROOT
ATOM      1  C   UNL     1     -57.790  23.456 -11.658  1.00  0.00     0.180 C 
ATOM      2  C   UNL     1     -57.406  24.553 -10.624  1.00  0.00     0.177 C 
ATOM      3  C   UNL     1     -56.042  24.286  -9.956  1.00  0.00     0.180 C 
ATOM      4  C   UNL     1     -55.929  22.823  -9.505  1.00  0.00     0.214 C 
ATOM      5  C   UNL     1     -56.327  21.861 -10.639  1.00  0.00     0.339 C 
ATOM      6  O   UNL     1     -57.613  22.128 -11.178  1.00  0.00    -0.332 OA
ENDROOT
BRANCH   1   7
ATOM      7  C   UNL     1     -57.170  23.667 -13.055  1.00  0.00     0.198 C 
BRANCH   7   8
ATOM      8  O   UNL     1     -57.920  24.642 -13.762  1.00  0.00    -0.347 OA
BRANCH   8   9
ATOM      9  C   UNL     1     -57.256  25.897 -13.846  1.00  0.00     0.281 C 
ATOM     10  C   UNL     1     -58.985  27.118 -16.863  1.00  0.00     0.041 C 
ATOM     11  C   UNL     1     -58.037  26.243 -16.040  1.00  0.00     0.150 C 
ATOM     12  C   UNL     1     -56.634  26.175 -16.681  1.00  0.00     0.174 C 
ATOM     13  O   UNL     1     -57.965  26.765 -14.720  1.00  0.00    -0.344 OA
ATOM     14  C   UNL     1     -55.723  25.298 -15.795  1.00  0.00     0.179 C 
ATOM     15  C   UNL     1     -55.787  25.713 -14.307  1.00  0.00     0.202 C 
BRANCH  12  16
ATOM     16  O   UNL     1     -56.090  27.465 -16.821  1.00  0.00    -0.388 OA
ATOM     17  H   UNL     1     -55.418  27.577 -16.096  1.00  0.00     0.211 HD
ENDBRANCH  12  16
BRANCH  14  18
ATOM     18  O   UNL     1     -54.400  25.263 -16.276  1.00  0.00    -0.387 OA
ATOM     19  H   UNL     1     -53.892  25.991 -15.834  1.00  0.00     0.211 HD
ENDBRANCH  14  18
BRANCH  15  20
ATOM     20  O   UNL     1     -55.029  26.873 -14.054  1.00  0.00    -0.385 OA
ATOM     21  H   UNL     1     -55.617  27.541 -13.622  1.00  0.00     0.211 HD
ENDBRANCH  15  20
ENDBRANCH   8   9
ENDBRANCH   7   8
ENDBRANCH   1   7
BRANCH   2  22
ATOM     22  O   UNL     1     -58.408  24.709  -9.648  1.00  0.00    -0.387 OA
ATOM     23  H   UNL     1     -58.396  25.650  -9.334  1.00  0.00     0.211 HD
ENDBRANCH   2  22
BRANCH   3  24
ATOM     24  O   UNL     1     -54.988  24.580 -10.837  1.00  0.00    -0.387 OA
ATOM     25  H   UNL     1     -55.388  24.714 -11.736  1.00  0.00     0.211 HD
ENDBRANCH   3  24
BRANCH   5  26
ATOM     26  O   UNL     1     -55.325  21.857 -11.658  1.00  0.00    -0.462 OA
BRANCH  26  27
ATOM     27  C   UNL     1     -55.075  20.739 -12.461  1.00  0.00     0.130 A 
ATOM     28  C   UNL     1     -54.740  19.506 -11.889  1.00  0.00     0.093 A 
ATOM     29  C   UNL     1     -55.180  20.855 -13.846  1.00  0.00     0.094 A 
ATOM     30  C   UNL     1     -54.505  18.383 -12.693  1.00  0.00     0.133 A 
ATOM     31  C   UNL     1     -54.904  19.759 -14.666  1.00  0.00     0.138 A 
ATOM     32  C   UNL     1     -54.525  18.520 -14.106  1.00  0.00     0.102 A 
ATOM     33  O   UNL     1     -55.019  19.902 -16.053  1.00  0.00    -0.484 OA
ATOM     34  C   UNL     1     -54.072  17.460 -15.047  1.00  0.00     0.174 C 
ATOM     35  C   UNL     1     -55.139  18.780 -16.934  1.00  0.00     0.211 C 
ATOM     36  O   UNL     1     -53.468  16.435 -14.631  1.00  0.00    -0.294 OA
ATOM     37  C   UNL     1     -54.133  17.682 -16.535  1.00  0.00     0.131 C 
BRANCH  30  38
ATOM     38  O   UNL     1     -54.281  17.168 -12.047  1.00  0.00    -0.507 OA
ATOM     39  H   UNL     1     -54.932  16.397 -12.062  1.00  0.00     0.293 HD
ENDBRANCH  30  38
BRANCH  35  40
ATOM     40  C   UNL     1     -56.573  18.271 -17.014  1.00  0.00    -0.003 A 
ATOM     41  C   UNL     1     -57.640  19.168 -16.833  1.00  0.00     0.057 A 
ATOM     42  C   UNL     1     -56.870  16.905 -17.181  1.00  0.00     0.011 A 
ATOM     43  C   UNL     1     -58.967  18.730 -16.861  1.00  0.00     0.158 A 
ATOM     44  C   UNL     1     -58.192  16.458 -17.201  1.00  0.00     0.051 A 
ATOM     45  C   UNL     1     -59.256  17.365 -17.045  1.00  0.00     0.160 A 
BRANCH  43  46
ATOM     46  O   UNL     1     -59.991  19.660 -16.692  1.00  0.00    -0.504 OA
ATOM     47  H   UNL     1     -60.859  19.610 -17.215  1.00  0.00     0.293 HD
ENDBRANCH  43  46
BRANCH  45  48
ATOM     48  O   UNL     1     -60.598  16.945 -17.049  1.00  0.00    -0.493 OA
ATOM     49  C   UNL     1     -61.243  16.326 -18.156  1.00  0.00     0.278 C 
ENDBRANCH  45  48
ENDBRANCH  35  40
ENDBRANCH  26  27
ENDBRANCH   5  26
BRANCH   4  50
ATOM     50  O   UNL     1     -56.744  22.584  -8.387  1.00  0.00    -0.384 OA
ATOM     51  H   UNL     1     -57.523  23.195  -8.461  1.00  0.00     0.211 HD
ENDBRANCH   4  50
TORSDOF 15
ENDMDL
MODEL 2
REMARK VINA RESULT:    -6.158      1.200      1.827
REMARK INTER + INTRA:         -12.025
REMARK INTER:                 -10.222
REMARK INTRA:                  -1.803
REMARK UNBOUND:                -1.906
REMARK SMILES COc1ccc([C@@H]2CC(=O)c3c(O)cc(O[C@@H]4O[C@H](CO[C@@H]5O[C@@H](C)[C@@H](O)[C@@H](O)[C@H]5O)[C@@H](O)[C@H](O)[C@H]4O)cc3O2)cc1O
REMARK SMILES IDX 19 1 32 2 34 3 36 4 17 5 18 6 20 7 21 8 22 9 25 10 24 11
REMARK SMILES IDX 26 12 23 13 28 14 30 15 27 16 29 18 31 20 33 22 35 24 16 26
REMARK SMILES IDX 15 27 14 28 38 29 12 30 39 31 11 32 40 33 9 34 7 35 10 36
REMARK SMILES IDX 8 37 13 38 6 40 41 41 5 42 42 43 4 44 3 45 43 46 2 48 1 49
REMARK SMILES IDX 37 50
REMARK H PARENT 27 17 29 19 31 21 33 23 35 25 13 39 43 47 37 51
REMARK Flexibility Score: inf
ROOT
ATOM      1  C   UNL     1     -57.179  23.608 -12.710  1.00  0.00     0.180 C 
ATOM      2  C   UNL     1     -56.791  24.394 -11.425  1.00  0.00     0.177 C 
ATOM      3  C   UNL     1     -55.693  23.684 -10.606  1.00  0.00     0.180 C 
ATOM      4  C   UNL     1     -56.003  22.189 -10.451  1.00  0.00     0.214 C 
ATOM      5  C   UNL     1     -56.353  21.552 -11.807  1.00  0.00     0.339 C 
ATOM      6  O   UNL     1     -57.406  22.220 -12.488  1.00  0.00    -0.332 OA
ENDROOT
BRANCH   1   7
ATOM      7  C   UNL     1     -56.246  23.870 -13.911  1.00  0.00     0.198 C 
BRANCH   7   8
ATOM      8  O   UNL     1     -56.951  24.591 -14.908  1.00  0.00    -0.347 OA
BRANCH   8   9
ATOM      9  C   UNL     1     -56.203  25.677 -15.439  1.00  0.00     0.281 C 
ATOM     10  C   UNL     1     -57.112  28.150 -12.862  1.00  0.00     0.041 C 
ATOM     11  C   UNL     1     -57.325  27.218 -14.056  1.00  0.00     0.150 C 
ATOM     12  C   UNL     1     -58.016  27.951 -15.227  1.00  0.00     0.174 C 
ATOM     13  O   UNL     1     -56.065  26.698 -14.459  1.00  0.00    -0.344 OA
ATOM     14  C   UNL     1     -58.182  26.966 -16.403  1.00  0.00     0.179 C 
ATOM     15  C   UNL     1     -56.864  26.224 -16.730  1.00  0.00     0.202 C 
BRANCH  12  16
ATOM     16  O   UNL     1     -57.262  29.070 -15.625  1.00  0.00    -0.388 OA
ATOM     17  H   UNL     1     -57.241  29.068 -16.619  1.00  0.00     0.211 HD
ENDBRANCH  12  16
BRANCH  14  18
ATOM     18  O   UNL     1     -58.729  27.593 -17.539  1.00  0.00    -0.387 OA
ATOM     19  H   UNL     1     -58.485  28.554 -17.509  1.00  0.00     0.211 HD
ENDBRANCH  14  18
BRANCH  15  20
ATOM     20  O   UNL     1     -55.970  27.038 -17.451  1.00  0.00    -0.385 OA
ATOM     21  H   UNL     1     -55.780  26.601 -18.318  1.00  0.00     0.211 HD
ENDBRANCH  15  20
ENDBRANCH   8   9
ENDBRANCH   7   8
ENDBRANCH   1   7
BRANCH   2  22
ATOM     22  O   UNL     1     -57.917  24.645 -10.620  1.00  0.00    -0.387 OA
ATOM     23  H   UNL     1     -58.033  25.627 -10.539  1.00  0.00     0.211 HD
ENDBRANCH   2  22
BRANCH   3  24
ATOM     24  O   UNL     1     -54.437  23.834 -11.220  1.00  0.00    -0.387 OA
ATOM     25  H   UNL     1     -53.773  23.968 -10.494  1.00  0.00     0.211 HD
ENDBRANCH   3  24
BRANCH   5  26
ATOM     26  O   UNL     1     -55.185  21.451 -12.622  1.00  0.00    -0.462 OA
BRANCH  26  27
ATOM     27  C   UNL     1     -54.979  20.394 -13.515  1.00  0.00     0.130 A 
ATOM     28  C   UNL     1     -54.473  19.167 -13.068  1.00  0.00     0.093 A 
ATOM     29  C   UNL     1     -55.302  20.561 -14.860  1.00  0.00     0.094 A 
ATOM     30  C   UNL     1     -54.282  18.103 -13.959  1.00  0.00     0.133 A 
ATOM     31  C   UNL     1     -55.076  19.527 -15.772  1.00  0.00     0.138 A 
ATOM     32  C   UNL     1     -54.527  18.300 -15.343  1.00  0.00     0.102 A 
ATOM     33  O   UNL     1     -55.411  19.722 -17.116  1.00  0.00    -0.484 OA
ATOM     34  C   UNL     1     -54.147  17.322 -16.399  1.00  0.00     0.174 C 
ATOM     35  C   UNL     1     -55.582  18.634 -18.030  1.00  0.00     0.211 C 
ATOM     36  O   UNL     1     -53.414  16.331 -16.134  1.00  0.00    -0.294 OA
ATOM     37  C   UNL     1     -54.450  17.603 -17.847  1.00  0.00     0.131 C 
BRANCH  30  38
ATOM     38  O   UNL     1     -53.875  16.882 -13.422  1.00  0.00    -0.507 OA
ATOM     39  H   UNL     1     -53.575  16.762 -12.465  1.00  0.00     0.293 HD
ENDBRANCH  30  38
BRANCH  35  40
ATOM     40  C   UNL     1     -56.970  18.015 -17.924  1.00  0.00    -0.003 A 
ATOM     41  C   UNL     1     -58.041  18.789 -17.442  1.00  0.00     0.057 A 
ATOM     42  C   UNL     1     -57.205  16.658 -18.216  1.00  0.00     0.011 A 
ATOM     43  C   UNL     1     -59.319  18.244 -17.295  1.00  0.00     0.158 A 
ATOM     44  C   UNL     1     -58.478  16.104 -18.063  1.00  0.00     0.051 A 
ATOM     45  C   UNL     1     -59.550  16.891 -17.604  1.00  0.00     0.160 A 
BRANCH  43  46
ATOM     46  O   UNL     1     -60.352  19.056 -16.828  1.00  0.00    -0.504 OA
ATOM     47  H   UNL     1     -60.366  20.057 -16.986  1.00  0.00     0.293 HD
ENDBRANCH  43  46
BRANCH  45  48
ATOM     48  O   UNL     1     -60.840  16.360 -17.429  1.00  0.00    -0.493 OA
ATOM     49  C   UNL     1     -61.772  16.149 -18.483  1.00  0.00     0.278 C 
ENDBRANCH  45  48
ENDBRANCH  35  40
ENDBRANCH  26  27
ENDBRANCH   5  26
BRANCH   4  50
ATOM     50  O   UNL     1     -57.069  21.994  -9.557  1.00  0.00    -0.384 OA
ATOM     51  H   UNL     1     -56.701  22.092  -8.641  1.00  0.00     0.211 HD
ENDBRANCH   4  50
TORSDOF 15
ENDMDL
MODEL 3
REMARK VINA RESULT:    -5.979      5.065      7.795
REMARK INTER + INTRA:         -11.730
REMARK INTER:                  -9.589
REMARK INTRA:                  -2.141
REMARK UNBOUND:                -1.906
REMARK SMILES COc1ccc([C@@H]2CC(=O)c3c(O)cc(O[C@@H]4O[C@H](CO[C@@H]5O[C@@H](C)[C@@H](O)[C@@H](O)[C@H]5O)[C@@H](O)[C@H](O)[C@H]4O)cc3O2)cc1O
REMARK SMILES IDX 19 1 32 2 34 3 36 4 17 5 18 6 20 7 21 8 22 9 25 10 24 11
REMARK SMILES IDX 26 12 23 13 28 14 30 15 27 16 29 18 31 20 33 22 35 24 16 26
REMARK SMILES IDX 15 27 14 28 38 29 12 30 39 31 11 32 40 33 9 34 7 35 10 36
REMARK SMILES IDX 8 37 13 38 6 40 41 41 5 42 42 43 4 44 3 45 43 46 2 48 1 49
REMARK SMILES IDX 37 50
REMARK H PARENT 27 17 29 19 31 21 33 23 35 25 13 39 43 47 37 51
REMARK Flexibility Score: inf
ROOT
ATOM      1  C   UNL     1     -55.607  23.103 -14.645  1.00  0.00     0.180 C 
ATOM      2  C   UNL     1     -56.769  22.954 -13.621  1.00  0.00     0.177 C 
ATOM      3  C   UNL     1     -56.378  23.431 -12.207  1.00  0.00     0.180 C 
ATOM      4  C   UNL     1     -55.005  22.878 -11.801  1.00  0.00     0.214 C 
ATOM      5  C   UNL     1     -53.962  23.115 -12.908  1.00  0.00     0.339 C 
ATOM      6  O   UNL     1     -54.359  22.607 -14.173  1.00  0.00    -0.332 OA
ENDROOT
BRANCH   1   7
ATOM      7  C   UNL     1     -55.490  24.515 -15.256  1.00  0.00     0.198 C 
BRANCH   7   8
ATOM      8  O   UNL     1     -56.774  25.116 -15.306  1.00  0.00    -0.347 OA
BRANCH   8   9
ATOM      9  C   UNL     1     -56.768  26.469 -14.869  1.00  0.00     0.281 C 
ATOM     10  C   UNL     1     -60.116  26.456 -13.327  1.00  0.00     0.041 C 
ATOM     11  C   UNL     1     -59.086  26.420 -14.458  1.00  0.00     0.150 C 
ATOM     12  C   UNL     1     -59.428  27.443 -15.564  1.00  0.00     0.174 C 
ATOM     13  O   UNL     1     -57.800  26.676 -13.913  1.00  0.00    -0.344 OA
ATOM     14  C   UNL     1     -58.344  27.371 -16.661  1.00  0.00     0.179 C 
ATOM     15  C   UNL     1     -56.915  27.437 -16.072  1.00  0.00     0.202 C 
BRANCH  12  16
ATOM     16  O   UNL     1     -59.502  28.743 -15.030  1.00  0.00    -0.388 OA
ATOM     17  H   UNL     1     -58.620  29.174 -15.190  1.00  0.00     0.211 HD
ENDBRANCH  12  16
BRANCH  14  18
ATOM     18  O   UNL     1     -58.546  28.341 -17.662  1.00  0.00    -0.387 OA
ATOM     19  H   UNL     1     -58.371  29.234 -17.266  1.00  0.00     0.211 HD
ENDBRANCH  14  18
BRANCH  15  20
ATOM     20  O   UNL     1     -56.557  28.750 -15.711  1.00  0.00    -0.385 OA
ATOM     21  H   UNL     1     -55.784  28.704 -15.095  1.00  0.00     0.211 HD
ENDBRANCH  15  20
ENDBRANCH   8   9
ENDBRANCH   7   8
ENDBRANCH   1   7
BRANCH   2  22
ATOM     22  O   UNL     1     -57.244  21.629 -13.576  1.00  0.00    -0.387 OA
ATOM     23  H   UNL     1     -57.964  21.577 -12.896  1.00  0.00     0.211 HD
ENDBRANCH   2  22
BRANCH   3  24
ATOM     24  O   UNL     1     -56.346  24.835 -12.145  1.00  0.00    -0.387 OA
ATOM     25  H   UNL     1     -55.638  25.138 -12.772  1.00  0.00     0.211 HD
ENDBRANCH   3  24
BRANCH   5  26
ATOM     26  O   UNL     1     -53.628  24.502 -12.983  1.00  0.00    -0.462 OA
BRANCH  26  27
ATOM     27  C   UNL     1     -52.324  24.949 -13.224  1.00  0.00     0.130 A 
ATOM     28  C   UNL     1     -51.417  25.115 -12.170  1.00  0.00     0.093 A 
ATOM     29  C   UNL     1     -51.922  25.213 -14.532  1.00  0.00     0.094 A 
ATOM     30  C   UNL     1     -50.108  25.547 -12.413  1.00  0.00     0.133 A 
ATOM     31  C   UNL     1     -50.635  25.689 -14.789  1.00  0.00     0.138 A 
ATOM     32  C   UNL     1     -49.723  25.901 -13.733  1.00  0.00     0.102 A 
ATOM     33  O   UNL     1     -50.256  25.944 -16.112  1.00  0.00    -0.484 OA
ATOM     34  C   UNL     1     -48.442  26.580 -14.068  1.00  0.00     0.174 C 
ATOM     35  C   UNL     1     -48.887  26.054 -16.511  1.00  0.00     0.211 C 
ATOM     36  O   UNL     1     -47.697  27.048 -13.165  1.00  0.00    -0.294 OA
ATOM     37  C   UNL     1     -48.105  26.915 -15.498  1.00  0.00     0.131 C 
BRANCH  30  38
ATOM     38  O   UNL     1     -49.234  25.587 -11.327  1.00  0.00    -0.507 OA
ATOM     39  H   UNL     1     -48.654  26.382 -11.103  1.00  0.00     0.293 HD
ENDBRANCH  30  38
BRANCH  35  40
ATOM     40  C   UNL     1     -48.251  24.690 -16.746  1.00  0.00    -0.003 A 
ATOM     41  C   UNL     1     -48.912  23.744 -17.549  1.00  0.00     0.057 A 
ATOM     42  C   UNL     1     -47.053  24.307 -16.113  1.00  0.00     0.011 A 
ATOM     43  C   UNL     1     -48.378  22.469 -17.754  1.00  0.00     0.158 A 
ATOM     44  C   UNL     1     -46.518  23.033 -16.306  1.00  0.00     0.051 A 
ATOM     45  C   UNL     1     -47.172  22.100 -17.132  1.00  0.00     0.160 A 
BRANCH  43  46
ATOM     46  O   UNL     1     -49.063  21.571 -18.572  1.00  0.00    -0.504 OA
ATOM     47  H   UNL     1     -50.057  21.397 -18.469  1.00  0.00     0.293 HD
ENDBRANCH  43  46
BRANCH  45  48
ATOM     48  O   UNL     1     -46.665  20.805 -17.337  1.00  0.00    -0.493 OA
ATOM     49  C   UNL     1     -45.528  20.504 -18.139  1.00  0.00     0.278 C 
ENDBRANCH  45  48
ENDBRANCH  35  40
ENDBRANCH  26  27
ENDBRANCH   5  26
BRANCH   4  50
ATOM     50  O   UNL     1     -55.086  21.503 -11.526  1.00  0.00    -0.384 OA
ATOM     51  H   UNL     1     -56.031  21.309 -11.294  1.00  0.00     0.211 HD
ENDBRANCH   4  50
TORSDOF 15
ENDMDL
MODEL 4
REMARK VINA RESULT:    -5.769      3.800      5.702
REMARK INTER + INTRA:         -11.385
REMARK INTER:                  -9.558
REMARK INTRA:                  -1.826
REMARK UNBOUND:                -1.906
REMARK SMILES COc1ccc([C@@H]2CC(=O)c3c(O)cc(O[C@@H]4O[C@H](CO[C@@H]5O[C@@H](C)[C@@H](O)[C@@H](O)[C@H]5O)[C@@H](O)[C@H](O)[C@H]4O)cc3O2)cc1O
REMARK SMILES IDX 19 1 32 2 34 3 36 4 17 5 18 6 20 7 21 8 22 9 25 10 24 11
REMARK SMILES IDX 26 12 23 13 28 14 30 15 27 16 29 18 31 20 33 22 35 24 16 26
REMARK SMILES IDX 15 27 14 28 38 29 12 30 39 31 11 32 40 33 9 34 7 35 10 36
REMARK SMILES IDX 8 37 13 38 6 40 41 41 5 42 42 43 4 44 3 45 43 46 2 48 1 49
REMARK SMILES IDX 37 50
REMARK H PARENT 27 17 29 19 31 21 33 23 35 25 13 39 43 47 37 51
REMARK Flexibility Score: inf
ROOT
ATOM      1  C   UNL     1     -54.720  24.913 -13.138  1.00  0.00     0.180 C 
ATOM      2  C   UNL     1     -54.735  24.539 -14.648  1.00  0.00     0.177 C 
ATOM      3  C   UNL     1     -55.056  23.049 -14.885  1.00  0.00     0.180 C 
ATOM      4  C   UNL     1     -54.235  22.154 -13.946  1.00  0.00     0.214 C 
ATOM      5  C   UNL     1     -54.332  22.643 -12.490  1.00  0.00     0.339 C 
ATOM      6  O   UNL     1     -53.975  24.009 -12.330  1.00  0.00    -0.332 OA
ENDROOT
BRANCH   1   7
ATOM      7  C   UNL     1     -56.115  25.218 -12.554  1.00  0.00     0.198 C 
BRANCH   7   8
ATOM      8  O   UNL     1     -56.981  25.639 -13.596  1.00  0.00    -0.347 OA
BRANCH   8   9
ATOM      9  C   UNL     1     -57.038  27.053 -13.731  1.00  0.00     0.281 C 
ATOM     10  C   UNL     1     -60.698  27.384 -13.459  1.00  0.00     0.041 C 
ATOM     11  C   UNL     1     -59.363  26.996 -14.097  1.00  0.00     0.150 C 
ATOM     12  C   UNL     1     -59.269  27.497 -15.555  1.00  0.00     0.174 C 
ATOM     13  O   UNL     1     -58.308  27.532 -13.310  1.00  0.00    -0.344 OA
ATOM     14  C   UNL     1     -57.896  27.093 -16.133  1.00  0.00     0.179 C 
ATOM     15  C   UNL     1     -56.732  27.480 -15.190  1.00  0.00     0.202 C 
BRANCH  12  16
ATOM     16  O   UNL     1     -59.435  28.893 -15.611  1.00  0.00    -0.388 OA
ATOM     17  H   UNL     1     -58.840  29.285 -14.917  1.00  0.00     0.211 HD
ENDBRANCH  12  16
BRANCH  14  18
ATOM     18  O   UNL     1     -57.707  27.595 -17.435  1.00  0.00    -0.387 OA
ATOM     19  H   UNL     1     -57.238  26.902 -17.969  1.00  0.00     0.211 HD
ENDBRANCH  14  18
BRANCH  15  20
ATOM     20  O   UNL     1     -56.433  28.854 -15.263  1.00  0.00    -0.385 OA
ATOM     21  H   UNL     1     -55.610  29.022 -14.741  1.00  0.00     0.211 HD
ENDBRANCH  15  20
ENDBRANCH   8   9
ENDBRANCH   7   8
ENDBRANCH   1   7
BRANCH   2  22
ATOM     22  O   UNL     1     -53.522  24.884 -15.273  1.00  0.00    -0.387 OA
ATOM     23  H   UNL     1     -52.978  24.061 -15.379  1.00  0.00     0.211 HD
ENDBRANCH   2  22
BRANCH   3  24
ATOM     24  O   UNL     1     -56.424  22.795 -14.687  1.00  0.00    -0.387 OA
ATOM     25  H   UNL     1     -56.613  22.953 -13.725  1.00  0.00     0.211 HD
ENDBRANCH   3  24
BRANCH   5  26
ATOM     26  O   UNL     1     -55.635  22.379 -11.965  1.00  0.00    -0.462 OA
BRANCH  26  27
ATOM     27  C   UNL     1     -55.884  21.343 -11.059  1.00  0.00     0.130 A 
ATOM     28  C   UNL     1     -57.188  21.062 -10.633  1.00  0.00     0.093 A 
ATOM     29  C   UNL     1     -54.821  20.572 -10.592  1.00  0.00     0.094 A 
ATOM     30  C   UNL     1     -57.439  20.014  -9.738  1.00  0.00     0.133 A 
ATOM     31  C   UNL     1     -55.046  19.553  -9.665  1.00  0.00     0.138 A 
ATOM     32  C   UNL     1     -56.349  19.285  -9.194  1.00  0.00     0.102 A 
ATOM     33  O   UNL     1     -53.961  18.793  -9.214  1.00  0.00    -0.484 OA
ATOM     34  C   UNL     1     -56.480  18.313  -8.075  1.00  0.00     0.174 C 
ATOM     35  C   UNL     1     -54.125  17.516  -8.588  1.00  0.00     0.211 C 
ATOM     36  O   UNL     1     -57.552  18.215  -7.419  1.00  0.00    -0.294 OA
ATOM     37  C   UNL     1     -55.273  17.573  -7.560  1.00  0.00     0.131 C 
BRANCH  30  38
ATOM     38  O   UNL     1     -58.772  19.729  -9.443  1.00  0.00    -0.507 OA
ATOM     39  H   UNL     1     -59.068  18.924  -8.911  1.00  0.00     0.293 HD
ENDBRANCH  30  38
BRANCH  35  40
ATOM     40  C   UNL     1     -54.297  16.399  -9.609  1.00  0.00    -0.003 A 
ATOM     41  C   UNL     1     -53.739  16.539 -10.892  1.00  0.00     0.057 A 
ATOM     42  C   UNL     1     -55.073  15.256  -9.339  1.00  0.00     0.011 A 
ATOM     43  C   UNL     1     -53.910  15.552 -11.867  1.00  0.00     0.158 A 
ATOM     44  C   UNL     1     -55.255  14.270 -10.311  1.00  0.00     0.051 A 
ATOM     45  C   UNL     1     -54.673  14.405 -11.585  1.00  0.00     0.160 A 
BRANCH  43  46
ATOM     46  O   UNL     1     -53.325  15.730 -13.120  1.00  0.00    -0.504 OA
ATOM     47  H   UNL     1     -53.762  16.286 -13.847  1.00  0.00     0.293 HD
ENDBRANCH  43  46
BRANCH  45  48
ATOM     48  O   UNL     1     -54.848  13.436 -12.588  1.00  0.00    -0.493 OA
ATOM     49  C   UNL     1     -53.951  12.357 -12.828  1.00  0.00     0.278 C 
ENDBRANCH  45  48
ENDBRANCH  35  40
ENDBRANCH  26  27
ENDBRANCH   5  26
BRANCH   4  50
ATOM     50  O   UNL     1     -52.887  22.128 -14.338  1.00  0.00    -0.384 OA
ATOM     51  H   UNL     1     -52.795  22.756 -15.101  1.00  0.00     0.211 HD
ENDBRANCH   4  50
TORSDOF 15
ENDMDL
MODEL 5
REMARK VINA RESULT:    -5.753      7.226     12.206
REMARK INTER + INTRA:         -11.360
REMARK INTER:                  -9.409
REMARK INTRA:                  -1.950
REMARK UNBOUND:                -1.906
REMARK SMILES COc1ccc([C@@H]2CC(=O)c3c(O)cc(O[C@@H]4O[C@H](CO[C@@H]5O[C@@H](C)[C@@H](O)[C@@H](O)[C@H]5O)[C@@H](O)[C@H](O)[C@H]4O)cc3O2)cc1O
REMARK SMILES IDX 19 1 32 2 34 3 36 4 17 5 18 6 20 7 21 8 22 9 25 10 24 11
REMARK SMILES IDX 26 12 23 13 28 14 30 15 27 16 29 18 31 20 33 22 35 24 16 26
REMARK SMILES IDX 15 27 14 28 38 29 12 30 39 31 11 32 40 33 9 34 7 35 10 36
REMARK SMILES IDX 8 37 13 38 6 40 41 41 5 42 42 43 4 44 3 45 43 46 2 48 1 49
REMARK SMILES IDX 37 50
REMARK H PARENT 27 17 29 19 31 21 33 23 35 25 13 39 43 47 37 51
REMARK Flexibility Score: inf
ROOT
ATOM      1  C   UNL     1     -56.485  17.765 -10.380  1.00  0.00     0.180 C 
ATOM      2  C   UNL     1     -55.111  18.297 -10.877  1.00  0.00     0.177 C 
ATOM      3  C   UNL     1     -54.197  18.748  -9.720  1.00  0.00     0.180 C 
ATOM      4  C   UNL     1     -54.968  19.618  -8.718  1.00  0.00     0.214 C 
ATOM      5  C   UNL     1     -56.294  18.952  -8.312  1.00  0.00     0.339 C 
ATOM      6  O   UNL     1     -57.114  18.607  -9.419  1.00  0.00    -0.332 OA
ENDROOT
BRANCH   1   7
ATOM      7  C   UNL     1     -56.464  16.284  -9.944  1.00  0.00     0.198 C 
BRANCH   7   8
ATOM      8  O   UNL     1     -55.853  15.503 -10.959  1.00  0.00    -0.347 OA
BRANCH   8   9
ATOM      9  C   UNL     1     -54.842  14.639 -10.458  1.00  0.00     0.281 C 
ATOM     10  C   UNL     1     -51.994  16.254 -12.150  1.00  0.00     0.041 C 
ATOM     11  C   UNL     1     -53.282  15.437 -12.031  1.00  0.00     0.150 C 
ATOM     12  C   UNL     1     -53.168  14.093 -12.783  1.00  0.00     0.174 C 
ATOM     13  O   UNL     1     -53.561  15.225 -10.654  1.00  0.00    -0.344 OA
ATOM     14  C   UNL     1     -54.487  13.310 -12.607  1.00  0.00     0.179 C 
ATOM     15  C   UNL     1     -54.929  13.242 -11.126  1.00  0.00     0.202 C 
BRANCH  12  16
ATOM     16  O   UNL     1     -52.082  13.343 -12.295  1.00  0.00    -0.388 OA
ATOM     17  H   UNL     1     -51.440  13.988 -11.894  1.00  0.00     0.211 HD
ENDBRANCH  12  16
BRANCH  14  18
ATOM     18  O   UNL     1     -54.422  12.033 -13.196  1.00  0.00    -0.387 OA
ATOM     19  H   UNL     1     -53.512  11.912 -13.572  1.00  0.00     0.211 HD
ENDBRANCH  14  18
BRANCH  15  20
ATOM     20  O   UNL     1     -54.189  12.288 -10.402  1.00  0.00    -0.385 OA
ATOM     21  H   UNL     1     -53.314  12.168 -10.849  1.00  0.00     0.211 HD
ENDBRANCH  15  20
ENDBRANCH   8   9
ENDBRANCH   7   8
ENDBRANCH   1   7
BRANCH   2  22
ATOM     22  O   UNL     1     -55.272  19.339 -11.809  1.00  0.00    -0.387 OA
ATOM     23  H   UNL     1     -55.672  20.118 -11.342  1.00  0.00     0.211 HD
ENDBRANCH   2  22
BRANCH   3  24
ATOM     24  O   UNL     1     -53.657  17.638  -9.047  1.00  0.00    -0.387 OA
ATOM     25  H   UNL     1     -53.534  17.904  -8.099  1.00  0.00     0.211 HD
ENDBRANCH   3  24
BRANCH   5  26
ATOM     26  O   UNL     1     -56.044  17.821  -7.475  1.00  0.00    -0.462 OA
BRANCH  26  27
ATOM     27  C   UNL     1     -55.665  17.947  -6.135  1.00  0.00     0.130 A 
ATOM     28  C   UNL     1     -56.588  18.356  -5.164  1.00  0.00     0.093 A 
ATOM     29  C   UNL     1     -54.357  17.643  -5.762  1.00  0.00     0.094 A 
ATOM     30  C   UNL     1     -56.213  18.467  -3.820  1.00  0.00     0.133 A 
ATOM     31  C   UNL     1     -53.952  17.791  -4.434  1.00  0.00     0.138 A 
ATOM     32  C   UNL     1     -54.860  18.243  -3.452  1.00  0.00     0.102 A 
ATOM     33  O   UNL     1     -52.634  17.477  -4.087  1.00  0.00    -0.484 OA
ATOM     34  C   UNL     1     -54.306  18.550  -2.106  1.00  0.00     0.174 C 
ATOM     35  C   UNL     1     -52.234  17.225  -2.735  1.00  0.00     0.211 C 
ATOM     36  O   UNL     1     -54.975  19.203  -1.260  1.00  0.00    -0.294 OA
ATOM     37  C   UNL     1     -52.859  18.274  -1.793  1.00  0.00     0.131 C 
BRANCH  30  38
ATOM     38  O   UNL     1     -57.213  18.777  -2.898  1.00  0.00    -0.507 OA
ATOM     39  H   UNL     1     -57.436  18.203  -2.099  1.00  0.00     0.293 HD
ENDBRANCH  30  38
BRANCH  35  40
ATOM     40  C   UNL     1     -52.534  15.793  -2.311  1.00  0.00    -0.003 A 
ATOM     41  C   UNL     1     -51.880  14.727  -2.953  1.00  0.00     0.057 A 
ATOM     42  C   UNL     1     -53.515  15.492  -1.347  1.00  0.00     0.011 A 
ATOM     43  C   UNL     1     -52.159  13.399  -2.616  1.00  0.00     0.158 A 
ATOM     44  C   UNL     1     -53.805  14.168  -1.012  1.00  0.00     0.051 A 
ATOM     45  C   UNL     1     -53.128  13.107  -1.640  1.00  0.00     0.160 A 
BRANCH  43  46
ATOM     46  O   UNL     1     -51.473  12.377  -3.270  1.00  0.00    -0.504 OA
ATOM     47  H   UNL     1     -51.559  12.220  -4.269  1.00  0.00     0.293 HD
ENDBRANCH  43  46
BRANCH  45  48
ATOM     48  O   UNL     1     -53.406  11.763  -1.333  1.00  0.00    -0.493 OA
ATOM     49  C   UNL     1     -54.125  11.333  -0.183  1.00  0.00     0.278 C 
ENDBRANCH  45  48
ENDBRANCH  35  40
ENDBRANCH  26  27
ENDBRANCH   5  26
BRANCH   4  50
ATOM     50  O   UNL     1     -55.233  20.885  -9.263  1.00  0.00    -0.384 OA
ATOM     51  H   UNL     1     -56.215  20.947  -9.389  1.00  0.00     0.211 HD
ENDBRANCH   4  50
TORSDOF 15
ENDMDL
MODEL 6
REMARK VINA RESULT:    -5.753      2.115      3.764
REMARK INTER + INTRA:         -11.359
REMARK INTER:                  -9.434
REMARK INTRA:                  -1.925
REMARK UNBOUND:                -1.906
REMARK SMILES COc1ccc([C@@H]2CC(=O)c3c(O)cc(O[C@@H]4O[C@H](CO[C@@H]5O[C@@H](C)[C@@H](O)[C@@H](O)[C@H]5O)[C@@H](O)[C@H](O)[C@H]4O)cc3O2)cc1O
REMARK SMILES IDX 19 1 32 2 34 3 36 4 17 5 18 6 20 7 21 8 22 9 25 10 24 11
REMARK SMILES IDX 26 12 23 13 28 14 30 15 27 16 29 18 31 20 33 22 35 24 16 26
REMARK SMILES IDX 15 27 14 28 38 29 12 30 39 31 11 32 40 33 9 34 7 35 10 36
REMARK SMILES IDX 8 37 13 38 6 40 41 41 5 42 42 43 4 44 3 45 43 46 2 48 1 49
REMARK SMILES IDX 37 50
REMARK H PARENT 27 17 29 19 31 21 33 23 35 25 13 39 43 47 37 51
REMARK Flexibility Score: inf
ROOT
ATOM      1  C   UNL     1     -56.055  26.336 -12.406  1.00  0.00     0.180 C 
ATOM      2  C   UNL     1     -56.209  26.889 -13.852  1.00  0.00     0.177 C 
ATOM      3  C   UNL     1     -55.977  25.808 -14.927  1.00  0.00     0.180 C 
ATOM      4  C   UNL     1     -54.719  24.985 -14.618  1.00  0.00     0.214 C 
ATOM      5  C   UNL     1     -54.720  24.498 -13.158  1.00  0.00     0.339 C 
ATOM      6  O   UNL     1     -54.886  25.547 -12.215  1.00  0.00    -0.332 OA
ENDROOT
BRANCH   1   7
ATOM      7  C   UNL     1     -57.326  25.653 -11.859  1.00  0.00     0.198 C 
BRANCH   7   8
ATOM      8  O   UNL     1     -58.400  26.580 -11.867  1.00  0.00    -0.347 OA
BRANCH   8   9
ATOM      9  C   UNL     1     -59.607  26.022 -12.370  1.00  0.00     0.281 C 
ATOM     10  C   UNL     1     -59.454  27.565 -15.714  1.00  0.00     0.041 C 
ATOM     11  C   UNL     1     -59.618  27.512 -14.194  1.00  0.00     0.150 C 
ATOM     12  C   UNL     1     -60.895  28.252 -13.739  1.00  0.00     0.174 C 
ATOM     13  O   UNL     1     -59.650  26.151 -13.786  1.00  0.00    -0.344 OA
ATOM     14  C   UNL     1     -61.013  28.145 -12.203  1.00  0.00     0.179 C 
ATOM     15  C   UNL     1     -60.840  26.689 -11.708  1.00  0.00     0.202 C 
BRANCH  12  16
ATOM     16  O   UNL     1     -62.033  27.705 -14.359  1.00  0.00    -0.388 OA
ATOM     17  H   UNL     1     -61.710  27.137 -15.110  1.00  0.00     0.211 HD
ENDBRANCH  12  16
BRANCH  14  18
ATOM     18  O   UNL     1     -62.204  28.725 -11.727  1.00  0.00    -0.387 OA
ATOM     19  H   UNL     1     -61.964  29.432 -11.074  1.00  0.00     0.211 HD
ENDBRANCH  14  18
BRANCH  15  20
ATOM     20  O   UNL     1     -62.003  25.923 -11.918  1.00  0.00    -0.385 OA
ATOM     21  H   UNL     1     -61.790  25.202 -12.561  1.00  0.00     0.211 HD
ENDBRANCH  15  20
ENDBRANCH   8   9
ENDBRANCH   7   8
ENDBRANCH   1   7
BRANCH   2  22
ATOM     22  O   UNL     1     -55.357  27.988 -14.073  1.00  0.00    -0.387 OA
ATOM     23  H   UNL     1     -54.433  27.724 -13.828  1.00  0.00     0.211 HD
ENDBRANCH   2  22
BRANCH   3  24
ATOM     24  O   UNL     1     -57.083  24.944 -15.013  1.00  0.00    -0.387 OA
ATOM     25  H   UNL     1     -57.475  25.062 -15.918  1.00  0.00     0.211 HD
ENDBRANCH   3  24
BRANCH   5  26
ATOM     26  O   UNL     1     -55.702  23.476 -12.979  1.00  0.00    -0.462 OA
BRANCH  26  27
ATOM     27  C   UNL     1     -55.451  22.132 -13.279  1.00  0.00     0.130 A 
ATOM     28  C   UNL     1     -55.281  21.189 -12.258  1.00  0.00     0.093 A 
ATOM     29  C   UNL     1     -55.390  21.729 -14.612  1.00  0.00     0.094 A 
ATOM     30  C   UNL     1     -55.045  19.842 -12.559  1.00  0.00     0.133 A 
ATOM     31  C   UNL     1     -55.111  20.399 -14.932  1.00  0.00     0.138 A 
ATOM     32  C   UNL     1     -54.895  19.445 -13.914  1.00  0.00     0.102 A 
ATOM     33  O   UNL     1     -55.058  20.020 -16.278  1.00  0.00    -0.484 OA
ATOM     34  C   UNL     1     -54.424  18.098 -14.335  1.00  0.00     0.174 C 
ATOM     35  C   UNL     1     -55.166  18.656 -16.697  1.00  0.00     0.211 C 
ATOM     36  O   UNL     1     -53.953  17.282 -13.497  1.00  0.00    -0.294 OA
ATOM     37  C   UNL     1     -54.300  17.753 -15.795  1.00  0.00     0.131 C 
BRANCH  30  38
ATOM     38  O   UNL     1     -54.991  18.947 -11.491  1.00  0.00    -0.507 OA
ATOM     39  H   UNL     1     -55.620  18.164 -11.383  1.00  0.00     0.293 HD
ENDBRANCH  30  38
BRANCH  35  40
ATOM     40  C   UNL     1     -56.617  18.199 -16.776  1.00  0.00    -0.003 A 
ATOM     41  C   UNL     1     -57.649  19.153 -16.750  1.00  0.00     0.057 A 
ATOM     42  C   UNL     1     -56.968  16.835 -16.791  1.00  0.00     0.011 A 
ATOM     43  C   UNL     1     -58.992  18.768 -16.782  1.00  0.00     0.158 A 
ATOM     44  C   UNL     1     -58.308  16.443 -16.813  1.00  0.00     0.051 A 
ATOM     45  C   UNL     1     -59.335  17.404 -16.813  1.00  0.00     0.160 A 
BRANCH  43  46
ATOM     46  O   UNL     1     -59.979  19.753 -16.770  1.00  0.00    -0.504 OA
ATOM     47  H   UNL     1     -59.767  20.733 -16.919  1.00  0.00     0.293 HD
ENDBRANCH  43  46
BRANCH  45  48
ATOM     48  O   UNL     1     -60.693  17.041 -16.824  1.00  0.00    -0.493 OA
ATOM     49  C   UNL     1     -61.339  16.378 -17.905  1.00  0.00     0.278 C 
ENDBRANCH  45  48
ENDBRANCH  35  40
ENDBRANCH  26  27
ENDBRANCH   5  26
BRANCH   4  50
ATOM     50  O   UNL     1     -53.560  25.744 -14.852  1.00  0.00    -0.384 OA
ATOM     51  H   UNL     1     -53.093  25.328 -15.623  1.00  0.00     0.211 HD
ENDBRANCH   4  50
TORSDOF 15
ENDMDL
MODEL 7
REMARK VINA RESULT:    -5.624      2.616      5.996
REMARK INTER + INTRA:         -11.148
REMARK INTER:                  -9.782
REMARK INTRA:                  -1.365
REMARK UNBOUND:                -1.906
REMARK SMILES COc1ccc([C@@H]2CC(=O)c3c(O)cc(O[C@@H]4O[C@H](CO[C@@H]5O[C@@H](C)[C@@H](O)[C@@H](O)[C@H]5O)[C@@H](O)[C@H](O)[C@H]4O)cc3O2)cc1O
REMARK SMILES IDX 19 1 32 2 34 3 36 4 17 5 18 6 20 7 21 8 22 9 25 10 24 11
REMARK SMILES IDX 26 12 23 13 28 14 30 15 27 16 29 18 31 20 33 22 35 24 16 26
REMARK SMILES IDX 15 27 14 28 38 29 12 30 39 31 11 32 40 33 9 34 7 35 10 36
REMARK SMILES IDX 8 37 13 38 6 40 41 41 5 42 42 43 4 44 3 45 43 46 2 48 1 49
REMARK SMILES IDX 37 50
REMARK H PARENT 27 17 29 19 31 21 33 23 35 25 13 39 43 47 37 51
REMARK Flexibility Score: inf
ROOT
ATOM      1  C   UNL     1     -57.819  28.733 -15.354  1.00  0.00     0.180 C 
ATOM      2  C   UNL     1     -58.733  27.992 -16.371  1.00  0.00     0.177 C 
ATOM      3  C   UNL     1     -58.624  26.458 -16.258  1.00  0.00     0.180 C 
ATOM      4  C   UNL     1     -57.156  26.016 -16.178  1.00  0.00     0.214 C 
ATOM      5  C   UNL     1     -56.389  26.829 -15.120  1.00  0.00     0.339 C 
ATOM      6  O   UNL     1     -56.487  28.233 -15.309  1.00  0.00    -0.332 OA
ENDROOT
BRANCH   1   7
ATOM      7  C   UNL     1     -58.441  28.886 -13.950  1.00  0.00     0.198 C 
BRANCH   7   8
ATOM      8  O   UNL     1     -59.768  28.385 -13.964  1.00  0.00    -0.347 OA
BRANCH   8   9
ATOM      9  C   UNL     1     -60.558  28.884 -12.893  1.00  0.00     0.281 C 
ATOM     10  C   UNL     1     -58.403  27.691 -10.151  1.00  0.00     0.041 C 
ATOM     11  C   UNL     1     -59.380  27.582 -11.324  1.00  0.00     0.150 C 
ATOM     12  C   UNL     1     -60.593  26.695 -10.966  1.00  0.00     0.174 C 
ATOM     13  O   UNL     1     -59.800  28.889 -11.690  1.00  0.00    -0.344 OA
ATOM     14  C   UNL     1     -61.547  26.644 -12.178  1.00  0.00     0.179 C 
ATOM     15  C   UNL     1     -61.858  28.054 -12.733  1.00  0.00     0.202 C 
BRANCH  12  16
ATOM     16  O   UNL     1     -61.260  27.202  -9.835  1.00  0.00    -0.388 OA
ATOM     17  H   UNL     1     -61.535  26.420  -9.285  1.00  0.00     0.211 HD
ENDBRANCH  12  16
BRANCH  14  18
ATOM     18  O   UNL     1     -62.721  25.920 -11.891  1.00  0.00    -0.387 OA
ATOM     19  H   UNL     1     -63.167  26.350 -11.116  1.00  0.00     0.211 HD
ENDBRANCH  14  18
BRANCH  15  20
ATOM     20  O   UNL     1     -62.799  28.734 -11.937  1.00  0.00    -0.385 OA
ATOM     21  H   UNL     1     -62.318  29.169 -11.190  1.00  0.00     0.211 HD
ENDBRANCH  15  20
ENDBRANCH   8   9
ENDBRANCH   7   8
ENDBRANCH   1   7
BRANCH   2  22
ATOM     22  O   UNL     1     -58.470  28.405 -17.691  1.00  0.00    -0.387 OA
ATOM     23  H   UNL     1     -57.915  29.226 -17.658  1.00  0.00     0.211 HD
ENDBRANCH   2  22
BRANCH   3  24
ATOM     24  O   UNL     1     -59.308  25.991 -15.122  1.00  0.00    -0.387 OA
ATOM     25  H   UNL     1     -58.936  26.474 -14.339  1.00  0.00     0.211 HD
ENDBRANCH   3  24
BRANCH   5  26
ATOM     26  O   UNL     1     -56.806  26.449 -13.807  1.00  0.00    -0.462 OA
BRANCH  26  27
ATOM     27  C   UNL     1     -56.648  25.149 -13.315  1.00  0.00     0.130 A 
ATOM     28  C   UNL     1     -57.582  24.599 -12.429  1.00  0.00     0.093 A 
ATOM     29  C   UNL     1     -55.555  24.389 -13.729  1.00  0.00     0.094 A 
ATOM     30  C   UNL     1     -57.432  23.292 -11.949  1.00  0.00     0.133 A 
ATOM     31  C   UNL     1     -55.364  23.100 -13.226  1.00  0.00     0.138 A 
ATOM     32  C   UNL     1     -56.275  22.548 -12.300  1.00  0.00     0.102 A 
ATOM     33  O   UNL     1     -54.260  22.359 -13.660  1.00  0.00    -0.484 OA
ATOM     34  C   UNL     1     -55.903  21.250 -11.675  1.00  0.00     0.174 C 
ATOM     35  C   UNL     1     -54.185  20.937 -13.517  1.00  0.00     0.211 C 
ATOM     36  O   UNL     1     -56.510  20.822 -10.656  1.00  0.00    -0.294 OA
ATOM     37  C   UNL     1     -54.660  20.520 -12.110  1.00  0.00     0.131 C 
BRANCH  30  38
ATOM     38  O   UNL     1     -58.457  22.779 -11.155  1.00  0.00    -0.507 OA
ATOM     39  H   UNL     1     -58.531  22.939 -10.162  1.00  0.00     0.293 HD
ENDBRANCH  30  38
BRANCH  35  40
ATOM     40  C   UNL     1     -54.927  20.213 -14.632  1.00  0.00    -0.003 A 
ATOM     41  C   UNL     1     -54.442  18.980 -15.104  1.00  0.00     0.057 A 
ATOM     42  C   UNL     1     -56.046  20.779 -15.273  1.00  0.00     0.011 A 
ATOM     43  C   UNL     1     -55.075  18.306 -16.152  1.00  0.00     0.158 A 
ATOM     44  C   UNL     1     -56.678  20.116 -16.326  1.00  0.00     0.051 A 
ATOM     45  C   UNL     1     -56.203  18.871 -16.776  1.00  0.00     0.160 A 
BRANCH  43  46
ATOM     46  O   UNL     1     -54.566  17.079 -16.574  1.00  0.00    -0.504 OA
ATOM     47  H   UNL     1     -54.109  16.435 -15.937  1.00  0.00     0.293 HD
ENDBRANCH  43  46
BRANCH  45  48
ATOM     48  O   UNL     1     -56.810  18.184 -17.842  1.00  0.00    -0.493 OA
ATOM     49  C   UNL     1     -57.810  18.738 -18.689  1.00  0.00     0.278 C 
ENDBRANCH  45  48
ENDBRANCH  35  40
ENDBRANCH  26  27
ENDBRANCH   5  26
BRANCH   4  50
ATOM     50  O   UNL     1     -56.525  26.164 -17.424  1.00  0.00    -0.384 OA
ATOM     51  H   UNL     1     -56.523  27.135 -17.634  1.00  0.00     0.211 HD
ENDBRANCH   4  50
TORSDOF 15
ENDMDL
MODEL 8
REMARK VINA RESULT:    -5.613      1.855      3.026
REMARK INTER + INTRA:         -11.129
REMARK INTER:                  -9.042
REMARK INTRA:                  -2.087
REMARK UNBOUND:                -1.906
REMARK SMILES COc1ccc([C@@H]2CC(=O)c3c(O)cc(O[C@@H]4O[C@H](CO[C@@H]5O[C@@H](C)[C@@H](O)[C@@H](O)[C@H]5O)[C@@H](O)[C@H](O)[C@H]4O)cc3O2)cc1O
REMARK SMILES IDX 19 1 32 2 34 3 36 4 17 5 18 6 20 7 21 8 22 9 25 10 24 11
REMARK SMILES IDX 26 12 23 13 28 14 30 15 27 16 29 18 31 20 33 22 35 24 16 26
REMARK SMILES IDX 15 27 14 28 38 29 12 30 39 31 11 32 40 33 9 34 7 35 10 36
REMARK SMILES IDX 8 37 13 38 6 40 41 41 5 42 42 43 4 44 3 45 43 46 2 48 1 49
REMARK SMILES IDX 37 50
REMARK H PARENT 27 17 29 19 31 21 33 23 35 25 13 39 43 47 37 51
REMARK Flexibility Score: inf
ROOT
ATOM      1  C   UNL     1     -54.317  25.336 -12.246  1.00  0.00     0.180 C 
ATOM      2  C   UNL     1     -53.544  25.895 -13.476  1.00  0.00     0.177 C 
ATOM      3  C   UNL     1     -53.102  24.787 -14.452  1.00  0.00     0.180 C 
ATOM      4  C   UNL     1     -52.467  23.611 -13.697  1.00  0.00     0.214 C 
ATOM      5  C   UNL     1     -53.354  23.163 -12.522  1.00  0.00     0.339 C 
ATOM      6  O   UNL     1     -53.684  24.219 -11.631  1.00  0.00    -0.332 OA
ENDROOT
BRANCH   1   7
ATOM      7  C   UNL     1     -55.818  25.096 -12.506  1.00  0.00     0.198 C 
BRANCH   7   8
ATOM      8  O   UNL     1     -56.306  26.084 -13.401  1.00  0.00    -0.347 OA
BRANCH   8   9
ATOM      9  C   UNL     1     -57.418  25.636 -14.165  1.00  0.00     0.281 C 
ATOM     10  C   UNL     1     -55.922  26.176 -17.490  1.00  0.00     0.041 C 
ATOM     11  C   UNL     1     -56.524  26.561 -16.138  1.00  0.00     0.150 C 
ATOM     12  C   UNL     1     -57.645  27.612 -16.299  1.00  0.00     0.174 C 
ATOM     13  O   UNL     1     -57.017  25.388 -15.507  1.00  0.00    -0.344 OA
ATOM     14  C   UNL     1     -58.223  27.941 -14.906  1.00  0.00     0.179 C 
ATOM     15  C   UNL     1     -58.577  26.665 -14.107  1.00  0.00     0.202 C 
BRANCH  12  16
ATOM     16  O   UNL     1     -58.656  27.130 -17.150  1.00  0.00    -0.388 OA
ATOM     17  H   UNL     1     -59.511  27.181 -16.643  1.00  0.00     0.211 HD
ENDBRANCH  12  16
BRANCH  14  18
ATOM     18  O   UNL     1     -59.311  28.831 -14.987  1.00  0.00    -0.387 OA
ATOM     19  H   UNL     1     -59.283  29.274 -15.874  1.00  0.00     0.211 HD
ENDBRANCH  14  18
BRANCH  15  20
ATOM     20  O   UNL     1     -59.785  26.091 -14.546  1.00  0.00    -0.385 OA
ATOM     21  H   UNL     1     -59.672  25.808 -15.487  1.00  0.00     0.211 HD
ENDBRANCH  15  20
ENDBRANCH   8   9
ENDBRANCH   7   8
ENDBRANCH   1   7
BRANCH   2  22
ATOM     22  O   UNL     1     -52.437  26.667 -13.076  1.00  0.00    -0.387 OA
ATOM     23  H   UNL     1     -51.734  26.590 -13.772  1.00  0.00     0.211 HD
ENDBRANCH   2  22
BRANCH   3  24
ATOM     24  O   UNL     1     -54.194  24.317 -15.202  1.00  0.00    -0.387 OA
ATOM     25  H   UNL     1     -54.661  25.114 -15.567  1.00  0.00     0.211 HD
ENDBRANCH   3  24
BRANCH   5  26
ATOM     26  O   UNL     1     -54.525  22.506 -13.009  1.00  0.00    -0.462 OA
BRANCH  26  27
ATOM     27  C   UNL     1     -54.518  21.173 -13.432  1.00  0.00     0.130 A 
ATOM     28  C   UNL     1     -54.475  20.126 -12.503  1.00  0.00     0.093 A 
ATOM     29  C   UNL     1     -54.573  20.887 -14.795  1.00  0.00     0.094 A 
ATOM     30  C   UNL     1     -54.483  18.791 -12.927  1.00  0.00     0.133 A 
ATOM     31  C   UNL     1     -54.536  19.564 -15.239  1.00  0.00     0.138 A 
ATOM     32  C   UNL     1     -54.451  18.499 -14.316  1.00  0.00     0.102 A 
ATOM     33  O   UNL     1     -54.595  19.306 -16.612  1.00  0.00    -0.484 OA
ATOM     34  C   UNL     1     -54.231  17.136 -14.871  1.00  0.00     0.174 C 
ATOM     35  C   UNL     1     -54.948  18.022 -17.139  1.00  0.00     0.211 C 
ATOM     36  O   UNL     1     -53.877  16.180 -14.128  1.00  0.00    -0.294 OA
ATOM     37  C   UNL     1     -54.218  16.910 -16.360  1.00  0.00     0.131 C 
BRANCH  30  38
ATOM     38  O   UNL     1     -54.545  17.806 -11.941  1.00  0.00    -0.507 OA
ATOM     39  H   UNL     1     -54.742  16.834 -12.132  1.00  0.00     0.293 HD
ENDBRANCH  30  38
BRANCH  35  40
ATOM     40  C   UNL     1     -56.458  17.822 -17.183  1.00  0.00    -0.003 A 
ATOM     41  C   UNL     1     -57.309  18.853 -16.746  1.00  0.00     0.057 A 
ATOM     42  C   UNL     1     -57.036  16.599 -17.573  1.00  0.00     0.011 A 
ATOM     43  C   UNL     1     -58.697  18.690 -16.737  1.00  0.00     0.158 A 
ATOM     44  C   UNL     1     -58.421  16.426 -17.557  1.00  0.00     0.051 A 
ATOM     45  C   UNL     1     -59.268  17.470 -17.143  1.00  0.00     0.160 A 
BRANCH  43  46
ATOM     46  O   UNL     1     -59.500  19.747 -16.309  1.00  0.00    -0.504 OA
ATOM     47  H   UNL     1     -59.424  20.678 -16.704  1.00  0.00     0.293 HD
ENDBRANCH  43  46
BRANCH  45  48
ATOM     48  O   UNL     1     -60.666  17.324 -17.105  1.00  0.00    -0.493 OA
ATOM     49  C   UNL     1     -61.392  16.350 -17.847  1.00  0.00     0.278 C 
ENDBRANCH  45  48
ENDBRANCH  35  40
ENDBRANCH  26  27
ENDBRANCH   5  26
BRANCH   4  50
ATOM     50  O   UNL     1     -51.196  23.962 -13.212  1.00  0.00    -0.384 OA
ATOM     51  H   UNL     1     -51.330  24.683 -12.544  1.00  0.00     0.211 HD
ENDBRANCH   4  50
TORSDOF 15
ENDMDL
MODEL 9
REMARK VINA RESULT:    -5.529      3.795      5.878
REMARK INTER + INTRA:         -10.991
REMARK INTER:                  -8.791
REMARK INTRA:                  -2.200
REMARK UNBOUND:                -1.906
REMARK SMILES COc1ccc([C@@H]2CC(=O)c3c(O)cc(O[C@@H]4O[C@H](CO[C@@H]5O[C@@H](C)[C@@H](O)[C@@H](O)[C@H]5O)[C@@H](O)[C@H](O)[C@H]4O)cc3O2)cc1O
REMARK SMILES IDX 19 1 32 2 34 3 36 4 17 5 18 6 20 7 21 8 22 9 25 10 24 11
REMARK SMILES IDX 26 12 23 13 28 14 30 15 27 16 29 18 31 20 33 22 35 24 16 26
REMARK SMILES IDX 15 27 14 28 38 29 12 30 39 31 11 32 40 33 9 34 7 35 10 36
REMARK SMILES IDX 8 37 13 38 6 40 41 41 5 42 42 43 4 44 3 45 43 46 2 48 1 49
REMARK SMILES IDX 37 50
REMARK H PARENT 27 17 29 19 31 21 33 23 35 25 13 39 43 47 37 51
REMARK Flexibility Score: inf
ROOT
ATOM      1  C   UNL     1     -55.636  25.460 -12.322  1.00  0.00     0.180 C 
ATOM      2  C   UNL     1     -55.646  26.039 -13.766  1.00  0.00     0.177 C 
ATOM      3  C   UNL     1     -55.830  24.948 -14.840  1.00  0.00     0.180 C 
ATOM      4  C   UNL     1     -54.909  23.750 -14.569  1.00  0.00     0.214 C 
ATOM      5  C   UNL     1     -55.022  23.285 -13.107  1.00  0.00     0.339 C 
ATOM      6  O   UNL     1     -54.792  24.323 -12.166  1.00  0.00    -0.332 OA
ENDROOT
BRANCH   1   7
ATOM      7  C   UNL     1     -57.041  25.241 -11.725  1.00  0.00     0.198 C 
BRANCH   7   8
ATOM      8  O   UNL     1     -57.902  26.286 -12.147  1.00  0.00    -0.347 OA
BRANCH   8   9
ATOM      9  C   UNL     1     -59.202  25.827 -12.492  1.00  0.00     0.281 C 
ATOM     10  C   UNL     1     -59.292  27.247 -15.892  1.00  0.00     0.041 C 
ATOM     11  C   UNL     1     -59.288  27.255 -14.362  1.00  0.00     0.150 C 
ATOM     12  C   UNL     1     -60.436  28.123 -13.800  1.00  0.00     0.174 C 
ATOM     13  O   UNL     1     -59.393  25.916 -13.899  1.00  0.00    -0.344 OA
ATOM     14  C   UNL     1     -60.389  28.073 -12.258  1.00  0.00     0.179 C 
ATOM     15  C   UNL     1     -60.290  26.623 -11.726  1.00  0.00     0.202 C 
BRANCH  12  16
ATOM     16  O   UNL     1     -61.680  27.663 -14.270  1.00  0.00    -0.388 OA
ATOM     17  H   UNL     1     -62.341  28.385 -14.096  1.00  0.00     0.211 HD
ENDBRANCH  12  16
BRANCH  14  18
ATOM     18  O   UNL     1     -61.463  28.774 -11.678  1.00  0.00    -0.387 OA
ATOM     19  H   UNL     1     -62.269  28.621 -12.235  1.00  0.00     0.211 HD
ENDBRANCH  14  18
BRANCH  15  20
ATOM     20  O   UNL     1     -61.531  25.961 -11.777  1.00  0.00    -0.385 OA
ATOM     21  H   UNL     1     -61.428  25.147 -12.329  1.00  0.00     0.211 HD
ENDBRANCH  15  20
ENDBRANCH   8   9
ENDBRANCH   7   8
ENDBRANCH   1   7
BRANCH   2  22
ATOM     22  O   UNL     1     -54.484  26.791 -14.024  1.00  0.00    -0.387 OA
ATOM     23  H   UNL     1     -53.961  26.858 -13.184  1.00  0.00     0.211 HD
ENDBRANCH   2  22
BRANCH   3  24
ATOM     24  O   UNL     1     -57.163  24.506 -14.881  1.00  0.00    -0.387 OA
ATOM     25  H   UNL     1     -57.498  24.505 -13.946  1.00  0.00     0.211 HD
ENDBRANCH   3  24
BRANCH   5  26
ATOM     26  O   UNL     1     -56.283  22.650 -12.885  1.00  0.00    -0.462 OA
BRANCH  26  27
ATOM     27  C   UNL     1     -56.484  21.712 -11.867  1.00  0.00     0.130 A 
ATOM     28  C   UNL     1     -57.773  21.423 -11.402  1.00  0.00     0.093 A 
ATOM     29  C   UNL     1     -55.387  21.046 -11.324  1.00  0.00     0.094 A 
ATOM     30  C   UNL     1     -57.975  20.473 -10.394  1.00  0.00     0.133 A 
ATOM     31  C   UNL     1     -55.564  20.129 -10.286  1.00  0.00     0.138 A 
ATOM     32  C   UNL     1     -56.853  19.858  -9.779  1.00  0.00     0.102 A 
ATOM     33  O   UNL     1     -54.445  19.472  -9.761  1.00  0.00    -0.484 OA
ATOM     34  C   UNL     1     -56.937  19.013  -8.557  1.00  0.00     0.174 C 
ATOM     35  C   UNL     1     -54.551  18.269  -8.994  1.00  0.00     0.211 C 
ATOM     36  O   UNL     1     -58.003  18.943  -7.887  1.00  0.00    -0.294 OA
ATOM     37  C   UNL     1     -55.698  18.390  -7.971  1.00  0.00     0.131 C 
BRANCH  30  38
ATOM     38  O   UNL     1     -59.293  20.164 -10.058  1.00  0.00    -0.507 OA
ATOM     39  H   UNL     1     -59.558  19.680  -9.214  1.00  0.00     0.293 HD
ENDBRANCH  30  38
BRANCH  35  40
ATOM     40  C   UNL     1     -54.675  17.038  -9.882  1.00  0.00    -0.003 A 
ATOM     41  C   UNL     1     -54.303  17.117 -11.236  1.00  0.00     0.057 A 
ATOM     42  C   UNL     1     -55.234  15.833  -9.413  1.00  0.00     0.011 A 
ATOM     43  C   UNL     1     -54.440  16.018 -12.089  1.00  0.00     0.158 A 
ATOM     44  C   UNL     1     -55.382  14.735 -10.262  1.00  0.00     0.051 A 
ATOM     45  C   UNL     1     -54.983  14.813 -11.609  1.00  0.00     0.160 A 
BRANCH  43  46
ATOM     46  O   UNL     1     -54.042  16.142 -13.420  1.00  0.00    -0.504 OA
ATOM     47  H   UNL     1     -53.177  15.741 -13.766  1.00  0.00     0.293 HD
ENDBRANCH  43  46
BRANCH  45  48
ATOM     48  O   UNL     1     -55.130  13.729 -12.492  1.00  0.00    -0.493 OA
ATOM     49  C   UNL     1     -54.246  12.615 -12.550  1.00  0.00     0.278 C 
ENDBRANCH  45  48
ENDBRANCH  35  40
ENDBRANCH  26  27
ENDBRANCH   5  26
BRANCH   4  50
ATOM     50  O   UNL     1     -53.573  24.077 -14.850  1.00  0.00    -0.384 OA
ATOM     51  H   UNL     1     -53.052  23.901 -14.024  1.00  0.00     0.211 HD
ENDBRANCH   4  50
TORSDOF 15
ENDMDL
