MODEL 1
REMARK VINA RESULT:    -6.506      0.000      0.000
REMARK INTER + INTRA:          -7.924
REMARK INTER:                  -7.647
REMARK INTRA:                  -0.277
REMARK UNBOUND:                -0.277
REMARK SMILES O=c1c(O)c(-c2ccc(O)c(O)c2)oc2cc(O)ccc12
REMARK SMILES IDX 5 1 3 2 2 3 1 4 21 5 15 6 14 7 16 8 17 9 19 10 20 11 6 12
REMARK SMILES IDX 7 13 8 14 9 15 13 16 11 17 10 18 12 20 4 22 18 24
REMARK H PARENT 10 19 12 21 4 23 18 25
REMARK Flexibility Score: inf
ROOT
ATOM      1  C   UNL     1      -2.498   7.337  30.375  1.00  0.00     0.180 A 
ATOM      2  C   UNL     1      -1.898   6.562  31.389  1.00  0.00     0.208 A 
ATOM      3  C   UNL     1      -2.284   5.221  31.532  1.00  0.00     0.235 A 
ATOM      4  O   UNL     1      -1.754   4.504  32.426  1.00  0.00    -0.285 OA
ATOM      5  C   UNL     1      -3.267   4.690  30.683  1.00  0.00     0.069 A 
ATOM      6  C   UNL     1      -3.836   5.537  29.708  1.00  0.00     0.142 A 
ATOM      7  O   UNL     1      -3.437   6.799  29.599  1.00  0.00    -0.452 OA
ATOM      8  C   UNL     1      -4.826   5.048  28.848  1.00  0.00     0.094 A 
ATOM      9  C   UNL     1      -5.254   3.721  28.947  1.00  0.00     0.119 A 
ATOM     10  C   UNL     1      -4.691   2.876  29.913  1.00  0.00     0.047 A 
ATOM     11  C   UNL     1      -3.702   3.355  30.778  1.00  0.00     0.020 A 
ENDROOT
BRANCH   1  12
ATOM     12  C   UNL     1      -2.132   8.754  30.146  1.00  0.00     0.025 A 
ATOM     13  C   UNL     1      -1.304   9.132  29.075  1.00  0.00     0.016 A 
ATOM     14  C   UNL     1      -0.992  10.477  28.865  1.00  0.00     0.051 A 
ATOM     15  C   UNL     1      -1.511  11.465  29.712  1.00  0.00     0.157 A 
ATOM     16  C   UNL     1      -2.668   9.749  30.979  1.00  0.00     0.062 A 
ATOM     17  C   UNL     1      -2.356  11.098  30.773  1.00  0.00     0.158 A 
BRANCH  15  18
ATOM     18  O   UNL     1      -1.196  12.806  29.501  1.00  0.00    -0.504 OA
ATOM     19  H   UNL     1      -1.422  13.519  30.185  1.00  0.00     0.293 HD
ENDBRANCH  15  18
BRANCH  17  20
ATOM     20  O   UNL     1      -2.895  12.057  31.630  1.00  0.00    -0.504 OA
ATOM     21  H   UNL     1      -2.315  12.722  32.126  1.00  0.00     0.293 HD
ENDBRANCH  17  20
ENDBRANCH   1  12
BRANCH   2  22
ATOM     22  O   UNL     1      -0.959   7.131  32.251  1.00  0.00    -0.502 OA
ATOM     23  H   UNL     1       0.038   6.992  32.135  1.00  0.00     0.293 HD
ENDBRANCH   2  22
BRANCH   9  24
ATOM     24  O   UNL     1      -6.241   3.250  28.083  1.00  0.00    -0.508 OA
ATOM     25  H   UNL     1      -6.301   3.570  27.123  1.00  0.00     0.293 HD
ENDBRANCH   9  24
TORSDOF 5
ENDMDL
MODEL 2
REMARK VINA RESULT:    -6.358      1.468      6.614
REMARK INTER + INTRA:          -7.751
REMARK INTER:                  -7.526
REMARK INTRA:                  -0.224
REMARK UNBOUND:                -0.277
REMARK SMILES O=c1c(O)c(-c2ccc(O)c(O)c2)oc2cc(O)ccc12
REMARK SMILES IDX 5 1 3 2 2 3 1 4 21 5 15 6 14 7 16 8 17 9 19 10 20 11 6 12
REMARK SMILES IDX 7 13 8 14 9 15 13 16 11 17 10 18 12 20 4 22 18 24
REMARK H PARENT 10 19 12 21 4 23 18 25
REMARK Flexibility Score: inf
ROOT
ATOM      1  C   UNL     1      -3.962   6.085  30.461  1.00  0.00     0.180 A 
ATOM      2  C   UNL     1      -3.017   5.464  31.304  1.00  0.00     0.208 A 
ATOM      3  C   UNL     1      -1.991   6.245  31.859  1.00  0.00     0.235 A 
ATOM      4  O   UNL     1      -1.139   5.714  32.624  1.00  0.00    -0.285 OA
ATOM      5  C   UNL     1      -1.917   7.611  31.549  1.00  0.00     0.069 A 
ATOM      6  C   UNL     1      -2.888   8.152  30.678  1.00  0.00     0.142 A 
ATOM      7  O   UNL     1      -3.848   7.382  30.180  1.00  0.00    -0.452 OA
ATOM      8  C   UNL     1      -2.843   9.508  30.337  1.00  0.00     0.094 A 
ATOM      9  C   UNL     1      -1.840  10.334  30.856  1.00  0.00     0.119 A 
ATOM     10  C   UNL     1      -0.876   9.801  31.721  1.00  0.00     0.047 A 
ATOM     11  C   UNL     1      -0.911   8.447  32.068  1.00  0.00     0.020 A 
ENDROOT
BRANCH   1  12
ATOM     12  C   UNL     1      -5.085   5.336  29.852  1.00  0.00     0.025 A 
ATOM     13  C   UNL     1      -6.412   5.542  30.267  1.00  0.00     0.016 A 
ATOM     14  C   UNL     1      -7.458   4.841  29.660  1.00  0.00     0.051 A 
ATOM     15  C   UNL     1      -7.196   3.935  28.624  1.00  0.00     0.157 A 
ATOM     16  C   UNL     1      -4.830   4.444  28.798  1.00  0.00     0.062 A 
ATOM     17  C   UNL     1      -5.874   3.739  28.190  1.00  0.00     0.158 A 
BRANCH  15  18
ATOM     18  O   UNL     1      -8.241   3.236  28.023  1.00  0.00    -0.504 OA
ATOM     19  H   UNL     1      -9.209   3.493  28.177  1.00  0.00     0.293 HD
ENDBRANCH  15  18
BRANCH  17  20
ATOM     20  O   UNL     1      -5.580   2.850  27.156  1.00  0.00    -0.504 OA
ATOM     21  H   UNL     1      -5.868   1.879  27.183  1.00  0.00     0.293 HD
ENDBRANCH  17  20
ENDBRANCH   1  12
BRANCH   2  22
ATOM     22  O   UNL     1      -3.087   4.093  31.555  1.00  0.00    -0.502 OA
ATOM     23  H   UNL     1      -2.428   3.619  32.162  1.00  0.00     0.293 HD
ENDBRANCH   2  22
BRANCH   9  24
ATOM     24  O   UNL     1      -1.810  11.682  30.505  1.00  0.00    -0.508 OA
ATOM     25  H   UNL     1      -0.947  12.214  30.518  1.00  0.00     0.293 HD
ENDBRANCH   9  24
TORSDOF 5
ENDMDL
MODEL 3
REMARK VINA RESULT:    -5.615      1.488      6.450
REMARK INTER + INTRA:          -6.877
REMARK INTER:                  -6.761
REMARK INTRA:                  -0.115
REMARK UNBOUND:                -0.277
REMARK SMILES O=c1c(O)c(-c2ccc(O)c(O)c2)oc2cc(O)ccc12
REMARK SMILES IDX 5 1 3 2 2 3 1 4 21 5 15 6 14 7 16 8 17 9 19 10 20 11 6 12
REMARK SMILES IDX 7 13 8 14 9 15 13 16 11 17 10 18 12 20 4 22 18 24
REMARK H PARENT 10 19 12 21 4 23 18 25
REMARK Flexibility Score: inf
ROOT
ATOM      1  C   UNL     1      -3.821   5.856  30.321  1.00  0.00     0.180 A 
ATOM      2  C   UNL     1      -2.908   5.246  31.206  1.00  0.00     0.208 A 
ATOM      3  C   UNL     1      -1.945   6.046  31.840  1.00  0.00     0.235 A 
ATOM      4  O   UNL     1      -1.124   5.525  32.645  1.00  0.00    -0.285 OA
ATOM      5  C   UNL     1      -1.899   7.421  31.565  1.00  0.00     0.069 A 
ATOM      6  C   UNL     1      -2.833   7.951  30.649  1.00  0.00     0.142 A 
ATOM      7  O   UNL     1      -3.734   7.162  30.076  1.00  0.00    -0.452 OA
ATOM      8  C   UNL     1      -2.813   9.316  30.341  1.00  0.00     0.094 A 
ATOM      9  C   UNL     1      -1.873  10.161  30.939  1.00  0.00     0.119 A 
ATOM     10  C   UNL     1      -0.945   9.639  31.850  1.00  0.00     0.047 A 
ATOM     11  C   UNL     1      -0.956   8.276  32.164  1.00  0.00     0.020 A 
ENDROOT
BRANCH   1  12
ATOM     12  C   UNL     1      -4.878   5.085  29.626  1.00  0.00     0.025 A 
ATOM     13  C   UNL     1      -4.560   4.034  28.749  1.00  0.00     0.016 A 
ATOM     14  C   UNL     1      -5.575   3.305  28.123  1.00  0.00     0.051 A 
ATOM     15  C   UNL     1      -6.920   3.606  28.374  1.00  0.00     0.157 A 
ATOM     16  C   UNL     1      -6.227   5.369  29.891  1.00  0.00     0.062 A 
ATOM     17  C   UNL     1      -7.247   4.643  29.265  1.00  0.00     0.158 A 
BRANCH  15  18
ATOM     18  O   UNL     1      -7.930   2.879  27.747  1.00  0.00    -0.504 OA
ATOM     19  H   UNL     1      -8.906   3.138  27.838  1.00  0.00     0.293 HD
ENDBRANCH  15  18
BRANCH  17  20
ATOM     20  O   UNL     1      -8.575   4.964  29.541  1.00  0.00    -0.504 OA
ATOM     21  H   UNL     1      -9.145   5.498  28.897  1.00  0.00     0.293 HD
ENDBRANCH  17  20
ENDBRANCH   1  12
BRANCH   2  22
ATOM     22  O   UNL     1      -2.946   3.867  31.422  1.00  0.00    -0.502 OA
ATOM     23  H   UNL     1      -3.718   3.414  31.897  1.00  0.00     0.293 HD
ENDBRANCH   2  22
BRANCH   9  24
ATOM     24  O   UNL     1      -1.868  11.517  30.621  1.00  0.00    -0.508 OA
ATOM     25  H   UNL     1      -2.730  12.028  30.465  1.00  0.00     0.293 HD
ENDBRANCH   9  24
TORSDOF 5
ENDMDL
MODEL 4
REMARK VINA RESULT:    -5.449      0.607      1.480
REMARK INTER + INTRA:          -6.681
REMARK INTER:                  -6.462
REMARK INTRA:                  -0.220
REMARK UNBOUND:                -0.277
REMARK SMILES O=c1c(O)c(-c2ccc(O)c(O)c2)oc2cc(O)ccc12
REMARK SMILES IDX 5 1 3 2 2 3 1 4 21 5 15 6 14 7 16 8 17 9 19 10 20 11 6 12
REMARK SMILES IDX 7 13 8 14 9 15 13 16 11 17 10 18 12 20 4 22 18 24
REMARK H PARENT 10 19 12 21 4 23 18 25
REMARK Flexibility Score: inf
ROOT
ATOM      1  C   UNL     1      -2.599   7.376  30.491  1.00  0.00     0.180 A 
ATOM      2  C   UNL     1      -2.009   6.600  31.510  1.00  0.00     0.208 A 
ATOM      3  C   UNL     1      -2.373   5.250  31.628  1.00  0.00     0.235 A 
ATOM      4  O   UNL     1      -1.851   4.533  32.526  1.00  0.00    -0.285 OA
ATOM      5  C   UNL     1      -3.324   4.711  30.748  1.00  0.00     0.069 A 
ATOM      6  C   UNL     1      -3.884   5.560  29.769  1.00  0.00     0.142 A 
ATOM      7  O   UNL     1      -3.507   6.830  29.685  1.00  0.00    -0.452 OA
ATOM      8  C   UNL     1      -4.843   5.063  28.879  1.00  0.00     0.094 A 
ATOM      9  C   UNL     1      -5.248   3.726  28.951  1.00  0.00     0.119 A 
ATOM     10  C   UNL     1      -4.692   2.880  29.920  1.00  0.00     0.047 A 
ATOM     11  C   UNL     1      -3.735   3.367  30.815  1.00  0.00     0.020 A 
ENDROOT
BRANCH   1  12
ATOM     12  C   UNL     1      -2.255   8.802  30.289  1.00  0.00     0.025 A 
ATOM     13  C   UNL     1      -2.655   9.788  31.208  1.00  0.00     0.016 A 
ATOM     14  C   UNL     1      -2.298  11.125  31.009  1.00  0.00     0.051 A 
ATOM     15  C   UNL     1      -1.528  11.494  29.899  1.00  0.00     0.157 A 
ATOM     16  C   UNL     1      -1.465   9.174  29.189  1.00  0.00     0.062 A 
ATOM     17  C   UNL     1      -1.108  10.512  28.986  1.00  0.00     0.158 A 
BRANCH  15  18
ATOM     18  O   UNL     1      -1.176  12.828  29.702  1.00  0.00    -0.504 OA
ATOM     19  H   UNL     1      -1.305  13.285  28.807  1.00  0.00     0.293 HD
ENDBRANCH  15  18
BRANCH  17  20
ATOM     20  O   UNL     1      -0.334  10.845  27.874  1.00  0.00    -0.504 OA
ATOM     21  H   UNL     1      -0.491  10.428  26.965  1.00  0.00     0.293 HD
ENDBRANCH  17  20
ENDBRANCH   1  12
BRANCH   2  22
ATOM     22  O   UNL     1      -1.103   7.176  32.403  1.00  0.00    -0.502 OA
ATOM     23  H   UNL     1      -0.221   7.571  32.100  1.00  0.00     0.293 HD
ENDBRANCH   2  22
BRANCH   9  24
ATOM     24  O   UNL     1      -6.203   3.248  28.057  1.00  0.00    -0.508 OA
ATOM     25  H   UNL     1      -5.939   2.731  27.226  1.00  0.00     0.293 HD
ENDBRANCH   9  24
TORSDOF 5
ENDMDL
MODEL 5
REMARK VINA RESULT:    -5.188      1.576      3.068
REMARK INTER + INTRA:          -6.375
REMARK INTER:                  -6.127
REMARK INTRA:                  -0.247
REMARK UNBOUND:                -0.277
REMARK SMILES O=c1c(O)c(-c2ccc(O)c(O)c2)oc2cc(O)ccc12
REMARK SMILES IDX 5 1 3 2 2 3 1 4 21 5 15 6 14 7 16 8 17 9 19 10 20 11 6 12
REMARK SMILES IDX 7 13 8 14 9 15 13 16 11 17 10 18 12 20 4 22 18 24
REMARK H PARENT 10 19 12 21 4 23 18 25
REMARK Flexibility Score: inf
ROOT
ATOM      1  C   UNL     1      -2.423   7.608  30.378  1.00  0.00     0.180 A 
ATOM      2  C   UNL     1      -3.756   7.176  30.219  1.00  0.00     0.208 A 
ATOM      3  C   UNL     1      -4.119   5.913  30.711  1.00  0.00     0.235 A 
ATOM      4  O   UNL     1      -5.308   5.508  30.590  1.00  0.00    -0.285 OA
ATOM      5  C   UNL     1      -3.150   5.106  31.327  1.00  0.00     0.069 A 
ATOM      6  C   UNL     1      -1.833   5.602  31.426  1.00  0.00     0.142 A 
ATOM      7  O   UNL     1      -1.531   6.806  30.955  1.00  0.00    -0.452 OA
ATOM      8  C   UNL     1      -0.835   4.823  32.024  1.00  0.00     0.094 A 
ATOM      9  C   UNL     1      -1.138   3.554  32.528  1.00  0.00     0.119 A 
ATOM     10  C   UNL     1      -2.445   3.059  32.433  1.00  0.00     0.047 A 
ATOM     11  C   UNL     1      -3.448   3.829  31.836  1.00  0.00     0.020 A 
ENDROOT
BRANCH   1  12
ATOM     12  C   UNL     1      -1.964   8.935  29.904  1.00  0.00     0.025 A 
ATOM     13  C   UNL     1      -1.198   9.068  28.733  1.00  0.00     0.016 A 
ATOM     14  C   UNL     1      -0.797  10.331  28.292  1.00  0.00     0.051 A 
ATOM     15  C   UNL     1      -1.164  11.480  29.005  1.00  0.00     0.157 A 
ATOM     16  C   UNL     1      -2.349  10.090  30.603  1.00  0.00     0.062 A 
ATOM     17  C   UNL     1      -1.947  11.357  30.165  1.00  0.00     0.158 A 
BRANCH  15  18
ATOM     18  O   UNL     1      -0.761  12.739  28.563  1.00  0.00    -0.504 OA
ATOM     19  H   UNL     1      -1.328  13.284  27.925  1.00  0.00     0.293 HD
ENDBRANCH  15  18
BRANCH  17  20
ATOM     20  O   UNL     1      -2.336  12.481  30.894  1.00  0.00    -0.504 OA
ATOM     21  H   UNL     1      -2.066  12.615  31.861  1.00  0.00     0.293 HD
ENDBRANCH  17  20
ENDBRANCH   1  12
BRANCH   2  22
ATOM     22  O   UNL     1      -4.687   7.980  29.559  1.00  0.00    -0.502 OA
ATOM     23  H   UNL     1      -4.864   7.899  28.565  1.00  0.00     0.293 HD
ENDBRANCH   2  22
BRANCH   9  24
ATOM     24  O   UNL     1      -0.133   2.793  33.121  1.00  0.00    -0.508 OA
ATOM     25  H   UNL     1       0.769   2.668  32.676  1.00  0.00     0.293 HD
ENDBRANCH   9  24
TORSDOF 5
ENDMDL
MODEL 6
REMARK VINA RESULT:    -4.426      2.143      6.675
REMARK INTER + INTRA:          -5.479
REMARK INTER:                  -5.364
REMARK INTRA:                  -0.116
REMARK UNBOUND:                -0.277
REMARK SMILES O=c1c(O)c(-c2ccc(O)c(O)c2)oc2cc(O)ccc12
REMARK SMILES IDX 5 1 3 2 2 3 1 4 21 5 15 6 14 7 16 8 17 9 19 10 20 11 6 12
REMARK SMILES IDX 7 13 8 14 9 15 13 16 11 17 10 18 12 20 4 22 18 24
REMARK H PARENT 10 19 12 21 4 23 18 25
REMARK Flexibility Score: inf
ROOT
ATOM      1  C   UNL     1      -4.213   6.432  30.252  1.00  0.00     0.180 A 
ATOM      2  C   UNL     1      -4.141   7.831  30.096  1.00  0.00     0.208 A 
ATOM      3  C   UNL     1      -2.981   8.500  30.517  1.00  0.00     0.235 A 
ATOM      4  O   UNL     1      -2.889   9.750  30.379  1.00  0.00    -0.285 OA
ATOM      5  C   UNL     1      -1.934   7.768  31.099  1.00  0.00     0.069 A 
ATOM      6  C   UNL     1      -2.094   6.372  31.240  1.00  0.00     0.142 A 
ATOM      7  O   UNL     1      -3.203   5.776  30.821  1.00  0.00    -0.452 OA
ATOM      8  C   UNL     1      -1.077   5.608  31.824  1.00  0.00     0.094 A 
ATOM      9  C   UNL     1       0.101   6.220  32.267  1.00  0.00     0.119 A 
ATOM     10  C   UNL     1       0.262   7.605  32.127  1.00  0.00     0.047 A 
ATOM     11  C   UNL     1      -0.748   8.377  31.546  1.00  0.00     0.020 A 
ENDROOT
BRANCH   1  12
ATOM     12  C   UNL     1      -5.394   5.651  29.816  1.00  0.00     0.025 A 
ATOM     13  C   UNL     1      -6.669   5.891  30.355  1.00  0.00     0.016 A 
ATOM     14  C   UNL     1      -7.773   5.159  29.911  1.00  0.00     0.051 A 
ATOM     15  C   UNL     1      -7.622   4.185  28.915  1.00  0.00     0.157 A 
ATOM     16  C   UNL     1      -5.251   4.690  28.802  1.00  0.00     0.062 A 
ATOM     17  C   UNL     1      -6.354   3.953  28.356  1.00  0.00     0.158 A 
BRANCH  15  18
ATOM     18  O   UNL     1      -8.725   3.455  28.476  1.00  0.00    -0.504 OA
ATOM     19  H   UNL     1      -9.275   2.889  29.112  1.00  0.00     0.293 HD
ENDBRANCH  15  18
BRANCH  17  20
ATOM     20  O   UNL     1      -6.171   2.996  27.358  1.00  0.00    -0.504 OA
ATOM     21  H   UNL     1      -6.285   3.215  26.376  1.00  0.00     0.293 HD
ENDBRANCH  17  20
ENDBRANCH   1  12
BRANCH   2  22
ATOM     22  O   UNL     1      -5.218   8.540  29.559  1.00  0.00    -0.502 OA
ATOM     23  H   UNL     1      -6.069   8.082  29.255  1.00  0.00     0.293 HD
ENDBRANCH   2  22
BRANCH   9  24
ATOM     24  O   UNL     1       1.103   5.444  32.845  1.00  0.00    -0.508 OA
ATOM     25  H   UNL     1       1.815   4.993  32.283  1.00  0.00     0.293 HD
ENDBRANCH   9  24
TORSDOF 5
ENDMDL
