MODEL 1
REMARK VINA RESULT:    -3.790      0.000      0.000
REMARK INTER + INTRA:          -5.140
REMARK INTER:                  -4.898
REMARK INTRA:                  -0.242
REMARK UNBOUND:                -0.242
REMARK SMILES CCCCCCC(=O)[O-]
REMARK SMILES IDX 5 1 6 2 7 3 8 4 9 5 4 6 3 7 2 8 1 9
REMARK H PARENT
REMARK Flexibility Score: inf
ROOT
ATOM      1  C   UNL     1      85.303 -68.555  13.912  1.00  0.00     0.006 C 
ENDROOT
BRANCH   1   2
ATOM      2  C   UNL     1      84.833 -68.537  15.372  1.00  0.00     0.053 C 
BRANCH   2   3
ATOM      3  C   UNL     1      83.557 -67.767  15.534  1.00  0.00     0.041 C 
ATOM      4  O   UNL     1      82.574 -68.287  16.125  1.00  0.00    -0.550 OA
ATOM      5  O   UNL     1      83.466 -66.465  15.060  1.00  0.00    -0.550 OA
ENDBRANCH   2   3
ENDBRANCH   1   2
BRANCH   1   6
ATOM      6  C   UNL     1      86.128 -69.809  13.582  1.00  0.00     0.000 C 
BRANCH   6   7
ATOM      7  C   UNL     1      86.393 -70.639  14.843  1.00  0.00    -0.000 C 
BRANCH   7   8
ATOM      8  C   UNL     1      87.894 -70.879  15.038  1.00  0.00    -0.003 C 
ATOM      9  C   UNL     1      88.704 -70.244  13.909  1.00  0.00     0.004 C 
ENDBRANCH   7   8
ENDBRANCH   6   7
ENDBRANCH   1   6
TORSDOF 5
ENDMDL
MODEL 2
REMARK VINA RESULT:    -3.655     12.869     13.755
REMARK INTER + INTRA:          -4.965
REMARK INTER:                  -4.740
REMARK INTRA:                  -0.225
REMARK UNBOUND:                -0.242
REMARK SMILES CCCCCCC(=O)[O-]
REMARK SMILES IDX 5 1 6 2 7 3 8 4 9 5 4 6 3 7 2 8 1 9
REMARK H PARENT
REMARK Flexibility Score: inf
ROOT
ATOM      1  C   UNL     1      87.585 -75.310   4.280  1.00  0.00     0.006 C 
ENDROOT
BRANCH   1   2
ATOM      2  C   UNL     1      87.039 -74.478   3.112  1.00  0.00     0.053 C 
BRANCH   2   3
ATOM      3  C   UNL     1      87.745 -73.161   2.993  1.00  0.00     0.041 C 
ATOM      4  O   UNL     1      88.998 -73.122   2.882  1.00  0.00    -0.550 OA
ATOM      5  O   UNL     1      87.013 -71.981   2.971  1.00  0.00    -0.550 OA
ENDBRANCH   2   3
ENDBRANCH   1   2
BRANCH   1   6
ATOM      6  C   UNL     1      88.489 -76.458   3.804  1.00  0.00     0.000 C 
BRANCH   6   7
ATOM      7  C   UNL     1      87.819 -77.818   4.039  1.00  0.00    -0.000 C 
BRANCH   7   8
ATOM      8  C   UNL     1      88.059 -78.760   2.853  1.00  0.00    -0.003 C 
ATOM      9  C   UNL     1      88.799 -78.047   1.724  1.00  0.00     0.004 C 
ENDBRANCH   7   8
ENDBRANCH   6   7
ENDBRANCH   1   6
TORSDOF 5
ENDMDL
MODEL 3
REMARK VINA RESULT:    -3.422     13.951     14.937
REMARK INTER + INTRA:          -4.664
REMARK INTER:                  -4.496
REMARK INTRA:                  -0.168
REMARK UNBOUND:                -0.242
REMARK SMILES CCCCCCC(=O)[O-]
REMARK SMILES IDX 5 1 6 2 7 3 8 4 9 5 4 6 3 7 2 8 1 9
REMARK H PARENT
REMARK Flexibility Score: inf
ROOT
ATOM      1  C   UNL     1      87.990 -78.294   3.725  1.00  0.00     0.006 C 
ENDROOT
BRANCH   1   2
ATOM      2  C   UNL     1      88.192 -78.023   2.229  1.00  0.00     0.053 C 
BRANCH   2   3
ATOM      3  C   UNL     1      86.887 -77.969   1.494  1.00  0.00     0.041 C 
ATOM      4  O   UNL     1      86.057 -78.910   1.606  1.00  0.00    -0.550 OA
ATOM      5  O   UNL     1      86.576 -76.865   0.712  1.00  0.00    -0.550 OA
ENDBRANCH   2   3
ENDBRANCH   1   2
BRANCH   1   6
ATOM      6  C   UNL     1      87.899 -76.997   4.544  1.00  0.00     0.000 C 
BRANCH   6   7
ATOM      7  C   UNL     1      88.360 -75.792   3.716  1.00  0.00    -0.000 C 
BRANCH   7   8
ATOM      8  C   UNL     1      87.340 -74.650   3.796  1.00  0.00    -0.003 C 
ATOM      9  C   UNL     1      87.912 -73.359   3.215  1.00  0.00     0.004 C 
ENDBRANCH   7   8
ENDBRANCH   6   7
ENDBRANCH   1   6
TORSDOF 5
ENDMDL
MODEL 4
REMARK VINA RESULT:    -3.303     13.849     14.779
REMARK INTER + INTRA:          -4.510
REMARK INTER:                  -4.372
REMARK INTRA:                  -0.138
REMARK UNBOUND:                -0.242
REMARK SMILES CCCCCCC(=O)[O-]
REMARK SMILES IDX 5 1 6 2 7 3 8 4 9 5 4 6 3 7 2 8 1 9
REMARK H PARENT
REMARK Flexibility Score: inf
ROOT
ATOM      1  C   UNL     1      88.457 -76.488   2.797  1.00  0.00     0.006 C 
ENDROOT
BRANCH   1   2
ATOM      2  C   UNL     1      87.471 -75.472   2.208  1.00  0.00     0.053 C 
BRANCH   2   3
ATOM      3  C   UNL     1      87.445 -74.200   3.001  1.00  0.00     0.041 C 
ATOM      4  O   UNL     1      86.350 -73.731   3.410  1.00  0.00    -0.550 OA
ATOM      5  O   UNL     1      88.632 -73.553   3.315  1.00  0.00    -0.550 OA
ENDBRANCH   2   3
ENDBRANCH   1   2
BRANCH   1   6
ATOM      6  C   UNL     1      88.398 -77.842   2.073  1.00  0.00     0.000 C 
BRANCH   6   7
ATOM      7  C   UNL     1      87.290 -78.728   2.656  1.00  0.00    -0.000 C 
BRANCH   7   8
ATOM      8  C   UNL     1      86.135 -78.888   1.660  1.00  0.00    -0.003 C 
ATOM      9  C   UNL     1      85.102 -79.889   2.172  1.00  0.00     0.004 C 
ENDBRANCH   7   8
ENDBRANCH   6   7
ENDBRANCH   1   6
TORSDOF 5
ENDMDL
MODEL 5
REMARK VINA RESULT:    -3.182     13.677     14.610
REMARK INTER + INTRA:          -4.353
REMARK INTER:                  -4.030
REMARK INTRA:                  -0.324
REMARK UNBOUND:                -0.242
REMARK SMILES CCCCCCC(=O)[O-]
REMARK SMILES IDX 5 1 6 2 7 3 8 4 9 5 4 6 3 7 2 8 1 9
REMARK H PARENT
REMARK Flexibility Score: inf
ROOT
ATOM      1  C   UNL     1      88.377 -76.234   1.024  1.00  0.00     0.006 C 
ENDROOT
BRANCH   1   2
ATOM      2  C   UNL     1      89.125 -75.356   2.035  1.00  0.00     0.053 C 
BRANCH   2   3
ATOM      3  C   UNL     1      88.227 -74.321   2.641  1.00  0.00     0.041 C 
ATOM      4  O   UNL     1      87.003 -74.564   2.811  1.00  0.00    -0.550 OA
ATOM      5  O   UNL     1      88.750 -73.101   3.048  1.00  0.00    -0.550 OA
ENDBRANCH   2   3
ENDBRANCH   1   2
BRANCH   1   6
ATOM      6  C   UNL     1      88.522 -77.732   1.334  1.00  0.00     0.000 C 
BRANCH   6   7
ATOM      7  C   UNL     1      87.418 -78.205   2.288  1.00  0.00    -0.000 C 
BRANCH   7   8
ATOM      8  C   UNL     1      87.993 -78.545   3.668  1.00  0.00    -0.003 C 
ATOM      9  C   UNL     1      87.807 -77.385   4.643  1.00  0.00     0.004 C 
ENDBRANCH   7   8
ENDBRANCH   6   7
ENDBRANCH   1   6
TORSDOF 5
ENDMDL
MODEL 6
REMARK VINA RESULT:    -3.118     19.267     20.229
REMARK INTER + INTRA:          -4.271
REMARK INTER:                  -4.152
REMARK INTRA:                  -0.119
REMARK UNBOUND:                -0.242
REMARK SMILES CCCCCCC(=O)[O-]
REMARK SMILES IDX 5 1 6 2 7 3 8 4 9 5 4 6 3 7 2 8 1 9
REMARK H PARENT
REMARK Flexibility Score: inf
ROOT
ATOM      1  C   UNL     1      77.934 -75.230  -2.695  1.00  0.00     0.006 C 
ENDROOT
BRANCH   1   2
ATOM      2  C   UNL     1      78.648 -75.921  -1.526  1.00  0.00     0.053 C 
BRANCH   2   3
ATOM      3  C   UNL     1      77.738 -76.864  -0.800  1.00  0.00     0.041 C 
ATOM      4  O   UNL     1      77.936 -78.106  -0.857  1.00  0.00    -0.550 OA
ATOM      5  O   UNL     1      76.691 -76.368  -0.034  1.00  0.00    -0.550 OA
ENDBRANCH   2   3
ENDBRANCH   1   2
BRANCH   1   6
ATOM      6  C   UNL     1      77.572 -73.772  -2.376  1.00  0.00     0.000 C 
BRANCH   6   7
ATOM      7  C   UNL     1      77.310 -72.977  -3.661  1.00  0.00    -0.000 C 
BRANCH   7   8
ATOM      8  C   UNL     1      75.807 -72.774  -3.884  1.00  0.00    -0.003 C 
ATOM      9  C   UNL     1      75.409 -71.317  -3.662  1.00  0.00     0.004 C 
ENDBRANCH   7   8
ENDBRANCH   6   7
ENDBRANCH   1   6
TORSDOF 5
ENDMDL
MODEL 7
REMARK VINA RESULT:    -3.093     19.188     19.894
REMARK INTER + INTRA:          -4.238
REMARK INTER:                  -3.874
REMARK INTRA:                  -0.364
REMARK UNBOUND:                -0.242
REMARK SMILES CCCCCCC(=O)[O-]
REMARK SMILES IDX 5 1 6 2 7 3 8 4 9 5 4 6 3 7 2 8 1 9
REMARK H PARENT
REMARK Flexibility Score: inf
ROOT
ATOM      1  C   UNL     1      76.140 -72.719  -3.617  1.00  0.00     0.006 C 
ENDROOT
BRANCH   1   2
ATOM      2  C   UNL     1      75.065 -73.514  -2.865  1.00  0.00     0.053 C 
BRANCH   2   3
ATOM      3  C   UNL     1      74.826 -72.962  -1.492  1.00  0.00     0.041 C 
ATOM      4  O   UNL     1      74.197 -71.881  -1.344  1.00  0.00    -0.550 OA
ATOM      5  O   UNL     1      75.269 -73.660  -0.377  1.00  0.00    -0.550 OA
ENDBRANCH   2   3
ENDBRANCH   1   2
BRANCH   1   6
ATOM      6  C   UNL     1      77.559 -73.217  -3.300  1.00  0.00     0.000 C 
BRANCH   6   7
ATOM      7  C   UNL     1      77.578 -74.738  -3.110  1.00  0.00    -0.000 C 
BRANCH   7   8
ATOM      8  C   UNL     1      78.391 -75.127  -1.870  1.00  0.00    -0.003 C 
ATOM      9  C   UNL     1      77.665 -76.187  -1.046  1.00  0.00     0.004 C 
ENDBRANCH   7   8
ENDBRANCH   6   7
ENDBRANCH   1   6
TORSDOF 5
ENDMDL
MODEL 8
REMARK VINA RESULT:    -3.080     19.517     20.196
REMARK INTER + INTRA:          -4.222
REMARK INTER:                  -3.838
REMARK INTRA:                  -0.384
REMARK UNBOUND:                -0.242
REMARK SMILES CCCCCCC(=O)[O-]
REMARK SMILES IDX 5 1 6 2 7 3 8 4 9 5 4 6 3 7 2 8 1 9
REMARK H PARENT
REMARK Flexibility Score: inf
ROOT
ATOM      1  C   UNL     1      75.028 -73.477  -3.510  1.00  0.00     0.006 C 
ENDROOT
BRANCH   1   2
ATOM      2  C   UNL     1      73.914 -72.917  -2.616  1.00  0.00     0.053 C 
BRANCH   2   3
ATOM      3  C   UNL     1      74.413 -72.605  -1.238  1.00  0.00     0.041 C 
ATOM      4  O   UNL     1      75.117 -73.443  -0.614  1.00  0.00    -0.550 OA
ATOM      5  O   UNL     1      74.127 -71.377  -0.657  1.00  0.00    -0.550 OA
ENDBRANCH   2   3
ENDBRANCH   1   2
BRANCH   1   6
ATOM      6  C   UNL     1      76.147 -72.454  -3.755  1.00  0.00     0.000 C 
BRANCH   6   7
ATOM      7  C   UNL     1      77.517 -73.039  -3.392  1.00  0.00    -0.000 C 
BRANCH   7   8
ATOM      8  C   UNL     1      77.436 -74.561  -3.227  1.00  0.00    -0.003 C 
ATOM      9  C   UNL     1      78.190 -75.021  -1.981  1.00  0.00     0.004 C 
ENDBRANCH   7   8
ENDBRANCH   6   7
ENDBRANCH   1   6
TORSDOF 5
ENDMDL
