MODEL 1
REMARK VINA RESULT:    -4.728      0.000      0.000
REMARK INTER + INTRA:          -7.159
REMARK INTER:                  -5.834
REMARK INTRA:                  -1.325
REMARK UNBOUND:                -1.325
REMARK SMILES CC(C)=CCC[C@@H](C)c1ccc(C)cc1
REMARK SMILES IDX 6 1 7 2 8 3 9 4 13 5 12 6 11 7 14 8 10 9 15 10 5 11 4 12
REMARK SMILES IDX 2 13 1 14 3 15
REMARK H PARENT
REMARK Flexibility Score: inf
ROOT
ATOM      1  C   UNL     1      77.495   9.545   5.997  1.00  0.00     0.012 C 
ENDROOT
BRANCH   1   2
ATOM      2  C   UNL     1      76.824   9.426   7.386  1.00  0.00     0.016 C 
ATOM      3  C   UNL     1      75.649  10.401   7.560  1.00  0.00     0.013 C 
BRANCH   2   4
ATOM      4  C   UNL     1      76.365   7.998   7.626  1.00  0.00    -0.045 A 
ATOM      5  C   UNL     1      74.995   3.960   8.315  1.00  0.00     0.044 C 
ATOM      6  C   UNL     1      75.494   5.352   8.060  1.00  0.00    -0.051 A 
ATOM      7  C   UNL     1      75.012   6.086   6.966  1.00  0.00     0.004 A 
ATOM      8  C   UNL     1      76.392   5.955   8.951  1.00  0.00     0.004 A 
ATOM      9  C   UNL     1      75.448   7.395   6.748  1.00  0.00     0.004 A 
ATOM     10  C   UNL     1      76.829   7.265   8.735  1.00  0.00     0.004 A 
ENDBRANCH   2   4
ENDBRANCH   1   2
BRANCH   1  11
ATOM     11  C   UNL     1      78.728   8.636   5.820  1.00  0.00     0.028 C 
BRANCH  11  12
ATOM     12  C   UNL     1      78.386   7.323   5.156  1.00  0.00    -0.028 C 
ATOM     13  C   UNL     1      78.721   6.109   5.645  1.00  0.00    -0.080 C 
ATOM     14  C   UNL     1      78.293   4.884   4.877  1.00  0.00     0.039 C 
ATOM     15  C   UNL     1      79.534   5.948   6.908  1.00  0.00     0.039 C 
ENDBRANCH  11  12
ENDBRANCH   1  11
TORSDOF 4
ENDMDL
MODEL 2
REMARK VINA RESULT:    -4.630      1.080      3.384
REMARK INTER + INTRA:          -7.038
REMARK INTER:                  -5.554
REMARK INTRA:                  -1.484
REMARK UNBOUND:                -1.325
REMARK SMILES CC(C)=CCC[C@@H](C)c1ccc(C)cc1
REMARK SMILES IDX 6 1 7 2 8 3 9 4 13 5 12 6 11 7 14 8 10 9 15 10 5 11 4 12
REMARK SMILES IDX 2 13 1 14 3 15
REMARK H PARENT
REMARK Flexibility Score: inf
ROOT
ATOM      1  C   UNL     1      78.164   8.020   4.967  1.00  0.00     0.012 C 
ENDROOT
BRANCH   1   2
ATOM      2  C   UNL     1      78.432   6.568   5.430  1.00  0.00     0.016 C 
ATOM      3  C   UNL     1      79.659   6.459   6.349  1.00  0.00     0.013 C 
BRANCH   2   4
ATOM      4  C   UNL     1      77.202   6.004   6.122  1.00  0.00    -0.045 A 
ATOM      5  C   UNL     1      73.687   4.465   8.105  1.00  0.00     0.044 C 
ATOM      6  C   UNL     1      74.908   4.976   7.399  1.00  0.00    -0.051 A 
ATOM      7  C   UNL     1      74.781   5.837   6.299  1.00  0.00     0.004 A 
ATOM      8  C   UNL     1      76.186   4.652   7.874  1.00  0.00     0.004 A 
ATOM      9  C   UNL     1      75.918   6.343   5.663  1.00  0.00     0.004 A 
ATOM     10  C   UNL     1      77.325   5.157   7.240  1.00  0.00     0.004 A 
ENDBRANCH   2   4
ENDBRANCH   1   2
BRANCH   1  11
ATOM     11  C   UNL     1      78.413   9.079   6.059  1.00  0.00     0.028 C 
BRANCH  11  12
ATOM     12  C   UNL     1      77.163   9.854   6.406  1.00  0.00    -0.028 C 
ATOM     13  C   UNL     1      76.411   9.638   7.508  1.00  0.00    -0.080 C 
ATOM     14  C   UNL     1      75.199  10.506   7.729  1.00  0.00     0.039 C 
ATOM     15  C   UNL     1      76.730   8.541   8.496  1.00  0.00     0.039 C 
ENDBRANCH  11  12
ENDBRANCH   1  11
TORSDOF 4
ENDMDL
MODEL 3
REMARK VINA RESULT:    -4.509      1.254      4.471
REMARK INTER + INTRA:          -6.888
REMARK INTER:                  -5.550
REMARK INTRA:                  -1.338
REMARK UNBOUND:                -1.325
REMARK SMILES CC(C)=CCC[C@@H](C)c1ccc(C)cc1
REMARK SMILES IDX 6 1 7 2 8 3 9 4 13 5 12 6 11 7 14 8 10 9 15 10 5 11 4 12
REMARK SMILES IDX 2 13 1 14 3 15
REMARK H PARENT
REMARK Flexibility Score: inf
ROOT
ATOM      1  C   UNL     1      78.367   5.548   7.845  1.00  0.00     0.012 C 
ENDROOT
BRANCH   1   2
ATOM      2  C   UNL     1      78.960   6.838   7.230  1.00  0.00     0.016 C 
ATOM      3  C   UNL     1      79.392   6.650   5.767  1.00  0.00     0.013 C 
BRANCH   2   4
ATOM      4  C   UNL     1      77.963   7.978   7.344  1.00  0.00    -0.045 A 
ATOM      5  C   UNL     1      75.076  11.175   7.662  1.00  0.00     0.044 C 
ATOM      6  C   UNL     1      76.098  10.082   7.566  1.00  0.00    -0.051 A 
ATOM      7  C   UNL     1      76.139   9.066   8.533  1.00  0.00     0.004 A 
ATOM      8  C   UNL     1      76.975  10.027   6.474  1.00  0.00     0.004 A 
ATOM      9  C   UNL     1      77.067   8.026   8.425  1.00  0.00     0.004 A 
ATOM     10  C   UNL     1      77.903   8.988   6.364  1.00  0.00     0.004 A 
ENDBRANCH   2   4
ENDBRANCH   1   2
BRANCH   1  11
ATOM     11  C   UNL     1      77.432   4.776   6.893  1.00  0.00     0.028 C 
BRANCH  11  12
ATOM     12  C   UNL     1      76.103   4.448   7.531  1.00  0.00    -0.028 C 
ATOM     13  C   UNL     1      74.938   5.067   7.233  1.00  0.00    -0.080 C 
ATOM     14  C   UNL     1      73.686   4.616   7.942  1.00  0.00     0.039 C 
ATOM     15  C   UNL     1      74.864   6.207   6.245  1.00  0.00     0.039 C 
ENDBRANCH  11  12
ENDBRANCH   1  11
TORSDOF 4
ENDMDL
MODEL 4
REMARK VINA RESULT:    -4.478      1.788      4.439
REMARK INTER + INTRA:          -6.850
REMARK INTER:                  -6.252
REMARK INTRA:                  -0.598
REMARK UNBOUND:                -1.325
REMARK SMILES CC(C)=CCC[C@@H](C)c1ccc(C)cc1
REMARK SMILES IDX 6 1 7 2 8 3 9 4 13 5 12 6 11 7 14 8 10 9 15 10 5 11 4 12
REMARK SMILES IDX 2 13 1 14 3 15
REMARK H PARENT
REMARK Flexibility Score: inf
ROOT
ATOM      1  C   UNL     1      76.589  10.589   7.085  1.00  0.00     0.012 C 
ENDROOT
BRANCH   1   2
ATOM      2  C   UNL     1      77.335   9.352   6.530  1.00  0.00     0.016 C 
ATOM      3  C   UNL     1      78.858   9.448   6.718  1.00  0.00     0.013 C 
BRANCH   2   4
ATOM      4  C   UNL     1      76.802   8.085   7.176  1.00  0.00    -0.045 A 
ATOM      5  C   UNL     1      75.349   4.456   9.013  1.00  0.00     0.044 C 
ATOM      6  C   UNL     1      75.831   5.731   8.387  1.00  0.00    -0.051 A 
ATOM      7  C   UNL     1      76.757   6.543   9.058  1.00  0.00     0.004 A 
ATOM      8  C   UNL     1      75.413   6.086   7.097  1.00  0.00     0.004 A 
ATOM      9  C   UNL     1      77.234   7.712   8.460  1.00  0.00     0.004 A 
ATOM     10  C   UNL     1      75.889   7.255   6.496  1.00  0.00     0.004 A 
ENDBRANCH   2   4
ENDBRANCH   1   2
BRANCH   1  11
ATOM     11  C   UNL     1      75.320  10.242   7.889  1.00  0.00     0.028 C 
BRANCH  11  12
ATOM     12  C   UNL     1      74.129  11.072   7.473  1.00  0.00    -0.028 C 
ATOM     13  C   UNL     1      72.988  10.566   6.955  1.00  0.00    -0.080 C 
ATOM     14  C   UNL     1      71.875  11.520   6.604  1.00  0.00     0.039 C 
ATOM     15  C   UNL     1      72.811   9.089   6.690  1.00  0.00     0.039 C 
ENDBRANCH  11  12
ENDBRANCH   1  11
TORSDOF 4
ENDMDL
MODEL 5
REMARK VINA RESULT:    -4.410      1.606      4.360
REMARK INTER + INTRA:          -6.766
REMARK INTER:                  -6.055
REMARK INTRA:                  -0.711
REMARK UNBOUND:                -1.325
REMARK SMILES CC(C)=CCC[C@@H](C)c1ccc(C)cc1
REMARK SMILES IDX 6 1 7 2 8 3 9 4 13 5 12 6 11 7 14 8 10 9 15 10 5 11 4 12
REMARK SMILES IDX 2 13 1 14 3 15
REMARK H PARENT
REMARK Flexibility Score: inf
ROOT
ATOM      1  C   UNL     1      77.044   8.346   8.259  1.00  0.00     0.012 C 
ENDROOT
BRANCH   1   2
ATOM      2  C   UNL     1      77.149   7.102   7.344  1.00  0.00     0.016 C 
ATOM      3  C   UNL     1      78.486   6.362   7.505  1.00  0.00     0.013 C 
BRANCH   2   4
ATOM      4  C   UNL     1      75.988   6.159   7.607  1.00  0.00    -0.045 A 
ATOM      5  C   UNL     1      72.730   3.423   8.352  1.00  0.00     0.044 C 
ATOM      6  C   UNL     1      73.846   4.395   8.107  1.00  0.00    -0.051 A 
ATOM      7  C   UNL     1      74.903   4.504   9.023  1.00  0.00     0.004 A 
ATOM      8  C   UNL     1      73.877   5.151   6.927  1.00  0.00     0.004 A 
ATOM      9  C   UNL     1      75.962   5.382   8.777  1.00  0.00     0.004 A 
ATOM     10  C   UNL     1      74.936   6.030   6.679  1.00  0.00     0.004 A 
ENDBRANCH   2   4
ENDBRANCH   1   2
BRANCH   1  11
ATOM     11  C   UNL     1      76.620   9.630   7.518  1.00  0.00     0.028 C 
BRANCH  11  12
ATOM     12  C   UNL     1      75.135   9.674   7.244  1.00  0.00    -0.028 C 
ATOM     13  C   UNL     1      74.335  10.725   7.533  1.00  0.00    -0.080 C 
ATOM     14  C   UNL     1      72.872  10.628   7.183  1.00  0.00     0.039 C 
ATOM     15  C   UNL     1      74.855  11.966   8.220  1.00  0.00     0.039 C 
ENDBRANCH  11  12
ENDBRANCH   1  11
TORSDOF 4
ENDMDL
MODEL 6
REMARK VINA RESULT:    -4.270     13.841     17.277
REMARK INTER + INTRA:          -6.594
REMARK INTER:                  -6.070
REMARK INTRA:                  -0.524
REMARK UNBOUND:                -1.325
REMARK SMILES CC(C)=CCC[C@@H](C)c1ccc(C)cc1
REMARK SMILES IDX 6 1 7 2 8 3 9 4 13 5 12 6 11 7 14 8 10 9 15 10 5 11 4 12
REMARK SMILES IDX 2 13 1 14 3 15
REMARK H PARENT
REMARK Flexibility Score: inf
ROOT
ATOM      1  C   UNL     1      72.081  -3.420  20.140  1.00  0.00     0.012 C 
ENDROOT
BRANCH   1   2
ATOM      2  C   UNL     1      72.090  -1.878  20.019  1.00  0.00     0.016 C 
ATOM      3  C   UNL     1      72.615  -1.189  21.288  1.00  0.00     0.013 C 
BRANCH   2   4
ATOM      4  C   UNL     1      72.906  -1.453  18.811  1.00  0.00    -0.045 A 
ATOM      5  C   UNL     1      75.168  -0.230  15.340  1.00  0.00     0.044 C 
ATOM      6  C   UNL     1      74.406  -0.648  16.562  1.00  0.00    -0.051 A 
ATOM      7  C   UNL     1      73.567   0.265  17.219  1.00  0.00     0.004 A 
ATOM      8  C   UNL     1      74.472  -1.972  17.018  1.00  0.00     0.004 A 
ATOM      9  C   UNL     1      72.828  -0.133  18.335  1.00  0.00     0.004 A 
ATOM     10  C   UNL     1      73.733  -2.372  18.135  1.00  0.00     0.004 A 
ENDBRANCH   2   4
ENDBRANCH   1   2
BRANCH   1  11
ATOM     11  C   UNL     1      71.925  -3.931  21.587  1.00  0.00     0.028 C 
BRANCH  11  12
ATOM     12  C   UNL     1      72.925  -5.010  21.928  1.00  0.00    -0.028 C 
ATOM     13  C   UNL     1      72.901  -5.744  23.063  1.00  0.00    -0.080 C 
ATOM     14  C   UNL     1      73.958  -6.801  23.255  1.00  0.00     0.039 C 
ATOM     15  C   UNL     1      71.875  -5.512  24.147  1.00  0.00     0.039 C 
ENDBRANCH  11  12
ENDBRANCH   1  11
TORSDOF 4
ENDMDL
MODEL 7
REMARK VINA RESULT:    -4.252     14.255     17.333
REMARK INTER + INTRA:          -6.571
REMARK INTER:                  -5.551
REMARK INTRA:                  -1.021
REMARK UNBOUND:                -1.325
REMARK SMILES CC(C)=CCC[C@@H](C)c1ccc(C)cc1
REMARK SMILES IDX 6 1 7 2 8 3 9 4 13 5 12 6 11 7 14 8 10 9 15 10 5 11 4 12
REMARK SMILES IDX 2 13 1 14 3 15
REMARK H PARENT
REMARK Flexibility Score: inf
ROOT
ATOM      1  C   UNL     1      74.342  -3.385  17.893  1.00  0.00     0.012 C 
ENDROOT
BRANCH   1   2
ATOM      2  C   UNL     1      72.965  -3.905  18.368  1.00  0.00     0.016 C 
ATOM      3  C   UNL     1      72.484  -5.123  17.564  1.00  0.00     0.013 C 
BRANCH   2   4
ATOM      4  C   UNL     1      73.013  -4.236  19.850  1.00  0.00    -0.045 A 
ATOM      5  C   UNL     1      73.162  -5.243  24.047  1.00  0.00     0.044 C 
ATOM      6  C   UNL     1      73.118  -4.866  22.596  1.00  0.00    -0.051 A 
ATOM      7  C   UNL     1      74.241  -5.068  21.779  1.00  0.00     0.004 A 
ATOM      8  C   UNL     1      71.935  -4.373  22.029  1.00  0.00     0.004 A 
ATOM      9  C   UNL     1      74.190  -4.752  20.419  1.00  0.00     0.004 A 
ATOM     10  C   UNL     1      71.882  -4.055  20.669  1.00  0.00     0.004 A 
ENDBRANCH   2   4
ENDBRANCH   1   2
BRANCH   1  11
ATOM     11  C   UNL     1      74.319  -1.927  17.391  1.00  0.00     0.028 C 
BRANCH  11  12
ATOM     12  C   UNL     1      74.335  -0.928  18.524  1.00  0.00    -0.028 C 
ATOM     13  C   UNL     1      73.242  -0.284  18.991  1.00  0.00    -0.080 C 
ATOM     14  C   UNL     1      73.413   0.674  20.142  1.00  0.00     0.039 C 
ATOM     15  C   UNL     1      71.875  -0.472  18.377  1.00  0.00     0.039 C 
ENDBRANCH  11  12
ENDBRANCH   1  11
TORSDOF 4
ENDMDL
MODEL 8
REMARK VINA RESULT:    -4.249     14.526     17.987
REMARK INTER + INTRA:          -6.568
REMARK INTER:                  -5.669
REMARK INTRA:                  -0.898
REMARK UNBOUND:                -1.325
REMARK SMILES CC(C)=CCC[C@@H](C)c1ccc(C)cc1
REMARK SMILES IDX 6 1 7 2 8 3 9 4 13 5 12 6 11 7 14 8 10 9 15 10 5 11 4 12
REMARK SMILES IDX 2 13 1 14 3 15
REMARK H PARENT
REMARK Flexibility Score: inf
ROOT
ATOM      1  C   UNL     1      71.884  -4.661  20.124  1.00  0.00     0.012 C 
ENDROOT
BRANCH   1   2
ATOM      2  C   UNL     1      73.138  -4.233  19.324  1.00  0.00     0.016 C 
ATOM      3  C   UNL     1      73.107  -4.726  17.869  1.00  0.00     0.013 C 
BRANCH   2   4
ATOM      4  C   UNL     1      73.295  -2.723  19.368  1.00  0.00    -0.045 A 
ATOM      5  C   UNL     1      73.750   1.573  19.421  1.00  0.00     0.044 C 
ATOM      6  C   UNL     1      73.577   0.083  19.428  1.00  0.00    -0.051 A 
ATOM      7  C   UNL     1      72.485  -0.506  18.774  1.00  0.00     0.004 A 
ATOM      8  C   UNL     1      74.542  -0.738  20.029  1.00  0.00     0.004 A 
ATOM      9  C   UNL     1      72.343  -1.896  18.748  1.00  0.00     0.004 A 
ATOM     10  C   UNL     1      74.402  -2.128  20.004  1.00  0.00     0.004 A 
ENDBRANCH   2   4
ENDBRANCH   1   2
BRANCH   1  11
ATOM     11  C   UNL     1      71.875  -4.163  21.583  1.00  0.00     0.028 C 
BRANCH  11  12
ATOM     12  C   UNL     1      72.044  -5.287  22.577  1.00  0.00    -0.028 C 
ATOM     13  C   UNL     1      73.230  -5.683  23.089  1.00  0.00    -0.080 C 
ATOM     14  C   UNL     1      73.239  -6.812  24.088  1.00  0.00     0.039 C 
ATOM     15  C   UNL     1      74.538  -5.055  22.667  1.00  0.00     0.039 C 
ENDBRANCH  11  12
ENDBRANCH   1  11
TORSDOF 4
ENDMDL
MODEL 9
REMARK VINA RESULT:    -4.089      1.667      4.074
REMARK INTER + INTRA:          -6.370
REMARK INTER:                  -5.589
REMARK INTRA:                  -0.781
REMARK UNBOUND:                -1.325
REMARK SMILES CC(C)=CCC[C@@H](C)c1ccc(C)cc1
REMARK SMILES IDX 6 1 7 2 8 3 9 4 13 5 12 6 11 7 14 8 10 9 15 10 5 11 4 12
REMARK SMILES IDX 2 13 1 14 3 15
REMARK H PARENT
REMARK Flexibility Score: inf
ROOT
ATOM      1  C   UNL     1      75.849   5.708   5.905  1.00  0.00     0.012 C 
ENDROOT
BRANCH   1   2
ATOM      2  C   UNL     1      74.784   5.608   7.023  1.00  0.00     0.016 C 
ATOM      3  C   UNL     1      73.398   5.218   6.486  1.00  0.00     0.013 C 
BRANCH   2   4
ATOM      4  C   UNL     1      75.235   4.624   8.088  1.00  0.00    -0.045 A 
ATOM      5  C   UNL     1      76.449   1.810  11.133  1.00  0.00     0.044 C 
ATOM      6  C   UNL     1      76.052   2.782  10.061  1.00  0.00    -0.051 A 
ATOM      7  C   UNL     1      75.281   2.355   8.970  1.00  0.00     0.004 A 
ATOM      8  C   UNL     1      76.391   4.137  10.176  1.00  0.00     0.004 A 
ATOM      9  C   UNL     1      74.879   3.267   7.990  1.00  0.00     0.004 A 
ATOM     10  C   UNL     1      75.991   5.051   9.197  1.00  0.00     0.004 A 
ENDBRANCH   2   4
ENDBRANCH   1   2
BRANCH   1  11
ATOM     11  C   UNL     1      76.606   7.051   5.884  1.00  0.00     0.028 C 
BRANCH  11  12
ATOM     12  C   UNL     1      75.906   8.121   6.689  1.00  0.00    -0.028 C 
ATOM     13  C   UNL     1      76.491   9.261   7.118  1.00  0.00    -0.080 C 
ATOM     14  C   UNL     1      75.657  10.245   7.898  1.00  0.00     0.039 C 
ATOM     15  C   UNL     1      77.951   9.558   6.868  1.00  0.00     0.039 C 
ENDBRANCH  11  12
ENDBRANCH   1  11
TORSDOF 4
ENDMDL
