MODEL 1
REMARK VINA RESULT:    -5.592      0.000      0.000
REMARK INTER + INTRA:          -7.169
REMARK INTER:                  -6.899
REMARK INTRA:                  -0.270
REMARK UNBOUND:                -0.270
REMARK SMILES O=c1c(O)c(-c2cc(O)c(O)c(O)c2)oc2cc(O)cc(O)c12
REMARK SMILES IDX 5 1 3 2 2 3 1 4 23 5 21 6 20 7 18 8 17 9 16 10 15 11 6 12
REMARK SMILES IDX 7 13 8 14 14 15 10 16 12 17 9 18 11 20 13 22 4 24 22 26
REMARK SMILES IDX 19 28
REMARK H PARENT 9 19 11 21 13 23 4 25 22 27 19 29
REMARK Flexibility Score: inf
ROOT
ATOM      1  C   UNL     1      13.451  35.960   5.960  1.00  0.00     0.180 A 
ATOM      2  C   UNL     1      12.972  36.231   7.253  1.00  0.00     0.208 A 
ATOM      3  C   UNL     1      11.630  36.611   7.416  1.00  0.00     0.238 A 
ATOM      4  O   UNL     1      11.193  36.799   8.582  1.00  0.00    -0.285 OA
ATOM      5  C   UNL     1      10.789  36.731   6.284  1.00  0.00     0.111 A 
ATOM      6  C   UNL     1       9.425  37.147   6.329  1.00  0.00     0.134 A 
ATOM      7  C   UNL     1       8.651  37.105   5.161  1.00  0.00     0.093 A 
ATOM      8  C   UNL     1       9.209  36.724   3.942  1.00  0.00     0.123 A 
ATOM      9  C   UNL     1      10.557  36.372   3.876  1.00  0.00     0.094 A 
ATOM     10  C   UNL     1      11.345  36.370   5.029  1.00  0.00     0.146 A 
ATOM     11  O   UNL     1      12.621  36.018   4.925  1.00  0.00    -0.452 OA
ENDROOT
BRANCH   1  12
ATOM     12  C   UNL     1      14.860  35.579   5.705  1.00  0.00     0.029 A 
ATOM     13  C   UNL     1      15.739  36.520   5.148  1.00  0.00     0.062 A 
ATOM     14  C   UNL     1      17.083  36.191   4.915  1.00  0.00     0.162 A 
ATOM     15  C   UNL     1      15.349  34.311   6.063  1.00  0.00     0.062 A 
ATOM     16  C   UNL     1      17.559  34.914   5.257  1.00  0.00     0.200 A 
ATOM     17  C   UNL     1      16.692  33.978   5.834  1.00  0.00     0.162 A 
BRANCH  14  18
ATOM     18  O   UNL     1      17.944  37.128   4.348  1.00  0.00    -0.504 OA
ATOM     19  H   UNL     1      18.264  37.045   3.390  1.00  0.00     0.293 HD
ENDBRANCH  14  18
BRANCH  16  20
ATOM     20  O   UNL     1      18.890  34.563   5.033  1.00  0.00    -0.502 OA
ATOM     21  H   UNL     1      19.483  35.075   4.391  1.00  0.00     0.293 HD
ENDBRANCH  16  20
BRANCH  17  22
ATOM     22  O   UNL     1      17.172  32.717   6.184  1.00  0.00    -0.504 OA
ATOM     23  H   UNL     1      16.576  31.898   6.166  1.00  0.00     0.293 HD
ENDBRANCH  17  22
ENDBRANCH   1  12
BRANCH   2  24
ATOM     24  O   UNL     1      13.813  36.085   8.360  1.00  0.00    -0.502 OA
ATOM     25  H   UNL     1      13.840  36.758   9.115  1.00  0.00     0.293 HD
ENDBRANCH   2  24
BRANCH   6  26
ATOM     26  O   UNL     1       8.794  37.634   7.478  1.00  0.00    -0.507 OA
ATOM     27  H   UNL     1       9.273  38.024   8.275  1.00  0.00     0.293 HD
ENDBRANCH   6  26
BRANCH   8  28
ATOM     28  O   UNL     1       8.413  36.708   2.798  1.00  0.00    -0.508 OA
ATOM     29  H   UNL     1       7.408  36.825   2.850  1.00  0.00     0.293 HD
ENDBRANCH   8  28
TORSDOF 7
ENDMDL
MODEL 2
REMARK VINA RESULT:    -5.559      9.853     12.727
REMARK INTER + INTRA:          -7.129
REMARK INTER:                  -6.816
REMARK INTRA:                  -0.313
REMARK UNBOUND:                -0.270
REMARK SMILES O=c1c(O)c(-c2cc(O)c(O)c(O)c2)oc2cc(O)cc(O)c12
REMARK SMILES IDX 5 1 3 2 2 3 1 4 23 5 21 6 20 7 18 8 17 9 16 10 15 11 6 12
REMARK SMILES IDX 7 13 8 14 14 15 10 16 12 17 9 18 11 20 13 22 4 24 22 26
REMARK SMILES IDX 19 28
REMARK H PARENT 9 19 11 21 13 23 4 25 22 27 19 29
REMARK Flexibility Score: inf
ROOT
ATOM      1  C   UNL     1       7.387  27.387   4.230  1.00  0.00     0.180 A 
ATOM      2  C   UNL     1       7.820  28.676   3.872  1.00  0.00     0.208 A 
ATOM      3  C   UNL     1       9.197  28.926   3.763  1.00  0.00     0.238 A 
ATOM      4  O   UNL     1       9.575  30.067   3.390  1.00  0.00    -0.285 OA
ATOM      5  C   UNL     1      10.125  27.891   4.030  1.00  0.00     0.111 A 
ATOM      6  C   UNL     1      11.543  28.044   3.989  1.00  0.00     0.134 A 
ATOM      7  C   UNL     1      12.363  26.918   4.143  1.00  0.00     0.093 A 
ATOM      8  C   UNL     1      11.820  25.660   4.400  1.00  0.00     0.123 A 
ATOM      9  C   UNL     1      10.436  25.511   4.500  1.00  0.00     0.094 A 
ATOM     10  C   UNL     1       9.591  26.607   4.315  1.00  0.00     0.146 A 
ATOM     11  O   UNL     1       8.279  26.420   4.409  1.00  0.00    -0.452 OA
ENDROOT
BRANCH   1  12
ATOM     12  C   UNL     1       5.953  27.053   4.389  1.00  0.00     0.029 A 
ATOM     13  C   UNL     1       5.322  26.246   3.430  1.00  0.00     0.062 A 
ATOM     14  C   UNL     1       3.970  25.898   3.567  1.00  0.00     0.162 A 
ATOM     15  C   UNL     1       5.224  27.479   5.512  1.00  0.00     0.062 A 
ATOM     16  C   UNL     1       3.243  26.346   4.683  1.00  0.00     0.200 A 
ATOM     17  C   UNL     1       3.873  27.133   5.655  1.00  0.00     0.162 A 
BRANCH  14  18
ATOM     18  O   UNL     1       3.350  25.109   2.601  1.00  0.00    -0.504 OA
ATOM     19  H   UNL     1       3.216  24.113   2.735  1.00  0.00     0.293 HD
ENDBRANCH  14  18
BRANCH  16  20
ATOM     20  O   UNL     1       1.897  26.015   4.841  1.00  0.00    -0.502 OA
ATOM     21  H   UNL     1       1.325  26.417   5.573  1.00  0.00     0.293 HD
ENDBRANCH  16  20
BRANCH  17  22
ATOM     22  O   UNL     1       3.151  27.563   6.767  1.00  0.00    -0.504 OA
ATOM     23  H   UNL     1       3.132  27.029   7.628  1.00  0.00     0.293 HD
ENDBRANCH  17  22
ENDBRANCH   1  12
BRANCH   2  24
ATOM     24  O   UNL     1       6.886  29.678   3.592  1.00  0.00    -0.502 OA
ATOM     25  H   UNL     1       6.805  30.105   2.678  1.00  0.00     0.293 HD
ENDBRANCH   2  24
BRANCH   6  26
ATOM     26  O   UNL     1      12.191  29.272   3.831  1.00  0.00    -0.507 OA
ATOM     27  H   UNL     1      13.018  29.418   3.271  1.00  0.00     0.293 HD
ENDBRANCH   6  26
BRANCH   8  28
ATOM     28  O   UNL     1      12.667  24.566   4.561  1.00  0.00    -0.508 OA
ATOM     29  H   UNL     1      12.901  23.958   3.785  1.00  0.00     0.293 HD
ENDBRANCH   8  28
TORSDOF 7
ENDMDL
MODEL 3
REMARK VINA RESULT:    -5.559      9.583     10.778
REMARK INTER + INTRA:          -7.128
REMARK INTER:                  -6.827
REMARK INTRA:                  -0.302
REMARK UNBOUND:                -0.270
REMARK SMILES O=c1c(O)c(-c2cc(O)c(O)c(O)c2)oc2cc(O)cc(O)c12
REMARK SMILES IDX 5 1 3 2 2 3 1 4 23 5 21 6 20 7 18 8 17 9 16 10 15 11 6 12
REMARK SMILES IDX 7 13 8 14 14 15 10 16 12 17 9 18 11 20 13 22 4 24 22 26
REMARK SMILES IDX 19 28
REMARK H PARENT 9 19 11 21 13 23 4 25 22 27 19 29
REMARK Flexibility Score: inf
ROOT
ATOM      1  C   UNL     1       8.531  26.950   3.516  1.00  0.00     0.180 A 
ATOM      2  C   UNL     1       8.000  26.512   2.291  1.00  0.00     0.208 A 
ATOM      3  C   UNL     1       6.610  26.561   2.096  1.00  0.00     0.238 A 
ATOM      4  O   UNL     1       6.146  26.218   0.977  1.00  0.00    -0.285 OA
ATOM      5  C   UNL     1       5.768  27.031   3.131  1.00  0.00     0.111 A 
ATOM      6  C   UNL     1       4.345  27.086   3.056  1.00  0.00     0.134 A 
ATOM      7  C   UNL     1       3.621  27.692   4.092  1.00  0.00     0.093 A 
ATOM      8  C   UNL     1       4.264  28.185   5.227  1.00  0.00     0.123 A 
ATOM      9  C   UNL     1       5.651  28.083   5.336  1.00  0.00     0.094 A 
ATOM     10  C   UNL     1       6.403  27.517   4.304  1.00  0.00     0.146 A 
ATOM     11  O   UNL     1       7.722  27.447   4.444  1.00  0.00    -0.452 OA
ENDROOT
BRANCH   1  12
ATOM     12  C   UNL     1       9.983  26.905   3.807  1.00  0.00     0.029 A 
ATOM     13  C   UNL     1      10.710  28.104   3.877  1.00  0.00     0.062 A 
ATOM     14  C   UNL     1      12.081  28.091   4.170  1.00  0.00     0.162 A 
ATOM     15  C   UNL     1      10.638  25.690   4.072  1.00  0.00     0.062 A 
ATOM     16  C   UNL     1      12.732  26.869   4.414  1.00  0.00     0.200 A 
ATOM     17  C   UNL     1      12.008  25.672   4.368  1.00  0.00     0.162 A 
BRANCH  14  18
ATOM     18  O   UNL     1      12.797  29.286   4.223  1.00  0.00    -0.504 OA
ATOM     19  H   UNL     1      12.347  30.164   4.456  1.00  0.00     0.293 HD
ENDBRANCH  14  18
BRANCH  16  20
ATOM     20  O   UNL     1      14.096  26.831   4.705  1.00  0.00    -0.502 OA
ATOM     21  H   UNL     1      14.804  26.911   3.986  1.00  0.00     0.293 HD
ENDBRANCH  16  20
BRANCH  17  22
ATOM     22  O   UNL     1      12.656  24.465   4.623  1.00  0.00    -0.504 OA
ATOM     23  H   UNL     1      12.288  23.795   5.289  1.00  0.00     0.293 HD
ENDBRANCH  17  22
ENDBRANCH   1  12
BRANCH   2  24
ATOM     24  O   UNL     1       8.851  26.071   1.274  1.00  0.00    -0.502 OA
ATOM     25  H   UNL     1       9.798  26.413   1.171  1.00  0.00     0.293 HD
ENDBRANCH   2  24
BRANCH   6  26
ATOM     26  O   UNL     1       3.597  26.541   2.009  1.00  0.00    -0.507 OA
ATOM     27  H   UNL     1       3.967  25.936   1.292  1.00  0.00     0.293 HD
ENDBRANCH   6  26
BRANCH   8  28
ATOM     28  O   UNL     1       3.511  28.768   6.244  1.00  0.00    -0.508 OA
ATOM     29  H   UNL     1       2.523  28.570   6.351  1.00  0.00     0.293 HD
ENDBRANCH   8  28
TORSDOF 7
ENDMDL
MODEL 4
REMARK VINA RESULT:    -5.538      9.818     10.615
REMARK INTER + INTRA:          -7.103
REMARK INTER:                  -7.104
REMARK INTRA:                   0.001
REMARK UNBOUND:                -0.270
REMARK SMILES O=c1c(O)c(-c2cc(O)c(O)c(O)c2)oc2cc(O)cc(O)c12
REMARK SMILES IDX 5 1 3 2 2 3 1 4 23 5 21 6 20 7 18 8 17 9 16 10 15 11 6 12
REMARK SMILES IDX 7 13 8 14 14 15 10 16 12 17 9 18 11 20 13 22 4 24 22 26
REMARK SMILES IDX 19 28
REMARK H PARENT 9 19 11 21 13 23 4 25 22 27 19 29
REMARK Flexibility Score: inf
ROOT
ATOM      1  C   UNL     1       8.083  26.712   4.850  1.00  0.00     0.180 A 
ATOM      2  C   UNL     1       7.313  26.093   5.849  1.00  0.00     0.208 A 
ATOM      3  C   UNL     1       5.991  26.520   6.052  1.00  0.00     0.238 A 
ATOM      4  O   UNL     1       5.290  25.925   6.912  1.00  0.00    -0.285 OA
ATOM      5  C   UNL     1       5.461  27.570   5.265  1.00  0.00     0.111 A 
ATOM      6  C   UNL     1       4.148  28.108   5.411  1.00  0.00     0.134 A 
ATOM      7  C   UNL     1       3.684  29.058   4.491  1.00  0.00     0.093 A 
ATOM      8  C   UNL     1       4.507  29.534   3.471  1.00  0.00     0.123 A 
ATOM      9  C   UNL     1       5.813  29.056   3.355  1.00  0.00     0.094 A 
ATOM     10  C   UNL     1       6.291  28.083   4.235  1.00  0.00     0.146 A 
ATOM     11  O   UNL     1       7.537  27.648   4.084  1.00  0.00    -0.452 OA
ENDROOT
BRANCH   1  12
ATOM     12  C   UNL     1       9.493  26.334   4.593  1.00  0.00     0.029 A 
ATOM     13  C   UNL     1      10.479  27.331   4.561  1.00  0.00     0.062 A 
ATOM     14  C   UNL     1      11.824  26.999   4.340  1.00  0.00     0.162 A 
ATOM     15  C   UNL     1       9.872  24.990   4.439  1.00  0.00     0.062 A 
ATOM     16  C   UNL     1      12.191  25.654   4.166  1.00  0.00     0.200 A 
ATOM     17  C   UNL     1      11.215  24.652   4.219  1.00  0.00     0.162 A 
BRANCH  14  18
ATOM     18  O   UNL     1      12.793  27.999   4.295  1.00  0.00    -0.504 OA
ATOM     19  H   UNL     1      13.654  27.881   3.773  1.00  0.00     0.293 HD
ENDBRANCH  14  18
BRANCH  16  20
ATOM     20  O   UNL     1      13.522  25.299   3.943  1.00  0.00    -0.502 OA
ATOM     21  H   UNL     1      13.955  25.375   3.030  1.00  0.00     0.293 HD
ENDBRANCH  16  20
BRANCH  17  22
ATOM     22  O   UNL     1      11.587  23.318   4.059  1.00  0.00    -0.504 OA
ATOM     23  H   UNL     1      11.894  22.755   4.843  1.00  0.00     0.293 HD
ENDBRANCH  17  22
ENDBRANCH   1  12
BRANCH   2  24
ATOM     24  O   UNL     1       7.849  25.043   6.601  1.00  0.00    -0.502 OA
ATOM     25  H   UNL     1       7.335  24.591   7.347  1.00  0.00     0.293 HD
ENDBRANCH   2  24
BRANCH   6  26
ATOM     26  O   UNL     1       3.277  27.770   6.451  1.00  0.00    -0.507 OA
ATOM     27  H   UNL     1       2.841  28.432   7.075  1.00  0.00     0.293 HD
ENDBRANCH   6  26
BRANCH   8  28
ATOM     28  O   UNL     1       4.017  30.489   2.583  1.00  0.00    -0.508 OA
ATOM     29  H   UNL     1       3.737  30.242   1.641  1.00  0.00     0.293 HD
ENDBRANCH   8  28
TORSDOF 7
ENDMDL
MODEL 5
REMARK VINA RESULT:    -5.475     10.978     13.573
REMARK INTER + INTRA:          -7.025
REMARK INTER:                  -6.781
REMARK INTRA:                  -0.244
REMARK UNBOUND:                -0.270
REMARK SMILES O=c1c(O)c(-c2cc(O)c(O)c(O)c2)oc2cc(O)cc(O)c12
REMARK SMILES IDX 5 1 3 2 2 3 1 4 23 5 21 6 20 7 18 8 17 9 16 10 15 11 6 12
REMARK SMILES IDX 7 13 8 14 14 15 10 16 12 17 9 18 11 20 13 22 4 24 22 26
REMARK SMILES IDX 19 28
REMARK H PARENT 9 19 11 21 13 23 4 25 22 27 19 29
REMARK Flexibility Score: inf
ROOT
ATOM      1  C   UNL     1       7.608  25.538   4.648  1.00  0.00     0.180 A 
ATOM      2  C   UNL     1       8.245  24.291   4.770  1.00  0.00     0.208 A 
ATOM      3  C   UNL     1       9.646  24.234   4.705  1.00  0.00     0.238 A 
ATOM      4  O   UNL     1      10.213  23.122   4.870  1.00  0.00    -0.285 OA
ATOM      5  C   UNL     1      10.392  25.420   4.503  1.00  0.00     0.111 A 
ATOM      6  C   UNL     1      11.813  25.472   4.382  1.00  0.00     0.134 A 
ATOM      7  C   UNL     1      12.454  26.716   4.314  1.00  0.00     0.093 A 
ATOM      8  C   UNL     1      11.724  27.903   4.298  1.00  0.00     0.123 A 
ATOM      9  C   UNL     1      10.330  27.860   4.357  1.00  0.00     0.094 A 
ATOM     10  C   UNL     1       9.664  26.637   4.461  1.00  0.00     0.146 A 
ATOM     11  O   UNL     1       8.338  26.640   4.525  1.00  0.00    -0.452 OA
ENDROOT
BRANCH   1  12
ATOM     12  C   UNL     1       6.134  25.676   4.681  1.00  0.00     0.029 A 
ATOM     13  C   UNL     1       5.531  26.395   5.724  1.00  0.00     0.062 A 
ATOM     14  C   UNL     1       4.138  26.558   5.768  1.00  0.00     0.162 A 
ATOM     15  C   UNL     1       5.328  25.151   3.656  1.00  0.00     0.062 A 
ATOM     16  C   UNL     1       3.338  26.012   4.750  1.00  0.00     0.200 A 
ATOM     17  C   UNL     1       3.935  25.313   3.694  1.00  0.00     0.162 A 
BRANCH  14  18
ATOM     18  O   UNL     1       3.549  27.262   6.817  1.00  0.00    -0.504 OA
ATOM     19  H   UNL     1       3.791  27.076   7.783  1.00  0.00     0.293 HD
ENDBRANCH  14  18
BRANCH  16  20
ATOM     20  O   UNL     1       1.952  26.159   4.773  1.00  0.00    -0.502 OA
ATOM     21  H   UNL     1       1.323  25.377   4.630  1.00  0.00     0.293 HD
ENDBRANCH  16  20
BRANCH  17  22
ATOM     22  O   UNL     1       3.139  24.784   2.680  1.00  0.00    -0.504 OA
ATOM     23  H   UNL     1       2.216  24.411   2.869  1.00  0.00     0.293 HD
ENDBRANCH  17  22
ENDBRANCH   1  12
BRANCH   2  24
ATOM     24  O   UNL     1       7.491  23.135   4.991  1.00  0.00    -0.502 OA
ATOM     25  H   UNL     1       7.915  22.222   5.101  1.00  0.00     0.293 HD
ENDBRANCH   2  24
BRANCH   6  26
ATOM     26  O   UNL     1      12.631  24.343   4.295  1.00  0.00    -0.507 OA
ATOM     27  H   UNL     1      12.776  23.801   3.457  1.00  0.00     0.293 HD
ENDBRANCH   6  26
BRANCH   8  28
ATOM     28  O   UNL     1      12.394  29.122   4.215  1.00  0.00    -0.508 OA
ATOM     29  H   UNL     1      12.205  29.781   3.469  1.00  0.00     0.293 HD
ENDBRANCH   8  28
TORSDOF 7
ENDMDL
MODEL 6
REMARK VINA RESULT:    -5.467     10.389     11.606
REMARK INTER + INTRA:          -7.015
REMARK INTER:                  -6.784
REMARK INTRA:                  -0.231
REMARK UNBOUND:                -0.270
REMARK SMILES O=c1c(O)c(-c2cc(O)c(O)c(O)c2)oc2cc(O)cc(O)c12
REMARK SMILES IDX 5 1 3 2 2 3 1 4 23 5 21 6 20 7 18 8 17 9 16 10 15 11 6 12
REMARK SMILES IDX 7 13 8 14 14 15 10 16 12 17 9 18 11 20 13 22 4 24 22 26
REMARK SMILES IDX 19 28
REMARK H PARENT 9 19 11 21 13 23 4 25 22 27 19 29
REMARK Flexibility Score: inf
ROOT
ATOM      1  C   UNL     1       8.209  26.277   3.922  1.00  0.00     0.180 A 
ATOM      2  C   UNL     1       7.675  25.703   2.756  1.00  0.00     0.208 A 
ATOM      3  C   UNL     1       6.283  25.557   2.646  1.00  0.00     0.238 A 
ATOM      4  O   UNL     1       5.808  25.091   1.577  1.00  0.00    -0.285 OA
ATOM      5  C   UNL     1       5.444  25.970   3.709  1.00  0.00     0.111 A 
ATOM      6  C   UNL     1       4.024  25.832   3.721  1.00  0.00     0.134 A 
ATOM      7  C   UNL     1       3.285  26.395   4.769  1.00  0.00     0.093 A 
ATOM      8  C   UNL     1       3.917  27.033   5.835  1.00  0.00     0.123 A 
ATOM      9  C   UNL     1       5.309  27.122   5.862  1.00  0.00     0.094 A 
ATOM     10  C   UNL     1       6.072  26.602   4.814  1.00  0.00     0.146 A 
ATOM     11  O   UNL     1       7.394  26.716   4.873  1.00  0.00    -0.452 OA
ENDROOT
BRANCH   1  12
ATOM     12  C   UNL     1       9.668  26.442   4.122  1.00  0.00     0.029 A 
ATOM     13  C   UNL     1      10.477  25.306   4.270  1.00  0.00     0.062 A 
ATOM     14  C   UNL     1      11.863  25.433   4.441  1.00  0.00     0.162 A 
ATOM     15  C   UNL     1      10.268  27.713   4.109  1.00  0.00     0.062 A 
ATOM     16  C   UNL     1      12.452  26.709   4.448  1.00  0.00     0.200 A 
ATOM     17  C   UNL     1      11.653  27.846   4.278  1.00  0.00     0.162 A 
BRANCH  14  18
ATOM     18  O   UNL     1      12.656  24.298   4.602  1.00  0.00    -0.504 OA
ATOM     19  H   UNL     1      12.250  23.393   4.811  1.00  0.00     0.293 HD
ENDBRANCH  14  18
BRANCH  16  20
ATOM     20  O   UNL     1      13.828  26.861   4.619  1.00  0.00    -0.502 OA
ATOM     21  H   UNL     1      14.222  27.375   5.398  1.00  0.00     0.293 HD
ENDBRANCH  16  20
BRANCH  17  22
ATOM     22  O   UNL     1      12.244  29.109   4.272  1.00  0.00    -0.504 OA
ATOM     23  H   UNL     1      11.725  29.936   4.004  1.00  0.00     0.293 HD
ENDBRANCH  17  22
ENDBRANCH   1  12
BRANCH   2  24
ATOM     24  O   UNL     1       8.519  25.321   1.709  1.00  0.00    -0.502 OA
ATOM     25  H   UNL     1       9.129  25.977   1.236  1.00  0.00     0.293 HD
ENDBRANCH   2  24
BRANCH   6  26
ATOM     26  O   UNL     1       3.300  25.133   2.751  1.00  0.00    -0.507 OA
ATOM     27  H   UNL     1       3.707  24.661   1.958  1.00  0.00     0.293 HD
ENDBRANCH   6  26
BRANCH   8  28
ATOM     28  O   UNL     1       3.151  27.569   6.868  1.00  0.00    -0.508 OA
ATOM     29  H   UNL     1       2.856  27.005   7.657  1.00  0.00     0.293 HD
ENDBRANCH   8  28
TORSDOF 7
ENDMDL
MODEL 7
REMARK VINA RESULT:    -5.456     10.131     11.053
REMARK INTER + INTRA:          -7.001
REMARK INTER:                  -6.636
REMARK INTRA:                  -0.365
REMARK UNBOUND:                -0.270
REMARK SMILES O=c1c(O)c(-c2cc(O)c(O)c(O)c2)oc2cc(O)cc(O)c12
REMARK SMILES IDX 5 1 3 2 2 3 1 4 23 5 21 6 20 7 18 8 17 9 16 10 15 11 6 12
REMARK SMILES IDX 7 13 8 14 14 15 10 16 12 17 9 18 11 20 13 22 4 24 22 26
REMARK SMILES IDX 19 28
REMARK H PARENT 9 19 11 21 13 23 4 25 22 27 19 29
REMARK Flexibility Score: inf
ROOT
ATOM      1  C   UNL     1       8.307  26.635   4.398  1.00  0.00     0.180 A 
ATOM      2  C   UNL     1       7.542  26.768   5.570  1.00  0.00     0.208 A 
ATOM      3  C   UNL     1       6.142  26.711   5.478  1.00  0.00     0.238 A 
ATOM      4  O   UNL     1       5.466  26.776   6.538  1.00  0.00    -0.285 OA
ATOM      5  C   UNL     1       5.524  26.539   4.217  1.00  0.00     0.111 A 
ATOM      6  C   UNL     1       4.114  26.507   4.004  1.00  0.00     0.134 A 
ATOM      7  C   UNL     1       3.614  26.201   2.731  1.00  0.00     0.093 A 
ATOM      8  C   UNL     1       4.472  25.989   1.652  1.00  0.00     0.123 A 
ATOM      9  C   UNL     1       5.853  26.076   1.838  1.00  0.00     0.094 A 
ATOM     10  C   UNL     1       6.381  26.344   3.103  1.00  0.00     0.146 A 
ATOM     11  O   UNL     1       7.701  26.409   3.239  1.00  0.00    -0.452 OA
ENDROOT
BRANCH   1  12
ATOM     12  C   UNL     1       9.786  26.709   4.409  1.00  0.00     0.029 A 
ATOM     13  C   UNL     1      10.537  25.524   4.447  1.00  0.00     0.062 A 
ATOM     14  C   UNL     1      11.939  25.566   4.438  1.00  0.00     0.162 A 
ATOM     15  C   UNL     1      10.456  27.942   4.325  1.00  0.00     0.062 A 
ATOM     16  C   UNL     1      12.600  26.804   4.375  1.00  0.00     0.200 A 
ATOM     17  C   UNL     1      11.858  27.989   4.315  1.00  0.00     0.162 A 
BRANCH  14  18
ATOM     18  O   UNL     1      12.674  24.383   4.490  1.00  0.00    -0.504 OA
ATOM     19  H   UNL     1      12.907  23.865   3.650  1.00  0.00     0.293 HD
ENDBRANCH  14  18
BRANCH  16  20
ATOM     20  O   UNL     1      13.994  26.871   4.368  1.00  0.00    -0.502 OA
ATOM     21  H   UNL     1      14.562  26.375   5.044  1.00  0.00     0.293 HD
ENDBRANCH  16  20
BRANCH  17  22
ATOM     22  O   UNL     1      12.519  29.214   4.239  1.00  0.00    -0.504 OA
ATOM     23  H   UNL     1      13.520  29.268   4.094  1.00  0.00     0.293 HD
ENDBRANCH  17  22
ENDBRANCH   1  12
BRANCH   2  24
ATOM     24  O   UNL     1       8.173  26.915   6.808  1.00  0.00    -0.502 OA
ATOM     25  H   UNL     1       9.090  26.531   7.000  1.00  0.00     0.293 HD
ENDBRANCH   2  24
BRANCH   6  26
ATOM     26  O   UNL     1       3.168  26.795   4.992  1.00  0.00    -0.507 OA
ATOM     27  H   UNL     1       3.335  26.729   5.985  1.00  0.00     0.293 HD
ENDBRANCH   6  26
BRANCH   8  28
ATOM     28  O   UNL     1       3.940  25.701   0.397  1.00  0.00    -0.508 OA
ATOM     29  H   UNL     1       3.299  26.335  -0.064  1.00  0.00     0.293 HD
ENDBRANCH   8  28
TORSDOF 7
ENDMDL
MODEL 8
REMARK VINA RESULT:    -5.443      9.490     12.447
REMARK INTER + INTRA:          -6.986
REMARK INTER:                  -6.731
REMARK INTRA:                  -0.255
REMARK UNBOUND:                -0.270
REMARK SMILES O=c1c(O)c(-c2cc(O)c(O)c(O)c2)oc2cc(O)cc(O)c12
REMARK SMILES IDX 5 1 3 2 2 3 1 4 23 5 21 6 20 7 18 8 17 9 16 10 15 11 6 12
REMARK SMILES IDX 7 13 8 14 14 15 10 16 12 17 9 18 11 20 13 22 4 24 22 26
REMARK SMILES IDX 19 28
REMARK H PARENT 9 19 11 21 13 23 4 25 22 27 19 29
REMARK Flexibility Score: inf
ROOT
ATOM      1  C   UNL     1       7.940  27.059   4.260  1.00  0.00     0.180 A 
ATOM      2  C   UNL     1       8.108  25.705   4.595  1.00  0.00     0.208 A 
ATOM      3  C   UNL     1       9.408  25.180   4.676  1.00  0.00     0.238 A 
ATOM      4  O   UNL     1       9.553  23.981   5.029  1.00  0.00    -0.285 OA
ATOM      5  C   UNL     1      10.522  26.011   4.406  1.00  0.00     0.111 A 
ATOM      6  C   UNL     1      11.880  25.574   4.419  1.00  0.00     0.134 A 
ATOM      7  C   UNL     1      12.909  26.513   4.265  1.00  0.00     0.093 A 
ATOM      8  C   UNL     1      12.627  27.858   4.033  1.00  0.00     0.123 A 
ATOM      9  C   UNL     1      11.301  28.285   3.959  1.00  0.00     0.094 A 
ATOM     10  C   UNL     1      10.254  27.380   4.145  1.00  0.00     0.146 A 
ATOM     11  O   UNL     1       9.007  27.829   4.077  1.00  0.00    -0.452 OA
ENDROOT
BRANCH   1  12
ATOM     12  C   UNL     1       6.601  27.679   4.131  1.00  0.00     0.029 A 
ATOM     13  C   UNL     1       6.105  27.991   2.856  1.00  0.00     0.062 A 
ATOM     14  C   UNL     1       4.833  28.560   2.704  1.00  0.00     0.162 A 
ATOM     15  C   UNL     1       5.791  27.909   5.256  1.00  0.00     0.062 A 
ATOM     16  C   UNL     1       4.037  28.806   3.836  1.00  0.00     0.200 A 
ATOM     17  C   UNL     1       4.517  28.476   5.109  1.00  0.00     0.162 A 
BRANCH  14  18
ATOM     18  O   UNL     1       4.356  28.879   1.434  1.00  0.00    -0.504 OA
ATOM     19  H   UNL     1       4.954  28.838   0.616  1.00  0.00     0.293 HD
ENDBRANCH  14  18
BRANCH  16  20
ATOM     20  O   UNL     1       2.769  29.373   3.711  1.00  0.00    -0.502 OA
ATOM     21  H   UNL     1       1.933  28.809   3.608  1.00  0.00     0.293 HD
ENDBRANCH  16  20
BRANCH  17  22
ATOM     22  O   UNL     1       3.719  28.709   6.228  1.00  0.00    -0.504 OA
ATOM     23  H   UNL     1       3.467  29.648   6.514  1.00  0.00     0.293 HD
ENDBRANCH  17  22
ENDBRANCH   1  12
BRANCH   2  24
ATOM     24  O   UNL     1       6.996  24.908   4.879  1.00  0.00    -0.502 OA
ATOM     25  H   UNL     1       6.255  25.210   5.500  1.00  0.00     0.293 HD
ENDBRANCH   2  24
BRANCH   6  26
ATOM     26  O   UNL     1      12.269  24.238   4.551  1.00  0.00    -0.507 OA
ATOM     27  H   UNL     1      11.713  23.517   4.986  1.00  0.00     0.293 HD
ENDBRANCH   6  26
BRANCH   8  28
ATOM     28  O   UNL     1      13.675  28.761   3.869  1.00  0.00    -0.508 OA
ATOM     29  H   UNL     1      13.516  29.761   3.857  1.00  0.00     0.293 HD
ENDBRANCH   8  28
TORSDOF 7
ENDMDL
MODEL 9
REMARK VINA RESULT:    -5.423      1.096      3.291
REMARK INTER + INTRA:          -6.961
REMARK INTER:                  -6.648
REMARK INTRA:                  -0.313
REMARK UNBOUND:                -0.270
REMARK SMILES O=c1c(O)c(-c2cc(O)c(O)c(O)c2)oc2cc(O)cc(O)c12
REMARK SMILES IDX 5 1 3 2 2 3 1 4 23 5 21 6 20 7 18 8 17 9 16 10 15 11 6 12
REMARK SMILES IDX 7 13 8 14 14 15 10 16 12 17 9 18 11 20 13 22 4 24 22 26
REMARK SMILES IDX 19 28
REMARK H PARENT 9 19 11 21 13 23 4 25 22 27 19 29
REMARK Flexibility Score: inf
ROOT
ATOM      1  C   UNL     1      13.362  35.871   4.978  1.00  0.00     0.180 A 
ATOM      2  C   UNL     1      12.684  35.744   3.753  1.00  0.00     0.208 A 
ATOM      3  C   UNL     1      11.303  35.993   3.711  1.00  0.00     0.238 A 
ATOM      4  O   UNL     1      10.712  35.929   2.602  1.00  0.00    -0.285 OA
ATOM      5  C   UNL     1      10.614  36.350   4.896  1.00  0.00     0.111 A 
ATOM      6  C   UNL     1       9.210  36.585   4.976  1.00  0.00     0.134 A 
ATOM      7  C   UNL     1       8.657  37.060   6.173  1.00  0.00     0.093 A 
ATOM      8  C   UNL     1       9.445  37.245   7.307  1.00  0.00     0.123 A 
ATOM      9  C   UNL     1      10.810  36.961   7.255  1.00  0.00     0.094 A 
ATOM     10  C   UNL     1      11.397  36.521   6.067  1.00  0.00     0.146 A 
ATOM     11  O   UNL     1      12.702  36.272   6.057  1.00  0.00    -0.452 OA
ENDROOT
BRANCH   1  12
ATOM     12  C   UNL     1      14.813  35.601   5.107  1.00  0.00     0.029 A 
ATOM     13  C   UNL     1      15.243  34.368   5.621  1.00  0.00     0.062 A 
ATOM     14  C   UNL     1      16.610  34.079   5.735  1.00  0.00     0.162 A 
ATOM     15  C   UNL     1      15.771  36.533   4.672  1.00  0.00     0.062 A 
ATOM     16  C   UNL     1      17.562  35.025   5.317  1.00  0.00     0.200 A 
ATOM     17  C   UNL     1      17.140  36.249   4.782  1.00  0.00     0.162 A 
BRANCH  14  18
ATOM     18  O   UNL     1      17.025  32.857   6.260  1.00  0.00    -0.504 OA
ATOM     19  H   UNL     1      17.513  32.798   7.146  1.00  0.00     0.293 HD
ENDBRANCH  14  18
BRANCH  16  20
ATOM     20  O   UNL     1      18.927  34.762   5.423  1.00  0.00    -0.502 OA
ATOM     21  H   UNL     1      19.464  34.374   4.655  1.00  0.00     0.293 HD
ENDBRANCH  16  20
BRANCH  17  22
ATOM     22  O   UNL     1      18.087  37.178   4.357  1.00  0.00    -0.504 OA
ATOM     23  H   UNL     1      17.819  38.099   4.030  1.00  0.00     0.293 HD
ENDBRANCH  17  22
ENDBRANCH   1  12
BRANCH   2  24
ATOM     24  O   UNL     1      13.387  35.411   2.592  1.00  0.00    -0.502 OA
ATOM     25  H   UNL     1      14.398  35.386   2.557  1.00  0.00     0.293 HD
ENDBRANCH   2  24
BRANCH   6  26
ATOM     26  O   UNL     1       8.316  36.344   3.928  1.00  0.00    -0.507 OA
ATOM     27  H   UNL     1       7.405  35.924   4.034  1.00  0.00     0.293 HD
ENDBRANCH   6  26
BRANCH   8  28
ATOM     28  O   UNL     1       8.859  37.704   8.484  1.00  0.00    -0.508 OA
ATOM     29  H   UNL     1       9.417  38.071   9.246  1.00  0.00     0.293 HD
ENDBRANCH   8  28
TORSDOF 7
ENDMDL
