MODEL 1
REMARK VINA RESULT:    45.067      0.000      0.000
REMARK INTER + INTRA:          49.019
REMARK INTER:                  49.019
REMARK INTRA:                   0.000
REMARK UNBOUND:                 0.000
REMARK SMILES Cc1cc(O)c2c(c1)C(=O)c1cc(O)cc(O)c1C2=O
REMARK SMILES IDX 1 1 2 2 8 3 7 4 6 5 4 6 3 7 19 8 20 9 18 10 11 11 9 12 10 13
REMARK SMILES IDX 12 14 13 15 15 16 16 17 5 18 17 20 14 22
REMARK H PARENT 5 19 17 21 14 23
REMARK Flexibility Score: inf
ROOT
ATOM      1  C   UNL     1       9.019  74.585   5.764  1.00  0.00     0.044 C 
ATOM      2  C   UNL     1      10.047  75.588   5.329  1.00  0.00    -0.047 A 
ATOM      3  C   UNL     1      10.274  75.818   3.968  1.00  0.00     0.016 A 
ATOM      4  C   UNL     1      11.215  76.773   3.549  1.00  0.00     0.038 A 
ATOM      5  C   UNL     1      11.941  77.513   4.509  1.00  0.00     0.076 A 
ATOM      6  C   UNL     1      11.646  77.336   5.886  1.00  0.00     0.127 A 
ATOM      7  C   UNL     1      10.720  76.364   6.279  1.00  0.00     0.050 A 
ATOM      8  C   UNL     1      13.029  78.406   4.033  1.00  0.00     0.201 C 
ATOM      9  O   UNL     1      14.028  78.622   4.769  1.00  0.00    -0.288 OA
ATOM     10  C   UNL     1      13.027  78.887   2.627  1.00  0.00     0.076 A 
ATOM     11  C   UNL     1      12.297  78.146   1.670  1.00  0.00     0.041 A 
ATOM     12  C   UNL     1      11.443  77.016   2.105  1.00  0.00     0.194 C 
ATOM     13  O   UNL     1      10.891  76.275   1.245  1.00  0.00    -0.289 OA
ATOM     14  C   UNL     1      12.382  78.488   0.309  1.00  0.00     0.059 A 
ATOM     15  C   UNL     1      13.168  79.564  -0.104  1.00  0.00     0.120 A 
ATOM     16  C   UNL     1      13.859  80.323   0.843  1.00  0.00     0.093 A 
ATOM     17  C   UNL     1      13.775  80.016   2.204  1.00  0.00     0.131 A 
ENDROOT
BRANCH   6  18
ATOM     18  O   UNL     1      12.217  78.123   6.887  1.00  0.00    -0.507 OA
ATOM     19  H   UNL     1      11.849  78.184   7.828  1.00  0.00     0.293 HD
ENDBRANCH   6  18
BRANCH  17  20
ATOM     20  O   UNL     1      14.418  80.875   3.100  1.00  0.00    -0.507 OA
ATOM     21  H   UNL     1      14.550  81.862   2.930  1.00  0.00     0.293 HD
ENDBRANCH  17  20
BRANCH  15  22
ATOM     22  O   UNL     1      13.246  79.876  -1.459  1.00  0.00    -0.508 OA
ATOM     23  H   UNL     1      14.129  80.109  -1.900  1.00  0.00     0.293 HD
ENDBRANCH  15  22
TORSDOF 3
ENDMDL
MODEL 2
REMARK VINA RESULT:    45.079      2.197      5.036
REMARK INTER + INTRA:          49.033
REMARK INTER:                  49.033
REMARK INTRA:                   0.000
REMARK UNBOUND:                 0.000
REMARK SMILES Cc1cc(O)c2c(c1)C(=O)c1cc(O)cc(O)c1C2=O
REMARK SMILES IDX 1 1 2 2 8 3 7 4 6 5 4 6 3 7 19 8 20 9 18 10 11 11 9 12 10 13
REMARK SMILES IDX 12 14 13 15 15 16 16 17 5 18 17 20 14 22
REMARK H PARENT 5 19 17 21 14 23
REMARK Flexibility Score: inf
ROOT
ATOM      1  C   UNL     1       8.521  73.770  -0.214  1.00  0.00     0.044 C 
ATOM      2  C   UNL     1       9.459  74.681   0.521  1.00  0.00    -0.047 A 
ATOM      3  C   UNL     1       9.213  75.016   1.857  1.00  0.00     0.016 A 
ATOM      4  C   UNL     1      10.099  75.847   2.563  1.00  0.00     0.038 A 
ATOM      5  C   UNL     1      11.254  76.350   1.921  1.00  0.00     0.076 A 
ATOM      6  C   UNL     1      11.541  75.939   0.594  1.00  0.00     0.127 A 
ATOM      7  C   UNL     1      10.633  75.128  -0.095  1.00  0.00     0.050 A 
ATOM      8  C   UNL     1      12.087  77.341   2.649  1.00  0.00     0.201 C 
ATOM      9  O   UNL     1      12.728  78.214   2.005  1.00  0.00    -0.288 OA
ATOM     10  C   UNL     1      12.014  77.420   4.131  1.00  0.00     0.076 A 
ATOM     11  C   UNL     1      10.860  76.912   4.771  1.00  0.00     0.041 A 
ATOM     12  C   UNL     1       9.835  76.191   3.980  1.00  0.00     0.194 C 
ATOM     13  O   UNL     1       8.747  75.847   4.520  1.00  0.00    -0.289 OA
ATOM     14  C   UNL     1      10.692  77.091   6.154  1.00  0.00     0.059 A 
ATOM     15  C   UNL     1      11.663  77.752   6.907  1.00  0.00     0.120 A 
ATOM     16  C   UNL     1      12.823  78.219   6.287  1.00  0.00     0.093 A 
ATOM     17  C   UNL     1      13.024  78.036   4.915  1.00  0.00     0.131 A 
ENDROOT
BRANCH   6  18
ATOM     18  O   UNL     1      12.726  76.279  -0.061  1.00  0.00    -0.507 OA
ATOM     19  H   UNL     1      13.634  76.270   0.385  1.00  0.00     0.293 HD
ENDBRANCH   6  18
BRANCH  17  20
ATOM     20  O   UNL     1      14.248  78.448   4.382  1.00  0.00    -0.507 OA
ATOM     21  H   UNL     1      14.853  79.124   4.828  1.00  0.00     0.293 HD
ENDBRANCH  17  20
BRANCH  15  22
ATOM     22  O   UNL     1      11.469  77.928   8.275  1.00  0.00    -0.508 OA
ATOM     23  H   UNL     1      12.185  77.683   8.949  1.00  0.00     0.293 HD
ENDBRANCH  15  22
TORSDOF 3
ENDMDL
MODEL 3
REMARK VINA RESULT:    45.420      8.685     12.521
REMARK INTER + INTRA:          49.403
REMARK INTER:                  49.403
REMARK INTRA:                   0.000
REMARK UNBOUND:                 0.000
REMARK SMILES Cc1cc(O)c2c(c1)C(=O)c1cc(O)cc(O)c1C2=O
REMARK SMILES IDX 1 1 2 2 8 3 7 4 6 5 4 6 3 7 19 8 20 9 18 10 11 11 9 12 10 13
REMARK SMILES IDX 12 14 13 15 15 16 16 17 5 18 17 20 14 22
REMARK H PARENT 5 19 17 21 14 23
REMARK Flexibility Score: inf
ROOT
ATOM      1  C   UNL     1       8.250  70.933   2.495  1.00  0.00     0.044 C 
ATOM      2  C   UNL     1       8.648  70.207   3.747  1.00  0.00    -0.047 A 
ATOM      3  C   UNL     1       8.083  68.964   4.049  1.00  0.00     0.016 A 
ATOM      4  C   UNL     1       8.467  68.263   5.204  1.00  0.00     0.038 A 
ATOM      5  C   UNL     1       9.436  68.816   6.072  1.00  0.00     0.076 A 
ATOM      6  C   UNL     1      10.067  70.036   5.716  1.00  0.00     0.127 A 
ATOM      7  C   UNL     1       9.652  70.725   4.572  1.00  0.00     0.050 A 
ATOM      8  C   UNL     1       9.710  68.119   7.355  1.00  0.00     0.201 C 
ATOM      9  O   UNL     1      10.072  68.782   8.363  1.00  0.00    -0.288 OA
ATOM     10  C   UNL     1       9.375  66.678   7.499  1.00  0.00     0.076 A 
ATOM     11  C   UNL     1       8.408  66.128   6.627  1.00  0.00     0.041 A 
ATOM     12  C   UNL     1       7.869  66.943   5.513  1.00  0.00     0.194 C 
ATOM     13  O   UNL     1       6.917  66.502   4.811  1.00  0.00    -0.289 OA
ATOM     14  C   UNL     1       7.964  64.808   6.819  1.00  0.00     0.059 A 
ATOM     15  C   UNL     1       8.482  64.030   7.854  1.00  0.00     0.120 A 
ATOM     16  C   UNL     1       9.467  64.555   8.693  1.00  0.00     0.093 A 
ATOM     17  C   UNL     1       9.940  65.859   8.510  1.00  0.00     0.131 A 
ENDROOT
BRANCH   6  18
ATOM     18  O   UNL     1      11.127  70.578   6.445  1.00  0.00    -0.507 OA
ATOM     19  H   UNL     1      11.522  70.140   7.267  1.00  0.00     0.293 HD
ENDBRANCH   6  18
BRANCH  17  20
ATOM     20  O   UNL     1      10.990  66.285   9.328  1.00  0.00    -0.507 OA
ATOM     21  H   UNL     1      11.415  67.199   9.261  1.00  0.00     0.293 HD
ENDBRANCH  17  20
BRANCH  15  22
ATOM     22  O   UNL     1       8.018  62.728   8.033  1.00  0.00    -0.508 OA
ATOM     23  H   UNL     1       8.218  62.205   8.878  1.00  0.00     0.293 HD
ENDBRANCH  15  22
TORSDOF 3
ENDMDL
