MODEL 1
REMARK VINA RESULT:     5.519      0.000      0.000
REMARK INTER + INTRA:           5.519
REMARK INTER:                   5.519
REMARK INTRA:                   0.000
REMARK UNBOUND:                 0.000
REMARK SMILES C=C1CCC[C@@]2(C)CC(=O)C(=C(C)C)C[C@H]12
REMARK SMILES IDX 13 1 12 2 11 3 15 4 16 5 2 6 1 7 3 8 4 9 5 10 6 11 8 12 9 13
REMARK SMILES IDX 10 14 7 15 14 16
REMARK H PARENT
REMARK Flexibility Score: inf
ROOT
ATOM      1  C   UNL     1       7.840  31.628 -21.711  1.00  0.00     0.039 C 
ATOM      2  C   UNL     1       7.803  31.666 -23.222  1.00  0.00    -0.070 C 
ATOM      3  C   UNL     1       6.706  32.129 -23.892  1.00  0.00    -0.006 C 
ATOM      4  C   UNL     1       5.485  32.646 -23.144  1.00  0.00     0.047 C 
ATOM      5  C   UNL     1       4.727  33.749 -23.924  1.00  0.00     0.025 C 
ATOM      6  C   UNL     1       3.467  34.279 -23.238  1.00  0.00    -0.073 C 
ATOM      7  C   UNL     1       3.012  33.837 -22.050  1.00  0.00     0.008 C 
ATOM      8  C   UNL     1       2.741  35.397 -23.948  1.00  0.00     0.031 C 
ATOM      9  C   UNL     1       2.437  35.000 -25.396  1.00  0.00     0.005 C 
ATOM     10  C   UNL     1       3.697  34.504 -26.125  1.00  0.00     0.008 C 
ATOM     11  C   UNL     1       4.404  33.324 -25.391  1.00  0.00    -0.018 C 
ATOM     12  C   UNL     1       5.734  33.028 -26.124  1.00  0.00     0.088 C 
ATOM     13  C   UNL     1       6.585  32.043 -25.377  1.00  0.00     0.159 C 
ATOM     14  O   UNL     1       7.178  31.142 -26.030  1.00  0.00    -0.295 OA
ATOM     15  C   UNL     1       3.497  32.063 -25.441  1.00  0.00     0.012 C 
ATOM     16  C   UNL     1       9.046  31.206 -23.949  1.00  0.00     0.039 C 
ENDROOT
TORSDOF 0
ENDMDL
MODEL 2
REMARK VINA RESULT:     6.705      2.116      3.479
REMARK INTER + INTRA:           6.705
REMARK INTER:                   6.705
REMARK INTRA:                   0.000
REMARK UNBOUND:                 0.000
REMARK SMILES C=C1CCC[C@@]2(C)CC(=O)C(=C(C)C)C[C@H]12
REMARK SMILES IDX 13 1 12 2 11 3 15 4 16 5 2 6 1 7 3 8 4 9 5 10 6 11 8 12 9 13
REMARK SMILES IDX 10 14 7 15 14 16
REMARK H PARENT
REMARK Flexibility Score: inf
ROOT
ATOM      1  C   UNL     1       6.304  33.058 -23.290  1.00  0.00     0.039 C 
ATOM      2  C   UNL     1       5.328  33.069 -24.446  1.00  0.00    -0.070 C 
ATOM      3  C   UNL     1       4.220  33.867 -24.429  1.00  0.00    -0.006 C 
ATOM      4  C   UNL     1       3.933  34.794 -23.256  1.00  0.00     0.047 C 
ATOM      5  C   UNL     1       3.165  36.072 -23.675  1.00  0.00     0.025 C 
ATOM      6  C   UNL     1       2.814  37.023 -22.531  1.00  0.00    -0.073 C 
ATOM      7  C   UNL     1       3.123  36.797 -21.239  1.00  0.00     0.008 C 
ATOM      8  C   UNL     1       2.116  38.306 -22.919  1.00  0.00     0.031 C 
ATOM      9  C   UNL     1       0.876  38.003 -23.765  1.00  0.00     0.005 C 
ATOM     10  C   UNL     1       1.208  37.082 -24.950  1.00  0.00     0.008 C 
ATOM     11  C   UNL     1       1.890  35.749 -24.518  1.00  0.00    -0.018 C 
ATOM     12  C   UNL     1       2.322  34.991 -25.797  1.00  0.00     0.088 C 
ATOM     13  C   UNL     1       3.168  33.791 -25.484  1.00  0.00     0.159 C 
ATOM     14  O   UNL     1       2.958  32.724 -26.123  1.00  0.00    -0.295 OA
ATOM     15  C   UNL     1       0.876  34.880 -23.723  1.00  0.00     0.012 C 
ATOM     16  C   UNL     1       5.658  32.187 -25.628  1.00  0.00     0.039 C 
ENDROOT
TORSDOF 0
ENDMDL
MODEL 3
REMARK VINA RESULT:     7.324     15.389     18.067
REMARK INTER + INTRA:           7.324
REMARK INTER:                   7.324
REMARK INTRA:                   0.000
REMARK UNBOUND:                 0.000
REMARK SMILES C=C1CCC[C@@]2(C)CC(=O)C(=C(C)C)C[C@H]12
REMARK SMILES IDX 13 1 12 2 11 3 15 4 16 5 2 6 1 7 3 8 4 9 5 10 6 11 8 12 9 13
REMARK SMILES IDX 10 14 7 15 14 16
REMARK H PARENT
REMARK Flexibility Score: inf
ROOT
ATOM      1  C   UNL     1       2.308  26.228 -11.873  1.00  0.00     0.039 C 
ATOM      2  C   UNL     1       2.305  24.719 -11.766  1.00  0.00    -0.070 C 
ATOM      3  C   UNL     1       3.148  24.069 -10.910  1.00  0.00    -0.006 C 
ATOM      4  C   UNL     1       4.110  24.838 -10.013  1.00  0.00     0.047 C 
ATOM      5  C   UNL     1       4.403  24.104  -8.681  1.00  0.00     0.025 C 
ATOM      6  C   UNL     1       5.394  24.809  -7.756  1.00  0.00    -0.073 C 
ATOM      7  C   UNL     1       5.997  25.979  -8.047  1.00  0.00     0.008 C 
ATOM      8  C   UNL     1       5.653  24.146  -6.424  1.00  0.00     0.031 C 
ATOM      9  C   UNL     1       6.059  22.683  -6.628  1.00  0.00     0.005 C 
ATOM     10  C   UNL     1       5.054  21.935  -7.520  1.00  0.00     0.008 C 
ATOM     11  C   UNL     1       4.836  22.620  -8.903  1.00  0.00    -0.018 C 
ATOM     12  C   UNL     1       3.693  21.875  -9.635  1.00  0.00     0.088 C 
ATOM     13  C   UNL     1       3.270  22.582 -10.890  1.00  0.00     0.159 C 
ATOM     14  O   UNL     1       3.035  21.893 -11.919  1.00  0.00    -0.295 OA
ATOM     15  C   UNL     1       6.138  22.517  -9.745  1.00  0.00     0.012 C 
ATOM     16  C   UNL     1       1.304  23.975 -12.619  1.00  0.00     0.039 C 
ENDROOT
TORSDOF 0
ENDMDL
