MODEL 1
REMARK VINA RESULT:    -3.107      0.000      0.000
REMARK INTER + INTRA:          -8.222
REMARK INTER:                  -5.649
REMARK INTRA:                  -2.573
REMARK UNBOUND:                -2.573
REMARK SMILES CCCCCCCCCCCCCCCC(=O)[O-]
REMARK SMILES IDX 9 1 10 2 11 3 12 4 13 5 14 6 15 7 16 8 17 9 18 10 8 11 7 12
REMARK SMILES IDX 6 13 5 14 4 15 3 16 2 17 1 18
REMARK H PARENT
REMARK Flexibility Score: inf
ROOT
ATOM      1  C   UNL     1      61.368  -8.605  33.383  1.00  0.00     0.000 C 
ENDROOT
BRANCH   1   2
ATOM      2  C   UNL     1      60.354  -9.273  34.330  1.00  0.00     0.000 C 
BRANCH   2   3
ATOM      3  C   UNL     1      60.521 -10.794  34.500  1.00  0.00     0.000 C 
BRANCH   3   4
ATOM      4  C   UNL     1      61.320 -11.441  33.355  1.00  0.00     0.000 C 
BRANCH   4   5
ATOM      5  C   UNL     1      62.526 -12.248  33.862  1.00  0.00     0.000 C 
BRANCH   5   6
ATOM      6  C   UNL     1      62.152 -13.238  34.976  1.00  0.00     0.006 C 
BRANCH   6   7
ATOM      7  C   UNL     1      63.298 -14.219  35.243  1.00  0.00     0.053 C 
BRANCH   7   8
ATOM      8  C   UNL     1      62.936 -15.160  36.349  1.00  0.00     0.041 C 
ATOM      9  O   UNL     1      62.920 -16.402  36.144  1.00  0.00    -0.550 OA
ATOM     10  O   UNL     1      62.666 -14.667  37.620  1.00  0.00    -0.550 OA
ENDBRANCH   7   8
ENDBRANCH   6   7
ENDBRANCH   5   6
ENDBRANCH   4   5
ENDBRANCH   3   4
ENDBRANCH   2   3
ENDBRANCH   1   2
BRANCH   1  11
ATOM     11  C   UNL     1      62.151  -7.464  34.049  1.00  0.00     0.000 C 
BRANCH  11  12
ATOM     12  C   UNL     1      62.893  -7.961  35.295  1.00  0.00    -0.000 C 
BRANCH  12  13
ATOM     13  C   UNL     1      64.025  -8.923  34.916  1.00  0.00    -0.000 C 
BRANCH  13  14
ATOM     14  C   UNL     1      64.262  -9.958  36.022  1.00  0.00    -0.000 C 
BRANCH  14  15
ATOM     15  C   UNL     1      63.425  -9.637  37.266  1.00  0.00    -0.000 C 
BRANCH  15  16
ATOM     16  C   UNL     1      62.720 -10.895  37.794  1.00  0.00    -0.000 C 
BRANCH  16  17
ATOM     17  C   UNL     1      61.231 -10.658  38.086  1.00  0.00    -0.003 C 
ATOM     18  C   UNL     1      60.416 -11.951  38.092  1.00  0.00     0.004 C 
ENDBRANCH  16  17
ENDBRANCH  15  16
ENDBRANCH  14  15
ENDBRANCH  13  14
ENDBRANCH  12  13
ENDBRANCH  11  12
ENDBRANCH   1  11
TORSDOF 14
ENDMDL
MODEL 2
REMARK VINA RESULT:    -3.099      3.237      4.495
REMARK INTER + INTRA:          -8.208
REMARK INTER:                  -5.275
REMARK INTRA:                  -2.933
REMARK UNBOUND:                -2.573
REMARK SMILES CCCCCCCCCCCCCCCC(=O)[O-]
REMARK SMILES IDX 9 1 10 2 11 3 12 4 13 5 14 6 15 7 16 8 17 9 18 10 8 11 7 12
REMARK SMILES IDX 6 13 5 14 4 15 3 16 2 17 1 18
REMARK H PARENT
REMARK Flexibility Score: inf
ROOT
ATOM      1  C   UNL     1      61.639  -8.904  33.397  1.00  0.00     0.000 C 
ENDROOT
BRANCH   1   2
ATOM      2  C   UNL     1      62.332  -7.974  34.408  1.00  0.00     0.000 C 
BRANCH   2   3
ATOM      3  C   UNL     1      63.870  -8.049  34.420  1.00  0.00     0.000 C 
BRANCH   3   4
ATOM      4  C   UNL     1      64.427  -9.079  33.421  1.00  0.00     0.000 C 
BRANCH   4   5
ATOM      5  C   UNL     1      65.457 -10.023  34.062  1.00  0.00     0.000 C 
BRANCH   5   6
ATOM      6  C   UNL     1      65.536 -11.383  33.352  1.00  0.00     0.006 C 
BRANCH   6   7
ATOM      7  C   UNL     1      64.921 -11.306  31.951  1.00  0.00     0.053 C 
BRANCH   7   8
ATOM      8  C   UNL     1      65.934 -11.676  30.913  1.00  0.00     0.041 C 
ATOM      9  O   UNL     1      65.827 -11.235  29.739  1.00  0.00    -0.550 OA
ATOM     10  O   UNL     1      67.023 -12.468  31.256  1.00  0.00    -0.550 OA
ENDBRANCH   7   8
ENDBRANCH   6   7
ENDBRANCH   5   6
ENDBRANCH   4   5
ENDBRANCH   3   4
ENDBRANCH   2   3
ENDBRANCH   1   2
BRANCH   1  11
ATOM     11  C   UNL     1      60.278  -9.419  33.889  1.00  0.00     0.000 C 
BRANCH  11  12
ATOM     12  C   UNL     1      60.269 -10.950  33.979  1.00  0.00    -0.000 C 
BRANCH  12  13
ATOM     13  C   UNL     1      61.542 -11.545  33.365  1.00  0.00    -0.000 C 
BRANCH  13  14
ATOM     14  C   UNL     1      62.090 -12.685  34.232  1.00  0.00    -0.000 C 
BRANCH  14  15
ATOM     15  C   UNL     1      61.922 -12.373  35.725  1.00  0.00    -0.000 C 
BRANCH  15  16
ATOM     16  C   UNL     1      63.204 -11.758  36.305  1.00  0.00    -0.000 C 
BRANCH  16  17
ATOM     17  C   UNL     1      62.941 -10.445  37.057  1.00  0.00    -0.003 C 
ATOM     18  C   UNL     1      61.461 -10.229  37.371  1.00  0.00     0.004 C 
ENDBRANCH  16  17
ENDBRANCH  15  16
ENDBRANCH  14  15
ENDBRANCH  13  14
ENDBRANCH  12  13
ENDBRANCH  11  12
ENDBRANCH   1  11
TORSDOF 14
ENDMDL
MODEL 3
REMARK VINA RESULT:    -3.085      1.420      3.434
REMARK INTER + INTRA:          -8.182
REMARK INTER:                  -5.873
REMARK INTRA:                  -2.309
REMARK UNBOUND:                -2.573
REMARK SMILES CCCCCCCCCCCCCCCC(=O)[O-]
REMARK SMILES IDX 9 1 10 2 11 3 12 4 13 5 14 6 15 7 16 8 17 9 18 10 8 11 7 12
REMARK SMILES IDX 6 13 5 14 4 15 3 16 2 17 1 18
REMARK H PARENT
REMARK Flexibility Score: inf
ROOT
ATOM      1  C   UNL     1      60.760 -11.510  34.714  1.00  0.00     0.000 C 
ENDROOT
BRANCH   1   2
ATOM      2  C   UNL     1      60.605 -10.720  36.026  1.00  0.00     0.000 C 
BRANCH   2   3
ATOM      3  C   UNL     1      60.706 -11.561  37.312  1.00  0.00     0.000 C 
BRANCH   3   4
ATOM      4  C   UNL     1      62.140 -12.032  37.608  1.00  0.00     0.000 C 
BRANCH   4   5
ATOM      5  C   UNL     1      62.271 -13.564  37.597  1.00  0.00     0.000 C 
BRANCH   5   6
ATOM      6  C   UNL     1      63.449 -14.053  36.741  1.00  0.00     0.006 C 
BRANCH   6   7
ATOM      7  C   UNL     1      63.025 -14.230  35.279  1.00  0.00     0.053 C 
BRANCH   7   8
ATOM      8  C   UNL     1      62.334 -15.543  35.088  1.00  0.00     0.041 C 
ATOM      9  O   UNL     1      61.483 -15.684  34.171  1.00  0.00    -0.550 OA
ATOM     10  O   UNL     1      62.667 -16.627  35.892  1.00  0.00    -0.550 OA
ENDBRANCH   7   8
ENDBRANCH   6   7
ENDBRANCH   5   6
ENDBRANCH   4   5
ENDBRANCH   3   4
ENDBRANCH   2   3
ENDBRANCH   1   2
BRANCH   1  11
ATOM     11  C   UNL     1      60.668 -10.622  33.463  1.00  0.00     0.000 C 
BRANCH  11  12
ATOM     12  C   UNL     1      60.551  -9.143  33.847  1.00  0.00    -0.000 C 
BRANCH  12  13
ATOM     13  C   UNL     1      61.804  -8.364  33.428  1.00  0.00    -0.000 C 
BRANCH  13  14
ATOM     14  C   UNL     1      62.654  -7.991  34.648  1.00  0.00    -0.000 C 
BRANCH  14  15
ATOM     15  C   UNL     1      64.071  -8.568  34.529  1.00  0.00    -0.000 C 
BRANCH  15  16
ATOM     16  C   UNL     1      64.145  -9.973  35.146  1.00  0.00    -0.000 C 
BRANCH  16  17
ATOM     17  C   UNL     1      64.322 -11.072  34.088  1.00  0.00    -0.003 C 
ATOM     18  C   UNL     1      64.912 -10.546  32.780  1.00  0.00     0.004 C 
ENDBRANCH  16  17
ENDBRANCH  15  16
ENDBRANCH  14  15
ENDBRANCH  13  14
ENDBRANCH  12  13
ENDBRANCH  11  12
ENDBRANCH   1  11
TORSDOF 14
ENDMDL
MODEL 4
REMARK VINA RESULT:    -3.084      4.028      5.248
REMARK INTER + INTRA:          -8.181
REMARK INTER:                  -5.952
REMARK INTRA:                  -2.229
REMARK UNBOUND:                -2.573
REMARK SMILES CCCCCCCCCCCCCCCC(=O)[O-]
REMARK SMILES IDX 9 1 10 2 11 3 12 4 13 5 14 6 15 7 16 8 17 9 18 10 8 11 7 12
REMARK SMILES IDX 6 13 5 14 4 15 3 16 2 17 1 18
REMARK H PARENT
REMARK Flexibility Score: inf
ROOT
ATOM      1  C   UNL     1      61.196 -10.975  33.397  1.00  0.00     0.000 C 
ENDROOT
BRANCH   1   2
ATOM      2  C   UNL     1      62.031  -9.717  33.698  1.00  0.00     0.000 C 
BRANCH   2   3
ATOM      3  C   UNL     1      63.549  -9.874  33.492  1.00  0.00     0.000 C 
BRANCH   3   4
ATOM      4  C   UNL     1      63.952 -11.298  33.069  1.00  0.00     0.000 C 
BRANCH   4   5
ATOM      5  C   UNL     1      65.447 -11.578  33.292  1.00  0.00     0.000 C 
BRANCH   5   6
ATOM      6  C   UNL     1      66.268 -11.482  31.998  1.00  0.00     0.006 C 
BRANCH   6   7
ATOM      7  C   UNL     1      65.379 -11.697  30.769  1.00  0.00     0.053 C 
BRANCH   7   8
ATOM      8  C   UNL     1      66.004 -11.086  29.555  1.00  0.00     0.041 C 
ATOM      9  O   UNL     1      65.319 -10.899  28.515  1.00  0.00    -0.550 OA
ATOM     10  O   UNL     1      67.332 -10.677  29.588  1.00  0.00    -0.550 OA
ENDBRANCH   7   8
ENDBRANCH   6   7
ENDBRANCH   5   6
ENDBRANCH   4   5
ENDBRANCH   3   4
ENDBRANCH   2   3
ENDBRANCH   1   2
BRANCH   1  11
ATOM     11  C   UNL     1      60.267 -11.371  34.554  1.00  0.00     0.000 C 
BRANCH  11  12
ATOM     12  C   UNL     1      60.665 -10.653  35.849  1.00  0.00    -0.000 C 
BRANCH  12  13
ATOM     13  C   UNL     1      61.294 -11.631  36.849  1.00  0.00    -0.000 C 
BRANCH  13  14
ATOM     14  C   UNL     1      62.819 -11.472  36.889  1.00  0.00    -0.000 C 
BRANCH  14  15
ATOM     15  C   UNL     1      63.519 -12.827  36.720  1.00  0.00    -0.000 C 
BRANCH  15  16
ATOM     16  C   UNL     1      62.534 -13.896  36.222  1.00  0.00    -0.000 C 
BRANCH  16  17
ATOM     17  C   UNL     1      62.819 -14.333  34.778  1.00  0.00    -0.003 C 
ATOM     18  C   UNL     1      61.656 -15.103  34.152  1.00  0.00     0.004 C 
ENDBRANCH  16  17
ENDBRANCH  15  16
ENDBRANCH  14  15
ENDBRANCH  13  14
ENDBRANCH  12  13
ENDBRANCH  11  12
ENDBRANCH   1  11
TORSDOF 14
ENDMDL
MODEL 5
REMARK VINA RESULT:    -3.078      2.774      4.243
REMARK INTER + INTRA:          -8.171
REMARK INTER:                  -5.227
REMARK INTRA:                  -2.943
REMARK UNBOUND:                -2.573
REMARK SMILES CCCCCCCCCCCCCCCC(=O)[O-]
REMARK SMILES IDX 9 1 10 2 11 3 12 4 13 5 14 6 15 7 16 8 17 9 18 10 8 11 7 12
REMARK SMILES IDX 6 13 5 14 4 15 3 16 2 17 1 18
REMARK H PARENT
REMARK Flexibility Score: inf
ROOT
ATOM      1  C   UNL     1      60.691 -10.727  34.821  1.00  0.00     0.000 C 
ENDROOT
BRANCH   1   2
ATOM      2  C   UNL     1      61.256  -9.367  35.268  1.00  0.00     0.000 C 
BRANCH   2   3
ATOM      3  C   UNL     1      62.456  -9.442  36.230  1.00  0.00     0.000 C 
BRANCH   3   4
ATOM      4  C   UNL     1      63.811  -9.429  35.500  1.00  0.00     0.000 C 
BRANCH   4   5
ATOM      5  C   UNL     1      63.755  -8.665  34.167  1.00  0.00     0.000 C 
BRANCH   5   6
ATOM      6  C   UNL     1      64.468  -9.408  33.027  1.00  0.00     0.006 C 
BRANCH   6   7
ATOM      7  C   UNL     1      65.328 -10.552  33.574  1.00  0.00     0.053 C 
BRANCH   7   8
ATOM      8  C   UNL     1      65.792 -11.438  32.462  1.00  0.00     0.041 C 
ATOM      9  O   UNL     1      66.801 -12.175  32.617  1.00  0.00    -0.550 OA
ATOM     10  O   UNL     1      65.080 -11.487  31.269  1.00  0.00    -0.550 OA
ENDBRANCH   7   8
ENDBRANCH   6   7
ENDBRANCH   5   6
ENDBRANCH   4   5
ENDBRANCH   3   4
ENDBRANCH   2   3
ENDBRANCH   1   2
BRANCH   1  11
ATOM     11  C   UNL     1      60.974 -11.038  33.343  1.00  0.00     0.000 C 
BRANCH  11  12
ATOM     12  C   UNL     1      62.044 -12.127  33.206  1.00  0.00    -0.000 C 
BRANCH  12  13
ATOM     13  C   UNL     1      61.987 -13.106  34.385  1.00  0.00    -0.000 C 
BRANCH  13  14
ATOM     14  C   UNL     1      63.386 -13.349  34.966  1.00  0.00    -0.000 C 
BRANCH  14  15
ATOM     15  C   UNL     1      63.437 -12.975  36.453  1.00  0.00    -0.000 C 
BRANCH  15  16
ATOM     16  C   UNL     1      62.133 -13.367  37.163  1.00  0.00    -0.000 C 
BRANCH  16  17
ATOM     17  C   UNL     1      61.778 -12.414  38.313  1.00  0.00    -0.003 C 
ATOM     18  C   UNL     1      60.323 -11.948  38.269  1.00  0.00     0.004 C 
ENDBRANCH  16  17
ENDBRANCH  15  16
ENDBRANCH  14  15
ENDBRANCH  13  14
ENDBRANCH  12  13
ENDBRANCH  11  12
ENDBRANCH   1  11
TORSDOF 14
ENDMDL
MODEL 6
REMARK VINA RESULT:    -3.051      1.402      3.609
REMARK INTER + INTRA:          -8.121
REMARK INTER:                  -5.417
REMARK INTRA:                  -2.705
REMARK UNBOUND:                -2.573
REMARK SMILES CCCCCCCCCCCCCCCC(=O)[O-]
REMARK SMILES IDX 9 1 10 2 11 3 12 4 13 5 14 6 15 7 16 8 17 9 18 10 8 11 7 12
REMARK SMILES IDX 6 13 5 14 4 15 3 16 2 17 1 18
REMARK H PARENT
REMARK Flexibility Score: inf
ROOT
ATOM      1  C   UNL     1      63.075  -8.938  36.260  1.00  0.00     0.000 C 
ENDROOT
BRANCH   1   2
ATOM      2  C   UNL     1      62.763  -9.768  37.519  1.00  0.00     0.000 C 
BRANCH   2   3
ATOM      3  C   UNL     1      61.266  -9.986  37.804  1.00  0.00     0.000 C 
BRANCH   3   4
ATOM      4  C   UNL     1      60.793 -11.411  37.466  1.00  0.00     0.000 C 
BRANCH   4   5
ATOM      5  C   UNL     1      61.494 -12.482  38.316  1.00  0.00     0.000 C 
BRANCH   5   6
ATOM      6  C   UNL     1      62.160 -13.574  37.465  1.00  0.00     0.006 C 
BRANCH   6   7
ATOM      7  C   UNL     1      63.520 -13.970  38.049  1.00  0.00     0.053 C 
BRANCH   7   8
ATOM      8  C   UNL     1      63.644 -15.459  38.126  1.00  0.00     0.041 C 
ATOM      9  O   UNL     1      63.016 -16.190  37.315  1.00  0.00    -0.550 OA
ATOM     10  O   UNL     1      64.494 -16.038  39.060  1.00  0.00    -0.550 OA
ENDBRANCH   7   8
ENDBRANCH   6   7
ENDBRANCH   5   6
ENDBRANCH   4   5
ENDBRANCH   3   4
ENDBRANCH   2   3
ENDBRANCH   1   2
BRANCH   1  11
ATOM     11  C   UNL     1      63.964  -9.685  35.254  1.00  0.00     0.000 C 
BRANCH  11  12
ATOM     12  C   UNL     1      64.277 -11.104  35.744  1.00  0.00    -0.000 C 
BRANCH  12  13
ATOM     13  C   UNL     1      64.101 -12.127  34.616  1.00  0.00    -0.000 C 
BRANCH  13  14
ATOM     14  C   UNL     1      62.988 -11.699  33.651  1.00  0.00    -0.000 C 
BRANCH  14  15
ATOM     15  C   UNL     1      61.709 -12.510  33.891  1.00  0.00    -0.000 C 
BRANCH  15  16
ATOM     16  C   UNL     1      60.506 -11.583  34.124  1.00  0.00    -0.000 C 
BRANCH  16  17
ATOM     17  C   UNL     1      60.644 -10.242  33.389  1.00  0.00    -0.003 C 
ATOM     18  C   UNL     1      60.111  -9.063  34.204  1.00  0.00     0.004 C 
ENDBRANCH  16  17
ENDBRANCH  15  16
ENDBRANCH  14  15
ENDBRANCH  13  14
ENDBRANCH  12  13
ENDBRANCH  11  12
ENDBRANCH   1  11
TORSDOF 14
ENDMDL
MODEL 7
REMARK VINA RESULT:    -3.051      2.898      4.697
REMARK INTER + INTRA:          -8.121
REMARK INTER:                  -6.046
REMARK INTRA:                  -2.075
REMARK UNBOUND:                -2.573
REMARK SMILES CCCCCCCCCCCCCCCC(=O)[O-]
REMARK SMILES IDX 9 1 10 2 11 3 12 4 13 5 14 6 15 7 16 8 17 9 18 10 8 11 7 12
REMARK SMILES IDX 6 13 5 14 4 15 3 16 2 17 1 18
REMARK H PARENT
REMARK Flexibility Score: inf
ROOT
ATOM      1  C   UNL     1      60.736 -10.552  33.350  1.00  0.00     0.000 C 
ENDROOT
BRANCH   1   2
ATOM      2  C   UNL     1      60.610  -9.086  33.803  1.00  0.00     0.000 C 
BRANCH   2   3
ATOM      3  C   UNL     1      61.882  -8.237  33.632  1.00  0.00     0.000 C 
BRANCH   3   4
ATOM      4  C   UNL     1      62.817  -8.306  34.852  1.00  0.00     0.000 C 
BRANCH   4   5
ATOM      5  C   UNL     1      64.056  -9.180  34.597  1.00  0.00     0.000 C 
BRANCH   5   6
ATOM      6  C   UNL     1      64.228  -9.546  33.115  1.00  0.00     0.006 C 
BRANCH   6   7
ATOM      7  C   UNL     1      64.335 -11.064  32.935  1.00  0.00     0.053 C 
BRANCH   7   8
ATOM      8  C   UNL     1      65.559 -11.413  32.150  1.00  0.00     0.041 C 
ATOM      9  O   UNL     1      66.685 -11.449  32.713  1.00  0.00    -0.550 OA
ATOM     10  O   UNL     1      65.451 -11.750  30.806  1.00  0.00    -0.550 OA
ENDBRANCH   7   8
ENDBRANCH   6   7
ENDBRANCH   5   6
ENDBRANCH   4   5
ENDBRANCH   3   4
ENDBRANCH   2   3
ENDBRANCH   1   2
BRANCH   1  11
ATOM     11  C   UNL     1      60.153 -11.547  34.366  1.00  0.00     0.000 C 
BRANCH  11  12
ATOM     12  C   UNL     1      60.664 -11.250  35.780  1.00  0.00    -0.000 C 
BRANCH  12  13
ATOM     13  C   UNL     1      62.044 -11.879  36.011  1.00  0.00    -0.000 C 
BRANCH  13  14
ATOM     14  C   UNL     1      61.995 -12.914  37.141  1.00  0.00    -0.000 C 
BRANCH  14  15
ATOM     15  C   UNL     1      63.028 -14.025  36.915  1.00  0.00    -0.000 C 
BRANCH  15  16
ATOM     16  C   UNL     1      63.178 -14.340  35.419  1.00  0.00    -0.000 C 
BRANCH  16  17
ATOM     17  C   UNL     1      62.255 -15.478  34.960  1.00  0.00    -0.003 C 
ATOM     18  C   UNL     1      61.443 -15.116  33.717  1.00  0.00     0.004 C 
ENDBRANCH  16  17
ENDBRANCH  15  16
ENDBRANCH  14  15
ENDBRANCH  13  14
ENDBRANCH  12  13
ENDBRANCH  11  12
ENDBRANCH   1  11
TORSDOF 14
ENDMDL
MODEL 8
REMARK VINA RESULT:    -3.048      4.414      5.447
REMARK INTER + INTRA:          -8.116
REMARK INTER:                  -6.085
REMARK INTRA:                  -2.031
REMARK UNBOUND:                -2.573
REMARK SMILES CCCCCCCCCCCCCCCC(=O)[O-]
REMARK SMILES IDX 9 1 10 2 11 3 12 4 13 5 14 6 15 7 16 8 17 9 18 10 8 11 7 12
REMARK SMILES IDX 6 13 5 14 4 15 3 16 2 17 1 18
REMARK H PARENT
REMARK Flexibility Score: inf
ROOT
ATOM      1  C   UNL     1      62.834  -8.931  33.387  1.00  0.00     0.000 C 
ENDROOT
BRANCH   1   2
ATOM      2  C   UNL     1      63.921  -9.146  34.455  1.00  0.00     0.000 C 
BRANCH   2   3
ATOM      3  C   UNL     1      64.766 -10.422  34.282  1.00  0.00     0.000 C 
BRANCH   3   4
ATOM      4  C   UNL     1      64.733 -10.972  32.845  1.00  0.00     0.000 C 
BRANCH   4   5
ATOM      5  C   UNL     1      66.110 -10.919  32.164  1.00  0.00     0.000 C 
BRANCH   5   6
ATOM      6  C   UNL     1      66.208 -11.858  30.952  1.00  0.00     0.006 C 
BRANCH   6   7
ATOM      7  C   UNL     1      67.051 -11.227  29.839  1.00  0.00     0.053 C 
BRANCH   7   8
ATOM      8  C   UNL     1      66.202 -10.922  28.645  1.00  0.00     0.041 C 
ATOM      9  O   UNL     1      66.681 -10.282  27.673  1.00  0.00    -0.550 OA
ATOM     10  O   UNL     1      64.894 -11.389  28.585  1.00  0.00    -0.550 OA
ENDBRANCH   7   8
ENDBRANCH   6   7
ENDBRANCH   5   6
ENDBRANCH   4   5
ENDBRANCH   3   4
ENDBRANCH   2   3
ENDBRANCH   1   2
BRANCH   1  11
ATOM     11  C   UNL     1      61.555  -8.295  33.951  1.00  0.00     0.000 C 
BRANCH  11  12
ATOM     12  C   UNL     1      60.353  -9.231  33.776  1.00  0.00    -0.000 C 
BRANCH  12  13
ATOM     13  C   UNL     1      60.799 -10.615  33.290  1.00  0.00    -0.000 C 
BRANCH  13  14
ATOM     14  C   UNL     1      60.483 -11.694  34.333  1.00  0.00    -0.000 C 
BRANCH  14  15
ATOM     15  C   UNL     1      61.770 -12.310  34.896  1.00  0.00    -0.000 C 
BRANCH  15  16
ATOM     16  C   UNL     1      61.775 -12.265  36.431  1.00  0.00    -0.000 C 
BRANCH  16  17
ATOM     17  C   UNL     1      60.935 -11.107  36.990  1.00  0.00    -0.003 C 
ATOM     18  C   UNL     1      61.780  -9.890  37.366  1.00  0.00     0.004 C 
ENDBRANCH  16  17
ENDBRANCH  15  16
ENDBRANCH  14  15
ENDBRANCH  13  14
ENDBRANCH  12  13
ENDBRANCH  11  12
ENDBRANCH   1  11
TORSDOF 14
ENDMDL
MODEL 9
REMARK VINA RESULT:    -3.032      1.404      2.846
REMARK INTER + INTRA:          -8.086
REMARK INTER:                  -5.379
REMARK INTRA:                  -2.707
REMARK UNBOUND:                -2.573
REMARK SMILES CCCCCCCCCCCCCCCC(=O)[O-]
REMARK SMILES IDX 9 1 10 2 11 3 12 4 13 5 14 6 15 7 16 8 17 9 18 10 8 11 7 12
REMARK SMILES IDX 6 13 5 14 4 15 3 16 2 17 1 18
REMARK H PARENT
REMARK Flexibility Score: inf
ROOT
ATOM      1  C   UNL     1      63.857  -8.154  34.338  1.00  0.00     0.000 C 
ENDROOT
BRANCH   1   2
ATOM      2  C   UNL     1      64.682  -9.453  34.274  1.00  0.00     0.000 C 
BRANCH   2   3
ATOM      3  C   UNL     1      64.390 -10.354  33.061  1.00  0.00     0.000 C 
BRANCH   3   4
ATOM      4  C   UNL     1      63.898 -11.756  33.460  1.00  0.00     0.000 C 
BRANCH   4   5
ATOM      5  C   UNL     1      64.380 -12.173  34.859  1.00  0.00     0.000 C 
BRANCH   5   6
ATOM      6  C   UNL     1      63.962 -13.604  35.229  1.00  0.00     0.006 C 
BRANCH   6   7
ATOM      7  C   UNL     1      62.481 -13.840  34.912  1.00  0.00     0.053 C 
BRANCH   7   8
ATOM      8  C   UNL     1      62.190 -15.305  34.826  1.00  0.00     0.041 C 
ATOM      9  O   UNL     1      62.632 -16.091  35.704  1.00  0.00    -0.550 OA
ATOM     10  O   UNL     1      61.387 -15.795  33.804  1.00  0.00    -0.550 OA
ENDBRANCH   7   8
ENDBRANCH   6   7
ENDBRANCH   5   6
ENDBRANCH   4   5
ENDBRANCH   3   4
ENDBRANCH   2   3
ENDBRANCH   1   2
BRANCH   1  11
ATOM     11  C   UNL     1      62.692  -8.133  33.337  1.00  0.00     0.000 C 
BRANCH  11  12
ATOM     12  C   UNL     1      61.347  -8.292  34.056  1.00  0.00    -0.000 C 
BRANCH  12  13
ATOM     13  C   UNL     1      60.609  -9.546  33.571  1.00  0.00    -0.000 C 
BRANCH  13  14
ATOM     14  C   UNL     1      60.682 -10.666  34.616  1.00  0.00    -0.000 C 
BRANCH  14  15
ATOM     15  C   UNL     1      60.615 -10.098  36.039  1.00  0.00    -0.000 C 
BRANCH  15  16
ATOM     16  C   UNL     1      61.741 -10.670  36.913  1.00  0.00    -0.000 C 
BRANCH  16  17
ATOM     17  C   UNL     1      62.614  -9.575  37.543  1.00  0.00    -0.003 C 
ATOM     18  C   UNL     1      64.051 -10.034  37.792  1.00  0.00     0.004 C 
ENDBRANCH  16  17
ENDBRANCH  15  16
ENDBRANCH  14  15
ENDBRANCH  13  14
ENDBRANCH  12  13
ENDBRANCH  11  12
ENDBRANCH   1  11
TORSDOF 14
ENDMDL
