MODEL 1
REMARK VINA RESULT:    -6.195      0.000      0.000
REMARK INTER + INTRA:          -6.738
REMARK INTER:                  -6.738
REMARK INTRA:                   0.000
REMARK UNBOUND:                 0.000
REMARK SMILES Cc1cc(O)c2c(c1)C(=O)c1cc(O)cc(O)c1C2=O
REMARK SMILES IDX 1 1 2 2 8 3 7 4 6 5 4 6 3 7 19 8 20 9 18 10 11 11 9 12 10 13
REMARK SMILES IDX 12 14 13 15 15 16 16 17 5 18 17 20 14 22
REMARK H PARENT 5 19 17 21 14 23
REMARK Flexibility Score: inf
ROOT
ATOM      1  C   UNL     1       9.803 -18.366 -38.408  1.00  0.00     0.044 C 
ATOM      2  C   UNL     1       8.429 -17.764 -38.449  1.00  0.00    -0.047 A 
ATOM      3  C   UNL     1       7.303 -18.560 -38.205  1.00  0.00     0.016 A 
ATOM      4  C   UNL     1       6.008 -18.015 -38.276  1.00  0.00     0.038 A 
ATOM      5  C   UNL     1       5.836 -16.653 -38.609  1.00  0.00     0.076 A 
ATOM      6  C   UNL     1       6.978 -15.859 -38.874  1.00  0.00     0.127 A 
ATOM      7  C   UNL     1       8.259 -16.421 -38.797  1.00  0.00     0.050 A 
ATOM      8  C   UNL     1       4.459 -16.087 -38.678  1.00  0.00     0.201 C 
ATOM      9  O   UNL     1       4.298 -14.871 -38.967  1.00  0.00    -0.288 OA
ATOM     10  C   UNL     1       3.272 -16.946 -38.407  1.00  0.00     0.076 A 
ATOM     11  C   UNL     1       3.463 -18.307 -38.078  1.00  0.00     0.041 A 
ATOM     12  C   UNL     1       4.830 -18.870 -38.004  1.00  0.00     0.194 C 
ATOM     13  O   UNL     1       4.992 -20.087 -37.708  1.00  0.00    -0.289 OA
ATOM     14  C   UNL     1       2.350 -19.127 -37.820  1.00  0.00     0.059 A 
ATOM     15  C   UNL     1       1.056 -18.611 -37.886  1.00  0.00     0.120 A 
ATOM     16  C   UNL     1       0.860 -17.268 -38.210  1.00  0.00     0.093 A 
ATOM     17  C   UNL     1       1.954 -16.432 -38.471  1.00  0.00     0.131 A 
ENDROOT
BRANCH   6  18
ATOM     18  O   UNL     1       6.849 -14.512 -39.216  1.00  0.00    -0.507 OA
ATOM     19  H   UNL     1       7.657 -13.910 -39.331  1.00  0.00     0.293 HD
ENDBRANCH   6  18
BRANCH  17  20
ATOM     20  O   UNL     1       1.722 -15.093 -38.793  1.00  0.00    -0.507 OA
ATOM     21  H   UNL     1       1.948 -14.716 -39.706  1.00  0.00     0.293 HD
ENDBRANCH  17  20
BRANCH  15  22
ATOM     22  O   UNL     1      -0.030 -19.444 -37.626  1.00  0.00    -0.508 OA
ATOM     23  H   UNL     1      -0.750 -19.609 -38.319  1.00  0.00     0.293 HD
ENDBRANCH  15  22
TORSDOF 3
ENDMDL
MODEL 2
REMARK VINA RESULT:    -6.039      1.746      2.786
REMARK INTER + INTRA:          -6.568
REMARK INTER:                  -6.568
REMARK INTRA:                   0.000
REMARK UNBOUND:                 0.000
REMARK SMILES Cc1cc(O)c2c(c1)C(=O)c1cc(O)cc(O)c1C2=O
REMARK SMILES IDX 1 1 2 2 8 3 7 4 6 5 4 6 3 7 19 8 20 9 18 10 11 11 9 12 10 13
REMARK SMILES IDX 12 14 13 15 15 16 16 17 5 18 17 20 14 22
REMARK H PARENT 5 19 17 21 14 23
REMARK Flexibility Score: inf
ROOT
ATOM      1  C   UNL     1       9.763 -13.533 -38.523  1.00  0.00     0.044 C 
ATOM      2  C   UNL     1       8.394 -14.143 -38.595  1.00  0.00    -0.047 A 
ATOM      3  C   UNL     1       8.221 -15.515 -38.377  1.00  0.00     0.016 A 
ATOM      4  C   UNL     1       6.947 -16.104 -38.477  1.00  0.00     0.038 A 
ATOM      5  C   UNL     1       5.830 -15.308 -38.815  1.00  0.00     0.076 A 
ATOM      6  C   UNL     1       6.016 -13.925 -39.054  1.00  0.00     0.127 A 
ATOM      7  C   UNL     1       7.292 -13.358 -38.948  1.00  0.00     0.050 A 
ATOM      8  C   UNL     1       4.485 -15.944 -38.916  1.00  0.00     0.201 C 
ATOM      9  O   UNL     1       3.482 -15.239 -39.209  1.00  0.00    -0.288 OA
ATOM     10  C   UNL     1       4.317 -17.404 -38.671  1.00  0.00     0.076 A 
ATOM     11  C   UNL     1       5.446 -18.184 -38.337  1.00  0.00     0.041 A 
ATOM     12  C   UNL     1       6.781 -17.554 -38.232  1.00  0.00     0.194 C 
ATOM     13  O   UNL     1       7.785 -18.259 -37.931  1.00  0.00    -0.289 OA
ATOM     14  C   UNL     1       5.299 -19.564 -38.104  1.00  0.00     0.059 A 
ATOM     15  C   UNL     1       4.047 -20.171 -38.199  1.00  0.00     0.120 A 
ATOM     16  C   UNL     1       2.928 -19.406 -38.529  1.00  0.00     0.093 A 
ATOM     17  C   UNL     1       3.050 -18.030 -38.766  1.00  0.00     0.131 A 
ENDROOT
BRANCH   6  18
ATOM     18  O   UNL     1       4.939 -13.108 -39.401  1.00  0.00    -0.507 OA
ATOM     19  H   UNL     1       4.120 -13.024 -38.809  1.00  0.00     0.293 HD
ENDBRANCH   6  18
BRANCH  17  20
ATOM     20  O   UNL     1       1.910 -17.295 -39.093  1.00  0.00    -0.507 OA
ATOM     21  H   UNL     1       0.996 -17.729 -39.167  1.00  0.00     0.293 HD
ENDBRANCH  17  20
BRANCH  15  22
ATOM     22  O   UNL     1       3.928 -21.539 -37.963  1.00  0.00    -0.508 OA
ATOM     23  H   UNL     1       3.084 -22.047 -38.203  1.00  0.00     0.293 HD
ENDBRANCH  15  22
TORSDOF 3
ENDMDL
MODEL 3
REMARK VINA RESULT:    -5.991      2.175      5.419
REMARK INTER + INTRA:          -6.517
REMARK INTER:                  -6.517
REMARK INTRA:                   0.000
REMARK UNBOUND:                 0.000
REMARK SMILES Cc1cc(O)c2c(c1)C(=O)c1cc(O)cc(O)c1C2=O
REMARK SMILES IDX 1 1 2 2 8 3 7 4 6 5 4 6 3 7 19 8 20 9 18 10 11 11 9 12 10 13
REMARK SMILES IDX 12 14 13 15 15 16 16 17 5 18 17 20 14 22
REMARK H PARENT 5 19 17 21 14 23
REMARK Flexibility Score: inf
ROOT
ATOM      1  C   UNL     1       4.258 -20.502 -36.175  1.00  0.00     0.044 C 
ATOM      2  C   UNL     1       4.405 -19.309 -37.074  1.00  0.00    -0.047 A 
ATOM      3  C   UNL     1       5.602 -19.092 -37.767  1.00  0.00     0.016 A 
ATOM      4  C   UNL     1       5.765 -17.959 -38.584  1.00  0.00     0.038 A 
ATOM      5  C   UNL     1       4.716 -17.020 -38.701  1.00  0.00     0.076 A 
ATOM      6  C   UNL     1       3.515 -17.236 -37.981  1.00  0.00     0.127 A 
ATOM      7  C   UNL     1       3.374 -18.372 -37.174  1.00  0.00     0.050 A 
ATOM      8  C   UNL     1       4.899 -15.824 -39.572  1.00  0.00     0.201 C 
ATOM      9  O   UNL     1       3.965 -14.986 -39.687  1.00  0.00    -0.288 OA
ATOM     10  C   UNL     1       6.176 -15.613 -40.310  1.00  0.00     0.076 A 
ATOM     11  C   UNL     1       7.216 -16.560 -40.179  1.00  0.00     0.041 A 
ATOM     12  C   UNL     1       7.034 -17.751 -39.318  1.00  0.00     0.194 C 
ATOM     13  O   UNL     1       7.968 -18.594 -39.208  1.00  0.00    -0.289 OA
ATOM     14  C   UNL     1       8.426 -16.371 -40.870  1.00  0.00     0.059 A 
ATOM     15  C   UNL     1       8.612 -15.255 -41.685  1.00  0.00     0.120 A 
ATOM     16  C   UNL     1       7.589 -14.315 -41.818  1.00  0.00     0.093 A 
ATOM     17  C   UNL     1       6.375 -14.483 -41.139  1.00  0.00     0.131 A 
ENDROOT
BRANCH   6  18
ATOM     18  O   UNL     1       2.459 -16.326 -38.062  1.00  0.00    -0.507 OA
ATOM     19  H   UNL     1       1.774 -16.236 -37.320  1.00  0.00     0.293 HD
ENDBRANCH   6  18
BRANCH  17  20
ATOM     20  O   UNL     1       5.373 -13.523 -41.295  1.00  0.00    -0.507 OA
ATOM     21  H   UNL     1       4.460 -13.630 -40.869  1.00  0.00     0.293 HD
ENDBRANCH  17  20
BRANCH  15  22
ATOM     22  O   UNL     1       9.820 -15.090 -42.360  1.00  0.00    -0.508 OA
ATOM     23  H   UNL     1      10.710 -15.236 -41.898  1.00  0.00     0.293 HD
ENDBRANCH  15  22
TORSDOF 3
ENDMDL
MODEL 4
REMARK VINA RESULT:    -5.907      2.462      4.920
REMARK INTER + INTRA:          -6.426
REMARK INTER:                  -6.426
REMARK INTRA:                   0.000
REMARK UNBOUND:                 0.000
REMARK SMILES Cc1cc(O)c2c(c1)C(=O)c1cc(O)cc(O)c1C2=O
REMARK SMILES IDX 1 1 2 2 8 3 7 4 6 5 4 6 3 7 19 8 20 9 18 10 11 11 9 12 10 13
REMARK SMILES IDX 12 14 13 15 15 16 16 17 5 18 17 20 14 22
REMARK H PARENT 5 19 17 21 14 23
REMARK Flexibility Score: inf
ROOT
ATOM      1  C   UNL     1       0.736 -12.272 -36.028  1.00  0.00     0.044 C 
ATOM      2  C   UNL     1       1.608 -13.288 -36.707  1.00  0.00    -0.047 A 
ATOM      3  C   UNL     1       1.515 -14.640 -36.358  1.00  0.00     0.016 A 
ATOM      4  C   UNL     1       2.351 -15.598 -36.961  1.00  0.00     0.038 A 
ATOM      5  C   UNL     1       3.306 -15.192 -37.921  1.00  0.00     0.076 A 
ATOM      6  C   UNL     1       3.407 -13.819 -38.254  1.00  0.00     0.127 A 
ATOM      7  C   UNL     1       2.564 -12.883 -37.641  1.00  0.00     0.050 A 
ATOM      8  C   UNL     1       4.184 -16.216 -38.555  1.00  0.00     0.201 C 
ATOM      9  O   UNL     1       5.033 -15.863 -39.417  1.00  0.00    -0.288 OA
ATOM     10  C   UNL     1       4.066 -17.653 -38.179  1.00  0.00     0.076 A 
ATOM     11  C   UNL     1       3.109 -18.040 -37.215  1.00  0.00     0.041 A 
ATOM     12  C   UNL     1       2.232 -17.025 -36.588  1.00  0.00     0.194 C 
ATOM     13  O   UNL     1       1.377 -17.380 -35.729  1.00  0.00    -0.289 OA
ATOM     14  C   UNL     1       2.988 -19.393 -36.853  1.00  0.00     0.059 A 
ATOM     15  C   UNL     1       3.807 -20.360 -37.435  1.00  0.00     0.120 A 
ATOM     16  C   UNL     1       4.755 -19.985 -38.387  1.00  0.00     0.093 A 
ATOM     17  C   UNL     1       4.893 -18.642 -38.764  1.00  0.00     0.131 A 
ENDROOT
BRANCH   6  18
ATOM     18  O   UNL     1       4.345 -13.377 -39.189  1.00  0.00    -0.507 OA
ATOM     19  H   UNL     1       4.648 -13.963 -39.959  1.00  0.00     0.293 HD
ENDBRANCH   6  18
BRANCH  17  20
ATOM     20  O   UNL     1       5.852 -18.302 -39.720  1.00  0.00    -0.507 OA
ATOM     21  H   UNL     1       6.252 -17.371 -39.768  1.00  0.00     0.293 HD
ENDBRANCH  17  20
BRANCH  15  22
ATOM     22  O   UNL     1       3.668 -21.695 -37.059  1.00  0.00    -0.508 OA
ATOM     23  H   UNL     1       4.362 -22.159 -36.485  1.00  0.00     0.293 HD
ENDBRANCH  15  22
TORSDOF 3
ENDMDL
MODEL 5
REMARK VINA RESULT:    -5.901      2.317      5.952
REMARK INTER + INTRA:          -6.419
REMARK INTER:                  -6.419
REMARK INTRA:                   0.000
REMARK UNBOUND:                 0.000
REMARK SMILES Cc1cc(O)c2c(c1)C(=O)c1cc(O)cc(O)c1C2=O
REMARK SMILES IDX 1 1 2 2 8 3 7 4 6 5 4 6 3 7 19 8 20 9 18 10 11 11 9 12 10 13
REMARK SMILES IDX 12 14 13 15 15 16 16 17 5 18 17 20 14 22
REMARK H PARENT 5 19 17 21 14 23
REMARK Flexibility Score: inf
ROOT
ATOM      1  C   UNL     1       1.786 -15.771 -38.116  1.00  0.00     0.044 C 
ATOM      2  C   UNL     1       3.160 -15.805 -38.718  1.00  0.00    -0.047 A 
ATOM      3  C   UNL     1       4.105 -16.733 -38.264  1.00  0.00     0.016 A 
ATOM      4  C   UNL     1       5.408 -16.751 -38.795  1.00  0.00     0.038 A 
ATOM      5  C   UNL     1       5.775 -15.817 -39.788  1.00  0.00     0.076 A 
ATOM      6  C   UNL     1       4.819 -14.868 -40.229  1.00  0.00     0.127 A 
ATOM      7  C   UNL     1       3.528 -14.868 -39.687  1.00  0.00     0.050 A 
ATOM      8  C   UNL     1       7.157 -15.848 -40.345  1.00  0.00     0.201 C 
ATOM      9  O   UNL     1       7.490 -15.022 -41.237  1.00  0.00    -0.288 OA
ATOM     10  C   UNL     1       8.148 -16.848 -39.857  1.00  0.00     0.076 A 
ATOM     11  C   UNL     1       7.765 -17.773 -38.860  1.00  0.00     0.041 A 
ATOM     12  C   UNL     1       6.391 -17.746 -38.310  1.00  0.00     0.194 C 
ATOM     13  O   UNL     1       6.055 -18.578 -37.421  1.00  0.00    -0.289 OA
ATOM     14  C   UNL     1       8.692 -18.721 -38.392  1.00  0.00     0.059 A 
ATOM     15  C   UNL     1       9.989 -18.758 -38.902  1.00  0.00     0.120 A 
ATOM     16  C   UNL     1      10.375 -17.847 -39.886  1.00  0.00     0.093 A 
ATOM     17  C   UNL     1       9.468 -16.893 -40.367  1.00  0.00     0.131 A 
ENDROOT
BRANCH   6  18
ATOM     18  O   UNL     1       5.147 -13.922 -41.201  1.00  0.00    -0.507 OA
ATOM     19  H   UNL     1       5.072 -14.126 -42.191  1.00  0.00     0.293 HD
ENDBRANCH   6  18
BRANCH  17  20
ATOM     20  O   UNL     1       9.887 -15.997 -41.352  1.00  0.00    -0.507 OA
ATOM     21  H   UNL     1      10.561 -16.260 -42.062  1.00  0.00     0.293 HD
ENDBRANCH  17  20
BRANCH  15  22
ATOM     22  O   UNL     1      10.889 -19.707 -38.421  1.00  0.00    -0.508 OA
ATOM     23  H   UNL     1      11.613 -20.099 -39.012  1.00  0.00     0.293 HD
ENDBRANCH  15  22
TORSDOF 3
ENDMDL
MODEL 6
REMARK VINA RESULT:    -5.865      2.545      4.278
REMARK INTER + INTRA:          -6.379
REMARK INTER:                  -6.379
REMARK INTRA:                   0.000
REMARK UNBOUND:                 0.000
REMARK SMILES Cc1cc(O)c2c(c1)C(=O)c1cc(O)cc(O)c1C2=O
REMARK SMILES IDX 1 1 2 2 8 3 7 4 6 5 4 6 3 7 19 8 20 9 18 10 11 11 9 12 10 13
REMARK SMILES IDX 12 14 13 15 15 16 16 17 5 18 17 20 14 22
REMARK H PARENT 5 19 17 21 14 23
REMARK Flexibility Score: inf
ROOT
ATOM      1  C   UNL     1       3.934 -21.605 -36.931  1.00  0.00     0.044 C 
ATOM      2  C   UNL     1       4.068 -20.173 -37.361  1.00  0.00    -0.047 A 
ATOM      3  C   UNL     1       3.303 -19.178 -36.741  1.00  0.00     0.016 A 
ATOM      4  C   UNL     1       3.393 -17.837 -37.159  1.00  0.00     0.038 A 
ATOM      5  C   UNL     1       4.254 -17.489 -38.224  1.00  0.00     0.076 A 
ATOM      6  C   UNL     1       5.010 -18.505 -38.859  1.00  0.00     0.127 A 
ATOM      7  C   UNL     1       4.905 -19.833 -38.427  1.00  0.00     0.050 A 
ATOM      8  C   UNL     1       4.343 -16.065 -38.655  1.00  0.00     0.201 C 
ATOM      9  O   UNL     1       5.114 -15.746 -39.599  1.00  0.00    -0.288 OA
ATOM     10  C   UNL     1       3.529 -15.017 -37.979  1.00  0.00     0.076 A 
ATOM     11  C   UNL     1       2.671 -15.383 -36.918  1.00  0.00     0.041 A 
ATOM     12  C   UNL     1       2.585 -16.796 -36.485  1.00  0.00     0.194 C 
ATOM     13  O   UNL     1       1.817 -17.115 -35.534  1.00  0.00    -0.289 OA
ATOM     14  C   UNL     1       1.898 -14.402 -36.272  1.00  0.00     0.059 A 
ATOM     15  C   UNL     1       1.968 -13.067 -36.669  1.00  0.00     0.120 A 
ATOM     16  C   UNL     1       2.813 -12.698 -37.717  1.00  0.00     0.093 A 
ATOM     17  C   UNL     1       3.592 -13.658 -38.375  1.00  0.00     0.131 A 
ENDROOT
BRANCH   6  18
ATOM     18  O   UNL     1       5.863 -18.203 -39.921  1.00  0.00    -0.507 OA
ATOM     19  H   UNL     1       6.565 -17.474 -39.852  1.00  0.00     0.293 HD
ENDBRANCH   6  18
BRANCH  17  20
ATOM     20  O   UNL     1       4.427 -13.254 -39.418  1.00  0.00    -0.507 OA
ATOM     21  H   UNL     1       4.056 -12.934 -40.306  1.00  0.00     0.293 HD
ENDBRANCH  17  20
BRANCH  15  22
ATOM     22  O   UNL     1       1.192 -12.113 -36.013  1.00  0.00    -0.508 OA
ATOM     23  H   UNL     1       0.910 -11.254 -36.469  1.00  0.00     0.293 HD
ENDBRANCH  15  22
TORSDOF 3
ENDMDL
MODEL 7
REMARK VINA RESULT:    -5.830      1.654      2.207
REMARK INTER + INTRA:          -6.341
REMARK INTER:                  -6.341
REMARK INTRA:                   0.000
REMARK UNBOUND:                 0.000
REMARK SMILES Cc1cc(O)c2c(c1)C(=O)c1cc(O)cc(O)c1C2=O
REMARK SMILES IDX 1 1 2 2 8 3 7 4 6 5 4 6 3 7 19 8 20 9 18 10 11 11 9 12 10 13
REMARK SMILES IDX 12 14 13 15 15 16 16 17 5 18 17 20 14 22
REMARK H PARENT 5 19 17 21 14 23
REMARK Flexibility Score: inf
ROOT
ATOM      1  C   UNL     1      10.624 -19.395 -38.283  1.00  0.00     0.044 C 
ATOM      2  C   UNL     1       9.484 -18.516 -38.706  1.00  0.00    -0.047 A 
ATOM      3  C   UNL     1       8.252 -18.592 -38.045  1.00  0.00     0.016 A 
ATOM      4  C   UNL     1       7.165 -17.799 -38.455  1.00  0.00     0.038 A 
ATOM      5  C   UNL     1       7.309 -16.924 -39.554  1.00  0.00     0.076 A 
ATOM      6  C   UNL     1       8.552 -16.867 -40.231  1.00  0.00     0.127 A 
ATOM      7  C   UNL     1       9.622 -17.664 -39.805  1.00  0.00     0.050 A 
ATOM      8  C   UNL     1       6.151 -16.087 -39.978  1.00  0.00     0.201 C 
ATOM      9  O   UNL     1       6.274 -15.299 -40.953  1.00  0.00    -0.288 OA
ATOM     10  C   UNL     1       4.850 -16.174 -39.257  1.00  0.00     0.076 A 
ATOM     11  C   UNL     1       4.723 -17.057 -38.162  1.00  0.00     0.041 A 
ATOM     12  C   UNL     1       5.874 -17.886 -37.737  1.00  0.00     0.194 C 
ATOM     13  O   UNL     1       5.752 -18.671 -36.756  1.00  0.00    -0.289 OA
ATOM     14  C   UNL     1       3.499 -17.148 -37.475  1.00  0.00     0.059 A 
ATOM     15  C   UNL     1       2.407 -16.374 -37.863  1.00  0.00     0.120 A 
ATOM     16  C   UNL     1       2.525 -15.500 -38.945  1.00  0.00     0.093 A 
ATOM     17  C   UNL     1       3.734 -15.393 -39.645  1.00  0.00     0.131 A 
ENDROOT
BRANCH   6  18
ATOM     18  O   UNL     1       8.731 -16.023 -41.328  1.00  0.00    -0.507 OA
ATOM     19  H   UNL     1       9.314 -16.285 -42.115  1.00  0.00     0.293 HD
ENDBRANCH   6  18
BRANCH  17  20
ATOM     20  O   UNL     1       3.818 -14.508 -40.722  1.00  0.00    -0.507 OA
ATOM     21  H   UNL     1       4.709 -14.192 -41.086  1.00  0.00     0.293 HD
ENDBRANCH  17  20
BRANCH  15  22
ATOM     22  O   UNL     1       1.205 -16.481 -37.166  1.00  0.00    -0.508 OA
ATOM     23  H   UNL     1       1.011 -15.910 -36.352  1.00  0.00     0.293 HD
ENDBRANCH  15  22
TORSDOF 3
ENDMDL
MODEL 8
REMARK VINA RESULT:    -5.701      1.882      5.402
REMARK INTER + INTRA:          -6.201
REMARK INTER:                  -6.201
REMARK INTRA:                   0.000
REMARK UNBOUND:                 0.000
REMARK SMILES Cc1cc(O)c2c(c1)C(=O)c1cc(O)cc(O)c1C2=O
REMARK SMILES IDX 1 1 2 2 8 3 7 4 6 5 4 6 3 7 19 8 20 9 18 10 11 11 9 12 10 13
REMARK SMILES IDX 12 14 13 15 15 16 16 17 5 18 17 20 14 22
REMARK H PARENT 5 19 17 21 14 23
REMARK Flexibility Score: inf
ROOT
ATOM      1  C   UNL     1       0.422 -17.124 -34.961  1.00  0.00     0.044 C 
ATOM      2  C   UNL     1       1.386 -16.803 -36.066  1.00  0.00    -0.047 A 
ATOM      3  C   UNL     1       2.590 -17.508 -36.177  1.00  0.00     0.016 A 
ATOM      4  C   UNL     1       3.518 -17.192 -37.187  1.00  0.00     0.038 A 
ATOM      5  C   UNL     1       3.241 -16.144 -38.092  1.00  0.00     0.076 A 
ATOM      6  C   UNL     1       2.030 -15.421 -37.961  1.00  0.00     0.127 A 
ATOM      7  C   UNL     1       1.120 -15.753 -36.949  1.00  0.00     0.050 A 
ATOM      8  C   UNL     1       4.231 -15.821 -39.159  1.00  0.00     0.201 C 
ATOM      9  O   UNL     1       3.988 -14.892 -39.975  1.00  0.00    -0.288 OA
ATOM     10  C   UNL     1       5.503 -16.588 -39.270  1.00  0.00     0.076 A 
ATOM     11  C   UNL     1       5.765 -17.631 -38.353  1.00  0.00     0.041 A 
ATOM     12  C   UNL     1       4.781 -17.956 -37.296  1.00  0.00     0.194 C 
ATOM     13  O   UNL     1       5.021 -18.892 -36.482  1.00  0.00    -0.289 OA
ATOM     14  C   UNL     1       6.963 -18.362 -38.448  1.00  0.00     0.059 A 
ATOM     15  C   UNL     1       7.899 -18.067 -39.439  1.00  0.00     0.120 A 
ATOM     16  C   UNL     1       7.647 -17.037 -40.347  1.00  0.00     0.093 A 
ATOM     17  C   UNL     1       6.461 -16.296 -40.271  1.00  0.00     0.131 A 
ENDROOT
BRANCH   6  18
ATOM     18  O   UNL     1       1.726 -14.372 -38.829  1.00  0.00    -0.507 OA
ATOM     19  H   UNL     1       1.589 -13.424 -38.495  1.00  0.00     0.293 HD
ENDBRANCH   6  18
BRANCH  17  20
ATOM     20  O   UNL     1       6.241 -15.273 -41.196  1.00  0.00    -0.507 OA
ATOM     21  H   UNL     1       6.998 -14.869 -41.736  1.00  0.00     0.293 HD
ENDBRANCH  17  20
BRANCH  15  22
ATOM     22  O   UNL     1       9.078 -18.805 -39.512  1.00  0.00    -0.508 OA
ATOM     23  H   UNL     1       9.105 -19.721 -39.943  1.00  0.00     0.293 HD
ENDBRANCH  15  22
TORSDOF 3
ENDMDL
MODEL 9
REMARK VINA RESULT:    -5.622      1.492      3.511
REMARK INTER + INTRA:          -6.115
REMARK INTER:                  -6.115
REMARK INTRA:                   0.000
REMARK UNBOUND:                 0.000
REMARK SMILES Cc1cc(O)c2c(c1)C(=O)c1cc(O)cc(O)c1C2=O
REMARK SMILES IDX 1 1 2 2 8 3 7 4 6 5 4 6 3 7 19 8 20 9 18 10 11 11 9 12 10 13
REMARK SMILES IDX 12 14 13 15 15 16 16 17 5 18 17 20 14 22
REMARK H PARENT 5 19 17 21 14 23
REMARK Flexibility Score: inf
ROOT
ATOM      1  C   UNL     1       6.969 -12.498 -39.759  1.00  0.00     0.044 C 
ATOM      2  C   UNL     1       6.611 -13.880 -39.298  1.00  0.00    -0.047 A 
ATOM      3  C   UNL     1       5.269 -14.273 -39.226  1.00  0.00     0.016 A 
ATOM      4  C   UNL     1       4.919 -15.554 -38.762  1.00  0.00     0.038 A 
ATOM      5  C   UNL     1       5.928 -16.452 -38.349  1.00  0.00     0.076 A 
ATOM      6  C   UNL     1       7.282 -16.040 -38.405  1.00  0.00     0.127 A 
ATOM      7  C   UNL     1       7.609 -14.761 -38.872  1.00  0.00     0.050 A 
ATOM      8  C   UNL     1       5.544 -17.808 -37.862  1.00  0.00     0.201 C 
ATOM      9  O   UNL     1       6.439 -18.617 -37.499  1.00  0.00    -0.288 OA
ATOM     10  C   UNL     1       4.112 -18.213 -37.801  1.00  0.00     0.076 A 
ATOM     11  C   UNL     1       3.116 -17.301 -38.214  1.00  0.00     0.041 A 
ATOM     12  C   UNL     1       3.496 -15.956 -38.704  1.00  0.00     0.194 C 
ATOM     13  O   UNL     1       2.599 -15.147 -39.074  1.00  0.00    -0.289 OA
ATOM     14  C   UNL     1       1.760 -17.673 -38.162  1.00  0.00     0.059 A 
ATOM     15  C   UNL     1       1.388 -18.936 -37.703  1.00  0.00     0.120 A 
ATOM     16  C   UNL     1       2.366 -19.842 -37.292  1.00  0.00     0.093 A 
ATOM     17  C   UNL     1       3.723 -19.493 -37.336  1.00  0.00     0.131 A 
ENDROOT
BRANCH   6  18
ATOM     18  O   UNL     1       8.307 -16.895 -37.997  1.00  0.00    -0.507 OA
ATOM     19  H   UNL     1       8.118 -17.831 -37.656  1.00  0.00     0.293 HD
ENDBRANCH   6  18
BRANCH  17  20
ATOM     20  O   UNL     1       4.676 -20.424 -36.918  1.00  0.00    -0.507 OA
ATOM     21  H   UNL     1       5.168 -21.018 -37.576  1.00  0.00     0.293 HD
ENDBRANCH  17  20
BRANCH  15  22
ATOM     22  O   UNL     1       0.038 -19.281 -37.660  1.00  0.00    -0.508 OA
ATOM     23  H   UNL     1      -0.444 -19.428 -36.781  1.00  0.00     0.293 HD
ENDBRANCH  15  22
TORSDOF 3
ENDMDL
