MODEL 1
REMARK VINA RESULT:    -3.389      0.000      0.000
REMARK INTER + INTRA:          -4.667
REMARK INTER:                  -4.380
REMARK INTRA:                  -0.287
REMARK UNBOUND:                -0.287
REMARK SMILES CCCCCCC(=O)[O-]
REMARK SMILES IDX 5 1 6 2 7 3 8 4 9 5 4 6 3 7 2 8 1 9
REMARK H PARENT
REMARK Flexibility Score: inf
ROOT
ATOM      1  C   UNL     1     207.451 207.042 157.013  1.00  0.00     0.006 C 
ENDROOT
BRANCH   1   2
ATOM      2  C   UNL     1     208.043 208.384 157.462  1.00  0.00     0.053 C 
BRANCH   2   3
ATOM      3  C   UNL     1     206.994 209.450 157.442  1.00  0.00     0.041 C 
ATOM      4  O   UNL     1     205.958 209.306 156.741  1.00  0.00    -0.550 OA
ATOM      5  O   UNL     1     207.183 210.626 158.159  1.00  0.00    -0.550 OA
ENDBRANCH   2   3
ENDBRANCH   1   2
BRANCH   1   6
ATOM      6  C   UNL     1     208.115 206.496 155.738  1.00  0.00     0.000 C 
BRANCH   6   7
ATOM      7  C   UNL     1     209.133 207.480 155.136  1.00  0.00    -0.000 C 
BRANCH   7   8
ATOM      8  C   UNL     1     210.549 206.886 155.058  1.00  0.00    -0.003 C 
ATOM      9  C   UNL     1     211.605 207.782 155.705  1.00  0.00     0.004 C 
ENDBRANCH   7   8
ENDBRANCH   6   7
ENDBRANCH   1   6
TORSDOF 5
ENDMDL
MODEL 2
REMARK VINA RESULT:    -3.353      4.204      5.171
REMARK INTER + INTRA:          -4.620
REMARK INTER:                  -4.305
REMARK INTRA:                  -0.315
REMARK UNBOUND:                -0.287
REMARK SMILES CCCCCCC(=O)[O-]
REMARK SMILES IDX 5 1 6 2 7 3 8 4 9 5 4 6 3 7 2 8 1 9
REMARK H PARENT
REMARK Flexibility Score: inf
ROOT
ATOM      1  C   UNL     1     206.354 204.066 159.392  1.00  0.00     0.006 C 
ENDROOT
BRANCH   1   2
ATOM      2  C   UNL     1     206.684 205.555 159.564  1.00  0.00     0.053 C 
BRANCH   2   3
ATOM      3  C   UNL     1     208.128 205.807 159.266  1.00  0.00     0.041 C 
ATOM      4  O   UNL     1     208.466 206.344 158.179  1.00  0.00    -0.550 OA
ATOM      5  O   UNL     1     209.105 205.402 160.168  1.00  0.00    -0.550 OA
ENDBRANCH   2   3
ENDBRANCH   1   2
BRANCH   1   6
ATOM      6  C   UNL     1     205.216 203.823 158.388  1.00  0.00     0.000 C 
BRANCH   6   7
ATOM      7  C   UNL     1     205.651 204.063 156.932  1.00  0.00    -0.000 C 
BRANCH   7   8
ATOM      8  C   UNL     1     206.888 203.237 156.544  1.00  0.00    -0.003 C 
ATOM      9  C   UNL     1     206.573 201.753 156.349  1.00  0.00     0.004 C 
ENDBRANCH   7   8
ENDBRANCH   6   7
ENDBRANCH   1   6
TORSDOF 5
ENDMDL
MODEL 3
REMARK VINA RESULT:    -3.295      4.490      6.181
REMARK INTER + INTRA:          -4.544
REMARK INTER:                  -4.132
REMARK INTRA:                  -0.412
REMARK UNBOUND:                -0.287
REMARK SMILES CCCCCCC(=O)[O-]
REMARK SMILES IDX 5 1 6 2 7 3 8 4 9 5 4 6 3 7 2 8 1 9
REMARK H PARENT
REMARK Flexibility Score: inf
ROOT
ATOM      1  C   UNL     1     207.332 204.971 157.545  1.00  0.00     0.006 C 
ENDROOT
BRANCH   1   2
ATOM      2  C   UNL     1     207.123 203.942 156.427  1.00  0.00     0.053 C 
BRANCH   2   3
ATOM      3  C   UNL     1     206.397 202.743 156.949  1.00  0.00     0.041 C 
ATOM      4  O   UNL     1     205.783 202.802 158.047  1.00  0.00    -0.550 OA
ATOM      5  O   UNL     1     206.440 201.543 156.248  1.00  0.00    -0.550 OA
ENDBRANCH   2   3
ENDBRANCH   1   2
BRANCH   1   6
ATOM      6  C   UNL     1     206.873 206.383 157.147  1.00  0.00     0.000 C 
BRANCH   6   7
ATOM      7  C   UNL     1     205.506 206.382 156.443  1.00  0.00    -0.000 C 
BRANCH   7   8
ATOM      8  C   UNL     1     204.333 206.350 157.436  1.00  0.00    -0.003 C 
ATOM      9  C   UNL     1     203.318 205.251 157.119  1.00  0.00     0.004 C 
ENDBRANCH   7   8
ENDBRANCH   6   7
ENDBRANCH   1   6
TORSDOF 5
ENDMDL
MODEL 4
REMARK VINA RESULT:    -3.291      3.786      4.682
REMARK INTER + INTRA:          -4.539
REMARK INTER:                  -4.317
REMARK INTRA:                  -0.222
REMARK UNBOUND:                -0.287
REMARK SMILES CCCCCCC(=O)[O-]
REMARK SMILES IDX 5 1 6 2 7 3 8 4 9 5 4 6 3 7 2 8 1 9
REMARK H PARENT
REMARK Flexibility Score: inf
ROOT
ATOM      1  C   UNL     1     207.934 204.908 156.887  1.00  0.00     0.006 C 
ENDROOT
BRANCH   1   2
ATOM      2  C   UNL     1     207.590 203.712 155.990  1.00  0.00     0.053 C 
BRANCH   2   3
ATOM      3  C   UNL     1     206.659 202.780 156.699  1.00  0.00     0.041 C 
ATOM      4  O   UNL     1     206.567 201.578 156.334  1.00  0.00    -0.550 OA
ATOM      5  O   UNL     1     205.856 203.250 157.731  1.00  0.00    -0.550 OA
ENDBRANCH   2   3
ENDBRANCH   1   2
BRANCH   1   6
ATOM      6  C   UNL     1     207.408 206.240 156.330  1.00  0.00     0.000 C 
BRANCH   6   7
ATOM      7  C   UNL     1     208.478 207.345 156.329  1.00  0.00    -0.000 C 
BRANCH   7   8
ATOM      8  C   UNL     1     209.209 207.455 154.982  1.00  0.00    -0.003 C 
ATOM      9  C   UNL     1     210.699 207.127 155.086  1.00  0.00     0.004 C 
ENDBRANCH   7   8
ENDBRANCH   6   7
ENDBRANCH   1   6
TORSDOF 5
ENDMDL
MODEL 5
REMARK VINA RESULT:    -3.285      4.293      5.286
REMARK INTER + INTRA:          -4.532
REMARK INTER:                  -4.209
REMARK INTRA:                  -0.324
REMARK UNBOUND:                -0.287
REMARK SMILES CCCCCCC(=O)[O-]
REMARK SMILES IDX 5 1 6 2 7 3 8 4 9 5 4 6 3 7 2 8 1 9
REMARK H PARENT
REMARK Flexibility Score: inf
ROOT
ATOM      1  C   UNL     1     206.260 205.549 157.974  1.00  0.00     0.006 C 
ENDROOT
BRANCH   1   2
ATOM      2  C   UNL     1     205.070 206.518 157.970  1.00  0.00     0.053 C 
BRANCH   2   3
ATOM      3  C   UNL     1     204.111 206.162 156.879  1.00  0.00     0.041 C 
ATOM      4  O   UNL     1     203.259 205.253 157.056  1.00  0.00    -0.550 OA
ATOM      5  O   UNL     1     204.190 206.801 155.647  1.00  0.00    -0.550 OA
ENDBRANCH   2   3
ENDBRANCH   1   2
BRANCH   1   6
ATOM      6  C   UNL     1     206.120 204.440 159.029  1.00  0.00     0.000 C 
BRANCH   6   7
ATOM      7  C   UNL     1     205.783 203.074 158.409  1.00  0.00    -0.000 C 
BRANCH   7   8
ATOM      8  C   UNL     1     206.120 203.009 156.911  1.00  0.00    -0.003 C 
ATOM      9  C   UNL     1     206.664 201.645 156.483  1.00  0.00     0.004 C 
ENDBRANCH   7   8
ENDBRANCH   6   7
ENDBRANCH   1   6
TORSDOF 5
ENDMDL
MODEL 6
REMARK VINA RESULT:    -3.272      4.084      5.059
REMARK INTER + INTRA:          -4.514
REMARK INTER:                  -4.118
REMARK INTRA:                  -0.396
REMARK UNBOUND:                -0.287
REMARK SMILES CCCCCCC(=O)[O-]
REMARK SMILES IDX 5 1 6 2 7 3 8 4 9 5 4 6 3 7 2 8 1 9
REMARK H PARENT
REMARK Flexibility Score: inf
ROOT
ATOM      1  C   UNL     1     206.087 205.555 155.718  1.00  0.00     0.006 C 
ENDROOT
BRANCH   1   2
ATOM      2  C   UNL     1     205.178 206.154 156.799  1.00  0.00     0.053 C 
BRANCH   2   3
ATOM      3  C   UNL     1     204.278 205.102 157.367  1.00  0.00     0.041 C 
ATOM      4  O   UNL     1     203.041 205.136 157.139  1.00  0.00    -0.550 OA
ATOM      5  O   UNL     1     204.800 204.110 158.188  1.00  0.00    -0.550 OA
ENDBRANCH   2   3
ENDBRANCH   1   2
BRANCH   1   6
ATOM      6  C   UNL     1     207.521 205.314 156.216  1.00  0.00     0.000 C 
BRANCH   6   7
ATOM      7  C   UNL     1     207.910 203.825 156.199  1.00  0.00    -0.000 C 
BRANCH   7   8
ATOM      8  C   UNL     1     206.860 202.952 155.493  1.00  0.00    -0.003 C 
ATOM      9  C   UNL     1     206.541 201.670 156.263  1.00  0.00     0.004 C 
ENDBRANCH   7   8
ENDBRANCH   6   7
ENDBRANCH   1   6
TORSDOF 5
ENDMDL
MODEL 7
REMARK VINA RESULT:    -3.252      3.473      4.846
REMARK INTER + INTRA:          -4.489
REMARK INTER:                  -4.195
REMARK INTRA:                  -0.294
REMARK UNBOUND:                -0.287
REMARK SMILES CCCCCCC(=O)[O-]
REMARK SMILES IDX 5 1 6 2 7 3 8 4 9 5 4 6 3 7 2 8 1 9
REMARK H PARENT
REMARK Flexibility Score: inf
ROOT
ATOM      1  C   UNL     1     206.724 205.416 159.655  1.00  0.00     0.006 C 
ENDROOT
BRANCH   1   2
ATOM      2  C   UNL     1     208.133 205.762 159.155  1.00  0.00     0.053 C 
BRANCH   2   3
ATOM      3  C   UNL     1     208.074 206.872 158.154  1.00  0.00     0.041 C 
ATOM      4  O   UNL     1     208.983 207.742 158.119  1.00  0.00    -0.550 OA
ATOM      5  O   UNL     1     206.988 206.975 157.293  1.00  0.00    -0.550 OA
ENDBRANCH   2   3
ENDBRANCH   1   2
BRANCH   1   6
ATOM      6  C   UNL     1     206.369 203.934 159.452  1.00  0.00     0.000 C 
BRANCH   6   7
ATOM      7  C   UNL     1     205.434 203.710 158.252  1.00  0.00    -0.000 C 
BRANCH   7   8
ATOM      8  C   UNL     1     206.204 203.459 156.946  1.00  0.00    -0.003 C 
ATOM      9  C   UNL     1     206.539 201.984 156.727  1.00  0.00     0.004 C 
ENDBRANCH   7   8
ENDBRANCH   6   7
ENDBRANCH   1   6
TORSDOF 5
ENDMDL
MODEL 8
REMARK VINA RESULT:    -3.208      2.896      4.350
REMARK INTER + INTRA:          -4.433
REMARK INTER:                  -4.026
REMARK INTRA:                  -0.406
REMARK UNBOUND:                -0.287
REMARK SMILES CCCCCCC(=O)[O-]
REMARK SMILES IDX 5 1 6 2 7 3 8 4 9 5 4 6 3 7 2 8 1 9
REMARK H PARENT
REMARK Flexibility Score: inf
ROOT
ATOM      1  C   UNL     1     205.796 205.798 156.140  1.00  0.00     0.006 C 
ENDROOT
BRANCH   1   2
ATOM      2  C   UNL     1     207.170 206.426 156.410  1.00  0.00     0.053 C 
BRANCH   2   3
ATOM      3  C   UNL     1     207.057 207.503 157.442  1.00  0.00     0.041 C 
ATOM      4  O   UNL     1     205.984 207.659 158.081  1.00  0.00    -0.550 OA
ATOM      5  O   UNL     1     208.123 208.368 157.664  1.00  0.00    -0.550 OA
ENDBRANCH   2   3
ENDBRANCH   1   2
BRANCH   1   6
ATOM      6  C   UNL     1     205.719 204.327 156.578  1.00  0.00     0.000 C 
BRANCH   6   7
ATOM      7  C   UNL     1     205.030 204.152 157.943  1.00  0.00    -0.000 C 
BRANCH   7   8
ATOM      8  C   UNL     1     205.960 203.529 158.995  1.00  0.00    -0.003 C 
ATOM      9  C   UNL     1     206.765 204.573 159.770  1.00  0.00     0.004 C 
ENDBRANCH   7   8
ENDBRANCH   6   7
ENDBRANCH   1   6
TORSDOF 5
ENDMDL
MODEL 9
REMARK VINA RESULT:    -3.202      4.075      5.480
REMARK INTER + INTRA:          -4.424
REMARK INTER:                  -3.986
REMARK INTRA:                  -0.438
REMARK UNBOUND:                -0.287
REMARK SMILES CCCCCCC(=O)[O-]
REMARK SMILES IDX 5 1 6 2 7 3 8 4 9 5 4 6 3 7 2 8 1 9
REMARK H PARENT
REMARK Flexibility Score: inf
ROOT
ATOM      1  C   UNL     1     206.366 203.813 159.400  1.00  0.00     0.006 C 
ENDROOT
BRANCH   1   2
ATOM      2  C   UNL     1     205.328 203.762 158.271  1.00  0.00     0.053 C 
BRANCH   2   3
ATOM      3  C   UNL     1     205.980 203.388 156.978  1.00  0.00     0.041 C 
ATOM      4  O   UNL     1     206.100 204.240 156.059  1.00  0.00    -0.550 OA
ATOM      5  O   UNL     1     206.413 202.084 156.769  1.00  0.00    -0.550 OA
ENDBRANCH   2   3
ENDBRANCH   1   2
BRANCH   1   6
ATOM      6  C   UNL     1     206.777 205.249 159.764  1.00  0.00     0.000 C 
BRANCH   6   7
ATOM      7  C   UNL     1     208.154 205.632 159.196  1.00  0.00    -0.000 C 
BRANCH   7   8
ATOM      8  C   UNL     1     208.049 206.515 157.943  1.00  0.00    -0.003 C 
ATOM      9  C   UNL     1     206.712 207.250 157.845  1.00  0.00     0.004 C 
ENDBRANCH   7   8
ENDBRANCH   6   7
ENDBRANCH   1   6
TORSDOF 5
ENDMDL
