MODEL 1
REMARK VINA RESULT:    -6.507      0.000      0.000
REMARK INTER + INTRA:         -21.532
REMARK INTER:                 -17.157
REMARK INTRA:                  -4.376
REMARK UNBOUND:                -4.376
REMARK SMILES CCCCCCCCCCCCCCCCCCCCCCCCCCCCCC(=O)[O-]
REMARK SMILES IDX 16 1 17 2 18 3 19 4 20 5 21 6 22 7 23 8 24 9 25 10 26 11
REMARK SMILES IDX 27 12 28 13 29 14 30 15 31 16 32 17 15 18 14 19 13 20 12 21
REMARK SMILES IDX 11 22 10 23 9 24 8 25 7 26 6 27 5 28 4 29 3 30 2 31 1 32
REMARK H PARENT
REMARK Flexibility Score: inf
ROOT
ATOM      1  C   UNL     1      33.254  -9.618  19.569  1.00  0.00     0.000 C 
ENDROOT
BRANCH   1   2
ATOM      2  C   UNL     1      31.913  -9.113  20.130  1.00  0.00     0.000 C 
BRANCH   2   3
ATOM      3  C   UNL     1      31.918  -8.973  21.659  1.00  0.00     0.000 C 
BRANCH   3   4
ATOM      4  C   UNL     1      30.496  -9.087  22.220  1.00  0.00     0.000 C 
BRANCH   4   5
ATOM      5  C   UNL     1      29.536  -9.695  21.184  1.00  0.00     0.000 C 
BRANCH   5   6
ATOM      6  C   UNL     1      28.284 -10.327  21.827  1.00  0.00     0.000 C 
BRANCH   6   7
ATOM      7  C   UNL     1      27.512 -11.285  20.899  1.00  0.00     0.000 C 
BRANCH   7   8
ATOM      8  C   UNL     1      26.898 -10.641  19.643  1.00  0.00     0.000 C 
BRANCH   8   9
ATOM      9  C   UNL     1      26.046  -9.382  19.901  1.00  0.00     0.000 C 
BRANCH   9  10
ATOM     10  C   UNL     1      26.293  -8.218  18.923  1.00  0.00     0.000 C 
BRANCH  10  11
ATOM     11  C   UNL     1      27.457  -7.294  19.339  1.00  0.00     0.000 C 
BRANCH  11  12
ATOM     12  C   UNL     1      27.209  -6.603  20.691  1.00  0.00     0.000 C 
BRANCH  12  13
ATOM     13  C   UNL     1      26.341  -5.335  20.558  1.00  0.00     0.006 C 
BRANCH  13  14
ATOM     14  C   UNL     1      27.141  -4.026  20.671  1.00  0.00     0.053 C 
BRANCH  14  15
ATOM     15  C   UNL     1      27.685  -3.572  19.353  1.00  0.00     0.041 C 
ATOM     16  O   UNL     1      28.900  -3.752  19.073  1.00  0.00    -0.550 OA
ATOM     17  O   UNL     1      26.844  -2.980  18.419  1.00  0.00    -0.550 OA
ENDBRANCH  14  15
ENDBRANCH  13  14
ENDBRANCH  12  13
ENDBRANCH  11  12
ENDBRANCH  10  11
ENDBRANCH   9  10
ENDBRANCH   8   9
ENDBRANCH   7   8
ENDBRANCH   6   7
ENDBRANCH   5   6
ENDBRANCH   4   5
ENDBRANCH   3   4
ENDBRANCH   2   3
ENDBRANCH   1   2
BRANCH   1  18
ATOM     18  C   UNL     1      34.471  -9.435  20.503  1.00  0.00     0.000 C 
BRANCH  18  19
ATOM     19  C   UNL     1      35.641 -10.407  20.266  1.00  0.00     0.000 C 
BRANCH  19  20
ATOM     20  C   UNL     1      36.421 -10.738  21.550  1.00  0.00     0.000 C 
BRANCH  20  21
ATOM     21  C   UNL     1      37.876 -10.239  21.508  1.00  0.00     0.000 C 
BRANCH  21  22
ATOM     22  C   UNL     1      38.509  -9.954  22.882  1.00  0.00     0.000 C 
BRANCH  22  23
ATOM     23  C   UNL     1      38.146  -8.564  23.429  1.00  0.00     0.000 C 
BRANCH  23  24
ATOM     24  C   UNL     1      37.055  -8.626  24.512  1.00  0.00    -0.000 C 
BRANCH  24  25
ATOM     25  C   UNL     1      35.707  -8.076  24.016  1.00  0.00    -0.000 C 
BRANCH  25  26
ATOM     26  C   UNL     1      35.858  -7.088  22.846  1.00  0.00    -0.000 C 
BRANCH  26  27
ATOM     27  C   UNL     1      34.788  -5.983  22.784  1.00  0.00    -0.000 C 
BRANCH  27  28
ATOM     28  C   UNL     1      34.012  -5.974  21.459  1.00  0.00    -0.000 C 
BRANCH  28  29
ATOM     29  C   UNL     1      32.826  -5.000  21.524  1.00  0.00    -0.000 C 
BRANCH  29  30
ATOM     30  C   UNL     1      31.872  -5.292  22.696  1.00  0.00    -0.000 C 
BRANCH  30  31
ATOM     31  C   UNL     1      30.391  -5.433  22.306  1.00  0.00    -0.003 C 
ATOM     32  C   UNL     1      29.483  -5.729  23.499  1.00  0.00     0.004 C 
ENDBRANCH  30  31
ENDBRANCH  29  30
ENDBRANCH  28  29
ENDBRANCH  27  28
ENDBRANCH  26  27
ENDBRANCH  25  26
ENDBRANCH  24  25
ENDBRANCH  23  24
ENDBRANCH  22  23
ENDBRANCH  21  22
ENDBRANCH  20  21
ENDBRANCH  19  20
ENDBRANCH  18  19
ENDBRANCH   1  18
TORSDOF 28
ENDMDL
MODEL 2
REMARK VINA RESULT:    -6.487      1.781      3.845
REMARK INTER + INTRA:         -21.480
REMARK INTER:                 -18.113
REMARK INTRA:                  -3.367
REMARK UNBOUND:                -4.376
REMARK SMILES CCCCCCCCCCCCCCCCCCCCCCCCCCCCCC(=O)[O-]
REMARK SMILES IDX 16 1 17 2 18 3 19 4 20 5 21 6 22 7 23 8 24 9 25 10 26 11
REMARK SMILES IDX 27 12 28 13 29 14 30 15 31 16 32 17 15 18 14 19 13 20 12 21
REMARK SMILES IDX 11 22 10 23 9 24 8 25 7 26 6 27 5 28 4 29 3 30 2 31 1 32
REMARK H PARENT
REMARK Flexibility Score: inf
ROOT
ATOM      1  C   UNL     1      33.622  -8.178  21.336  1.00  0.00     0.000 C 
ENDROOT
BRANCH   1   2
ATOM      2  C   UNL     1      32.358  -8.842  20.762  1.00  0.00     0.000 C 
BRANCH   2   3
ATOM      3  C   UNL     1      31.217  -8.942  21.784  1.00  0.00     0.000 C 
BRANCH   3   4
ATOM      4  C   UNL     1      29.855  -8.910  21.082  1.00  0.00     0.000 C 
BRANCH   4   5
ATOM      5  C   UNL     1      28.704  -9.047  22.092  1.00  0.00     0.000 C 
BRANCH   5   6
ATOM      6  C   UNL     1      28.158 -10.487  22.186  1.00  0.00     0.000 C 
BRANCH   6   7
ATOM      7  C   UNL     1      28.449 -11.355  20.947  1.00  0.00     0.000 C 
BRANCH   7   8
ATOM      8  C   UNL     1      27.218 -11.759  20.115  1.00  0.00     0.000 C 
BRANCH   8   9
ATOM      9  C   UNL     1      26.074 -10.726  20.094  1.00  0.00     0.000 C 
BRANCH   9  10
ATOM     10  C   UNL     1      26.329  -9.492  19.207  1.00  0.00     0.000 C 
BRANCH  10  11
ATOM     11  C   UNL     1      25.753  -8.182  19.785  1.00  0.00     0.000 C 
BRANCH  11  12
ATOM     12  C   UNL     1      25.925  -6.990  18.828  1.00  0.00     0.000 C 
BRANCH  12  13
ATOM     13  C   UNL     1      27.137  -6.108  19.192  1.00  0.00     0.006 C 
BRANCH  13  14
ATOM     14  C   UNL     1      26.859  -4.600  19.077  1.00  0.00     0.053 C 
BRANCH  14  15
ATOM     15  C   UNL     1      27.927  -3.771  19.718  1.00  0.00     0.041 C 
ATOM     16  O   UNL     1      29.083  -3.730  19.219  1.00  0.00    -0.550 OA
ATOM     17  O   UNL     1      27.639  -3.017  20.848  1.00  0.00    -0.550 OA
ENDBRANCH  14  15
ENDBRANCH  13  14
ENDBRANCH  12  13
ENDBRANCH  11  12
ENDBRANCH  10  11
ENDBRANCH   9  10
ENDBRANCH   8   9
ENDBRANCH   7   8
ENDBRANCH   6   7
ENDBRANCH   5   6
ENDBRANCH   4   5
ENDBRANCH   3   4
ENDBRANCH   2   3
ENDBRANCH   1   2
BRANCH   1  18
ATOM     18  C   UNL     1      34.650  -9.146  21.961  1.00  0.00     0.000 C 
BRANCH  18  19
ATOM     19  C   UNL     1      35.962  -9.320  21.174  1.00  0.00     0.000 C 
BRANCH  19  20
ATOM     20  C   UNL     1      36.270 -10.788  20.831  1.00  0.00     0.000 C 
BRANCH  20  21
ATOM     21  C   UNL     1      37.779 -11.086  20.794  1.00  0.00     0.000 C 
BRANCH  21  22
ATOM     22  C   UNL     1      38.641 -10.210  21.721  1.00  0.00     0.000 C 
BRANCH  22  23
ATOM     23  C   UNL     1      38.782 -10.798  23.135  1.00  0.00     0.000 C 
BRANCH  23  24
ATOM     24  C   UNL     1      39.129  -9.727  24.184  1.00  0.00    -0.000 C 
BRANCH  24  25
ATOM     25  C   UNL     1      37.971  -9.470  25.163  1.00  0.00    -0.000 C 
BRANCH  25  26
ATOM     26  C   UNL     1      36.971  -8.421  24.645  1.00  0.00    -0.000 C 
BRANCH  26  27
ATOM     27  C   UNL     1      37.587  -7.308  23.779  1.00  0.00    -0.000 C 
BRANCH  27  28
ATOM     28  C   UNL     1      37.450  -5.913  24.407  1.00  0.00    -0.000 C 
BRANCH  28  29
ATOM     29  C   UNL     1      38.827  -5.319  24.733  1.00  0.00    -0.000 C 
BRANCH  29  30
ATOM     30  C   UNL     1      39.992  -6.198  24.241  1.00  0.00    -0.000 C 
BRANCH  30  31
ATOM     31  C   UNL     1      41.036  -6.549  25.316  1.00  0.00    -0.003 C 
ATOM     32  C   UNL     1      40.416  -7.129  26.586  1.00  0.00     0.004 C 
ENDBRANCH  30  31
ENDBRANCH  29  30
ENDBRANCH  28  29
ENDBRANCH  27  28
ENDBRANCH  26  27
ENDBRANCH  25  26
ENDBRANCH  24  25
ENDBRANCH  23  24
ENDBRANCH  22  23
ENDBRANCH  21  22
ENDBRANCH  20  21
ENDBRANCH  19  20
ENDBRANCH  18  19
ENDBRANCH   1  18
TORSDOF 28
ENDMDL
MODEL 3
REMARK VINA RESULT:    -6.399      1.393      4.635
REMARK INTER + INTRA:         -21.248
REMARK INTER:                 -17.790
REMARK INTRA:                  -3.458
REMARK UNBOUND:                -4.376
REMARK SMILES CCCCCCCCCCCCCCCCCCCCCCCCCCCCCC(=O)[O-]
REMARK SMILES IDX 16 1 17 2 18 3 19 4 20 5 21 6 22 7 23 8 24 9 25 10 26 11
REMARK SMILES IDX 27 12 28 13 29 14 30 15 31 16 32 17 15 18 14 19 13 20 12 21
REMARK SMILES IDX 11 22 10 23 9 24 8 25 7 26 6 27 5 28 4 29 3 30 2 31 1 32
REMARK H PARENT
REMARK Flexibility Score: inf
ROOT
ATOM      1  C   UNL     1      31.283  -8.861  21.192  1.00  0.00     0.000 C 
ENDROOT
BRANCH   1   2
ATOM      2  C   UNL     1      29.817  -9.285  20.996  1.00  0.00     0.000 C 
BRANCH   2   3
ATOM      3  C   UNL     1      29.128  -9.681  22.309  1.00  0.00     0.000 C 
BRANCH   3   4
ATOM      4  C   UNL     1      28.038 -10.730  22.055  1.00  0.00     0.000 C 
BRANCH   4   5
ATOM      5  C   UNL     1      28.283 -11.479  20.735  1.00  0.00     0.000 C 
BRANCH   5   6
ATOM      6  C   UNL     1      27.017 -11.575  19.858  1.00  0.00     0.000 C 
BRANCH   6   7
ATOM      7  C   UNL     1      25.976 -10.472  20.127  1.00  0.00     0.000 C 
BRANCH   7   8
ATOM      8  C   UNL     1      26.228  -9.133  19.408  1.00  0.00     0.000 C 
BRANCH   8   9
ATOM      9  C   UNL     1      25.117  -8.078  19.579  1.00  0.00     0.000 C 
BRANCH   9  10
ATOM     10  C   UNL     1      25.615  -6.662  19.924  1.00  0.00     0.000 C 
BRANCH  10  11
ATOM     11  C   UNL     1      25.877  -6.444  21.430  1.00  0.00     0.000 C 
BRANCH  11  12
ATOM     12  C   UNL     1      27.376  -6.376  21.764  1.00  0.00     0.000 C 
BRANCH  12  13
ATOM     13  C   UNL     1      28.243  -6.032  20.536  1.00  0.00     0.006 C 
BRANCH  13  14
ATOM     14  C   UNL     1      28.560  -4.533  20.405  1.00  0.00     0.053 C 
BRANCH  14  15
ATOM     15  C   UNL     1      28.046  -3.948  19.128  1.00  0.00     0.041 C 
ATOM     16  O   UNL     1      27.685  -2.743  19.081  1.00  0.00    -0.550 OA
ATOM     17  O   UNL     1      27.994  -4.726  17.977  1.00  0.00    -0.550 OA
ENDBRANCH  14  15
ENDBRANCH  13  14
ENDBRANCH  12  13
ENDBRANCH  11  12
ENDBRANCH  10  11
ENDBRANCH   9  10
ENDBRANCH   8   9
ENDBRANCH   7   8
ENDBRANCH   6   7
ENDBRANCH   5   6
ENDBRANCH   4   5
ENDBRANCH   3   4
ENDBRANCH   2   3
ENDBRANCH   1   2
BRANCH   1  18
ATOM     18  C   UNL     1      32.264  -9.356  20.108  1.00  0.00     0.000 C 
BRANCH  18  19
ATOM     19  C   UNL     1      33.756  -9.119  20.404  1.00  0.00     0.000 C 
BRANCH  19  20
ATOM     20  C   UNL     1      34.007  -8.529  21.803  1.00  0.00     0.000 C 
BRANCH  20  21
ATOM     21  C   UNL     1      34.678  -7.145  21.753  1.00  0.00     0.000 C 
BRANCH  21  22
ATOM     22  C   UNL     1      34.299  -6.194  22.903  1.00  0.00     0.000 C 
BRANCH  22  23
ATOM     23  C   UNL     1      35.235  -6.321  24.116  1.00  0.00     0.000 C 
BRANCH  23  24
ATOM     24  C   UNL     1      36.602  -6.919  23.742  1.00  0.00    -0.000 C 
BRANCH  24  25
ATOM     25  C   UNL     1      36.897  -8.226  24.498  1.00  0.00    -0.000 C 
BRANCH  25  26
ATOM     26  C   UNL     1      38.130  -8.968  23.952  1.00  0.00    -0.000 C 
BRANCH  26  27
ATOM     27  C   UNL     1      38.098  -9.257  22.441  1.00  0.00    -0.000 C 
BRANCH  27  28
ATOM     28  C   UNL     1      37.044 -10.304  22.053  1.00  0.00    -0.000 C 
BRANCH  28  29
ATOM     29  C   UNL     1      37.495 -11.110  20.826  1.00  0.00    -0.000 C 
BRANCH  29  30
ATOM     30  C   UNL     1      38.526 -12.201  21.170  1.00  0.00    -0.000 C 
BRANCH  30  31
ATOM     31  C   UNL     1      39.942 -11.950  20.624  1.00  0.00    -0.003 C 
ATOM     32  C   UNL     1      40.926 -11.493  21.699  1.00  0.00     0.004 C 
ENDBRANCH  30  31
ENDBRANCH  29  30
ENDBRANCH  28  29
ENDBRANCH  27  28
ENDBRANCH  26  27
ENDBRANCH  25  26
ENDBRANCH  24  25
ENDBRANCH  23  24
ENDBRANCH  22  23
ENDBRANCH  21  22
ENDBRANCH  20  21
ENDBRANCH  19  20
ENDBRANCH  18  19
ENDBRANCH   1  18
TORSDOF 28
ENDMDL
MODEL 4
REMARK VINA RESULT:    -6.377      4.161      9.581
REMARK INTER + INTRA:         -21.192
REMARK INTER:                 -16.933
REMARK INTRA:                  -4.259
REMARK UNBOUND:                -4.376
REMARK SMILES CCCCCCCCCCCCCCCCCCCCCCCCCCCCCC(=O)[O-]
REMARK SMILES IDX 16 1 17 2 18 3 19 4 20 5 21 6 22 7 23 8 24 9 25 10 26 11
REMARK SMILES IDX 27 12 28 13 29 14 30 15 31 16 32 17 15 18 14 19 13 20 12 21
REMARK SMILES IDX 11 22 10 23 9 24 8 25 7 26 6 27 5 28 4 29 3 30 2 31 1 32
REMARK H PARENT
REMARK Flexibility Score: inf
ROOT
ATOM      1  C   UNL     1      27.013  -8.851  19.649  1.00  0.00     0.000 C 
ENDROOT
BRANCH   1   2
ATOM      2  C   UNL     1      26.746 -10.153  20.425  1.00  0.00     0.000 C 
BRANCH   2   3
ATOM      3  C   UNL     1      27.931 -10.580  21.303  1.00  0.00     0.000 C 
BRANCH   3   4
ATOM      4  C   UNL     1      29.178  -9.752  20.973  1.00  0.00     0.000 C 
BRANCH   4   5
ATOM      5  C   UNL     1      29.937  -9.355  22.250  1.00  0.00     0.000 C 
BRANCH   5   6
ATOM      6  C   UNL     1      31.453  -9.186  22.017  1.00  0.00     0.000 C 
BRANCH   6   7
ATOM      7  C   UNL     1      31.881  -9.292  20.541  1.00  0.00     0.000 C 
BRANCH   7   8
ATOM      8  C   UNL     1      33.337  -8.889  20.242  1.00  0.00     0.000 C 
BRANCH   8   9
ATOM      9  C   UNL     1      33.968  -7.910  21.253  1.00  0.00     0.000 C 
BRANCH   9  10
ATOM     10  C   UNL     1      35.156  -8.478  22.051  1.00  0.00     0.000 C 
BRANCH  10  11
ATOM     11  C   UNL     1      35.606  -9.879  21.585  1.00  0.00     0.000 C 
BRANCH  11  12
ATOM     12  C   UNL     1      37.115  -9.946  21.290  1.00  0.00     0.000 C 
BRANCH  12  13
ATOM     13  C   UNL     1      37.649 -11.393  21.262  1.00  0.00     0.006 C 
BRANCH  13  14
ATOM     14  C   UNL     1      39.182 -11.484  21.186  1.00  0.00     0.053 C 
BRANCH  14  15
ATOM     15  C   UNL     1      39.692 -12.849  21.523  1.00  0.00     0.041 C 
ATOM     16  O   UNL     1      39.214 -13.864  20.951  1.00  0.00    -0.550 OA
ATOM     17  O   UNL     1      40.720 -13.000  22.445  1.00  0.00    -0.550 OA
ENDBRANCH  14  15
ENDBRANCH  13  14
ENDBRANCH  12  13
ENDBRANCH  11  12
ENDBRANCH  10  11
ENDBRANCH   9  10
ENDBRANCH   8   9
ENDBRANCH   7   8
ENDBRANCH   6   7
ENDBRANCH   5   6
ENDBRANCH   4   5
ENDBRANCH   3   4
ENDBRANCH   2   3
ENDBRANCH   1   2
BRANCH   1  18
ATOM     18  C   UNL     1      25.755  -8.126  19.123  1.00  0.00     0.000 C 
BRANCH  18  19
ATOM     19  C   UNL     1      25.939  -6.635  18.790  1.00  0.00     0.000 C 
BRANCH  19  20
ATOM     20  C   UNL     1      27.389  -6.271  18.427  1.00  0.00     0.000 C 
BRANCH  20  21
ATOM     21  C   UNL     1      27.817  -4.901  18.983  1.00  0.00     0.000 C 
BRANCH  21  22
ATOM     22  C   UNL     1      26.661  -3.988  19.428  1.00  0.00     0.000 C 
BRANCH  22  23
ATOM     23  C   UNL     1      26.886  -3.377  20.821  1.00  0.00     0.000 C 
BRANCH  23  24
ATOM     24  C   UNL     1      25.643  -3.490  21.720  1.00  0.00    -0.000 C 
BRANCH  24  25
ATOM     25  C   UNL     1      25.839  -4.498  22.866  1.00  0.00    -0.000 C 
BRANCH  25  26
ATOM     26  C   UNL     1      25.870  -5.958  22.379  1.00  0.00    -0.000 C 
BRANCH  26  27
ATOM     27  C   UNL     1      27.236  -6.656  22.504  1.00  0.00    -0.000 C 
BRANCH  27  28
ATOM     28  C   UNL     1      27.813  -6.594  23.927  1.00  0.00    -0.000 C 
BRANCH  28  29
ATOM     29  C   UNL     1      29.190  -5.915  23.932  1.00  0.00    -0.000 C 
BRANCH  29  30
ATOM     30  C   UNL     1      29.671  -5.521  22.524  1.00  0.00    -0.000 C 
BRANCH  30  31
ATOM     31  C   UNL     1      31.143  -5.855  22.225  1.00  0.00    -0.003 C 
ATOM     32  C   UNL     1      31.898  -4.699  21.572  1.00  0.00     0.004 C 
ENDBRANCH  30  31
ENDBRANCH  29  30
ENDBRANCH  28  29
ENDBRANCH  27  28
ENDBRANCH  26  27
ENDBRANCH  25  26
ENDBRANCH  24  25
ENDBRANCH  23  24
ENDBRANCH  22  23
ENDBRANCH  21  22
ENDBRANCH  20  21
ENDBRANCH  19  20
ENDBRANCH  18  19
ENDBRANCH   1  18
TORSDOF 28
ENDMDL
MODEL 5
REMARK VINA RESULT:    -6.339      3.054      7.396
REMARK INTER + INTRA:         -21.090
REMARK INTER:                 -17.707
REMARK INTRA:                  -3.383
REMARK UNBOUND:                -4.376
REMARK SMILES CCCCCCCCCCCCCCCCCCCCCCCCCCCCCC(=O)[O-]
REMARK SMILES IDX 16 1 17 2 18 3 19 4 20 5 21 6 22 7 23 8 24 9 25 10 26 11
REMARK SMILES IDX 27 12 28 13 29 14 30 15 31 16 32 17 15 18 14 19 13 20 12 21
REMARK SMILES IDX 11 22 10 23 9 24 8 25 7 26 6 27 5 28 4 29 3 30 2 31 1 32
REMARK H PARENT
REMARK Flexibility Score: inf
ROOT
ATOM      1  C   UNL     1      27.174  -6.261  23.906  1.00  0.00     0.000 C 
ENDROOT
BRANCH   1   2
ATOM      2  C   UNL     1      26.289  -5.444  22.947  1.00  0.00     0.000 C 
BRANCH   2   3
ATOM      3  C   UNL     1      26.958  -4.147  22.473  1.00  0.00     0.000 C 
BRANCH   3   4
ATOM      4  C   UNL     1      26.075  -3.422  21.450  1.00  0.00     0.000 C 
BRANCH   4   5
ATOM      5  C   UNL     1      26.909  -2.881  20.278  1.00  0.00     0.000 C 
BRANCH   5   6
ATOM      6  C   UNL     1      28.026  -3.851  19.839  1.00  0.00     0.000 C 
BRANCH   6   7
ATOM      7  C   UNL     1      27.839  -4.430  18.423  1.00  0.00     0.000 C 
BRANCH   7   8
ATOM      8  C   UNL     1      27.640  -5.956  18.352  1.00  0.00     0.000 C 
BRANCH   8   9
ATOM      9  C   UNL     1      27.148  -6.615  19.656  1.00  0.00     0.000 C 
BRANCH   9  10
ATOM     10  C   UNL     1      25.660  -7.013  19.661  1.00  0.00     0.000 C 
BRANCH  10  11
ATOM     11  C   UNL     1      25.419  -8.514  19.927  1.00  0.00     0.000 C 
BRANCH  11  12
ATOM     12  C   UNL     1      26.666  -9.370  19.649  1.00  0.00     0.000 C 
BRANCH  12  13
ATOM     13  C   UNL     1      26.580 -10.769  20.293  1.00  0.00     0.006 C 
BRANCH  13  14
ATOM     14  C   UNL     1      26.301 -11.897  19.286  1.00  0.00     0.053 C 
BRANCH  14  15
ATOM     15  C   UNL     1      27.393 -12.918  19.253  1.00  0.00     0.041 C 
ATOM     16  O   UNL     1      28.222 -12.991  20.197  1.00  0.00    -0.550 OA
ATOM     17  O   UNL     1      27.475 -13.814  18.194  1.00  0.00    -0.550 OA
ENDBRANCH  14  15
ENDBRANCH  13  14
ENDBRANCH  12  13
ENDBRANCH  11  12
ENDBRANCH  10  11
ENDBRANCH   9  10
ENDBRANCH   8   9
ENDBRANCH   7   8
ENDBRANCH   6   7
ENDBRANCH   5   6
ENDBRANCH   4   5
ENDBRANCH   3   4
ENDBRANCH   2   3
ENDBRANCH   1   2
BRANCH   1  18
ATOM     18  C   UNL     1      28.695  -6.076  23.717  1.00  0.00     0.000 C 
BRANCH  18  19
ATOM     19  C   UNL     1      29.328  -6.901  22.581  1.00  0.00     0.000 C 
BRANCH  19  20
ATOM     20  C   UNL     1      28.803  -8.345  22.519  1.00  0.00     0.000 C 
BRANCH  20  21
ATOM     21  C   UNL     1      29.896  -9.360  22.141  1.00  0.00     0.000 C 
BRANCH  21  22
ATOM     22  C   UNL     1      30.429  -9.239  20.702  1.00  0.00     0.000 C 
BRANCH  22  23
ATOM     23  C   UNL     1      31.917  -8.854  20.647  1.00  0.00     0.000 C 
BRANCH  23  24
ATOM     24  C   UNL     1      32.684  -9.627  19.561  1.00  0.00    -0.000 C 
BRANCH  24  25
ATOM     25  C   UNL     1      34.172  -9.806  19.910  1.00  0.00    -0.000 C 
BRANCH  25  26
ATOM     26  C   UNL     1      34.543  -9.201  21.276  1.00  0.00    -0.000 C 
BRANCH  26  27
ATOM     27  C   UNL     1      36.048  -9.188  21.594  1.00  0.00    -0.000 C 
BRANCH  27  28
ATOM     28  C   UNL     1      36.773 -10.454  21.114  1.00  0.00    -0.000 C 
BRANCH  28  29
ATOM     29  C   UNL     1      38.175 -10.553  21.731  1.00  0.00    -0.000 C 
BRANCH  29  30
ATOM     30  C   UNL     1      39.140 -11.414  20.896  1.00  0.00    -0.000 C 
BRANCH  30  31
ATOM     31  C   UNL     1      39.818 -12.559  21.667  1.00  0.00    -0.003 C 
ATOM     32  C   UNL     1      39.358 -13.943  21.211  1.00  0.00     0.004 C 
ENDBRANCH  30  31
ENDBRANCH  29  30
ENDBRANCH  28  29
ENDBRANCH  27  28
ENDBRANCH  26  27
ENDBRANCH  25  26
ENDBRANCH  24  25
ENDBRANCH  23  24
ENDBRANCH  22  23
ENDBRANCH  21  22
ENDBRANCH  20  21
ENDBRANCH  19  20
ENDBRANCH  18  19
ENDBRANCH   1  18
TORSDOF 28
ENDMDL
MODEL 6
REMARK VINA RESULT:    -6.332      3.746      9.124
REMARK INTER + INTRA:         -21.073
REMARK INTER:                 -17.131
REMARK INTRA:                  -3.942
REMARK UNBOUND:                -4.376
REMARK SMILES CCCCCCCCCCCCCCCCCCCCCCCCCCCCCC(=O)[O-]
REMARK SMILES IDX 16 1 17 2 18 3 19 4 20 5 21 6 22 7 23 8 24 9 25 10 26 11
REMARK SMILES IDX 27 12 28 13 29 14 30 15 31 16 32 17 15 18 14 19 13 20 12 21
REMARK SMILES IDX 11 22 10 23 9 24 8 25 7 26 6 27 5 28 4 29 3 30 2 31 1 32
REMARK H PARENT
REMARK Flexibility Score: inf
ROOT
ATOM      1  C   UNL     1      28.519 -10.527  21.744  1.00  0.00     0.000 C 
ENDROOT
BRANCH   1   2
ATOM      2  C   UNL     1      29.659  -9.552  21.402  1.00  0.00     0.000 C 
BRANCH   2   3
ATOM      3  C   UNL     1      29.191  -8.093  21.306  1.00  0.00     0.000 C 
BRANCH   3   4
ATOM      4  C   UNL     1      28.476  -7.667  22.593  1.00  0.00     0.000 C 
BRANCH   4   5
ATOM      5  C   UNL     1      29.232  -6.529  23.299  1.00  0.00     0.000 C 
BRANCH   5   6
ATOM      6  C   UNL     1      29.967  -5.597  22.314  1.00  0.00     0.000 C 
BRANCH   6   7
ATOM      7  C   UNL     1      31.403  -5.234  22.740  1.00  0.00     0.000 C 
BRANCH   7   8
ATOM      8  C   UNL     1      32.351  -4.828  21.596  1.00  0.00     0.000 C 
BRANCH   8   9
ATOM      9  C   UNL     1      33.397  -5.890  21.204  1.00  0.00     0.000 C 
BRANCH   9  10
ATOM     10  C   UNL     1      33.206  -7.267  21.868  1.00  0.00     0.000 C 
BRANCH  10  11
ATOM     11  C   UNL     1      34.504  -7.861  22.454  1.00  0.00     0.000 C 
BRANCH  11  12
ATOM     12  C   UNL     1      34.839  -9.242  21.865  1.00  0.00     0.000 C 
BRANCH  12  13
ATOM     13  C   UNL     1      36.284  -9.324  21.330  1.00  0.00     0.006 C 
BRANCH  13  14
ATOM     14  C   UNL     1      36.633 -10.683  20.700  1.00  0.00     0.053 C 
BRANCH  14  15
ATOM     15  C   UNL     1      37.967 -11.194  21.145  1.00  0.00     0.041 C 
ATOM     16  O   UNL     1      38.983 -11.027  20.420  1.00  0.00    -0.550 OA
ATOM     17  O   UNL     1      38.096 -11.825  22.376  1.00  0.00    -0.550 OA
ENDBRANCH  14  15
ENDBRANCH  13  14
ENDBRANCH  12  13
ENDBRANCH  11  12
ENDBRANCH  10  11
ENDBRANCH   9  10
ENDBRANCH   8   9
ENDBRANCH   7   8
ENDBRANCH   6   7
ENDBRANCH   5   6
ENDBRANCH   4   5
ENDBRANCH   3   4
ENDBRANCH   2   3
ENDBRANCH   1   2
BRANCH   1  18
ATOM     18  C   UNL     1      28.123 -11.503  20.614  1.00  0.00     0.000 C 
BRANCH  18  19
ATOM     19  C   UNL     1      26.682 -11.364  20.092  1.00  0.00     0.000 C 
BRANCH  19  20
ATOM     20  C   UNL     1      26.108  -9.949  20.272  1.00  0.00     0.000 C 
BRANCH  20  21
ATOM     21  C   UNL     1      26.298  -9.066  19.026  1.00  0.00     0.000 C 
BRANCH  21  22
ATOM     22  C   UNL     1      25.621  -7.685  19.095  1.00  0.00     0.000 C 
BRANCH  22  23
ATOM     23  C   UNL     1      25.117  -7.336  20.506  1.00  0.00     0.000 C 
BRANCH  23  24
ATOM     24  C   UNL     1      25.733  -6.034  21.044  1.00  0.00    -0.000 C 
BRANCH  24  25
ATOM     25  C   UNL     1      25.392  -5.793  22.525  1.00  0.00    -0.000 C 
BRANCH  25  26
ATOM     26  C   UNL     1      25.843  -4.409  23.025  1.00  0.00    -0.000 C 
BRANCH  26  27
ATOM     27  C   UNL     1      25.370  -3.222  22.167  1.00  0.00    -0.000 C 
BRANCH  27  28
ATOM     28  C   UNL     1      26.531  -2.395  21.597  1.00  0.00    -0.000 C 
BRANCH  28  29
ATOM     29  C   UNL     1      26.415  -2.263  20.072  1.00  0.00    -0.000 C 
BRANCH  29  30
ATOM     30  C   UNL     1      27.774  -2.366  19.355  1.00  0.00    -0.000 C 
BRANCH  30  31
ATOM     31  C   UNL     1      28.440  -3.751  19.425  1.00  0.00    -0.003 C 
ATOM     32  C   UNL     1      27.842  -4.754  18.439  1.00  0.00     0.004 C 
ENDBRANCH  30  31
ENDBRANCH  29  30
ENDBRANCH  28  29
ENDBRANCH  27  28
ENDBRANCH  26  27
ENDBRANCH  25  26
ENDBRANCH  24  25
ENDBRANCH  23  24
ENDBRANCH  22  23
ENDBRANCH  21  22
ENDBRANCH  20  21
ENDBRANCH  19  20
ENDBRANCH  18  19
ENDBRANCH   1  18
TORSDOF 28
ENDMDL
MODEL 7
REMARK VINA RESULT:    -6.309      1.961      4.073
REMARK INTER + INTRA:         -21.010
REMARK INTER:                 -17.154
REMARK INTRA:                  -3.857
REMARK UNBOUND:                -4.376
REMARK SMILES CCCCCCCCCCCCCCCCCCCCCCCCCCCCCC(=O)[O-]
REMARK SMILES IDX 16 1 17 2 18 3 19 4 20 5 21 6 22 7 23 8 24 9 25 10 26 11
REMARK SMILES IDX 27 12 28 13 29 14 30 15 31 16 32 17 15 18 14 19 13 20 12 21
REMARK SMILES IDX 11 22 10 23 9 24 8 25 7 26 6 27 5 28 4 29 3 30 2 31 1 32
REMARK H PARENT
REMARK Flexibility Score: inf
ROOT
ATOM      1  C   UNL     1      29.667  -9.256  22.088  1.00  0.00     0.000 C 
ENDROOT
BRANCH   1   2
ATOM      2  C   UNL     1      29.111 -10.212  21.018  1.00  0.00     0.000 C 
BRANCH   2   3
ATOM      3  C   UNL     1      27.723 -10.764  21.371  1.00  0.00     0.000 C 
BRANCH   3   4
ATOM      4  C   UNL     1      26.736 -10.527  20.222  1.00  0.00     0.000 C 
BRANCH   4   5
ATOM      5  C   UNL     1      26.209  -9.083  20.230  1.00  0.00     0.000 C 
BRANCH   5   6
ATOM      6  C   UNL     1      26.546  -8.316  18.934  1.00  0.00     0.000 C 
BRANCH   6   7
ATOM      7  C   UNL     1      27.733  -7.343  19.068  1.00  0.00     0.000 C 
BRANCH   7   8
ATOM      8  C   UNL     1      27.525  -5.953  18.438  1.00  0.00     0.000 C 
BRANCH   8   9
ATOM      9  C   UNL     1      26.478  -5.065  19.139  1.00  0.00     0.000 C 
BRANCH   9  10
ATOM     10  C   UNL     1      27.027  -4.197  20.287  1.00  0.00     0.000 C 
BRANCH  10  11
ATOM     11  C   UNL     1      25.961  -3.798  21.329  1.00  0.00     0.000 C 
BRANCH  11  12
ATOM     12  C   UNL     1      26.227  -4.416  22.712  1.00  0.00     0.000 C 
BRANCH  12  13
ATOM     13  C   UNL     1      26.043  -5.947  22.723  1.00  0.00     0.006 C 
BRANCH  13  14
ATOM     14  C   UNL     1      27.366  -6.728  22.791  1.00  0.00     0.053 C 
BRANCH  14  15
ATOM     15  C   UNL     1      28.128  -6.453  24.048  1.00  0.00     0.041 C 
ATOM     16  O   UNL     1      27.578  -6.606  25.171  1.00  0.00    -0.550 OA
ATOM     17  O   UNL     1      29.459  -6.057  23.983  1.00  0.00    -0.550 OA
ENDBRANCH  14  15
ENDBRANCH  13  14
ENDBRANCH  12  13
ENDBRANCH  11  12
ENDBRANCH  10  11
ENDBRANCH   9  10
ENDBRANCH   8   9
ENDBRANCH   7   8
ENDBRANCH   6   7
ENDBRANCH   5   6
ENDBRANCH   4   5
ENDBRANCH   3   4
ENDBRANCH   2   3
ENDBRANCH   1   2
BRANCH   1  18
ATOM     18  C   UNL     1      30.872  -8.398  21.645  1.00  0.00     0.000 C 
BRANCH  18  19
ATOM     19  C   UNL     1      32.235  -9.113  21.654  1.00  0.00     0.000 C 
BRANCH  19  20
ATOM     20  C   UNL     1      33.195  -8.595  20.570  1.00  0.00     0.000 C 
BRANCH  20  21
ATOM     21  C   UNL     1      33.644  -9.699  19.596  1.00  0.00     0.000 C 
BRANCH  21  22
ATOM     22  C   UNL     1      35.005 -10.342  19.919  1.00  0.00     0.000 C 
BRANCH  22  23
ATOM     23  C   UNL     1      35.502 -10.007  21.335  1.00  0.00     0.000 C 
BRANCH  23  24
ATOM     24  C   UNL     1      37.036  -9.920  21.414  1.00  0.00    -0.000 C 
BRANCH  24  25
ATOM     25  C   UNL     1      37.511  -8.908  22.470  1.00  0.00    -0.000 C 
BRANCH  25  26
ATOM     26  C   UNL     1      36.478  -7.802  22.747  1.00  0.00    -0.000 C 
BRANCH  26  27
ATOM     27  C   UNL     1      36.979  -6.652  23.639  1.00  0.00    -0.000 C 
BRANCH  27  28
ATOM     28  C   UNL     1      35.837  -5.816  24.236  1.00  0.00    -0.000 C 
BRANCH  28  29
ATOM     29  C   UNL     1      34.471  -6.338  23.769  1.00  0.00    -0.000 C 
BRANCH  29  30
ATOM     30  C   UNL     1      33.418  -5.224  23.628  1.00  0.00    -0.000 C 
BRANCH  30  31
ATOM     31  C   UNL     1      32.774  -5.113  22.235  1.00  0.00    -0.003 C 
ATOM     32  C   UNL     1      33.799  -5.074  21.103  1.00  0.00     0.004 C 
ENDBRANCH  30  31
ENDBRANCH  29  30
ENDBRANCH  28  29
ENDBRANCH  27  28
ENDBRANCH  26  27
ENDBRANCH  25  26
ENDBRANCH  24  25
ENDBRANCH  23  24
ENDBRANCH  22  23
ENDBRANCH  21  22
ENDBRANCH  20  21
ENDBRANCH  19  20
ENDBRANCH  18  19
ENDBRANCH   1  18
TORSDOF 28
ENDMDL
MODEL 8
REMARK VINA RESULT:    -6.269      2.428      5.702
REMARK INTER + INTRA:         -20.906
REMARK INTER:                 -16.077
REMARK INTRA:                  -4.829
REMARK UNBOUND:                -4.376
REMARK SMILES CCCCCCCCCCCCCCCCCCCCCCCCCCCCCC(=O)[O-]
REMARK SMILES IDX 16 1 17 2 18 3 19 4 20 5 21 6 22 7 23 8 24 9 25 10 26 11
REMARK SMILES IDX 27 12 28 13 29 14 30 15 31 16 32 17 15 18 14 19 13 20 12 21
REMARK SMILES IDX 11 22 10 23 9 24 8 25 7 26 6 27 5 28 4 29 3 30 2 31 1 32
REMARK H PARENT
REMARK Flexibility Score: inf
ROOT
ATOM      1  C   UNL     1      29.746  -5.958  23.586  1.00  0.00     0.000 C 
ENDROOT
BRANCH   1   2
ATOM      2  C   UNL     1      28.392  -6.627  23.885  1.00  0.00     0.000 C 
BRANCH   2   3
ATOM      3  C   UNL     1      27.232  -6.012  23.090  1.00  0.00     0.000 C 
BRANCH   3   4
ATOM      4  C   UNL     1      26.651  -7.031  22.102  1.00  0.00     0.000 C 
BRANCH   4   5
ATOM      5  C   UNL     1      25.831  -6.336  21.003  1.00  0.00     0.000 C 
BRANCH   5   6
ATOM      6  C   UNL     1      25.295  -7.321  19.943  1.00  0.00     0.000 C 
BRANCH   6   7
ATOM      7  C   UNL     1      26.179  -7.437  18.685  1.00  0.00     0.000 C 
BRANCH   7   8
ATOM      8  C   UNL     1      27.503  -6.652  18.731  1.00  0.00     0.000 C 
BRANCH   8   9
ATOM      9  C   UNL     1      27.386  -5.148  18.414  1.00  0.00     0.000 C 
BRANCH   9  10
ATOM     10  C   UNL     1      28.576  -4.291  18.884  1.00  0.00     0.000 C 
BRANCH  10  11
ATOM     11  C   UNL     1      28.162  -2.948  19.521  1.00  0.00     0.000 C 
BRANCH  11  12
ATOM     12  C   UNL     1      26.654  -2.672  19.389  1.00  0.00     0.000 C 
BRANCH  12  13
ATOM     13  C   UNL     1      26.011  -2.247  20.725  1.00  0.00     0.006 C 
BRANCH  13  14
ATOM     14  C   UNL     1      26.590  -2.976  21.949  1.00  0.00     0.053 C 
BRANCH  14  15
ATOM     15  C   UNL     1      27.026  -2.032  23.024  1.00  0.00     0.041 C 
ATOM     16  O   UNL     1      27.196  -0.811  22.766  1.00  0.00    -0.550 OA
ATOM     17  O   UNL     1      27.213  -2.494  24.321  1.00  0.00    -0.550 OA
ENDBRANCH  14  15
ENDBRANCH  13  14
ENDBRANCH  12  13
ENDBRANCH  11  12
ENDBRANCH  10  11
ENDBRANCH   9  10
ENDBRANCH   8   9
ENDBRANCH   7   8
ENDBRANCH   6   7
ENDBRANCH   5   6
ENDBRANCH   4   5
ENDBRANCH   3   4
ENDBRANCH   2   3
ENDBRANCH   1   2
BRANCH   1  18
ATOM     18  C   UNL     1      29.745  -4.969  22.401  1.00  0.00     0.000 C 
BRANCH  18  19
ATOM     19  C   UNL     1      30.995  -5.007  21.504  1.00  0.00     0.000 C 
BRANCH  19  20
ATOM     20  C   UNL     1      32.285  -5.327  22.279  1.00  0.00     0.000 C 
BRANCH  20  21
ATOM     21  C   UNL     1      33.426  -5.805  21.364  1.00  0.00     0.000 C 
BRANCH  21  22
ATOM     22  C   UNL     1      34.331  -6.896  21.965  1.00  0.00     0.000 C 
BRANCH  22  23
ATOM     23  C   UNL     1      33.687  -8.292  21.930  1.00  0.00     0.000 C 
BRANCH  23  24
ATOM     24  C   UNL     1      33.399  -8.769  20.496  1.00  0.00    -0.000 C 
BRANCH  24  25
ATOM     25  C   UNL     1      31.947  -9.243  20.317  1.00  0.00    -0.000 C 
BRANCH  25  26
ATOM     26  C   UNL     1      31.029  -8.806  21.473  1.00  0.00    -0.000 C 
BRANCH  26  27
ATOM     27  C   UNL     1      29.521  -8.939  21.193  1.00  0.00    -0.000 C 
BRANCH  27  28
ATOM     28  C   UNL     1      28.856 -10.055  22.011  1.00  0.00    -0.000 C 
BRANCH  28  29
ATOM     29  C   UNL     1      28.291 -11.148  21.092  1.00  0.00    -0.000 C 
BRANCH  29  30
ATOM     30  C   UNL     1      27.020 -10.706  20.343  1.00  0.00    -0.000 C 
BRANCH  30  31
ATOM     31  C   UNL     1      26.620 -11.605  19.160  1.00  0.00    -0.003 C 
ATOM     32  C   UNL     1      27.029 -13.065  19.352  1.00  0.00     0.004 C 
ENDBRANCH  30  31
ENDBRANCH  29  30
ENDBRANCH  28  29
ENDBRANCH  27  28
ENDBRANCH  26  27
ENDBRANCH  25  26
ENDBRANCH  24  25
ENDBRANCH  23  24
ENDBRANCH  22  23
ENDBRANCH  21  22
ENDBRANCH  20  21
ENDBRANCH  19  20
ENDBRANCH  18  19
ENDBRANCH   1  18
TORSDOF 28
ENDMDL
MODEL 9
REMARK VINA RESULT:    -6.254      1.948      5.462
REMARK INTER + INTRA:         -20.867
REMARK INTER:                 -16.881
REMARK INTRA:                  -3.985
REMARK UNBOUND:                -4.376
REMARK SMILES CCCCCCCCCCCCCCCCCCCCCCCCCCCCCC(=O)[O-]
REMARK SMILES IDX 16 1 17 2 18 3 19 4 20 5 21 6 22 7 23 8 24 9 25 10 26 11
REMARK SMILES IDX 27 12 28 13 29 14 30 15 31 16 32 17 15 18 14 19 13 20 12 21
REMARK SMILES IDX 11 22 10 23 9 24 8 25 7 26 6 27 5 28 4 29 3 30 2 31 1 32
REMARK H PARENT
REMARK Flexibility Score: inf
ROOT
ATOM      1  C   UNL     1      33.282  -5.047  22.055  1.00  0.00     0.000 C 
ENDROOT
BRANCH   1   2
ATOM      2  C   UNL     1      31.774  -4.853  21.818  1.00  0.00     0.000 C 
BRANCH   2   3
ATOM      3  C   UNL     1      30.909  -5.503  22.907  1.00  0.00     0.000 C 
BRANCH   3   4
ATOM      4  C   UNL     1      30.266  -4.434  23.800  1.00  0.00     0.000 C 
BRANCH   4   5
ATOM      5  C   UNL     1      29.265  -5.059  24.784  1.00  0.00     0.000 C 
BRANCH   5   6
ATOM      6  C   UNL     1      28.349  -6.109  24.121  1.00  0.00     0.000 C 
BRANCH   6   7
ATOM      7  C   UNL     1      27.003  -6.317  24.841  1.00  0.00     0.000 C 
BRANCH   7   8
ATOM      8  C   UNL     1      25.787  -5.636  24.185  1.00  0.00     0.000 C 
BRANCH   8   9
ATOM      9  C   UNL     1      25.791  -5.632  22.643  1.00  0.00     0.000 C 
BRANCH   9  10
ATOM     10  C   UNL     1      26.014  -4.251  21.998  1.00  0.00     0.000 C 
BRANCH  10  11
ATOM     11  C   UNL     1      26.655  -4.316  20.596  1.00  0.00     0.000 C 
BRANCH  11  12
ATOM     12  C   UNL     1      28.044  -4.979  20.611  1.00  0.00     0.000 C 
BRANCH  12  13
ATOM     13  C   UNL     1      27.998  -6.461  20.187  1.00  0.00     0.006 C 
BRANCH  13  14
ATOM     14  C   UNL     1      27.433  -6.681  18.774  1.00  0.00     0.053 C 
BRANCH  14  15
ATOM     15  C   UNL     1      26.173  -7.487  18.780  1.00  0.00     0.041 C 
ATOM     16  O   UNL     1      25.052  -6.913  18.773  1.00  0.00    -0.550 OA
ATOM     17  O   UNL     1      26.235  -8.875  18.760  1.00  0.00    -0.550 OA
ENDBRANCH  14  15
ENDBRANCH  13  14
ENDBRANCH  12  13
ENDBRANCH  11  12
ENDBRANCH  10  11
ENDBRANCH   9  10
ENDBRANCH   8   9
ENDBRANCH   7   8
ENDBRANCH   6   7
ENDBRANCH   5   6
ENDBRANCH   4   5
ENDBRANCH   3   4
ENDBRANCH   2   3
ENDBRANCH   1   2
BRANCH   1  18
ATOM     18  C   UNL     1      33.654  -5.843  23.325  1.00  0.00     0.000 C 
BRANCH  18  19
ATOM     19  C   UNL     1      35.151  -5.865  23.680  1.00  0.00     0.000 C 
BRANCH  19  20
ATOM     20  C   UNL     1      35.968  -6.819  22.792  1.00  0.00     0.000 C 
BRANCH  20  21
ATOM     21  C   UNL     1      35.844  -8.290  23.227  1.00  0.00     0.000 C 
BRANCH  21  22
ATOM     22  C   UNL     1      35.261  -9.238  22.164  1.00  0.00     0.000 C 
BRANCH  22  23
ATOM     23  C   UNL     1      33.737  -9.102  22.014  1.00  0.00     0.000 C 
BRANCH  23  24
ATOM     24  C   UNL     1      33.290  -9.095  20.542  1.00  0.00    -0.000 C 
BRANCH  24  25
ATOM     25  C   UNL     1      31.759  -9.122  20.395  1.00  0.00    -0.000 C 
BRANCH  25  26
ATOM     26  C   UNL     1      31.029  -8.603  21.646  1.00  0.00    -0.000 C 
BRANCH  26  27
ATOM     27  C   UNL     1      29.848  -9.471  22.117  1.00  0.00    -0.000 C 
BRANCH  27  28
ATOM     28  C   UNL     1      28.927  -9.904  20.966  1.00  0.00    -0.000 C 
BRANCH  28  29
ATOM     29  C   UNL     1      28.073 -11.114  21.372  1.00  0.00    -0.000 C 
BRANCH  29  30
ATOM     30  C   UNL     1      28.084 -12.237  20.319  1.00  0.00    -0.000 C 
BRANCH  30  31
ATOM     31  C   UNL     1      26.833 -12.298  19.425  1.00  0.00    -0.003 C 
ATOM     32  C   UNL     1      26.939 -13.348  18.319  1.00  0.00     0.004 C 
ENDBRANCH  30  31
ENDBRANCH  29  30
ENDBRANCH  28  29
ENDBRANCH  27  28
ENDBRANCH  26  27
ENDBRANCH  25  26
ENDBRANCH  24  25
ENDBRANCH  23  24
ENDBRANCH  22  23
ENDBRANCH  21  22
ENDBRANCH  20  21
ENDBRANCH  19  20
ENDBRANCH  18  19
ENDBRANCH   1  18
TORSDOF 28
ENDMDL
