MODEL 1
REMARK VINA RESULT:    -3.608      0.000      0.000
REMARK INTER + INTRA:          -5.515
REMARK INTER:                  -4.873
REMARK INTRA:                  -0.642
REMARK UNBOUND:                -0.642
REMARK SMILES CCCCCCC=CC(=O)[O-]
REMARK SMILES IDX 5 1 6 2 7 3 8 4 9 5 10 6 11 7 4 8 3 9 2 10 1 11
REMARK H PARENT
REMARK Flexibility Score: inf
ROOT
ATOM      1  C   UNL     1      34.978 170.126 155.862  1.00  0.00     0.004 C 
ENDROOT
BRANCH   1   2
ATOM      2  C   UNL     1      35.215 169.491 157.245  1.00  0.00     0.027 C 
BRANCH   2   3
ATOM      3  C   UNL     1      34.484 168.185 157.417  1.00  0.00    -0.025 C 
ATOM      4  C   UNL     1      33.531 167.926 158.327  1.00  0.00     0.020 C 
BRANCH   4   5
ATOM      5  C   UNL     1      32.961 168.878 159.303  1.00  0.00     0.064 C 
ATOM      6  O   UNL     1      32.196 169.814 158.957  1.00  0.00    -0.545 OA
ATOM      7  O   UNL     1      33.255 168.712 160.650  1.00  0.00    -0.545 OA
ENDBRANCH   4   5
ENDBRANCH   2   3
ENDBRANCH   1   2
BRANCH   1   8
ATOM      8  C   UNL     1      33.507 170.487 155.569  1.00  0.00     0.000 C 
BRANCH   8   9
ATOM      9  C   UNL     1      33.064 170.291 154.108  1.00  0.00    -0.000 C 
BRANCH   9  10
ATOM     10  C   UNL     1      31.747 169.513 153.982  1.00  0.00    -0.003 C 
ATOM     11  C   UNL     1      31.698 168.351 154.969  1.00  0.00     0.004 C 
ENDBRANCH   9  10
ENDBRANCH   8   9
ENDBRANCH   1   8
TORSDOF 6
ENDMDL
MODEL 2
REMARK VINA RESULT:    -3.603      2.710      3.696
REMARK INTER + INTRA:          -5.508
REMARK INTER:                  -5.151
REMARK INTRA:                  -0.358
REMARK UNBOUND:                -0.642
REMARK SMILES CCCCCCC=CC(=O)[O-]
REMARK SMILES IDX 5 1 6 2 7 3 8 4 9 5 10 6 11 7 4 8 3 9 2 10 1 11
REMARK H PARENT
REMARK Flexibility Score: inf
ROOT
ATOM      1  C   UNL     1      31.850 170.154 153.955  1.00  0.00     0.004 C 
ENDROOT
BRANCH   1   2
ATOM      2  C   UNL     1      33.222 169.713 154.499  1.00  0.00     0.027 C 
BRANCH   2   3
ATOM      3  C   UNL     1      33.737 170.625 155.581  1.00  0.00    -0.025 C 
ATOM      4  C   UNL     1      34.177 170.246 156.792  1.00  0.00     0.020 C 
BRANCH   4   5
ATOM      5  C   UNL     1      34.305 168.861 157.291  1.00  0.00     0.064 C 
ATOM      6  O   UNL     1      33.369 168.280 157.898  1.00  0.00    -0.545 OA
ATOM      7  O   UNL     1      35.485 168.169 157.053  1.00  0.00    -0.545 OA
ENDBRANCH   4   5
ENDBRANCH   2   3
ENDBRANCH   1   2
BRANCH   1   8
ATOM      8  C   UNL     1      31.628 171.681 153.946  1.00  0.00     0.000 C 
BRANCH   8   9
ATOM      9  C   UNL     1      30.312 172.153 154.591  1.00  0.00    -0.000 C 
BRANCH   9  10
ATOM     10  C   UNL     1      29.838 173.511 154.053  1.00  0.00    -0.003 C 
ATOM     11  C   UNL     1      30.940 174.560 154.158  1.00  0.00     0.004 C 
ENDBRANCH   9  10
ENDBRANCH   8   9
ENDBRANCH   1   8
TORSDOF 6
ENDMDL
MODEL 3
REMARK VINA RESULT:    -3.599      2.708      4.752
REMARK INTER + INTRA:          -5.503
REMARK INTER:                  -5.038
REMARK INTRA:                  -0.465
REMARK UNBOUND:                -0.642
REMARK SMILES CCCCCCC=CC(=O)[O-]
REMARK SMILES IDX 5 1 6 2 7 3 8 4 9 5 10 6 11 7 4 8 3 9 2 10 1 11
REMARK H PARENT
REMARK Flexibility Score: inf
ROOT
ATOM      1  C   UNL     1      34.939 170.175 156.169  1.00  0.00     0.004 C 
ENDROOT
BRANCH   1   2
ATOM      2  C   UNL     1      33.502 170.656 155.893  1.00  0.00     0.027 C 
BRANCH   2   3
ATOM      3  C   UNL     1      33.068 170.401 154.473  1.00  0.00    -0.025 C 
ATOM      4  C   UNL     1      31.978 170.910 153.876  1.00  0.00     0.020 C 
BRANCH   4   5
ATOM      5  C   UNL     1      31.017 171.867 154.462  1.00  0.00     0.064 C 
ATOM      6  O   UNL     1      30.041 171.492 155.162  1.00  0.00    -0.545 OA
ATOM      7  O   UNL     1      31.216 173.226 154.258  1.00  0.00    -0.545 OA
ENDBRANCH   4   5
ENDBRANCH   2   3
ENDBRANCH   1   2
BRANCH   1   8
ATOM      8  C   UNL     1      35.047 169.073 157.244  1.00  0.00     0.000 C 
BRANCH   8   9
ATOM      9  C   UNL     1      33.745 168.300 157.521  1.00  0.00    -0.000 C 
BRANCH   9  10
ATOM     10  C   UNL     1      33.306 168.377 158.990  1.00  0.00    -0.003 C 
ATOM     11  C   UNL     1      32.380 169.566 159.225  1.00  0.00     0.004 C 
ENDBRANCH   9  10
ENDBRANCH   8   9
ENDBRANCH   1   8
TORSDOF 6
ENDMDL
MODEL 4
REMARK VINA RESULT:    -3.517     21.629     23.074
REMARK INTER + INTRA:          -5.393
REMARK INTER:                  -4.535
REMARK INTRA:                  -0.858
REMARK UNBOUND:                -0.642
REMARK SMILES CCCCCCC=CC(=O)[O-]
REMARK SMILES IDX 5 1 6 2 7 3 8 4 9 5 10 6 11 7 4 8 3 9 2 10 1 11
REMARK H PARENT
REMARK Flexibility Score: inf
ROOT
ATOM      1  C   UNL     1      41.898 185.720 172.822  1.00  0.00     0.004 C 
ENDROOT
BRANCH   1   2
ATOM      2  C   UNL     1      40.427 186.162 172.932  1.00  0.00     0.027 C 
BRANCH   2   3
ATOM      3  C   UNL     1      39.486 185.000 173.120  1.00  0.00    -0.025 C 
ATOM      4  C   UNL     1      38.841 184.339 172.145  1.00  0.00     0.020 C 
BRANCH   4   5
ATOM      5  C   UNL     1      38.964 184.571 170.690  1.00  0.00     0.064 C 
ATOM      6  O   UNL     1      38.083 185.183 170.033  1.00  0.00    -0.545 OA
ATOM      7  O   UNL     1      40.105 184.126 170.035  1.00  0.00    -0.545 OA
ENDBRANCH   4   5
ENDBRANCH   2   3
ENDBRANCH   1   2
BRANCH   1   8
ATOM      8  C   UNL     1      42.375 184.798 173.963  1.00  0.00     0.000 C 
BRANCH   8   9
ATOM      9  C   UNL     1      43.203 183.580 173.517  1.00  0.00    -0.000 C 
BRANCH   9  10
ATOM     10  C   UNL     1      42.573 182.829 172.335  1.00  0.00    -0.003 C 
ATOM     11  C   UNL     1      41.536 181.818 172.816  1.00  0.00     0.004 C 
ENDBRANCH   9  10
ENDBRANCH   8   9
ENDBRANCH   1   8
TORSDOF 6
ENDMDL
MODEL 5
REMARK VINA RESULT:    -3.337      3.920      6.000
REMARK INTER + INTRA:          -5.149
REMARK INTER:                  -5.214
REMARK INTRA:                   0.065
REMARK UNBOUND:                -0.642
REMARK SMILES CCCCCCC=CC(=O)[O-]
REMARK SMILES IDX 5 1 6 2 7 3 8 4 9 5 10 6 11 7 4 8 3 9 2 10 1 11
REMARK H PARENT
REMARK Flexibility Score: inf
ROOT
ATOM      1  C   UNL     1      32.647 171.172 154.510  1.00  0.00     0.004 C 
ENDROOT
BRANCH   1   2
ATOM      2  C   UNL     1      31.357 171.724 153.875  1.00  0.00     0.027 C 
BRANCH   2   3
ATOM      3  C   UNL     1      31.205 173.210 154.069  1.00  0.00    -0.025 C 
ATOM      4  C   UNL     1      30.048 173.874 154.218  1.00  0.00     0.020 C 
BRANCH   4   5
ATOM      5  C   UNL     1      28.694 173.284 154.283  1.00  0.00     0.064 C 
ATOM      6  O   UNL     1      28.492 172.118 154.711  1.00  0.00    -0.545 OA
ATOM      7  O   UNL     1      27.608 174.054 153.890  1.00  0.00    -0.545 OA
ENDBRANCH   4   5
ENDBRANCH   2   3
ENDBRANCH   1   2
BRANCH   1   8
ATOM      8  C   UNL     1      32.449 170.516 155.892  1.00  0.00     0.000 C 
BRANCH   8   9
ATOM      9  C   UNL     1      33.664 170.594 156.833  1.00  0.00    -0.000 C 
BRANCH   9  10
ATOM     10  C   UNL     1      34.839 169.723 156.366  1.00  0.00    -0.003 C 
ATOM     11  C   UNL     1      34.849 168.380 157.090  1.00  0.00     0.004 C 
ENDBRANCH   9  10
ENDBRANCH   8   9
ENDBRANCH   1   8
TORSDOF 6
ENDMDL
MODEL 6
REMARK VINA RESULT:    -3.335      1.425      2.611
REMARK INTER + INTRA:          -5.147
REMARK INTER:                  -4.657
REMARK INTRA:                  -0.491
REMARK UNBOUND:                -0.642
REMARK SMILES CCCCCCC=CC(=O)[O-]
REMARK SMILES IDX 5 1 6 2 7 3 8 4 9 5 10 6 11 7 4 8 3 9 2 10 1 11
REMARK H PARENT
REMARK Flexibility Score: inf
ROOT
ATOM      1  C   UNL     1      34.236 168.123 157.394  1.00  0.00     0.004 C 
ENDROOT
BRANCH   1   2
ATOM      2  C   UNL     1      33.413 168.081 158.695  1.00  0.00     0.027 C 
BRANCH   2   3
ATOM      3  C   UNL     1      32.655 169.360 158.943  1.00  0.00    -0.025 C 
ATOM      4  C   UNL     1      32.010 169.690 160.074  1.00  0.00     0.020 C 
BRANCH   4   5
ATOM      5  C   UNL     1      31.960 168.902 161.323  1.00  0.00     0.064 C 
ATOM      6  O   UNL     1      30.944 168.238 161.654  1.00  0.00    -0.545 OA
ATOM      7  O   UNL     1      33.081 168.870 162.141  1.00  0.00    -0.545 OA
ENDBRANCH   4   5
ENDBRANCH   2   3
ENDBRANCH   1   2
BRANCH   1   8
ATOM      8  C   UNL     1      35.138 169.366 157.249  1.00  0.00     0.000 C 
BRANCH   8   9
ATOM      9  C   UNL     1      34.970 170.146 155.933  1.00  0.00    -0.000 C 
BRANCH   9  10
ATOM     10  C   UNL     1      33.519 170.572 155.671  1.00  0.00    -0.003 C 
ATOM     11  C   UNL     1      33.071 170.167 154.270  1.00  0.00     0.004 C 
ENDBRANCH   9  10
ENDBRANCH   8   9
ENDBRANCH   1   8
TORSDOF 6
ENDMDL
MODEL 7
REMARK VINA RESULT:    -3.277      2.480      4.638
REMARK INTER + INTRA:          -5.068
REMARK INTER:                  -4.501
REMARK INTRA:                  -0.567
REMARK UNBOUND:                -0.642
REMARK SMILES CCCCCCC=CC(=O)[O-]
REMARK SMILES IDX 5 1 6 2 7 3 8 4 9 5 10 6 11 7 4 8 3 9 2 10 1 11
REMARK H PARENT
REMARK Flexibility Score: inf
ROOT
ATOM      1  C   UNL     1      32.748 169.747 153.955  1.00  0.00     0.004 C 
ENDROOT
BRANCH   1   2
ATOM      2  C   UNL     1      31.722 168.771 154.560  1.00  0.00     0.027 C 
BRANCH   2   3
ATOM      3  C   UNL     1      30.366 168.879 153.912  1.00  0.00    -0.025 C 
ATOM      4  C   UNL     1      29.387 169.728 154.264  1.00  0.00     0.020 C 
BRANCH   4   5
ATOM      5  C   UNL     1      29.453 170.765 155.314  1.00  0.00     0.064 C 
ATOM      6  O   UNL     1      29.325 170.491 156.535  1.00  0.00    -0.545 OA
ATOM      7  O   UNL     1      29.696 172.080 154.942  1.00  0.00    -0.545 OA
ENDBRANCH   4   5
ENDBRANCH   2   3
ENDBRANCH   1   2
BRANCH   1   8
ATOM      8  C   UNL     1      33.091 170.952 154.855  1.00  0.00     0.000 C 
BRANCH   8   9
ATOM      9  C   UNL     1      33.630 170.593 156.252  1.00  0.00    -0.000 C 
BRANCH   9  10
ATOM     10  C   UNL     1      35.027 169.957 156.208  1.00  0.00    -0.003 C 
ATOM     11  C   UNL     1      35.112 168.752 157.139  1.00  0.00     0.004 C 
ENDBRANCH   9  10
ENDBRANCH   8   9
ENDBRANCH   1   8
TORSDOF 6
ENDMDL
MODEL 8
REMARK VINA RESULT:    -3.271      1.919      4.031
REMARK INTER + INTRA:          -5.060
REMARK INTER:                  -4.340
REMARK INTRA:                  -0.719
REMARK UNBOUND:                -0.642
REMARK SMILES CCCCCCC=CC(=O)[O-]
REMARK SMILES IDX 5 1 6 2 7 3 8 4 9 5 10 6 11 7 4 8 3 9 2 10 1 11
REMARK H PARENT
REMARK Flexibility Score: inf
ROOT
ATOM      1  C   UNL     1      33.496 170.811 156.159  1.00  0.00     0.004 C 
ENDROOT
BRANCH   1   2
ATOM      2  C   UNL     1      32.778 170.877 154.799  1.00  0.00     0.027 C 
BRANCH   2   3
ATOM      3  C   UNL     1      32.571 169.517 154.185  1.00  0.00    -0.025 C 
ATOM      4  C   UNL     1      31.549 168.683 154.436  1.00  0.00     0.020 C 
BRANCH   4   5
ATOM      5  C   UNL     1      30.389 168.948 155.314  1.00  0.00     0.064 C 
ATOM      6  O   UNL     1      29.324 169.458 154.881  1.00  0.00    -0.545 OA
ATOM      7  O   UNL     1      30.469 168.592 156.654  1.00  0.00    -0.545 OA
ENDBRANCH   4   5
ENDBRANCH   2   3
ENDBRANCH   1   2
BRANCH   1   8
ATOM      8  C   UNL     1      34.877 170.123 156.120  1.00  0.00     0.000 C 
BRANCH   8   9
ATOM      9  C   UNL     1      35.129 169.098 157.240  1.00  0.00    -0.000 C 
BRANCH   9  10
ATOM     10  C   UNL     1      33.904 168.221 157.534  1.00  0.00    -0.003 C 
ATOM     11  C   UNL     1      33.379 168.465 158.946  1.00  0.00     0.004 C 
ENDBRANCH   9  10
ENDBRANCH   8   9
ENDBRANCH   1   8
TORSDOF 6
ENDMDL
MODEL 9
REMARK VINA RESULT:    -3.237      1.525      2.254
REMARK INTER + INTRA:          -5.014
REMARK INTER:                  -4.332
REMARK INTRA:                  -0.682
REMARK UNBOUND:                -0.642
REMARK SMILES CCCCCCC=CC(=O)[O-]
REMARK SMILES IDX 5 1 6 2 7 3 8 4 9 5 10 6 11 7 4 8 3 9 2 10 1 11
REMARK H PARENT
REMARK Flexibility Score: inf
ROOT
ATOM      1  C   UNL     1      35.214 169.198 157.211  1.00  0.00     0.004 C 
ENDROOT
BRANCH   1   2
ATOM      2  C   UNL     1      34.003 168.308 157.549  1.00  0.00     0.027 C 
BRANCH   2   3
ATOM      3  C   UNL     1      33.375 168.661 158.872  1.00  0.00    -0.025 C 
ATOM      4  C   UNL     1      32.082 168.954 159.081  1.00  0.00     0.020 C 
BRANCH   4   5
ATOM      5  C   UNL     1      30.999 168.934 158.075  1.00  0.00     0.064 C 
ATOM      6  O   UNL     1      30.396 167.875 157.762  1.00  0.00    -0.545 OA
ATOM      7  O   UNL     1      30.615 170.128 157.480  1.00  0.00    -0.545 OA
ENDBRANCH   4   5
ENDBRANCH   2   3
ENDBRANCH   1   2
BRANCH   1   8
ATOM      8  C   UNL     1      35.004 170.126 155.996  1.00  0.00     0.000 C 
BRANCH   8   9
ATOM      9  C   UNL     1      33.573 170.666 155.824  1.00  0.00    -0.000 C 
BRANCH   9  10
ATOM     10  C   UNL     1      33.030 170.477 154.401  1.00  0.00    -0.003 C 
ATOM     11  C   UNL     1      32.114 169.260 154.319  1.00  0.00     0.004 C 
ENDBRANCH   9  10
ENDBRANCH   8   9
ENDBRANCH   1   8
TORSDOF 6
ENDMDL
