MODEL 1
REMARK VINA RESULT:    -5.151      0.000      0.000
REMARK INTER + INTRA:         -10.302
REMARK INTER:                  -7.862
REMARK INTRA:                  -2.441
REMARK UNBOUND:                -2.441
REMARK SMILES CC(=O)CCC=C(C)CCC=C(C)CCC=C(C)C
REMARK SMILES IDX 10 1 11 2 12 3 13 4 14 5 15 6 16 7 18 8 17 9 19 10 9 11 7 12
REMARK SMILES IDX 6 13 8 14 5 15 4 16 2 17 3 18 1 19
REMARK H PARENT
REMARK Flexibility Score: inf
ROOT
ATOM      1  C   UNL     1      13.676 -20.432 -20.820  1.00  0.00     0.032 C 
ENDROOT
BRANCH   1   2
ATOM      2  C   UNL     1      14.177 -19.714 -19.590  1.00  0.00    -0.028 C 
ATOM      3  C   UNL     1      14.732 -18.478 -19.570  1.00  0.00    -0.077 C 
ATOM      4  C   UNL     1      15.145 -17.907 -18.238  1.00  0.00     0.039 C 
BRANCH   3   5
ATOM      5  C   UNL     1      14.961 -17.650 -20.822  1.00  0.00     0.034 C 
BRANCH   5   6
ATOM      6  C   UNL     1      16.457 -17.378 -21.034  1.00  0.00     0.032 C 
BRANCH   6   7
ATOM      7  C   UNL     1      17.218 -18.657 -21.291  1.00  0.00    -0.028 C 
ATOM      8  C   UNL     1      17.234 -18.250 -23.758  1.00  0.00     0.039 C 
ATOM      9  C   UNL     1      17.590 -19.054 -22.529  1.00  0.00    -0.080 C 
ATOM     10  C   UNL     1      18.340 -20.349 -22.713  1.00  0.00     0.039 C 
ENDBRANCH   6   7
ENDBRANCH   5   6
ENDBRANCH   3   5
ENDBRANCH   1   2
BRANCH   1  11
ATOM     11  C   UNL     1      14.785 -21.308 -21.414  1.00  0.00     0.034 C 
BRANCH  11  12
ATOM     12  C   UNL     1      14.741 -21.268 -22.929  1.00  0.00    -0.077 C 
ATOM     13  C   UNL     1      15.232 -22.264 -23.698  1.00  0.00    -0.028 C 
ATOM     14  C   UNL     1      14.055 -20.108 -23.603  1.00  0.00     0.039 C 
BRANCH  13  15
ATOM     15  C   UNL     1      15.931 -23.486 -23.144  1.00  0.00     0.035 C 
BRANCH  15  16
ATOM     16  C   UNL     1      17.207 -23.830 -23.926  1.00  0.00     0.079 C 
BRANCH  16  17
ATOM     17  C   UNL     1      18.108 -24.758 -23.147  1.00  0.00     0.130 C 
ATOM     18  O   UNL     1      19.209 -25.044 -23.595  1.00  0.00    -0.300 OA
ATOM     19  C   UNL     1      17.690 -25.320 -21.820  1.00  0.00     0.087 C 
ENDBRANCH  16  17
ENDBRANCH  15  16
ENDBRANCH  13  15
ENDBRANCH  11  12
ENDBRANCH   1  11
TORSDOF 9
ENDMDL
MODEL 2
REMARK VINA RESULT:    -5.129      1.684      3.744
REMARK INTER + INTRA:         -10.269
REMARK INTER:                  -7.339
REMARK INTRA:                  -2.930
REMARK UNBOUND:                -2.441
REMARK SMILES CC(=O)CCC=C(C)CCC=C(C)CCC=C(C)C
REMARK SMILES IDX 10 1 11 2 12 3 13 4 14 5 15 6 16 7 18 8 17 9 19 10 9 11 7 12
REMARK SMILES IDX 6 13 8 14 5 15 4 16 2 17 3 18 1 19
REMARK H PARENT
REMARK Flexibility Score: inf
ROOT
ATOM      1  C   UNL     1      16.867 -17.116 -19.899  1.00  0.00     0.032 C 
ENDROOT
BRANCH   1   2
ATOM      2  C   UNL     1      16.338 -17.794 -18.657  1.00  0.00    -0.028 C 
ATOM      3  C   UNL     1      15.030 -17.932 -18.331  1.00  0.00    -0.077 C 
ATOM      4  C   UNL     1      14.690 -18.670 -17.062  1.00  0.00     0.039 C 
BRANCH   3   5
ATOM      5  C   UNL     1      13.899 -17.375 -19.177  1.00  0.00     0.034 C 
BRANCH   5   6
ATOM      6  C   UNL     1      12.981 -18.500 -19.676  1.00  0.00     0.032 C 
BRANCH   6   7
ATOM      7  C   UNL     1      13.111 -18.696 -21.168  1.00  0.00    -0.028 C 
ATOM      8  C   UNL     1      14.545 -20.721 -20.863  1.00  0.00     0.039 C 
ATOM      9  C   UNL     1      13.809 -19.716 -21.717  1.00  0.00    -0.080 C 
ATOM     10  C   UNL     1      13.904 -19.844 -23.217  1.00  0.00     0.039 C 
ENDBRANCH   6   7
ENDBRANCH   5   6
ENDBRANCH   3   5
ENDBRANCH   1   2
BRANCH   1  11
ATOM     11  C   UNL     1      17.155 -18.153 -20.989  1.00  0.00     0.034 C 
BRANCH  11  12
ATOM     12  C   UNL     1      16.825 -17.592 -22.359  1.00  0.00    -0.077 C 
ATOM     13  C   UNL     1      17.177 -18.214 -23.506  1.00  0.00    -0.028 C 
ATOM     14  C   UNL     1      16.004 -16.330 -22.446  1.00  0.00     0.039 C 
BRANCH  13  15
ATOM     15  C   UNL     1      17.988 -19.490 -23.553  1.00  0.00     0.035 C 
BRANCH  15  16
ATOM     16  C   UNL     1      17.260 -20.612 -24.307  1.00  0.00     0.079 C 
BRANCH  16  17
ATOM     17  C   UNL     1      17.139 -21.863 -23.470  1.00  0.00     0.130 C 
ATOM     18  O   UNL     1      17.945 -22.067 -22.575  1.00  0.00    -0.300 OA
ATOM     19  C   UNL     1      16.034 -22.852 -23.699  1.00  0.00     0.087 C 
ENDBRANCH  16  17
ENDBRANCH  15  16
ENDBRANCH  13  15
ENDBRANCH  11  12
ENDBRANCH   1  11
TORSDOF 9
ENDMDL
MODEL 3
REMARK VINA RESULT:    -5.117      2.937      6.305
REMARK INTER + INTRA:         -10.250
REMARK INTER:                  -8.192
REMARK INTRA:                  -2.058
REMARK UNBOUND:                -2.441
REMARK SMILES CC(=O)CCC=C(C)CCC=C(C)CCC=C(C)C
REMARK SMILES IDX 10 1 11 2 12 3 13 4 14 5 15 6 16 7 18 8 17 9 19 10 9 11 7 12
REMARK SMILES IDX 6 13 8 14 5 15 4 16 2 17 3 18 1 19
REMARK H PARENT
REMARK Flexibility Score: inf
ROOT
ATOM      1  C   UNL     1      16.886 -17.318 -21.628  1.00  0.00     0.032 C 
ENDROOT
BRANCH   1   2
ATOM      2  C   UNL     1      15.584 -16.635 -21.973  1.00  0.00    -0.028 C 
ATOM      3  C   UNL     1      14.692 -17.062 -22.900  1.00  0.00    -0.077 C 
ATOM      4  C   UNL     1      13.426 -16.265 -23.084  1.00  0.00     0.039 C 
BRANCH   3   5
ATOM      5  C   UNL     1      14.912 -18.294 -23.760  1.00  0.00     0.034 C 
BRANCH   5   6
ATOM      6  C   UNL     1      13.949 -19.421 -23.359  1.00  0.00     0.032 C 
BRANCH   6   7
ATOM      7  C   UNL     1      14.578 -20.780 -23.565  1.00  0.00    -0.028 C 
ATOM      8  C   UNL     1      14.707 -21.186 -21.101  1.00  0.00     0.039 C 
ATOM      9  C   UNL     1      14.911 -21.597 -22.541  1.00  0.00    -0.080 C 
ATOM     10  C   UNL     1      15.545 -22.937 -22.820  1.00  0.00     0.039 C 
ENDBRANCH   6   7
ENDBRANCH   5   6
ENDBRANCH   3   5
ENDBRANCH   1   2
BRANCH   1  11
ATOM     11  C   UNL     1      16.682 -18.301 -20.471  1.00  0.00     0.034 C 
BRANCH  11  12
ATOM     12  C   UNL     1      16.610 -17.560 -19.150  1.00  0.00    -0.077 C 
ATOM     13  C   UNL     1      15.519 -17.596 -18.353  1.00  0.00    -0.028 C 
ATOM     14  C   UNL     1      17.830 -16.816 -18.669  1.00  0.00     0.039 C 
BRANCH  13  15
ATOM     15  C   UNL     1      14.239 -18.317 -18.715  1.00  0.00     0.035 C 
BRANCH  15  16
ATOM     16  C   UNL     1      13.197 -17.373 -19.333  1.00  0.00     0.079 C 
BRANCH  16  17
ATOM     17  C   UNL     1      11.910 -18.094 -19.654  1.00  0.00     0.130 C 
ATOM     18  O   UNL     1      11.932 -19.057 -20.407  1.00  0.00    -0.300 OA
ATOM     19  C   UNL     1      10.605 -17.667 -19.050  1.00  0.00     0.087 C 
ENDBRANCH  16  17
ENDBRANCH  15  16
ENDBRANCH  13  15
ENDBRANCH  11  12
ENDBRANCH   1  11
TORSDOF 9
ENDMDL
MODEL 4
REMARK VINA RESULT:    -5.068      2.738      6.347
REMARK INTER + INTRA:         -10.175
REMARK INTER:                  -7.802
REMARK INTRA:                  -2.373
REMARK UNBOUND:                -2.441
REMARK SMILES CC(=O)CCC=C(C)CCC=C(C)CCC=C(C)C
REMARK SMILES IDX 10 1 11 2 12 3 13 4 14 5 15 6 16 7 18 8 17 9 19 10 9 11 7 12
REMARK SMILES IDX 6 13 8 14 5 15 4 16 2 17 3 18 1 19
REMARK H PARENT
REMARK Flexibility Score: inf
ROOT
ATOM      1  C   UNL     1      16.185 -24.344 -23.115  1.00  0.00     0.032 C 
ENDROOT
BRANCH   1   2
ATOM      2  C   UNL     1      17.381 -25.155 -22.676  1.00  0.00    -0.028 C 
ATOM      3  C   UNL     1      18.549 -25.267 -23.354  1.00  0.00    -0.077 C 
ATOM      4  C   UNL     1      19.647 -26.098 -22.742  1.00  0.00     0.039 C 
BRANCH   3   5
ATOM      5  C   UNL     1      18.797 -24.604 -24.697  1.00  0.00     0.034 C 
BRANCH   5   6
ATOM      6  C   UNL     1      19.820 -23.466 -24.567  1.00  0.00     0.032 C 
BRANCH   6   7
ATOM      7  C   UNL     1      19.137 -22.135 -24.354  1.00  0.00    -0.028 C 
ATOM      8  C   UNL     1      19.832 -22.068 -21.953  1.00  0.00     0.039 C 
ATOM      9  C   UNL     1      19.152 -21.484 -23.170  1.00  0.00    -0.080 C 
ATOM     10  C   UNL     1      18.441 -20.161 -23.027  1.00  0.00     0.039 C 
ENDBRANCH   6   7
ENDBRANCH   5   6
ENDBRANCH   3   5
ENDBRANCH   1   2
BRANCH   1  11
ATOM     11  C   UNL     1      16.014 -23.116 -22.214  1.00  0.00     0.034 C 
BRANCH  11  12
ATOM     12  C   UNL     1      15.288 -22.010 -22.953  1.00  0.00    -0.077 C 
ATOM     13  C   UNL     1      14.671 -20.990 -22.316  1.00  0.00    -0.028 C 
ATOM     14  C   UNL     1      15.319 -22.004 -24.460  1.00  0.00     0.039 C 
BRANCH  13  15
ATOM     15  C   UNL     1      14.581 -20.874 -20.810  1.00  0.00     0.035 C 
BRANCH  15  16
ATOM     16  C   UNL     1      13.217 -20.340 -20.350  1.00  0.00     0.079 C 
BRANCH  16  17
ATOM     17  C   UNL     1      13.237 -18.842 -20.164  1.00  0.00     0.130 C 
ATOM     18  O   UNL     1      12.674 -18.127 -20.979  1.00  0.00    -0.300 OA
ATOM     19  C   UNL     1      13.916 -18.211 -18.984  1.00  0.00     0.087 C 
ENDBRANCH  16  17
ENDBRANCH  15  16
ENDBRANCH  13  15
ENDBRANCH  11  12
ENDBRANCH   1  11
TORSDOF 9
ENDMDL
MODEL 5
REMARK VINA RESULT:    -5.001      1.905      5.010
REMARK INTER + INTRA:         -10.073
REMARK INTER:                  -8.406
REMARK INTRA:                  -1.667
REMARK UNBOUND:                -2.441
REMARK SMILES CC(=O)CCC=C(C)CCC=C(C)CCC=C(C)C
REMARK SMILES IDX 10 1 11 2 12 3 13 4 14 5 15 6 16 7 18 8 17 9 19 10 9 11 7 12
REMARK SMILES IDX 6 13 8 14 5 15 4 16 2 17 3 18 1 19
REMARK H PARENT
REMARK Flexibility Score: inf
ROOT
ATOM      1  C   UNL     1      16.490 -24.258 -22.347  1.00  0.00     0.032 C 
ENDROOT
BRANCH   1   2
ATOM      2  C   UNL     1      15.727 -23.462 -23.379  1.00  0.00    -0.028 C 
ATOM      3  C   UNL     1      15.282 -22.191 -23.223  1.00  0.00    -0.077 C 
ATOM      4  C   UNL     1      14.566 -21.544 -24.380  1.00  0.00     0.039 C 
BRANCH   3   5
ATOM      5  C   UNL     1      15.466 -21.398 -21.942  1.00  0.00     0.034 C 
BRANCH   5   6
ATOM      6  C   UNL     1      14.110 -20.954 -21.372  1.00  0.00     0.032 C 
BRANCH   6   7
ATOM      7  C   UNL     1      14.262 -20.360 -19.991  1.00  0.00    -0.028 C 
ATOM      8  C   UNL     1      13.961 -18.037 -20.864  1.00  0.00     0.039 C 
ATOM      9  C   UNL     1      14.178 -19.033 -19.749  1.00  0.00    -0.080 C 
ATOM     10  C   UNL     1      14.349 -18.509 -18.345  1.00  0.00     0.039 C 
ENDBRANCH   6   7
ENDBRANCH   5   6
ENDBRANCH   3   5
ENDBRANCH   1   2
BRANCH   1  11
ATOM     11  C   UNL     1      17.342 -25.334 -23.028  1.00  0.00     0.034 C 
BRANCH  11  12
ATOM     12  C   UNL     1      18.741 -25.355 -22.442  1.00  0.00    -0.077 C 
ATOM     13  C   UNL     1      19.845 -25.108 -23.181  1.00  0.00    -0.028 C 
ATOM     14  C   UNL     1      18.901 -25.585 -20.961  1.00  0.00     0.039 C 
BRANCH  13  15
ATOM     15  C   UNL     1      19.816 -24.850 -24.672  1.00  0.00     0.035 C 
BRANCH  15  16
ATOM     16  C   UNL     1      20.173 -23.397 -25.016  1.00  0.00     0.079 C 
BRANCH  16  17
ATOM     17  C   UNL     1      18.983 -22.478 -24.874  1.00  0.00     0.130 C 
ATOM     18  O   UNL     1      18.075 -22.541 -25.689  1.00  0.00    -0.300 OA
ATOM     19  C   UNL     1      18.881 -21.504 -23.737  1.00  0.00     0.087 C 
ENDBRANCH  16  17
ENDBRANCH  15  16
ENDBRANCH  13  15
ENDBRANCH  11  12
ENDBRANCH   1  11
TORSDOF 9
ENDMDL
MODEL 6
REMARK VINA RESULT:    -4.984      4.624      6.788
REMARK INTER + INTRA:         -10.046
REMARK INTER:                  -7.928
REMARK INTRA:                  -2.118
REMARK UNBOUND:                -2.441
REMARK SMILES CC(=O)CCC=C(C)CCC=C(C)CCC=C(C)C
REMARK SMILES IDX 10 1 11 2 12 3 13 4 14 5 15 6 16 7 18 8 17 9 19 10 9 11 7 12
REMARK SMILES IDX 6 13 8 14 5 15 4 16 2 17 3 18 1 19
REMARK H PARENT
REMARK Flexibility Score: inf
ROOT
ATOM      1  C   UNL     1      13.454 -17.153 -21.834  1.00  0.00     0.032 C 
ENDROOT
BRANCH   1   2
ATOM      2  C   UNL     1      13.995 -17.398 -23.223  1.00  0.00    -0.028 C 
ATOM      3  C   UNL     1      13.812 -16.587 -24.294  1.00  0.00    -0.077 C 
ATOM      4  C   UNL     1      14.458 -16.979 -25.598  1.00  0.00     0.039 C 
BRANCH   3   5
ATOM      5  C   UNL     1      12.986 -15.314 -24.241  1.00  0.00     0.034 C 
BRANCH   5   6
ATOM      6  C   UNL     1      11.575 -15.552 -24.797  1.00  0.00     0.032 C 
BRANCH   6   7
ATOM      7  C   UNL     1      10.662 -16.141 -23.746  1.00  0.00    -0.028 C 
ATOM      8  C   UNL     1      10.565 -18.335 -24.941  1.00  0.00     0.039 C 
ATOM      9  C   UNL     1      10.211 -17.414 -23.797  1.00  0.00    -0.080 C 
ATOM     10  C   UNL     1       9.294 -17.933 -22.717  1.00  0.00     0.039 C 
ENDBRANCH   6   7
ENDBRANCH   5   6
ENDBRANCH   3   5
ENDBRANCH   1   2
BRANCH   1  11
ATOM     11  C   UNL     1      13.146 -18.484 -21.141  1.00  0.00     0.034 C 
BRANCH  11  12
ATOM     12  C   UNL     1      12.627 -18.246 -19.737  1.00  0.00    -0.077 C 
ATOM     13  C   UNL     1      13.431 -18.265 -18.650  1.00  0.00    -0.028 C 
ATOM     14  C   UNL     1      11.173 -17.897 -19.551  1.00  0.00     0.039 C 
BRANCH  13  15
ATOM     15  C   UNL     1      14.908 -18.588 -18.705  1.00  0.00     0.035 C 
BRANCH  15  16
ATOM     16  C   UNL     1      15.780 -17.379 -18.337  1.00  0.00     0.079 C 
BRANCH  16  17
ATOM     17  C   UNL     1      17.041 -17.325 -19.166  1.00  0.00     0.130 C 
ATOM     18  O   UNL     1      18.128 -17.400 -18.612  1.00  0.00    -0.300 OA
ATOM     19  C   UNL     1      16.987 -17.204 -20.660  1.00  0.00     0.087 C 
ENDBRANCH  16  17
ENDBRANCH  15  16
ENDBRANCH  13  15
ENDBRANCH  11  12
ENDBRANCH   1  11
TORSDOF 9
ENDMDL
MODEL 7
REMARK VINA RESULT:    -4.919      3.794      6.704
REMARK INTER + INTRA:          -9.947
REMARK INTER:                  -7.714
REMARK INTRA:                  -2.233
REMARK UNBOUND:                -2.441
REMARK SMILES CC(=O)CCC=C(C)CCC=C(C)CCC=C(C)C
REMARK SMILES IDX 10 1 11 2 12 3 13 4 14 5 15 6 16 7 18 8 17 9 19 10 9 11 7 12
REMARK SMILES IDX 6 13 8 14 5 15 4 16 2 17 3 18 1 19
REMARK H PARENT
REMARK Flexibility Score: inf
ROOT
ATOM      1  C   UNL     1      15.242 -19.985 -20.858  1.00  0.00     0.032 C 
ENDROOT
BRANCH   1   2
ATOM      2  C   UNL     1      14.907 -21.110 -21.808  1.00  0.00    -0.028 C 
ATOM      3  C   UNL     1      15.454 -21.294 -23.034  1.00  0.00    -0.077 C 
ATOM      4  C   UNL     1      15.018 -22.497 -23.831  1.00  0.00     0.039 C 
BRANCH   3   5
ATOM      5  C   UNL     1      16.474 -20.347 -23.641  1.00  0.00     0.034 C 
BRANCH   5   6
ATOM      6  C   UNL     1      15.806 -19.383 -24.633  1.00  0.00     0.032 C 
BRANCH   6   7
ATOM      7  C   UNL     1      15.416 -18.087 -23.962  1.00  0.00    -0.028 C 
ATOM      8  C   UNL     1      12.994 -18.708 -23.981  1.00  0.00     0.039 C 
ATOM      9  C   UNL     1      14.138 -17.779 -23.647  1.00  0.00    -0.080 C 
ATOM     10  C   UNL     1      13.820 -16.460 -22.987  1.00  0.00     0.039 C 
ENDBRANCH   6   7
ENDBRANCH   5   6
ENDBRANCH   3   5
ENDBRANCH   1   2
BRANCH   1  11
ATOM     11  C   UNL     1      14.226 -19.936 -19.712  1.00  0.00     0.034 C 
BRANCH  11  12
ATOM     12  C   UNL     1      13.994 -18.505 -19.267  1.00  0.00    -0.077 C 
ATOM     13  C   UNL     1      12.894 -17.802 -19.616  1.00  0.00    -0.028 C 
ATOM     14  C   UNL     1      14.992 -17.866 -18.335  1.00  0.00     0.039 C 
BRANCH  13  15
ATOM     15  C   UNL     1      11.815 -18.335 -20.533  1.00  0.00     0.035 C 
BRANCH  15  16
ATOM     16  C   UNL     1      10.419 -18.247 -19.899  1.00  0.00     0.079 C 
BRANCH  16  17
ATOM     17  C   UNL     1       9.326 -18.407 -20.928  1.00  0.00     0.130 C 
ATOM     18  O   UNL     1       8.306 -19.012 -20.632  1.00  0.00    -0.300 OA
ATOM     19  C   UNL     1       9.455 -17.819 -22.302  1.00  0.00     0.087 C 
ENDBRANCH  16  17
ENDBRANCH  15  16
ENDBRANCH  13  15
ENDBRANCH  11  12
ENDBRANCH   1  11
TORSDOF 9
ENDMDL
MODEL 8
REMARK VINA RESULT:    -4.867      2.941      6.786
REMARK INTER + INTRA:          -9.868
REMARK INTER:                  -7.734
REMARK INTRA:                  -2.135
REMARK UNBOUND:                -2.441
REMARK SMILES CC(=O)CCC=C(C)CCC=C(C)CCC=C(C)C
REMARK SMILES IDX 10 1 11 2 12 3 13 4 14 5 15 6 16 7 18 8 17 9 19 10 9 11 7 12
REMARK SMILES IDX 6 13 8 14 5 15 4 16 2 17 3 18 1 19
REMARK H PARENT
REMARK Flexibility Score: inf
ROOT
ATOM      1  C   UNL     1      17.298 -21.123 -24.519  1.00  0.00     0.032 C 
ENDROOT
BRANCH   1   2
ATOM      2  C   UNL     1      18.773 -21.119 -24.845  1.00  0.00    -0.028 C 
ATOM      3  C   UNL     1      19.462 -22.150 -25.391  1.00  0.00    -0.077 C 
ATOM      4  C   UNL     1      20.928 -21.951 -25.677  1.00  0.00     0.039 C 
BRANCH   3   5
ATOM      5  C   UNL     1      18.830 -23.491 -25.720  1.00  0.00     0.034 C 
BRANCH   5   6
ATOM      6  C   UNL     1      19.480 -24.618 -24.905  1.00  0.00     0.032 C 
BRANCH   6   7
ATOM      7  C   UNL     1      18.547 -25.130 -23.831  1.00  0.00    -0.028 C 
ATOM      8  C   UNL     1      19.709 -23.794 -22.067  1.00  0.00     0.039 C 
ATOM      9  C   UNL     1      18.635 -24.746 -22.538  1.00  0.00    -0.080 C 
ATOM     10  C   UNL     1      17.675 -25.305 -21.518  1.00  0.00     0.039 C 
ENDBRANCH   6   7
ENDBRANCH   5   6
ENDBRANCH   3   5
ENDBRANCH   1   2
BRANCH   1  11
ATOM     11  C   UNL     1      17.088 -21.256 -23.008  1.00  0.00     0.034 C 
BRANCH  11  12
ATOM     12  C   UNL     1      15.790 -21.983 -22.713  1.00  0.00    -0.077 C 
ATOM     13  C   UNL     1      14.905 -21.548 -21.788  1.00  0.00    -0.028 C 
ATOM     14  C   UNL     1      15.435 -23.194 -23.537  1.00  0.00     0.039 C 
BRANCH  13  15
ATOM     15  C   UNL     1      15.138 -20.340 -20.908  1.00  0.00     0.035 C 
BRANCH  15  16
ATOM     16  C   UNL     1      14.093 -20.228 -19.788  1.00  0.00     0.079 C 
BRANCH  16  17
ATOM     17  C   UNL     1      13.808 -18.790 -19.430  1.00  0.00     0.130 C 
ATOM     18  O   UNL     1      12.785 -18.260 -19.839  1.00  0.00    -0.300 OA
ATOM     19  C   UNL     1      14.744 -18.001 -18.562  1.00  0.00     0.087 C 
ENDBRANCH  16  17
ENDBRANCH  15  16
ENDBRANCH  13  15
ENDBRANCH  11  12
ENDBRANCH   1  11
TORSDOF 9
ENDMDL
MODEL 9
REMARK VINA RESULT:    -4.852      2.203      4.324
REMARK INTER + INTRA:          -9.845
REMARK INTER:                  -7.770
REMARK INTRA:                  -2.075
REMARK UNBOUND:                -2.441
REMARK SMILES CC(=O)CCC=C(C)CCC=C(C)CCC=C(C)C
REMARK SMILES IDX 10 1 11 2 12 3 13 4 14 5 15 6 16 7 18 8 17 9 19 10 9 11 7 12
REMARK SMILES IDX 6 13 8 14 5 15 4 16 2 17 3 18 1 19
REMARK H PARENT
REMARK Flexibility Score: inf
ROOT
ATOM      1  C   UNL     1      16.393 -17.609 -21.631  1.00  0.00     0.032 C 
ENDROOT
BRANCH   1   2
ATOM      2  C   UNL     1      16.356 -17.697 -20.124  1.00  0.00    -0.028 C 
ATOM      3  C   UNL     1      15.235 -17.688 -19.362  1.00  0.00    -0.077 C 
ATOM      4  C   UNL     1      15.392 -17.818 -17.869  1.00  0.00     0.039 C 
BRANCH   3   5
ATOM      5  C   UNL     1      13.838 -17.549 -19.940  1.00  0.00     0.034 C 
BRANCH   5   6
ATOM      6  C   UNL     1      12.997 -18.802 -19.652  1.00  0.00     0.032 C 
BRANCH   6   7
ATOM      7  C   UNL     1      11.738 -18.823 -20.486  1.00  0.00    -0.028 C 
ATOM      8  C   UNL     1      10.448 -17.612 -18.720  1.00  0.00     0.039 C 
ATOM      9  C   UNL     1      10.576 -18.268 -20.075  1.00  0.00    -0.080 C 
ATOM     10  C   UNL     1       9.354 -18.335 -20.956  1.00  0.00     0.039 C 
ENDBRANCH   6   7
ENDBRANCH   5   6
ENDBRANCH   3   5
ENDBRANCH   1   2
BRANCH   1  11
ATOM     11  C   UNL     1      16.387 -19.013 -22.246  1.00  0.00     0.034 C 
BRANCH  11  12
ATOM     12  C   UNL     1      15.010 -19.352 -22.784  1.00  0.00    -0.077 C 
ATOM     13  C   UNL     1      14.430 -20.558 -22.594  1.00  0.00    -0.028 C 
ATOM     14  C   UNL     1      14.225 -18.279 -23.494  1.00  0.00     0.039 C 
BRANCH  13  15
ATOM     15  C   UNL     1      15.107 -21.712 -21.887  1.00  0.00     0.035 C 
BRANCH  15  16
ATOM     16  C   UNL     1      15.492 -22.839 -22.856  1.00  0.00     0.079 C 
BRANCH  16  17
ATOM     17  C   UNL     1      16.845 -22.601 -23.482  1.00  0.00     0.130 C 
ATOM     18  O   UNL     1      17.850 -22.682 -22.792  1.00  0.00    -0.300 OA
ATOM     19  C   UNL     1      16.984 -22.287 -24.943  1.00  0.00     0.087 C 
ENDBRANCH  16  17
ENDBRANCH  15  16
ENDBRANCH  13  15
ENDBRANCH  11  12
ENDBRANCH   1  11
TORSDOF 9
ENDMDL
