MODEL 1
REMARK VINA RESULT:    -5.086      0.000      0.000
REMARK INTER + INTRA:          -8.366
REMARK INTER:                  -7.762
REMARK INTRA:                  -0.604
REMARK UNBOUND:                -0.604
REMARK SMILES O=C([O-])CCCCCCCCC(=O)[O-]
REMARK SMILES IDX 7 1 6 2 5 3 4 4 2 5 1 6 3 7 8 8 9 9 10 10 11 11 12 12 13 13
REMARK SMILES IDX 14 14
REMARK H PARENT
REMARK Flexibility Score: inf
ROOT
ATOM      1  C   UNL     1      15.733  17.997  36.510  1.00  0.00     0.000 C 
ENDROOT
BRANCH   1   2
ATOM      2  C   UNL     1      15.863  18.123  38.034  1.00  0.00     0.000 C 
BRANCH   2   3
ATOM      3  C   UNL     1      15.291  16.883  38.738  1.00  0.00     0.006 C 
BRANCH   3   4
ATOM      4  C   UNL     1      15.863  15.577  38.172  1.00  0.00     0.053 C 
BRANCH   4   5
ATOM      5  C   UNL     1      14.788  14.566  37.917  1.00  0.00     0.041 C 
ATOM      6  O   UNL     1      14.634  13.592  38.700  1.00  0.00    -0.550 OA
ATOM      7  O   UNL     1      13.934  14.717  36.831  1.00  0.00    -0.550 OA
ENDBRANCH   4   5
ENDBRANCH   3   4
ENDBRANCH   2   3
ENDBRANCH   1   2
BRANCH   1   8
ATOM      8  C   UNL     1      16.871  18.704  35.752  1.00  0.00     0.000 C 
BRANCH   8   9
ATOM      9  C   UNL     1      17.655  17.813  34.768  1.00  0.00     0.000 C 
BRANCH   9  10
ATOM     10  C   UNL     1      18.273  16.545  35.386  1.00  0.00     0.006 C 
BRANCH  10  11
ATOM     11  C   UNL     1      19.214  15.811  34.423  1.00  0.00     0.053 C 
BRANCH  11  12
ATOM     12  C   UNL     1      20.410  16.656  34.117  1.00  0.00     0.041 C 
ATOM     13  O   UNL     1      21.028  17.240  35.046  1.00  0.00    -0.550 OA
ATOM     14  O   UNL     1      20.814  16.839  32.800  1.00  0.00    -0.550 OA
ENDBRANCH  11  12
ENDBRANCH  10  11
ENDBRANCH   9  10
ENDBRANCH   8   9
ENDBRANCH   1   8
TORSDOF 9
ENDMDL
MODEL 2
REMARK VINA RESULT:    -5.021      1.093      6.352
REMARK INTER + INTRA:          -8.266
REMARK INTER:                  -7.776
REMARK INTRA:                  -0.490
REMARK UNBOUND:                -0.604
REMARK SMILES O=C([O-])CCCCCCCCC(=O)[O-]
REMARK SMILES IDX 7 1 6 2 5 3 4 4 2 5 1 6 3 7 8 8 9 9 10 10 11 11 12 12 13 13
REMARK SMILES IDX 14 14
REMARK H PARENT
REMARK Flexibility Score: inf
ROOT
ATOM      1  C   UNL     1      16.896  17.392  35.050  1.00  0.00     0.000 C 
ENDROOT
BRANCH   1   2
ATOM      2  C   UNL     1      18.121  17.807  34.224  1.00  0.00     0.000 C 
BRANCH   2   3
ATOM      3  C   UNL     1      19.403  17.730  35.066  1.00  0.00     0.006 C 
BRANCH   3   4
ATOM      4  C   UNL     1      20.635  18.226  34.298  1.00  0.00     0.053 C 
BRANCH   4   5
ATOM      5  C   UNL     1      21.272  17.127  33.504  1.00  0.00     0.041 C 
ATOM      6  O   UNL     1      21.701  16.093  34.080  1.00  0.00    -0.550 OA
ATOM      7  O   UNL     1      21.364  17.231  32.121  1.00  0.00    -0.550 OA
ENDBRANCH   4   5
ENDBRANCH   3   4
ENDBRANCH   2   3
ENDBRANCH   1   2
BRANCH   1   8
ATOM      8  C   UNL     1      17.195  17.296  36.558  1.00  0.00     0.000 C 
BRANCH   8   9
ATOM      9  C   UNL     1      16.169  17.992  37.474  1.00  0.00     0.000 C 
BRANCH   9  10
ATOM     10  C   UNL     1      15.310  17.044  38.330  1.00  0.00     0.006 C 
BRANCH  10  11
ATOM     11  C   UNL     1      15.824  15.599  38.316  1.00  0.00     0.053 C 
BRANCH  11  12
ATOM     12  C   UNL     1      14.775  14.677  37.780  1.00  0.00     0.041 C 
ATOM     13  O   UNL     1      14.671  13.505  38.229  1.00  0.00    -0.550 OA
ATOM     14  O   UNL     1      13.942  15.095  36.749  1.00  0.00    -0.550 OA
ENDBRANCH  11  12
ENDBRANCH  10  11
ENDBRANCH   9  10
ENDBRANCH   8   9
ENDBRANCH   1   8
TORSDOF 9
ENDMDL
MODEL 3
REMARK VINA RESULT:    -4.957      1.169      1.806
REMARK INTER + INTRA:          -8.169
REMARK INTER:                  -7.577
REMARK INTRA:                  -0.592
REMARK UNBOUND:                -0.604
REMARK SMILES O=C([O-])CCCCCCCCC(=O)[O-]
REMARK SMILES IDX 7 1 6 2 5 3 4 4 2 5 1 6 3 7 8 8 9 9 10 10 11 11 12 12 13 13
REMARK SMILES IDX 14 14
REMARK H PARENT
REMARK Flexibility Score: inf
ROOT
ATOM      1  C   UNL     1      16.226  17.696  35.342  1.00  0.00     0.000 C 
ENDROOT
BRANCH   1   2
ATOM      2  C   UNL     1      16.569  18.114  36.779  1.00  0.00     0.000 C 
BRANCH   2   3
ATOM      3  C   UNL     1      15.802  17.257  37.797  1.00  0.00     0.006 C 
BRANCH   3   4
ATOM      4  C   UNL     1      16.110  15.762  37.649  1.00  0.00     0.053 C 
BRANCH   4   5
ATOM      5  C   UNL     1      14.859  14.941  37.596  1.00  0.00     0.041 C 
ATOM      6  O   UNL     1      14.002  15.146  36.695  1.00  0.00    -0.550 OA
ATOM      7  O   UNL     1      14.653  13.926  38.522  1.00  0.00    -0.550 OA
ENDBRANCH   4   5
ENDBRANCH   3   4
ENDBRANCH   2   3
ENDBRANCH   1   2
BRANCH   1   8
ATOM      8  C   UNL     1      17.474  17.360  34.503  1.00  0.00     0.000 C 
BRANCH   8   9
ATOM      9  C   UNL     1      18.671  18.310  34.703  1.00  0.00     0.000 C 
BRANCH   9  10
ATOM     10  C   UNL     1      20.022  17.615  34.949  1.00  0.00     0.006 C 
BRANCH  10  11
ATOM     11  C   UNL     1      20.337  16.539  33.901  1.00  0.00     0.053 C 
BRANCH  11  12
ATOM     12  C   UNL     1      20.885  17.166  32.658  1.00  0.00     0.041 C 
ATOM     13  O   UNL     1      20.183  17.222  31.614  1.00  0.00    -0.550 OA
ATOM     14  O   UNL     1      22.190  17.645  32.637  1.00  0.00    -0.550 OA
ENDBRANCH  11  12
ENDBRANCH  10  11
ENDBRANCH   9  10
ENDBRANCH   8   9
ENDBRANCH   1   8
TORSDOF 9
ENDMDL
MODEL 4
REMARK VINA RESULT:    -4.919      1.367      6.301
REMARK INTER + INTRA:          -8.112
REMARK INTER:                  -7.452
REMARK INTRA:                  -0.659
REMARK UNBOUND:                -0.604
REMARK SMILES O=C([O-])CCCCCCCCC(=O)[O-]
REMARK SMILES IDX 7 1 6 2 5 3 4 4 2 5 1 6 3 7 8 8 9 9 10 10 11 11 12 12 13 13
REMARK SMILES IDX 14 14
REMARK H PARENT
REMARK Flexibility Score: inf
ROOT
ATOM      1  C   UNL     1      15.971  17.344  35.093  1.00  0.00     0.000 C 
ENDROOT
BRANCH   1   2
ATOM      2  C   UNL     1      17.373  16.747  34.911  1.00  0.00     0.000 C 
BRANCH   2   3
ATOM      3  C   UNL     1      18.330  17.774  34.287  1.00  0.00     0.006 C 
BRANCH   3   4
ATOM      4  C   UNL     1      19.687  17.813  35.002  1.00  0.00     0.053 C 
BRANCH   4   5
ATOM      5  C   UNL     1      20.616  18.804  34.371  1.00  0.00     0.041 C 
ATOM      6  O   UNL     1      21.728  18.430  33.913  1.00  0.00    -0.550 OA
ATOM      7  O   UNL     1      20.241  20.137  34.259  1.00  0.00    -0.550 OA
ENDBRANCH   4   5
ENDBRANCH   3   4
ENDBRANCH   2   3
ENDBRANCH   1   2
BRANCH   1   8
ATOM      8  C   UNL     1      15.933  18.476  36.137  1.00  0.00     0.000 C 
BRANCH   8   9
ATOM      9  C   UNL     1      16.316  18.056  37.571  1.00  0.00     0.000 C 
BRANCH   9  10
ATOM     10  C   UNL     1      15.293  17.153  38.282  1.00  0.00     0.006 C 
BRANCH  10  11
ATOM     11  C   UNL     1      15.748  15.690  38.367  1.00  0.00     0.053 C 
BRANCH  11  12
ATOM     12  C   UNL     1      14.712  14.786  37.776  1.00  0.00     0.041 C 
ATOM     13  O   UNL     1      13.929  15.216  36.888  1.00  0.00    -0.550 OA
ATOM     14  O   UNL     1      14.578  13.484  38.241  1.00  0.00    -0.550 OA
ENDBRANCH  11  12
ENDBRANCH  10  11
ENDBRANCH   9  10
ENDBRANCH   8   9
ENDBRANCH   1   8
TORSDOF 9
ENDMDL
MODEL 5
REMARK VINA RESULT:    -4.860      1.772      6.033
REMARK INTER + INTRA:          -8.021
REMARK INTER:                  -7.223
REMARK INTRA:                  -0.798
REMARK UNBOUND:                -0.604
REMARK SMILES O=C([O-])CCCCCCCCC(=O)[O-]
REMARK SMILES IDX 7 1 6 2 5 3 4 4 2 5 1 6 3 7 8 8 9 9 10 10 11 11 12 12 13 13
REMARK SMILES IDX 14 14
REMARK H PARENT
REMARK Flexibility Score: inf
ROOT
ATOM      1  C   UNL     1      16.604  18.050  36.581  1.00  0.00     0.000 C 
ENDROOT
BRANCH   1   2
ATOM      2  C   UNL     1      17.285  16.697  36.330  1.00  0.00     0.000 C 
BRANCH   2   3
ATOM      3  C   UNL     1      17.380  16.401  34.826  1.00  0.00     0.006 C 
BRANCH   3   4
ATOM      4  C   UNL     1      18.200  17.459  34.076  1.00  0.00     0.053 C 
BRANCH   4   5
ATOM      5  C   UNL     1      19.656  17.373  34.413  1.00  0.00     0.041 C 
ATOM      6  O   UNL     1      20.245  16.260  34.410  1.00  0.00    -0.550 OA
ATOM      7  O   UNL     1      20.374  18.528  34.699  1.00  0.00    -0.550 OA
ENDBRANCH   4   5
ENDBRANCH   3   4
ENDBRANCH   2   3
ENDBRANCH   1   2
BRANCH   1   8
ATOM      8  C   UNL     1      15.758  18.064  37.868  1.00  0.00     0.000 C 
BRANCH   8   9
ATOM      9  C   UNL     1      15.612  16.699  38.570  1.00  0.00     0.000 C 
BRANCH   9  10
ATOM     10  C   UNL     1      14.211  16.068  38.486  1.00  0.00     0.006 C 
BRANCH  10  11
ATOM     11  C   UNL     1      13.966  15.338  37.159  1.00  0.00     0.053 C 
BRANCH  11  12
ATOM     12  C   UNL     1      13.151  16.190  36.238  1.00  0.00     0.041 C 
ATOM     13  O   UNL     1      13.604  16.515  35.109  1.00  0.00    -0.550 OA
ATOM     14  O   UNL     1      11.911  16.668  36.646  1.00  0.00    -0.550 OA
ENDBRANCH  11  12
ENDBRANCH  10  11
ENDBRANCH   9  10
ENDBRANCH   8   9
ENDBRANCH   1   8
TORSDOF 9
ENDMDL
MODEL 6
REMARK VINA RESULT:    -4.779      1.796      2.533
REMARK INTER + INTRA:          -7.898
REMARK INTER:                  -7.462
REMARK INTRA:                  -0.436
REMARK UNBOUND:                -0.604
REMARK SMILES O=C([O-])CCCCCCCCC(=O)[O-]
REMARK SMILES IDX 7 1 6 2 5 3 4 4 2 5 1 6 3 7 8 8 9 9 10 10 11 11 12 12 13 13
REMARK SMILES IDX 14 14
REMARK H PARENT
REMARK Flexibility Score: inf
ROOT
ATOM      1  C   UNL     1      17.465  17.586  34.680  1.00  0.00     0.000 C 
ENDROOT
BRANCH   1   2
ATOM      2  C   UNL     1      16.899  18.553  35.729  1.00  0.00     0.000 C 
BRANCH   2   3
ATOM      3  C   UNL     1      16.598  17.820  37.045  1.00  0.00     0.006 C 
BRANCH   3   4
ATOM      4  C   UNL     1      16.767  16.301  36.916  1.00  0.00     0.053 C 
BRANCH   4   5
ATOM      5  C   UNL     1      15.502  15.573  37.251  1.00  0.00     0.041 C 
ATOM      6  O   UNL     1      15.451  14.818  38.258  1.00  0.00    -0.550 OA
ATOM      7  O   UNL     1      14.367  15.753  36.470  1.00  0.00    -0.550 OA
ENDBRANCH   4   5
ENDBRANCH   3   4
ENDBRANCH   2   3
ENDBRANCH   1   2
BRANCH   1   8
ATOM      8  C   UNL     1      18.908  17.931  34.264  1.00  0.00     0.000 C 
BRANCH   8   9
ATOM      9  C   UNL     1      19.134  18.075  32.746  1.00  0.00     0.000 C 
BRANCH   9  10
ATOM     10  C   UNL     1      20.333  17.287  32.187  1.00  0.00     0.006 C 
BRANCH  10  11
ATOM     11  C   UNL     1      21.662  18.036  32.345  1.00  0.00     0.053 C 
BRANCH  11  12
ATOM     12  C   UNL     1      22.537  17.342  33.341  1.00  0.00     0.041 C 
ATOM     13  O   UNL     1      23.739  17.690  33.480  1.00  0.00    -0.550 OA
ATOM     14  O   UNL     1      22.038  16.277  34.082  1.00  0.00    -0.550 OA
ENDBRANCH  11  12
ENDBRANCH  10  11
ENDBRANCH   9  10
ENDBRANCH   8   9
ENDBRANCH   1   8
TORSDOF 9
ENDMDL
MODEL 7
REMARK VINA RESULT:    -4.687      2.358      6.338
REMARK INTER + INTRA:          -7.758
REMARK INTER:                  -7.133
REMARK INTRA:                  -0.625
REMARK UNBOUND:                -0.604
REMARK SMILES O=C([O-])CCCCCCCCC(=O)[O-]
REMARK SMILES IDX 7 1 6 2 5 3 4 4 2 5 1 6 3 7 8 8 9 9 10 10 11 11 12 12 13 13
REMARK SMILES IDX 14 14
REMARK H PARENT
REMARK Flexibility Score: inf
ROOT
ATOM      1  C   UNL     1      17.280  17.462  36.777  1.00  0.00     0.000 C 
ENDROOT
BRANCH   1   2
ATOM      2  C   UNL     1      17.224  18.492  35.639  1.00  0.00     0.000 C 
BRANCH   2   3
ATOM      3  C   UNL     1      18.531  18.490  34.833  1.00  0.00     0.006 C 
BRANCH   3   4
ATOM      4  C   UNL     1      18.563  17.375  33.780  1.00  0.00     0.053 C 
BRANCH   4   5
ATOM      5  C   UNL     1      19.442  16.238  34.203  1.00  0.00     0.041 C 
ATOM      6  O   UNL     1      18.937  15.129  34.522  1.00  0.00    -0.550 OA
ATOM      7  O   UNL     1      20.823  16.392  34.214  1.00  0.00    -0.550 OA
ENDBRANCH   4   5
ENDBRANCH   3   4
ENDBRANCH   2   3
ENDBRANCH   1   2
BRANCH   1   8
ATOM      8  C   UNL     1      16.264  16.319  36.599  1.00  0.00     0.000 C 
BRANCH   8   9
ATOM      9  C   UNL     1      15.092  16.628  35.645  1.00  0.00     0.000 C 
BRANCH   9  10
ATOM     10  C   UNL     1      13.743  16.004  36.046  1.00  0.00     0.006 C 
BRANCH  10  11
ATOM     11  C   UNL     1      12.622  17.044  36.176  1.00  0.00     0.053 C 
BRANCH  11  12
ATOM     12  C   UNL     1      12.293  17.278  37.616  1.00  0.00     0.041 C 
ATOM     13  O   UNL     1      11.198  17.813  37.937  1.00  0.00    -0.550 OA
ATOM     14  O   UNL     1      13.216  16.953  38.603  1.00  0.00    -0.550 OA
ENDBRANCH  11  12
ENDBRANCH  10  11
ENDBRANCH   9  10
ENDBRANCH   8   9
ENDBRANCH   1   8
TORSDOF 9
ENDMDL
MODEL 8
REMARK VINA RESULT:    -4.654      8.450      9.915
REMARK INTER + INTRA:          -7.707
REMARK INTER:                  -7.036
REMARK INTRA:                  -0.671
REMARK UNBOUND:                -0.604
REMARK SMILES O=C([O-])CCCCCCCCC(=O)[O-]
REMARK SMILES IDX 7 1 6 2 5 3 4 4 2 5 1 6 3 7 8 8 9 9 10 10 11 11 12 12 13 13
REMARK SMILES IDX 14 14
REMARK H PARENT
REMARK Flexibility Score: inf
ROOT
ATOM      1  C   UNL     1       9.914  19.094  32.243  1.00  0.00     0.000 C 
ENDROOT
BRANCH   1   2
ATOM      2  C   UNL     1       9.598  18.171  33.429  1.00  0.00     0.000 C 
BRANCH   2   3
ATOM      3  C   UNL     1       8.245  18.534  34.061  1.00  0.00     0.006 C 
BRANCH   3   4
ATOM      4  C   UNL     1       7.909  17.645  35.265  1.00  0.00     0.053 C 
BRANCH   4   5
ATOM      5  C   UNL     1       8.970  17.717  36.320  1.00  0.00     0.041 C 
ATOM      6  O   UNL     1       9.163  18.787  36.955  1.00  0.00    -0.550 OA
ATOM      7  O   UNL     1       9.724  16.590  36.626  1.00  0.00    -0.550 OA
ENDBRANCH   4   5
ENDBRANCH   3   4
ENDBRANCH   2   3
ENDBRANCH   1   2
BRANCH   1   8
ATOM      8  C   UNL     1       9.021  18.823  31.019  1.00  0.00     0.000 C 
BRANCH   8   9
ATOM      9  C   UNL     1       8.290  20.059  30.456  1.00  0.00     0.000 C 
BRANCH   9  10
ATOM     10  C   UNL     1       7.993  21.166  31.483  1.00  0.00     0.006 C 
BRANCH  10  11
ATOM     11  C   UNL     1       8.541  22.535  31.059  1.00  0.00     0.053 C 
BRANCH  11  12
ATOM     12  C   UNL     1       9.637  22.966  31.982  1.00  0.00     0.041 C 
ATOM     13  O   UNL     1       9.667  22.548  33.169  1.00  0.00    -0.550 OA
ATOM     14  O   UNL     1      10.598  23.871  31.545  1.00  0.00    -0.550 OA
ENDBRANCH  11  12
ENDBRANCH  10  11
ENDBRANCH   9  10
ENDBRANCH   8   9
ENDBRANCH   1   8
TORSDOF 9
ENDMDL
MODEL 9
REMARK VINA RESULT:    -4.652      1.868      7.104
REMARK INTER + INTRA:          -7.704
REMARK INTER:                  -7.344
REMARK INTRA:                  -0.360
REMARK UNBOUND:                -0.604
REMARK SMILES O=C([O-])CCCCCCCCC(=O)[O-]
REMARK SMILES IDX 7 1 6 2 5 3 4 4 2 5 1 6 3 7 8 8 9 9 10 10 11 11 12 12 13 13
REMARK SMILES IDX 14 14
REMARK H PARENT
REMARK Flexibility Score: inf
ROOT
ATOM      1  C   UNL     1      19.212  18.328  34.249  1.00  0.00     0.000 C 
ENDROOT
BRANCH   1   2
ATOM      2  C   UNL     1      19.194  18.106  32.730  1.00  0.00     0.000 C 
BRANCH   2   3
ATOM      3  C   UNL     1      20.395  17.259  32.284  1.00  0.00     0.006 C 
BRANCH   3   4
ATOM      4  C   UNL     1      21.726  18.001  32.459  1.00  0.00     0.053 C 
BRANCH   4   5
ATOM      5  C   UNL     1      22.627  17.302  33.431  1.00  0.00     0.041 C 
ATOM      6  O   UNL     1      23.832  17.648  33.542  1.00  0.00    -0.550 OA
ATOM      7  O   UNL     1      22.125  16.289  34.240  1.00  0.00    -0.550 OA
ENDBRANCH   4   5
ENDBRANCH   3   4
ENDBRANCH   2   3
ENDBRANCH   1   2
BRANCH   1   8
ATOM      8  C   UNL     1      18.616  17.145  35.034  1.00  0.00     0.000 C 
BRANCH   8   9
ATOM      9  C   UNL     1      17.603  17.532  36.130  1.00  0.00     0.000 C 
BRANCH   9  10
ATOM     10  C   UNL     1      16.279  16.747  36.101  1.00  0.00     0.006 C 
BRANCH  10  11
ATOM     11  C   UNL     1      16.090  15.853  37.334  1.00  0.00     0.053 C 
BRANCH  11  12
ATOM     12  C   UNL     1      14.642  15.529  37.526  1.00  0.00     0.041 C 
ATOM     13  O   UNL     1      13.992  14.964  36.607  1.00  0.00    -0.550 OA
ATOM     14  O   UNL     1      13.996  15.897  38.700  1.00  0.00    -0.550 OA
ENDBRANCH  11  12
ENDBRANCH  10  11
ENDBRANCH   9  10
ENDBRANCH   8   9
ENDBRANCH   1   8
TORSDOF 9
ENDMDL
