MODEL 1
REMARK VINA RESULT:    -6.096      0.000      0.000
REMARK INTER + INTRA:          -6.096
REMARK INTER:                  -6.096
REMARK INTRA:                   0.000
REMARK UNBOUND:                 0.000
REMARK SMILES O=c1ccc2ccc3occc3c2o1
REMARK SMILES IDX 6 1 7 2 8 3 12 4 11 5 10 6 9 7 13 8 5 9 4 10 3 11 2 12 1 13
REMARK SMILES IDX 14 14
REMARK H PARENT
REMARK Flexibility Score: inf
ROOT
ATOM      1  C   UNL     1       9.715 -12.806 -23.143  1.00  0.00     0.016 A 
ATOM      2  C   UNL     1       9.739 -13.490 -24.373  1.00  0.00     0.048 A 
ATOM      3  C   UNL     1      10.151 -14.823 -24.375  1.00  0.00     0.137 A 
ATOM      4  C   UNL     1      10.525 -15.466 -23.226  1.00  0.00     0.064 A 
ATOM      5  C   UNL     1      10.869 -16.750 -23.580  1.00  0.00     0.054 A 
ATOM      6  C   UNL     1      10.674 -16.798 -24.955  1.00  0.00     0.196 A 
ATOM      7  O   UNL     1      10.245 -15.630 -25.402  1.00  0.00    -0.464 OA
ATOM      8  C   UNL     1      10.515 -14.823 -21.989  1.00  0.00     0.149 A 
ATOM      9  C   UNL     1      10.101 -13.467 -21.951  1.00  0.00     0.018 A 
ATOM     10  C   UNL     1      10.089 -12.818 -20.714  1.00  0.00     0.019 A 
ATOM     11  C   UNL     1      10.479 -13.515 -19.569  1.00  0.00     0.094 A 
ATOM     12  C   UNL     1      10.875 -14.853 -19.688  1.00  0.00     0.336 A 
ATOM     13  O   UNL     1      11.230 -15.496 -18.665  1.00  0.00    -0.246 OA
ATOM     14  O   UNL     1      10.880 -15.454 -20.876  1.00  0.00    -0.422 OA
ENDROOT
TORSDOF 0
ENDMDL
MODEL 2
REMARK VINA RESULT:    -5.993      1.576      4.173
REMARK INTER + INTRA:          -5.993
REMARK INTER:                  -5.993
REMARK INTRA:                   0.000
REMARK UNBOUND:                 0.000
REMARK SMILES O=c1ccc2ccc3occc3c2o1
REMARK SMILES IDX 6 1 7 2 8 3 12 4 11 5 10 6 9 7 13 8 5 9 4 10 3 11 2 12 1 13
REMARK SMILES IDX 14 14
REMARK H PARENT
REMARK Flexibility Score: inf
ROOT
ATOM      1  C   UNL     1      10.010 -13.910 -24.125  1.00  0.00     0.016 A 
ATOM      2  C   UNL     1       9.798 -13.121 -22.978  1.00  0.00     0.048 A 
ATOM      3  C   UNL     1      10.146 -13.658 -21.739  1.00  0.00     0.137 A 
ATOM      4  C   UNL     1      10.679 -14.913 -21.619  1.00  0.00     0.064 A 
ATOM      5  C   UNL     1      10.901 -15.126 -20.278  1.00  0.00     0.054 A 
ATOM      6  C   UNL     1      10.477 -13.954 -19.663  1.00  0.00     0.196 A 
ATOM      7  O   UNL     1      10.030 -13.096 -20.562  1.00  0.00    -0.464 OA
ATOM      8  C   UNL     1      10.904 -15.724 -22.729  1.00  0.00     0.149 A 
ATOM      9  C   UNL     1      10.562 -15.209 -24.006  1.00  0.00     0.018 A 
ATOM     10  C   UNL     1      10.786 -16.017 -25.124  1.00  0.00     0.019 A 
ATOM     11  C   UNL     1      11.332 -17.290 -24.950  1.00  0.00     0.094 A 
ATOM     12  C   UNL     1      11.643 -17.729 -23.657  1.00  0.00     0.336 A 
ATOM     13  O   UNL     1      12.137 -18.874 -23.485  1.00  0.00    -0.246 OA
ATOM     14  O   UNL     1      11.422 -16.942 -22.606  1.00  0.00    -0.422 OA
ENDROOT
TORSDOF 0
ENDMDL
MODEL 3
REMARK VINA RESULT:    -5.928      1.900      4.273
REMARK INTER + INTRA:          -5.928
REMARK INTER:                  -5.928
REMARK INTRA:                   0.000
REMARK UNBOUND:                 0.000
REMARK SMILES O=c1ccc2ccc3occc3c2o1
REMARK SMILES IDX 6 1 7 2 8 3 12 4 11 5 10 6 9 7 13 8 5 9 4 10 3 11 2 12 1 13
REMARK SMILES IDX 14 14
REMARK H PARENT
REMARK Flexibility Score: inf
ROOT
ATOM      1  C   UNL     1      10.238 -15.468 -20.537  1.00  0.00     0.016 A 
ATOM      2  C   UNL     1       9.962 -14.088 -20.541  1.00  0.00     0.048 A 
ATOM      3  C   UNL     1      10.104 -13.394 -21.743  1.00  0.00     0.137 A 
ATOM      4  C   UNL     1      10.499 -14.018 -22.896  1.00  0.00     0.064 A 
ATOM      5  C   UNL     1      10.537 -13.056 -23.878  1.00  0.00     0.054 A 
ATOM      6  C   UNL     1      10.151 -11.885 -23.236  1.00  0.00     0.196 A 
ATOM      7  O   UNL     1       9.900 -12.119 -21.960  1.00  0.00    -0.464 OA
ATOM      8  C   UNL     1      10.782 -15.382 -22.932  1.00  0.00     0.149 A 
ATOM      9  C   UNL     1      10.647 -16.118 -21.727  1.00  0.00     0.018 A 
ATOM     10  C   UNL     1      10.929 -17.487 -21.758  1.00  0.00     0.019 A 
ATOM     11  C   UNL     1      11.328 -18.078 -22.957  1.00  0.00     0.094 A 
ATOM     12  C   UNL     1      11.439 -17.284 -24.106  1.00  0.00     0.336 A 
ATOM     13  O   UNL     1      11.798 -17.802 -25.195  1.00  0.00    -0.246 OA
ATOM     14  O   UNL     1      11.165 -15.982 -24.055  1.00  0.00    -0.422 OA
ENDROOT
TORSDOF 0
ENDMDL
MODEL 4
REMARK VINA RESULT:    -5.738      2.347      4.521
REMARK INTER + INTRA:          -5.738
REMARK INTER:                  -5.738
REMARK INTRA:                   0.000
REMARK UNBOUND:                 0.000
REMARK SMILES O=c1ccc2ccc3occc3c2o1
REMARK SMILES IDX 6 1 7 2 8 3 12 4 11 5 10 6 9 7 13 8 5 9 4 10 3 11 2 12 1 13
REMARK SMILES IDX 14 14
REMARK H PARENT
REMARK Flexibility Score: inf
ROOT
ATOM      1  C   UNL     1       8.576 -15.057 -24.024  1.00  0.00     0.016 A 
ATOM      2  C   UNL     1       8.791 -15.831 -22.868  1.00  0.00     0.048 A 
ATOM      3  C   UNL     1       9.356 -15.206 -21.756  1.00  0.00     0.137 A 
ATOM      4  C   UNL     1       9.699 -13.881 -21.768  1.00  0.00     0.064 A 
ATOM      5  C   UNL     1      10.223 -13.592 -20.529  1.00  0.00     0.054 A 
ATOM      6  C   UNL     1      10.159 -14.794 -19.834  1.00  0.00     0.196 A 
ATOM      7  O   UNL     1       9.637 -15.741 -20.594  1.00  0.00    -0.464 OA
ATOM      8  C   UNL     1       9.502 -13.082 -22.892  1.00  0.00     0.149 A 
ATOM      9  C   UNL     1       8.929 -13.686 -24.041  1.00  0.00     0.018 A 
ATOM     10  C   UNL     1       8.728 -12.889 -25.172  1.00  0.00     0.019 A 
ATOM     11  C   UNL     1       9.094 -11.543 -25.136  1.00  0.00     0.094 A 
ATOM     12  C   UNL     1       9.655 -11.019 -23.964  1.00  0.00     0.336 A 
ATOM     13  O   UNL     1       9.990  -9.807 -23.915  1.00  0.00    -0.246 OA
ATOM     14  O   UNL     1       9.837 -11.795 -22.897  1.00  0.00    -0.422 OA
ENDROOT
TORSDOF 0
ENDMDL
MODEL 5
REMARK VINA RESULT:    -5.499      1.570      2.854
REMARK INTER + INTRA:          -5.499
REMARK INTER:                  -5.499
REMARK INTRA:                   0.000
REMARK UNBOUND:                 0.000
REMARK SMILES O=c1ccc2ccc3occc3c2o1
REMARK SMILES IDX 6 1 7 2 8 3 12 4 11 5 10 6 9 7 13 8 5 9 4 10 3 11 2 12 1 13
REMARK SMILES IDX 14 14
REMARK H PARENT
REMARK Flexibility Score: inf
ROOT
ATOM      1  C   UNL     1       9.495 -16.126 -23.311  1.00  0.00     0.016 A 
ATOM      2  C   UNL     1       9.071 -15.481 -24.488  1.00  0.00     0.048 A 
ATOM      3  C   UNL     1       9.009 -14.087 -24.486  1.00  0.00     0.137 A 
ATOM      4  C   UNL     1       9.346 -13.350 -23.383  1.00  0.00     0.064 A 
ATOM      5  C   UNL     1       9.173 -12.027 -23.718  1.00  0.00     0.054 A 
ATOM      6  C   UNL     1       8.732 -12.055 -25.036  1.00  0.00     0.196 A 
ATOM      7  O   UNL     1       8.644 -13.301 -25.467  1.00  0.00    -0.464 OA
ATOM      8  C   UNL     1       9.770 -13.952 -22.200  1.00  0.00     0.149 A 
ATOM      9  C   UNL     1       9.845 -15.368 -22.167  1.00  0.00     0.018 A 
ATOM     10  C   UNL     1      10.270 -15.977 -20.984  1.00  0.00     0.019 A 
ATOM     11  C   UNL     1      10.603 -15.183 -19.885  1.00  0.00     0.094 A 
ATOM     12  C   UNL     1      10.503 -13.791 -19.994  1.00  0.00     0.336 A 
ATOM     13  O   UNL     1      10.800 -13.060 -19.013  1.00  0.00    -0.246 OA
ATOM     14  O   UNL     1      10.096 -13.230 -21.132  1.00  0.00    -0.422 OA
ENDROOT
TORSDOF 0
ENDMDL
MODEL 6
REMARK VINA RESULT:    -5.459      1.666      2.735
REMARK INTER + INTRA:          -5.459
REMARK INTER:                  -5.459
REMARK INTRA:                   0.000
REMARK UNBOUND:                 0.000
REMARK SMILES O=c1ccc2ccc3occc3c2o1
REMARK SMILES IDX 6 1 7 2 8 3 12 4 11 5 10 6 9 7 13 8 5 9 4 10 3 11 2 12 1 13
REMARK SMILES IDX 14 14
REMARK H PARENT
REMARK Flexibility Score: inf
ROOT
ATOM      1  C   UNL     1      10.419 -17.427 -21.747  1.00  0.00     0.016 A 
ATOM      2  C   UNL     1      10.190 -17.843 -23.073  1.00  0.00     0.048 A 
ATOM      3  C   UNL     1       9.883 -16.867 -24.022  1.00  0.00     0.137 A 
ATOM      4  C   UNL     1       9.803 -15.541 -23.695  1.00  0.00     0.064 A 
ATOM      5  C   UNL     1       9.486 -14.863 -24.850  1.00  0.00     0.054 A 
ATOM      6  C   UNL     1       9.395 -15.853 -25.822  1.00  0.00     0.196 A 
ATOM      7  O   UNL     1       9.637 -17.041 -25.296  1.00  0.00    -0.464 OA
ATOM      8  C   UNL     1      10.023 -15.090 -22.395  1.00  0.00     0.149 A 
ATOM      9  C   UNL     1      10.337 -16.056 -21.404  1.00  0.00     0.018 A 
ATOM     10  C   UNL     1      10.559 -15.610 -20.098  1.00  0.00     0.019 A 
ATOM     11  C   UNL     1      10.465 -14.246 -19.814  1.00  0.00     0.094 A 
ATOM     12  C   UNL     1      10.150 -13.354 -20.847  1.00  0.00     0.336 A 
ATOM     13  O   UNL     1      10.062 -12.121 -20.607  1.00  0.00    -0.246 OA
ATOM     14  O   UNL     1       9.942 -13.800 -22.085  1.00  0.00    -0.422 OA
ENDROOT
TORSDOF 0
ENDMDL
MODEL 7
REMARK VINA RESULT:    -5.314      1.999      3.035
REMARK INTER + INTRA:          -5.314
REMARK INTER:                  -5.314
REMARK INTRA:                   0.000
REMARK UNBOUND:                 0.000
REMARK SMILES O=c1ccc2ccc3occc3c2o1
REMARK SMILES IDX 6 1 7 2 8 3 12 4 11 5 10 6 9 7 13 8 5 9 4 10 3 11 2 12 1 13
REMARK SMILES IDX 14 14
REMARK H PARENT
REMARK Flexibility Score: inf
ROOT
ATOM      1  C   UNL     1      10.533 -16.630 -21.137  1.00  0.00     0.016 A 
ATOM      2  C   UNL     1      10.759 -17.643 -22.088  1.00  0.00     0.048 A 
ATOM      3  C   UNL     1      10.850 -17.274 -23.430  1.00  0.00     0.137 A 
ATOM      4  C   UNL     1      10.727 -15.971 -23.832  1.00  0.00     0.064 A 
ATOM      5  C   UNL     1      10.866 -15.960 -25.200  1.00  0.00     0.054 A 
ATOM      6  C   UNL     1      11.069 -17.292 -25.542  1.00  0.00     0.196 A 
ATOM      7  O   UNL     1      11.054 -18.054 -24.462  1.00  0.00    -0.464 OA
ATOM      8  C   UNL     1      10.504 -14.940 -22.921  1.00  0.00     0.149 A 
ATOM      9  C   UNL     1      10.405 -15.280 -21.547  1.00  0.00     0.018 A 
ATOM     10  C   UNL     1      10.181 -14.251 -20.629  1.00  0.00     0.019 A 
ATOM     11  C   UNL     1      10.063 -12.938 -21.087  1.00  0.00     0.094 A 
ATOM     12  C   UNL     1      10.171 -12.681 -22.460  1.00  0.00     0.336 A 
ATOM     13  O   UNL     1      10.067 -11.502 -22.889  1.00  0.00    -0.246 OA
ATOM     14  O   UNL     1      10.385 -13.677 -23.318  1.00  0.00    -0.422 OA
ENDROOT
TORSDOF 0
ENDMDL
MODEL 8
REMARK VINA RESULT:    -5.205      3.719      5.383
REMARK INTER + INTRA:          -5.205
REMARK INTER:                  -5.205
REMARK INTRA:                   0.000
REMARK UNBOUND:                 0.000
REMARK SMILES O=c1ccc2ccc3occc3c2o1
REMARK SMILES IDX 6 1 7 2 8 3 12 4 11 5 10 6 9 7 13 8 5 9 4 10 3 11 2 12 1 13
REMARK SMILES IDX 14 14
REMARK H PARENT
REMARK Flexibility Score: inf
ROOT
ATOM      1  C   UNL     1       8.188 -12.318 -26.380  1.00  0.00     0.016 A 
ATOM      2  C   UNL     1       8.210 -11.078 -27.046  1.00  0.00     0.048 A 
ATOM      3  C   UNL     1       8.731  -9.977 -26.365  1.00  0.00     0.137 A 
ATOM      4  C   UNL     1       9.211 -10.079 -25.087  1.00  0.00     0.064 A 
ATOM      5  C   UNL     1       9.642  -8.825 -24.721  1.00  0.00     0.054 A 
ATOM      6  C   UNL     1       9.387  -8.029 -25.833  1.00  0.00     0.196 A 
ATOM      7  O   UNL     1       8.841  -8.747 -26.799  1.00  0.00    -0.464 OA
ATOM      8  C   UNL     1       9.206 -11.288 -24.395  1.00  0.00     0.149 A 
ATOM      9  C   UNL     1       8.683 -12.428 -25.059  1.00  0.00     0.018 A 
ATOM     10  C   UNL     1       8.676 -13.644 -24.370  1.00  0.00     0.019 A 
ATOM     11  C   UNL     1       9.177 -13.698 -23.068  1.00  0.00     0.094 A 
ATOM     12  C   UNL     1       9.676 -12.528 -22.480  1.00  0.00     0.336 A 
ATOM     13  O   UNL     1      10.131 -12.560 -21.307  1.00  0.00    -0.246 OA
ATOM     14  O   UNL     1       9.674 -11.380 -23.154  1.00  0.00    -0.422 OA
ENDROOT
TORSDOF 0
ENDMDL
MODEL 9
REMARK VINA RESULT:    -5.180     16.706     17.399
REMARK INTER + INTRA:          -5.180
REMARK INTER:                  -5.180
REMARK INTRA:                   0.000
REMARK UNBOUND:                 0.000
REMARK SMILES O=c1ccc2ccc3occc3c2o1
REMARK SMILES IDX 6 1 7 2 8 3 12 4 11 5 10 6 9 7 13 8 5 9 4 10 3 11 2 12 1 13
REMARK SMILES IDX 14 14
REMARK H PARENT
REMARK Flexibility Score: inf
ROOT
ATOM      1  C   UNL     1      23.242  -6.903 -30.515  1.00  0.00     0.016 A 
ATOM      2  C   UNL     1      23.152  -5.726 -31.284  1.00  0.00     0.048 A 
ATOM      3  C   UNL     1      23.181  -4.502 -30.616  1.00  0.00     0.137 A 
ATOM      4  C   UNL     1      23.292  -4.425 -29.254  1.00  0.00     0.064 A 
ATOM      5  C   UNL     1      23.288  -3.088 -28.927  1.00  0.00     0.054 A 
ATOM      6  C   UNL     1      23.174  -2.431 -30.147  1.00  0.00     0.196 A 
ATOM      7  O   UNL     1      23.111  -3.304 -31.138  1.00  0.00    -0.464 OA
ATOM      8  C   UNL     1      23.382  -5.566 -28.458  1.00  0.00     0.149 A 
ATOM      9  C   UNL     1      23.356  -6.828 -29.106  1.00  0.00     0.018 A 
ATOM     10  C   UNL     1      23.447  -7.975 -28.314  1.00  0.00     0.019 A 
ATOM     11  C   UNL     1      23.559  -7.845 -26.928  1.00  0.00     0.094 A 
ATOM     12  C   UNL     1      23.577  -6.564 -26.363  1.00  0.00     0.336 A 
ATOM     13  O   UNL     1      23.677  -6.430 -25.115  1.00  0.00    -0.246 OA
ATOM     14  O   UNL     1      23.489  -5.483 -27.135  1.00  0.00    -0.422 OA
ENDROOT
TORSDOF 0
ENDMDL
