MODEL 1
REMARK VINA RESULT:    -7.729      0.000      0.000
REMARK INTER + INTRA:         -10.998
REMARK INTER:                 -10.667
REMARK INTRA:                  -0.331
REMARK UNBOUND:                -0.331
REMARK SMILES O=C([O-])[C@H]1O[C@H](Oc2cc3oc(-c4ccccc4)cc(=O)c3c(O)c2O)[C@H](O)[C@H](O)[C@H]1O
REMARK SMILES IDX 7 1 6 2 4 3 31 4 5 5 29 6 27 7 2 8 1 9 3 10 32 11 30 13
REMARK SMILES IDX 28 15 8 17 25 18 9 19 23 20 10 21 22 22 11 23 20 24 12 25
REMARK SMILES IDX 19 26 21 27 26 28 24 30 13 32 14 33 18 34 15 35 17 36 16 37
REMARK H PARENT 32 12 30 14 28 16 26 29 24 31
REMARK Flexibility Score: inf
ROOT
ATOM      1  O   UNL     1     -10.550 -43.030   4.239  1.00  0.00    -0.458 OA
ENDROOT
BRANCH   1   2
ATOM      2  C   UNL     1      -9.390 -43.199   3.418  1.00  0.00     0.339 C 
ATOM      3  C   UNL     1      -9.230 -40.901   2.951  1.00  0.00     0.199 C 
ATOM      4  C   UNL     1      -7.891 -40.720   3.718  1.00  0.00     0.180 C 
ATOM      5  O   UNL     1      -9.322 -42.208   2.402  1.00  0.00    -0.328 OA
ATOM      6  C   UNL     1      -7.717 -41.808   4.803  1.00  0.00     0.181 C 
ATOM      7  C   UNL     1      -8.094 -43.210   4.264  1.00  0.00     0.214 C 
BRANCH   3   8
ATOM      8  C   UNL     1      -9.368 -39.891   1.844  1.00  0.00     0.073 C 
ATOM      9  O   UNL     1      -8.557 -39.898   0.878  1.00  0.00    -0.547 OA
ATOM     10  O   UNL     1     -10.440 -39.005   1.825  1.00  0.00    -0.547 OA
ENDBRANCH   3   8
BRANCH   4  11
ATOM     11  O   UNL     1      -6.788 -40.719   2.840  1.00  0.00    -0.387 OA
ATOM     12  H   UNL     1      -5.966 -40.864   3.378  1.00  0.00     0.211 HD
ENDBRANCH   4  11
BRANCH   6  13
ATOM     13  O   UNL     1      -8.430 -41.477   5.973  1.00  0.00    -0.387 OA
ATOM     14  H   UNL     1      -8.449 -42.273   6.561  1.00  0.00     0.211 HD
ENDBRANCH   6  13
BRANCH   7  15
ATOM     15  O   UNL     1      -8.152 -44.169   5.294  1.00  0.00    -0.384 OA
ATOM     16  H   UNL     1      -7.339 -44.735   5.234  1.00  0.00     0.211 HD
ENDBRANCH   7  15
ENDBRANCH   1   2
BRANCH   1  17
ATOM     17  C   UNL     1     -11.649 -42.184   3.996  1.00  0.00     0.172 A 
ATOM     18  C   UNL     1     -12.303 -42.060   2.749  1.00  0.00     0.201 A 
ATOM     19  C   UNL     1     -12.096 -41.422   5.076  1.00  0.00     0.098 A 
ATOM     20  C   UNL     1     -13.384 -41.163   2.597  1.00  0.00     0.176 A 
ATOM     21  C   UNL     1     -13.186 -40.562   4.957  1.00  0.00     0.146 A 
ATOM     22  C   UNL     1     -13.871 -40.438   3.724  1.00  0.00     0.111 A 
ATOM     23  O   UNL     1     -13.570 -39.870   6.025  1.00  0.00    -0.456 OA
ATOM     24  C   UNL     1     -15.029 -39.623   3.717  1.00  0.00     0.197 A 
ATOM     25  C   UNL     1     -14.610 -39.043   6.026  1.00  0.00     0.138 A 
ATOM     26  C   UNL     1     -15.383 -38.911   4.865  1.00  0.00     0.100 A 
ATOM     27  O   UNL     1     -15.787 -39.548   2.716  1.00  0.00    -0.289 OA
BRANCH  18  28
ATOM     28  O   UNL     1     -11.880 -42.815   1.654  1.00  0.00    -0.502 OA
ATOM     29  H   UNL     1     -12.511 -43.364   1.084  1.00  0.00     0.293 HD
ENDBRANCH  18  28
BRANCH  20  30
ATOM     30  O   UNL     1     -13.912 -41.007   1.311  1.00  0.00    -0.504 OA
ATOM     31  H   UNL     1     -13.487 -41.365   0.468  1.00  0.00     0.293 HD
ENDBRANCH  20  30
BRANCH  25  32
ATOM     32  C   UNL     1     -14.931 -38.300   7.271  1.00  0.00     0.017 A 
ATOM     33  C   UNL     1     -15.823 -37.208   7.273  1.00  0.00     0.012 A 
ATOM     34  C   UNL     1     -14.299 -38.660   8.477  1.00  0.00     0.012 A 
ATOM     35  C   UNL     1     -16.086 -36.509   8.457  1.00  0.00     0.001 A 
ATOM     36  C   UNL     1     -14.566 -37.959   9.657  1.00  0.00     0.001 A 
ATOM     37  C   UNL     1     -15.458 -36.884   9.647  1.00  0.00     0.000 A 
ENDBRANCH  25  32
ENDBRANCH   1  17
TORSDOF 9
ENDMDL
MODEL 2
REMARK VINA RESULT:    -7.597      2.621      4.542
REMARK INTER + INTRA:         -10.816
REMARK INTER:                  -9.509
REMARK INTRA:                  -1.306
REMARK UNBOUND:                -0.331
REMARK SMILES O=C([O-])[C@H]1O[C@H](Oc2cc3oc(-c4ccccc4)cc(=O)c3c(O)c2O)[C@H](O)[C@H](O)[C@H]1O
REMARK SMILES IDX 7 1 6 2 4 3 31 4 5 5 29 6 27 7 2 8 1 9 3 10 32 11 30 13
REMARK SMILES IDX 28 15 8 17 25 18 9 19 23 20 10 21 22 22 11 23 20 24 12 25
REMARK SMILES IDX 19 26 21 27 26 28 24 30 13 32 14 33 18 34 15 35 17 36 16 37
REMARK H PARENT 32 12 30 14 28 16 26 29 24 31
REMARK Flexibility Score: inf
ROOT
ATOM      1  O   UNL     1      -7.443 -41.709   2.644  1.00  0.00    -0.458 OA
ENDROOT
BRANCH   1   2
ATOM      2  C   UNL     1      -7.524 -41.988   1.242  1.00  0.00     0.339 C 
ATOM      3  C   UNL     1      -5.645 -40.668   0.742  1.00  0.00     0.199 C 
ATOM      4  C   UNL     1      -4.772 -41.873   0.295  1.00  0.00     0.180 C 
ATOM      5  O   UNL     1      -7.017 -40.911   0.467  1.00  0.00    -0.328 OA
ATOM      6  C   UNL     1      -5.260 -43.188   0.946  1.00  0.00     0.181 C 
ATOM      7  C   UNL     1      -6.803 -43.311   0.886  1.00  0.00     0.214 C 
BRANCH   3   8
ATOM      8  C   UNL     1      -5.222 -39.399   0.053  1.00  0.00     0.073 C 
ATOM      9  O   UNL     1      -5.627 -39.150  -1.115  1.00  0.00    -0.547 OA
ATOM     10  O   UNL     1      -4.462 -38.448   0.726  1.00  0.00    -0.547 OA
ENDBRANCH   3   8
BRANCH   4  11
ATOM     11  O   UNL     1      -4.744 -41.999  -1.109  1.00  0.00    -0.387 OA
ATOM     12  H   UNL     1      -4.057 -41.376  -1.461  1.00  0.00     0.211 HD
ENDBRANCH   4  11
BRANCH   6  13
ATOM     13  O   UNL     1      -4.765 -43.319   2.259  1.00  0.00    -0.387 OA
ATOM     14  H   UNL     1      -3.897 -42.845   2.312  1.00  0.00     0.211 HD
ENDBRANCH   6  13
BRANCH   7  15
ATOM     15  O   UNL     1      -7.273 -44.387   1.663  1.00  0.00    -0.384 OA
ATOM     16  H   UNL     1      -8.047 -44.793   1.192  1.00  0.00     0.211 HD
ENDBRANCH   7  15
ENDBRANCH   1   2
BRANCH   1  17
ATOM     17  C   UNL     1      -8.348 -42.111   3.645  1.00  0.00     0.172 A 
ATOM     18  C   UNL     1      -8.144 -43.207   4.514  1.00  0.00     0.201 A 
ATOM     19  C   UNL     1      -9.520 -41.363   3.759  1.00  0.00     0.098 A 
ATOM     20  C   UNL     1      -9.125 -43.548   5.473  1.00  0.00     0.176 A 
ATOM     21  C   UNL     1     -10.480 -41.659   4.724  1.00  0.00     0.146 A 
ATOM     22  C   UNL     1     -10.288 -42.737   5.620  1.00  0.00     0.111 A 
ATOM     23  O   UNL     1     -11.572 -40.903   4.788  1.00  0.00    -0.456 OA
ATOM     24  C   UNL     1     -11.262 -42.904   6.636  1.00  0.00     0.197 A 
ATOM     25  C   UNL     1     -12.535 -41.083   5.685  1.00  0.00     0.138 A 
ATOM     26  C   UNL     1     -12.394 -42.088   6.652  1.00  0.00     0.100 A 
ATOM     27  O   UNL     1     -11.122 -43.743   7.563  1.00  0.00    -0.289 OA
BRANCH  18  28
ATOM     28  O   UNL     1      -6.978 -43.968   4.426  1.00  0.00    -0.502 OA
ATOM     29  H   UNL     1      -6.289 -44.012   5.166  1.00  0.00     0.293 HD
ENDBRANCH  18  28
BRANCH  20  30
ATOM     30  O   UNL     1      -8.911 -44.709   6.223  1.00  0.00    -0.504 OA
ATOM     31  H   UNL     1      -9.091 -45.647   5.895  1.00  0.00     0.293 HD
ENDBRANCH  20  30
BRANCH  25  32
ATOM     32  C   UNL     1     -13.725 -40.194   5.646  1.00  0.00     0.017 A 
ATOM     33  C   UNL     1     -14.305 -39.786   4.428  1.00  0.00     0.012 A 
ATOM     34  C   UNL     1     -14.266 -39.707   6.851  1.00  0.00     0.012 A 
ATOM     35  C   UNL     1     -15.409 -38.927   4.422  1.00  0.00     0.001 A 
ATOM     36  C   UNL     1     -15.370 -38.849   6.839  1.00  0.00     0.001 A 
ATOM     37  C   UNL     1     -15.941 -38.458   5.625  1.00  0.00     0.000 A 
ENDBRANCH  25  32
ENDBRANCH   1  17
TORSDOF 9
ENDMDL
MODEL 3
REMARK VINA RESULT:    -7.533      2.552      4.843
REMARK INTER + INTRA:         -10.727
REMARK INTER:                  -9.211
REMARK INTRA:                  -1.517
REMARK UNBOUND:                -0.331
REMARK SMILES O=C([O-])[C@H]1O[C@H](Oc2cc3oc(-c4ccccc4)cc(=O)c3c(O)c2O)[C@H](O)[C@H](O)[C@H]1O
REMARK SMILES IDX 7 1 6 2 4 3 31 4 5 5 29 6 27 7 2 8 1 9 3 10 32 11 30 13
REMARK SMILES IDX 28 15 8 17 25 18 9 19 23 20 10 21 22 22 11 23 20 24 12 25
REMARK SMILES IDX 19 26 21 27 26 28 24 30 13 32 14 33 18 34 15 35 17 36 16 37
REMARK H PARENT 32 12 30 14 28 16 26 29 24 31
REMARK Flexibility Score: inf
ROOT
ATOM      1  O   UNL     1      -8.192 -41.769   1.974  1.00  0.00    -0.458 OA
ENDROOT
BRANCH   1   2
ATOM      2  C   UNL     1      -6.947 -41.063   1.954  1.00  0.00     0.339 C 
ATOM      3  C   UNL     1      -5.756 -42.928   1.163  1.00  0.00     0.199 C 
ATOM      4  C   UNL     1      -5.428 -42.281  -0.211  1.00  0.00     0.180 C 
ATOM      5  O   UNL     1      -5.849 -41.937   2.176  1.00  0.00    -0.328 OA
ATOM      6  C   UNL     1      -6.460 -41.189  -0.575  1.00  0.00     0.181 C 
ATOM      7  C   UNL     1      -6.766 -40.273   0.636  1.00  0.00     0.214 C 
BRANCH   3   8
ATOM      8  C   UNL     1      -4.713 -43.938   1.557  1.00  0.00     0.073 C 
ATOM      9  O   UNL     1      -4.649 -44.348   2.748  1.00  0.00    -0.547 OA
ATOM     10  O   UNL     1      -3.872 -44.497   0.600  1.00  0.00    -0.547 OA
ENDBRANCH   3   8
BRANCH   4  11
ATOM     11  O   UNL     1      -4.122 -41.752  -0.235  1.00  0.00    -0.387 OA
ATOM     12  H   UNL     1      -3.558 -42.346  -0.796  1.00  0.00     0.211 HD
ENDBRANCH   4  11
BRANCH   6  13
ATOM     13  O   UNL     1      -7.627 -41.757  -1.124  1.00  0.00    -0.387 OA
ATOM     14  H   UNL     1      -8.257 -41.024  -1.340  1.00  0.00     0.211 HD
ENDBRANCH   6  13
BRANCH   7  15
ATOM     15  O   UNL     1      -7.857 -39.420   0.384  1.00  0.00    -0.384 OA
ATOM     16  H   UNL     1      -8.485 -39.892  -0.223  1.00  0.00     0.211 HD
ENDBRANCH   7  15
ENDBRANCH   1   2
BRANCH   1  17
ATOM     17  C   UNL     1      -8.958 -42.113   3.105  1.00  0.00     0.172 A 
ATOM     18  C   UNL     1      -8.660 -43.186   3.977  1.00  0.00     0.201 A 
ATOM     19  C   UNL     1     -10.087 -41.332   3.351  1.00  0.00     0.098 A 
ATOM     20  C   UNL     1      -9.505 -43.468   5.073  1.00  0.00     0.176 A 
ATOM     21  C   UNL     1     -10.910 -41.570   4.449  1.00  0.00     0.146 A 
ATOM     22  C   UNL     1     -10.620 -42.623   5.349  1.00  0.00     0.111 A 
ATOM     23  O   UNL     1     -11.966 -40.784   4.635  1.00  0.00    -0.456 OA
ATOM     24  C   UNL     1     -11.447 -42.730   6.494  1.00  0.00     0.197 A 
ATOM     25  C   UNL     1     -12.800 -40.909   5.662  1.00  0.00     0.138 A 
ATOM     26  C   UNL     1     -12.548 -41.884   6.636  1.00  0.00     0.100 A 
ATOM     27  O   UNL     1     -11.198 -43.541   7.423  1.00  0.00    -0.289 OA
BRANCH  18  28
ATOM     28  O   UNL     1      -7.533 -43.980   3.757  1.00  0.00    -0.502 OA
ATOM     29  H   UNL     1      -7.109 -44.096   2.846  1.00  0.00     0.293 HD
ENDBRANCH  18  28
BRANCH  20  30
ATOM     30  O   UNL     1      -9.215 -44.609   5.828  1.00  0.00    -0.504 OA
ATOM     31  H   UNL     1      -9.905 -45.183   6.291  1.00  0.00     0.293 HD
ENDBRANCH  20  30
BRANCH  25  32
ATOM     32  C   UNL     1     -13.964 -39.991   5.754  1.00  0.00     0.017 A 
ATOM     33  C   UNL     1     -14.691 -39.599   4.612  1.00  0.00     0.012 A 
ATOM     34  C   UNL     1     -14.330 -39.459   7.005  1.00  0.00     0.012 A 
ATOM     35  C   UNL     1     -15.767 -38.712   4.726  1.00  0.00     0.001 A 
ATOM     36  C   UNL     1     -15.407 -38.574   7.114  1.00  0.00     0.001 A 
ATOM     37  C   UNL     1     -16.125 -38.199   5.975  1.00  0.00     0.000 A 
ENDBRANCH  25  32
ENDBRANCH   1  17
TORSDOF 9
ENDMDL
MODEL 4
REMARK VINA RESULT:    -7.443      2.199      4.632
REMARK INTER + INTRA:         -10.603
REMARK INTER:                 -10.042
REMARK INTRA:                  -0.561
REMARK UNBOUND:                -0.331
REMARK SMILES O=C([O-])[C@H]1O[C@H](Oc2cc3oc(-c4ccccc4)cc(=O)c3c(O)c2O)[C@H](O)[C@H](O)[C@H]1O
REMARK SMILES IDX 7 1 6 2 4 3 31 4 5 5 29 6 27 7 2 8 1 9 3 10 32 11 30 13
REMARK SMILES IDX 28 15 8 17 25 18 9 19 23 20 10 21 22 22 11 23 20 24 12 25
REMARK SMILES IDX 19 26 21 27 26 28 24 30 13 32 14 33 18 34 15 35 17 36 16 37
REMARK H PARENT 32 12 30 14 28 16 26 29 24 31
REMARK Flexibility Score: inf
ROOT
ATOM      1  O   UNL     1      -7.169 -41.410   3.143  1.00  0.00    -0.458 OA
ENDROOT
BRANCH   1   2
ATOM      2  C   UNL     1      -6.746 -41.968   1.895  1.00  0.00     0.339 C 
ATOM      3  C   UNL     1      -8.904 -42.726   1.357  1.00  0.00     0.199 C 
ATOM      4  C   UNL     1      -9.070 -41.759   0.153  1.00  0.00     0.180 C 
ATOM      5  O   UNL     1      -7.541 -43.087   1.528  1.00  0.00    -0.328 OA
ATOM      6  C   UNL     1      -8.166 -40.514   0.308  1.00  0.00     0.181 C 
ATOM      7  C   UNL     1      -6.740 -40.903   0.772  1.00  0.00     0.214 C 
BRANCH   3   8
ATOM      8  C   UNL     1      -9.724 -43.975   1.174  1.00  0.00     0.073 C 
ATOM      9  O   UNL     1      -9.517 -44.726   0.183  1.00  0.00    -0.547 OA
ATOM     10  O   UNL     1     -10.648 -44.362   2.139  1.00  0.00    -0.547 OA
ENDBRANCH   3   8
BRANCH   4  11
ATOM     11  O   UNL     1      -8.809 -42.407  -1.072  1.00  0.00    -0.387 OA
ATOM     12  H   UNL     1      -9.594 -42.973  -1.294  1.00  0.00     0.211 HD
ENDBRANCH   4  11
BRANCH   6  13
ATOM     13  O   UNL     1      -8.760 -39.558   1.155  1.00  0.00    -0.387 OA
ATOM     14  H   UNL     1      -8.626 -39.847   2.093  1.00  0.00     0.211 HD
ENDBRANCH   6  13
BRANCH   7  15
ATOM     15  O   UNL     1      -5.978 -39.774   1.126  1.00  0.00    -0.384 OA
ATOM     16  H   UNL     1      -5.363 -40.035   1.860  1.00  0.00     0.211 HD
ENDBRANCH   7  15
ENDBRANCH   1   2
BRANCH   1  17
ATOM     17  C   UNL     1      -8.137 -41.930   4.024  1.00  0.00     0.172 A 
ATOM     18  C   UNL     1      -7.996 -43.139   4.742  1.00  0.00     0.201 A 
ATOM     19  C   UNL     1      -9.307 -41.185   4.171  1.00  0.00     0.098 A 
ATOM     20  C   UNL     1      -9.036 -43.592   5.585  1.00  0.00     0.176 A 
ATOM     21  C   UNL     1     -10.326 -41.594   5.028  1.00  0.00     0.146 A 
ATOM     22  C   UNL     1     -10.199 -42.789   5.775  1.00  0.00     0.111 A 
ATOM     23  O   UNL     1     -11.412 -40.834   5.133  1.00  0.00    -0.456 OA
ATOM     24  C   UNL     1     -11.234 -43.077   6.699  1.00  0.00     0.197 A 
ATOM     25  C   UNL     1     -12.430 -41.120   5.938  1.00  0.00     0.138 A 
ATOM     26  C   UNL     1     -12.357 -42.251   6.762  1.00  0.00     0.100 A 
ATOM     27  O   UNL     1     -11.159 -44.039   7.506  1.00  0.00    -0.289 OA
BRANCH  18  28
ATOM     28  O   UNL     1      -6.834 -43.902   4.618  1.00  0.00    -0.502 OA
ATOM     29  H   UNL     1      -5.905 -43.502   4.653  1.00  0.00     0.293 HD
ENDBRANCH  18  28
BRANCH  20  30
ATOM     30  O   UNL     1      -8.880 -44.849   6.177  1.00  0.00    -0.504 OA
ATOM     31  H   UNL     1      -9.615 -45.361   6.644  1.00  0.00     0.293 HD
ENDBRANCH  20  30
BRANCH  25  32
ATOM     32  C   UNL     1     -13.606 -40.213   5.953  1.00  0.00     0.017 A 
ATOM     33  C   UNL     1     -14.098 -39.656   7.151  1.00  0.00     0.012 A 
ATOM     34  C   UNL     1     -14.281 -39.933   4.749  1.00  0.00     0.012 A 
ATOM     35  C   UNL     1     -15.225 -38.827   7.137  1.00  0.00     0.001 A 
ATOM     36  C   UNL     1     -15.407 -39.103   4.741  1.00  0.00     0.001 A 
ATOM     37  C   UNL     1     -15.879 -38.551   5.935  1.00  0.00     0.000 A 
ENDBRANCH  25  32
ENDBRANCH   1  17
TORSDOF 9
ENDMDL
MODEL 5
REMARK VINA RESULT:    -7.351      2.217      4.331
REMARK INTER + INTRA:         -10.476
REMARK INTER:                  -9.191
REMARK INTRA:                  -1.286
REMARK UNBOUND:                -0.331
REMARK SMILES O=C([O-])[C@H]1O[C@H](Oc2cc3oc(-c4ccccc4)cc(=O)c3c(O)c2O)[C@H](O)[C@H](O)[C@H]1O
REMARK SMILES IDX 7 1 6 2 4 3 31 4 5 5 29 6 27 7 2 8 1 9 3 10 32 11 30 13
REMARK SMILES IDX 28 15 8 17 25 18 9 19 23 20 10 21 22 22 11 23 20 24 12 25
REMARK SMILES IDX 19 26 21 27 26 28 24 30 13 32 14 33 18 34 15 35 17 36 16 37
REMARK H PARENT 32 12 30 14 28 16 26 29 24 31
REMARK Flexibility Score: inf
ROOT
ATOM      1  O   UNL     1      -7.948 -42.995   3.281  1.00  0.00    -0.458 OA
ENDROOT
BRANCH   1   2
ATOM      2  C   UNL     1      -6.824 -42.372   3.911  1.00  0.00     0.339 C 
ATOM      3  C   UNL     1      -6.610 -44.083   5.508  1.00  0.00     0.199 C 
ATOM      4  C   UNL     1      -5.239 -44.574   4.968  1.00  0.00     0.180 C 
ATOM      5  O   UNL     1      -6.763 -42.687   5.295  1.00  0.00    -0.328 OA
ATOM      6  C   UNL     1      -5.060 -44.202   3.478  1.00  0.00     0.181 C 
ATOM      7  C   UNL     1      -5.500 -42.743   3.202  1.00  0.00     0.214 C 
BRANCH   3   8
ATOM      8  C   UNL     1      -6.757 -44.376   6.977  1.00  0.00     0.073 C 
ATOM      9  O   UNL     1      -5.872 -43.992   7.789  1.00  0.00    -0.547 OA
ATOM     10  O   UNL     1      -7.908 -44.986   7.465  1.00  0.00    -0.547 OA
ENDBRANCH   3   8
BRANCH   4  11
ATOM     11  O   UNL     1      -4.169 -44.069   5.734  1.00  0.00    -0.387 OA
ATOM     12  H   UNL     1      -4.320 -43.098   5.871  1.00  0.00     0.211 HD
ENDBRANCH   4  11
BRANCH   6  13
ATOM     13  O   UNL     1      -5.718 -45.125   2.641  1.00  0.00    -0.387 OA
ATOM     14  H   UNL     1      -5.150 -45.931   2.559  1.00  0.00     0.211 HD
ENDBRANCH   6  13
BRANCH   7  15
ATOM     15  O   UNL     1      -5.549 -42.462   1.823  1.00  0.00    -0.384 OA
ATOM     16  H   UNL     1      -5.067 -41.610   1.664  1.00  0.00     0.211 HD
ENDBRANCH   7  15
ENDBRANCH   1   2
BRANCH   1  17
ATOM     17  C   UNL     1      -9.064 -42.358   2.705  1.00  0.00     0.172 A 
ATOM     18  C   UNL     1      -9.275 -42.217   1.314  1.00  0.00     0.201 A 
ATOM     19  C   UNL     1     -10.003 -41.830   3.592  1.00  0.00     0.098 A 
ATOM     20  C   UNL     1     -10.416 -41.537   0.833  1.00  0.00     0.176 A 
ATOM     21  C   UNL     1     -11.154 -41.192   3.136  1.00  0.00     0.146 A 
ATOM     22  C   UNL     1     -11.399 -41.059   1.748  1.00  0.00     0.111 A 
ATOM     23  O   UNL     1     -12.017 -40.720   4.031  1.00  0.00    -0.456 OA
ATOM     24  C   UNL     1     -12.641 -40.491   1.371  1.00  0.00     0.197 A 
ATOM     25  C   UNL     1     -13.155 -40.117   3.703  1.00  0.00     0.138 A 
ATOM     26  C   UNL     1     -13.506 -40.002   2.352  1.00  0.00     0.100 A 
ATOM     27  O   UNL     1     -13.019 -40.447   0.172  1.00  0.00    -0.289 OA
BRANCH  18  28
ATOM     28  O   UNL     1      -8.354 -42.740   0.406  1.00  0.00    -0.502 OA
ATOM     29  H   UNL     1      -7.750 -42.161  -0.163  1.00  0.00     0.293 HD
ENDBRANCH  18  28
BRANCH  20  30
ATOM     30  O   UNL     1     -10.507 -41.336  -0.548  1.00  0.00    -0.504 OA
ATOM     31  H   UNL     1     -10.559 -42.075  -1.235  1.00  0.00     0.293 HD
ENDBRANCH  20  30
BRANCH  25  32
ATOM     32  C   UNL     1     -14.030 -39.603   4.788  1.00  0.00     0.017 A 
ATOM     33  C   UNL     1     -13.757 -39.862   6.146  1.00  0.00     0.012 A 
ATOM     34  C   UNL     1     -15.189 -38.875   4.457  1.00  0.00     0.012 A 
ATOM     35  C   UNL     1     -14.614 -39.387   7.145  1.00  0.00     0.001 A 
ATOM     36  C   UNL     1     -16.042 -38.403   5.459  1.00  0.00     0.001 A 
ATOM     37  C   UNL     1     -15.755 -38.659   6.802  1.00  0.00     0.000 A 
ENDBRANCH  25  32
ENDBRANCH   1  17
TORSDOF 9
ENDMDL
MODEL 6
REMARK VINA RESULT:    -7.175      2.699      8.276
REMARK INTER + INTRA:         -10.233
REMARK INTER:                  -8.706
REMARK INTRA:                  -1.527
REMARK UNBOUND:                -0.331
REMARK SMILES O=C([O-])[C@H]1O[C@H](Oc2cc3oc(-c4ccccc4)cc(=O)c3c(O)c2O)[C@H](O)[C@H](O)[C@H]1O
REMARK SMILES IDX 7 1 6 2 4 3 31 4 5 5 29 6 27 7 2 8 1 9 3 10 32 11 30 13
REMARK SMILES IDX 28 15 8 17 25 18 9 19 23 20 10 21 22 22 11 23 20 24 12 25
REMARK SMILES IDX 19 26 21 27 26 28 24 30 13 32 14 33 18 34 15 35 17 36 16 37
REMARK H PARENT 32 12 30 14 28 16 26 29 24 31
REMARK Flexibility Score: inf
ROOT
ATOM      1  O   UNL     1     -11.254 -40.188   3.655  1.00  0.00    -0.458 OA
ENDROOT
BRANCH   1   2
ATOM      2  C   UNL     1     -12.239 -40.378   2.635  1.00  0.00     0.339 C 
ATOM      3  C   UNL     1     -13.797 -38.979   3.701  1.00  0.00     0.199 C 
ATOM      4  C   UNL     1     -13.761 -37.896   2.588  1.00  0.00     0.180 C 
ATOM      5  O   UNL     1     -13.556 -40.268   3.155  1.00  0.00    -0.328 OA
ATOM      6  C   UNL     1     -12.427 -37.943   1.806  1.00  0.00     0.181 C 
ATOM      7  C   UNL     1     -12.029 -39.399   1.456  1.00  0.00     0.214 C 
BRANCH   3   8
ATOM      8  C   UNL     1     -15.122 -38.987   4.415  1.00  0.00     0.073 C 
ATOM      9  O   UNL     1     -15.361 -39.861   5.292  1.00  0.00    -0.547 OA
ATOM     10  O   UNL     1     -16.056 -37.982   4.185  1.00  0.00    -0.547 OA
ENDBRANCH   3   8
BRANCH   4  11
ATOM     11  O   UNL     1     -14.853 -38.021   1.707  1.00  0.00    -0.387 OA
ATOM     12  H   UNL     1     -14.890 -37.205   1.143  1.00  0.00     0.211 HD
ENDBRANCH   4  11
BRANCH   6  13
ATOM     13  O   UNL     1     -11.407 -37.263   2.500  1.00  0.00    -0.387 OA
ATOM     14  H   UNL     1     -11.084 -37.848   3.230  1.00  0.00     0.211 HD
ENDBRANCH   6  13
BRANCH   7  15
ATOM     15  O   UNL     1     -10.720 -39.473   0.941  1.00  0.00    -0.384 OA
ATOM     16  H   UNL     1     -10.577 -38.691   0.348  1.00  0.00     0.211 HD
ENDBRANCH   7  15
ENDBRANCH   1   2
BRANCH   1  17
ATOM     17  C   UNL     1     -10.717 -41.167   4.514  1.00  0.00     0.172 A 
ATOM     18  C   UNL     1     -11.428 -41.781   5.570  1.00  0.00     0.201 A 
ATOM     19  C   UNL     1      -9.388 -41.528   4.289  1.00  0.00     0.098 A 
ATOM     20  C   UNL     1     -10.793 -42.737   6.395  1.00  0.00     0.176 A 
ATOM     21  C   UNL     1      -8.757 -42.498   5.066  1.00  0.00     0.146 A 
ATOM     22  C   UNL     1      -9.455 -43.143   6.114  1.00  0.00     0.111 A 
ATOM     23  O   UNL     1      -7.493 -42.805   4.796  1.00  0.00    -0.456 OA
ATOM     24  C   UNL     1      -8.774 -44.188   6.786  1.00  0.00     0.197 A 
ATOM     25  C   UNL     1      -6.807 -43.731   5.458  1.00  0.00     0.138 A 
ATOM     26  C   UNL     1      -7.443 -44.464   6.469  1.00  0.00     0.100 A 
ATOM     27  O   UNL     1      -9.344 -44.915   7.640  1.00  0.00    -0.289 OA
BRANCH  18  28
ATOM     28  O   UNL     1     -12.760 -41.442   5.813  1.00  0.00    -0.502 OA
ATOM     29  H   UNL     1     -13.513 -41.671   5.177  1.00  0.00     0.293 HD
ENDBRANCH  18  28
BRANCH  20  30
ATOM     30  O   UNL     1     -11.518 -43.222   7.488  1.00  0.00    -0.504 OA
ATOM     31  H   UNL     1     -11.121 -43.749   8.253  1.00  0.00     0.293 HD
ENDBRANCH  20  30
BRANCH  25  32
ATOM     32  C   UNL     1      -5.389 -43.972   5.088  1.00  0.00     0.017 A 
ATOM     33  C   UNL     1      -4.522 -44.711   5.918  1.00  0.00     0.012 A 
ATOM     34  C   UNL     1      -4.878 -43.415   3.900  1.00  0.00     0.012 A 
ATOM     35  C   UNL     1      -3.184 -44.900   5.557  1.00  0.00     0.001 A 
ATOM     36  C   UNL     1      -3.540 -43.607   3.543  1.00  0.00     0.001 A 
ATOM     37  C   UNL     1      -2.693 -44.349   4.371  1.00  0.00     0.000 A 
ENDBRANCH  25  32
ENDBRANCH   1  17
TORSDOF 9
ENDMDL
MODEL 7
REMARK VINA RESULT:    -7.153      2.552      4.989
REMARK INTER + INTRA:         -10.203
REMARK INTER:                  -8.714
REMARK INTRA:                  -1.489
REMARK UNBOUND:                -0.331
REMARK SMILES O=C([O-])[C@H]1O[C@H](Oc2cc3oc(-c4ccccc4)cc(=O)c3c(O)c2O)[C@H](O)[C@H](O)[C@H]1O
REMARK SMILES IDX 7 1 6 2 4 3 31 4 5 5 29 6 27 7 2 8 1 9 3 10 32 11 30 13
REMARK SMILES IDX 28 15 8 17 25 18 9 19 23 20 10 21 22 22 11 23 20 24 12 25
REMARK SMILES IDX 19 26 21 27 26 28 24 30 13 32 14 33 18 34 15 35 17 36 16 37
REMARK H PARENT 32 12 30 14 28 16 26 29 24 31
REMARK Flexibility Score: inf
ROOT
ATOM      1  O   UNL     1      -8.575 -42.387   3.625  1.00  0.00    -0.458 OA
ENDROOT
BRANCH   1   2
ATOM      2  C   UNL     1      -7.274 -41.823   3.817  1.00  0.00     0.339 C 
ATOM      3  C   UNL     1      -6.465 -43.739   4.912  1.00  0.00     0.199 C 
ATOM      4  C   UNL     1      -5.456 -44.098   3.786  1.00  0.00     0.180 C 
ATOM      5  O   UNL     1      -6.653 -42.333   4.989  1.00  0.00    -0.328 OA
ATOM      6  C   UNL     1      -5.901 -43.507   2.428  1.00  0.00     0.181 C 
ATOM      7  C   UNL     1      -6.374 -42.039   2.577  1.00  0.00     0.214 C 
BRANCH   3   8
ATOM      8  C   UNL     1      -5.998 -44.246   6.249  1.00  0.00     0.073 C 
ATOM      9  O   UNL     1      -6.669 -43.999   7.288  1.00  0.00    -0.547 OA
ATOM     10  O   UNL     1      -4.880 -45.069   6.343  1.00  0.00    -0.547 OA
ENDBRANCH   3   8
BRANCH   4  11
ATOM     11  O   UNL     1      -4.151 -43.671   4.105  1.00  0.00    -0.387 OA
ATOM     12  H   UNL     1      -3.643 -44.457   4.436  1.00  0.00     0.211 HD
ENDBRANCH   4  11
BRANCH   6  13
ATOM     13  O   UNL     1      -6.873 -44.321   1.814  1.00  0.00    -0.387 OA
ATOM     14  H   UNL     1      -7.768 -44.006   2.099  1.00  0.00     0.211 HD
ENDBRANCH   6  13
BRANCH   7  15
ATOM     15  O   UNL     1      -6.983 -41.564   1.400  1.00  0.00    -0.384 OA
ATOM     16  H   UNL     1      -6.781 -40.595   1.318  1.00  0.00     0.211 HD
ENDBRANCH   7  15
ENDBRANCH   1   2
BRANCH   1  17
ATOM     17  C   UNL     1      -9.780 -41.975   4.227  1.00  0.00     0.172 A 
ATOM     18  C   UNL     1     -10.228 -42.408   5.496  1.00  0.00     0.201 A 
ATOM     19  C   UNL     1     -10.568 -41.088   3.495  1.00  0.00     0.098 A 
ATOM     20  C   UNL     1     -11.466 -41.957   6.005  1.00  0.00     0.176 A 
ATOM     21  C   UNL     1     -11.773 -40.601   3.998  1.00  0.00     0.146 A 
ATOM     22  C   UNL     1     -12.231 -41.001   5.275  1.00  0.00     0.111 A 
ATOM     23  O   UNL     1     -12.474 -39.749   3.256  1.00  0.00    -0.456 OA
ATOM     24  C   UNL     1     -13.411 -40.380   5.753  1.00  0.00     0.197 A 
ATOM     25  C   UNL     1     -13.621 -39.207   3.650  1.00  0.00     0.138 A 
ATOM     26  C   UNL     1     -14.114 -39.499   4.929  1.00  0.00     0.100 A 
ATOM     27  O   UNL     1     -13.833 -40.561   6.924  1.00  0.00    -0.289 OA
BRANCH  18  28
ATOM     28  O   UNL     1      -9.456 -43.292   6.252  1.00  0.00    -0.502 OA
ATOM     29  H   UNL     1      -8.944 -44.064   5.846  1.00  0.00     0.293 HD
ENDBRANCH  18  28
BRANCH  20  30
ATOM     30  O   UNL     1     -11.901 -42.511   7.214  1.00  0.00    -0.504 OA
ATOM     31  H   UNL     1     -12.779 -42.292   7.664  1.00  0.00     0.293 HD
ENDBRANCH  20  30
BRANCH  25  32
ATOM     32  C   UNL     1     -14.333 -38.288   2.726  1.00  0.00     0.017 A 
ATOM     33  C   UNL     1     -13.893 -38.079   1.404  1.00  0.00     0.012 A 
ATOM     34  C   UNL     1     -15.453 -37.570   3.189  1.00  0.00     0.012 A 
ATOM     35  C   UNL     1     -14.569 -37.187   0.564  1.00  0.00     0.001 A 
ATOM     36  C   UNL     1     -16.125 -36.680   2.346  1.00  0.00     0.001 A 
ATOM     37  C   UNL     1     -15.683 -36.488   1.034  1.00  0.00     0.000 A 
ENDBRANCH  25  32
ENDBRANCH   1  17
TORSDOF 9
ENDMDL
MODEL 8
REMARK VINA RESULT:    -6.998      3.143      8.066
REMARK INTER + INTRA:          -9.989
REMARK INTER:                  -8.648
REMARK INTRA:                  -1.340
REMARK UNBOUND:                -0.331
REMARK SMILES O=C([O-])[C@H]1O[C@H](Oc2cc3oc(-c4ccccc4)cc(=O)c3c(O)c2O)[C@H](O)[C@H](O)[C@H]1O
REMARK SMILES IDX 7 1 6 2 4 3 31 4 5 5 29 6 27 7 2 8 1 9 3 10 32 11 30 13
REMARK SMILES IDX 28 15 8 17 25 18 9 19 23 20 10 21 22 22 11 23 20 24 12 25
REMARK SMILES IDX 19 26 21 27 26 28 24 30 13 32 14 33 18 34 15 35 17 36 16 37
REMARK H PARENT 32 12 30 14 28 16 26 29 24 31
REMARK Flexibility Score: inf
ROOT
ATOM      1  O   UNL     1     -11.383 -40.587   3.373  1.00  0.00    -0.458 OA
ENDROOT
BRANCH   1   2
ATOM      2  C   UNL     1     -11.656 -39.192   3.542  1.00  0.00     0.339 C 
ATOM      3  C   UNL     1     -11.090 -38.681   1.319  1.00  0.00     0.199 C 
ATOM      4  C   UNL     1     -12.536 -38.276   0.922  1.00  0.00     0.180 C 
ATOM      5  O   UNL     1     -10.847 -38.395   2.689  1.00  0.00    -0.328 OA
ATOM      6  C   UNL     1     -13.579 -38.955   1.840  1.00  0.00     0.181 C 
ATOM      7  C   UNL     1     -13.157 -38.879   3.328  1.00  0.00     0.214 C 
BRANCH   3   8
ATOM      8  C   UNL     1     -10.069 -37.965   0.478  1.00  0.00     0.073 C 
ATOM      9  O   UNL     1      -9.245 -38.624  -0.213  1.00  0.00    -0.547 OA
ATOM     10  O   UNL     1     -10.081 -36.577   0.380  1.00  0.00    -0.547 OA
ENDBRANCH   3   8
BRANCH   4  11
ATOM     11  O   UNL     1     -12.704 -36.877   0.936  1.00  0.00    -0.387 OA
ATOM     12  H   UNL     1     -11.810 -36.458   0.841  1.00  0.00     0.211 HD
ENDBRANCH   4  11
BRANCH   6  13
ATOM     13  O   UNL     1     -13.837 -40.276   1.425  1.00  0.00    -0.387 OA
ATOM     14  H   UNL     1     -14.744 -40.528   1.734  1.00  0.00     0.211 HD
ENDBRANCH   6  13
BRANCH   7  15
ATOM     15  O   UNL     1     -13.979 -39.678   4.147  1.00  0.00    -0.384 OA
ATOM     16  H   UNL     1     -14.486 -40.299   3.562  1.00  0.00     0.211 HD
ENDBRANCH   7  15
ENDBRANCH   1   2
BRANCH   1  17
ATOM     17  C   UNL     1     -10.756 -41.450   4.293  1.00  0.00     0.172 A 
ATOM     18  C   UNL     1     -11.390 -42.005   5.428  1.00  0.00     0.201 A 
ATOM     19  C   UNL     1      -9.417 -41.752   4.047  1.00  0.00     0.098 A 
ATOM     20  C   UNL     1     -10.668 -42.842   6.308  1.00  0.00     0.176 A 
ATOM     21  C   UNL     1      -8.700 -42.607   4.881  1.00  0.00     0.146 A 
ATOM     22  C   UNL     1      -9.319 -43.193   6.011  1.00  0.00     0.111 A 
ATOM     23  O   UNL     1      -7.429 -42.864   4.588  1.00  0.00    -0.456 OA
ATOM     24  C   UNL     1      -8.551 -44.130   6.745  1.00  0.00     0.197 A 
ATOM     25  C   UNL     1      -6.664 -43.683   5.302  1.00  0.00     0.138 A 
ATOM     26  C   UNL     1      -7.217 -44.356   6.399  1.00  0.00     0.100 A 
ATOM     27  O   UNL     1      -9.044 -44.808   7.683  1.00  0.00    -0.289 OA
BRANCH  18  28
ATOM     28  O   UNL     1     -12.731 -41.724   5.694  1.00  0.00    -0.502 OA
ATOM     29  H   UNL     1     -13.332 -42.345   6.220  1.00  0.00     0.293 HD
ENDBRANCH  18  28
BRANCH  20  30
ATOM     30  O   UNL     1     -11.322 -43.266   7.470  1.00  0.00    -0.504 OA
ATOM     31  H   UNL     1     -12.040 -43.977   7.499  1.00  0.00     0.293 HD
ENDBRANCH  20  30
BRANCH  25  32
ATOM     32  C   UNL     1      -5.248 -43.874   4.897  1.00  0.00     0.017 A 
ATOM     33  C   UNL     1      -4.288 -44.400   5.785  1.00  0.00     0.012 A 
ATOM     34  C   UNL     1      -4.836 -43.481   3.609  1.00  0.00     0.012 A 
ATOM     35  C   UNL     1      -2.955 -44.544   5.384  1.00  0.00     0.001 A 
ATOM     36  C   UNL     1      -3.503 -43.627   3.214  1.00  0.00     0.001 A 
ATOM     37  C   UNL     1      -2.563 -44.158   4.101  1.00  0.00     0.000 A 
ENDBRANCH  25  32
ENDBRANCH   1  17
TORSDOF 9
ENDMDL
MODEL 9
REMARK VINA RESULT:    -5.450      1.792      2.103
REMARK INTER + INTRA:          -7.853
REMARK INTER:                  -6.656
REMARK INTRA:                  -1.196
REMARK UNBOUND:                -0.331
REMARK SMILES O=C([O-])[C@H]1O[C@H](Oc2cc3oc(-c4ccccc4)cc(=O)c3c(O)c2O)[C@H](O)[C@H](O)[C@H]1O
REMARK SMILES IDX 7 1 6 2 4 3 31 4 5 5 29 6 27 7 2 8 1 9 3 10 32 11 30 13
REMARK SMILES IDX 28 15 8 17 25 18 9 19 23 20 10 21 22 22 11 23 20 24 12 25
REMARK SMILES IDX 19 26 21 27 26 28 24 30 13 32 14 33 18 34 15 35 17 36 16 37
REMARK H PARENT 32 12 30 14 28 16 26 29 24 31
REMARK Flexibility Score: inf
ROOT
ATOM      1  O   UNL     1      -9.696 -42.308   5.192  1.00  0.00    -0.458 OA
ENDROOT
BRANCH   1   2
ATOM      2  C   UNL     1      -9.240 -43.659   5.066  1.00  0.00     0.339 C 
ATOM      3  C   UNL     1      -7.801 -43.142   3.282  1.00  0.00     0.199 C 
ATOM      4  C   UNL     1      -6.507 -43.441   4.087  1.00  0.00     0.180 C 
ATOM      5  O   UNL     1      -8.871 -43.963   3.729  1.00  0.00    -0.328 OA
ATOM      6  C   UNL     1      -6.746 -43.288   5.607  1.00  0.00     0.181 C 
ATOM      7  C   UNL     1      -8.075 -43.956   6.040  1.00  0.00     0.214 C 
BRANCH   3   8
ATOM      8  C   UNL     1      -7.594 -43.363   1.808  1.00  0.00     0.073 C 
ATOM      9  O   UNL     1      -8.586 -43.424   1.033  1.00  0.00    -0.547 OA
ATOM     10  O   UNL     1      -6.310 -43.410   1.274  1.00  0.00    -0.547 OA
ENDBRANCH   3   8
BRANCH   4  11
ATOM     11  O   UNL     1      -6.000 -44.724   3.795  1.00  0.00    -0.387 OA
ATOM     12  H   UNL     1      -6.761 -45.304   3.533  1.00  0.00     0.211 HD
ENDBRANCH   4  11
BRANCH   6  13
ATOM     13  O   UNL     1      -6.675 -41.937   5.999  1.00  0.00    -0.387 OA
ATOM     14  H   UNL     1      -6.497 -41.904   6.972  1.00  0.00     0.211 HD
ENDBRANCH   6  13
BRANCH   7  15
ATOM     15  O   UNL     1      -8.412 -43.638   7.370  1.00  0.00    -0.384 OA
ATOM     16  H   UNL     1      -9.341 -43.290   7.378  1.00  0.00     0.211 HD
ENDBRANCH   7  15
ENDBRANCH   1   2
BRANCH   1  17
ATOM     17  C   UNL     1     -10.990 -41.818   4.928  1.00  0.00     0.172 A 
ATOM     18  C   UNL     1     -11.752 -42.148   3.784  1.00  0.00     0.201 A 
ATOM     19  C   UNL     1     -11.526 -40.942   5.872  1.00  0.00     0.098 A 
ATOM     20  C   UNL     1     -13.033 -41.583   3.596  1.00  0.00     0.176 A 
ATOM     21  C   UNL     1     -12.803 -40.407   5.724  1.00  0.00     0.146 A 
ATOM     22  C   UNL     1     -13.595 -40.740   4.599  1.00  0.00     0.111 A 
ATOM     23  O   UNL     1     -13.262 -39.585   6.664  1.00  0.00    -0.456 OA
ATOM     24  C   UNL     1     -14.918 -40.235   4.578  1.00  0.00     0.197 A 
ATOM     25  C   UNL     1     -14.473 -39.041   6.632  1.00  0.00     0.138 A 
ATOM     26  C   UNL     1     -15.347 -39.369   5.586  1.00  0.00     0.100 A 
ATOM     27  O   UNL     1     -15.749 -40.577   3.697  1.00  0.00    -0.289 OA
BRANCH  18  28
ATOM     28  O   UNL     1     -11.242 -43.026   2.827  1.00  0.00    -0.502 OA
ATOM     29  H   UNL     1     -10.420 -43.595   2.982  1.00  0.00     0.293 HD
ENDBRANCH  18  28
BRANCH  20  30
ATOM     30  O   UNL     1     -13.686 -41.863   2.391  1.00  0.00    -0.504 OA
ATOM     31  H   UNL     1     -13.274 -41.753   1.475  1.00  0.00     0.293 HD
ENDBRANCH  20  30
BRANCH  25  32
ATOM     32  C   UNL     1     -14.870 -38.114   7.723  1.00  0.00     0.017 A 
ATOM     33  C   UNL     1     -15.790 -37.068   7.509  1.00  0.00     0.012 A 
ATOM     34  C   UNL     1     -14.283 -38.250   8.996  1.00  0.00     0.012 A 
ATOM     35  C   UNL     1     -16.125 -36.194   8.549  1.00  0.00     0.001 A 
ATOM     36  C   UNL     1     -14.622 -37.374  10.032  1.00  0.00     0.001 A 
ATOM     37  C   UNL     1     -15.542 -36.346   9.809  1.00  0.00     0.000 A 
ENDBRANCH  25  32
ENDBRANCH   1  17
TORSDOF 9
ENDMDL
