MODEL 1
REMARK VINA RESULT:    -6.953      0.000      0.000
REMARK INTER + INTRA:          -8.461
REMARK INTER:                  -8.172
REMARK INTRA:                  -0.289
REMARK UNBOUND:                -0.289
REMARK SMILES O=c1c(O)c(-c2ccc(O)cc2)oc2cc(O)cc(O)c12
REMARK SMILES IDX 5 1 3 2 2 3 1 4 21 5 19 6 18 7 16 8 15 9 14 10 13 11 6 12
REMARK SMILES IDX 7 13 8 14 9 15 12 16 11 17 10 18 4 20 20 22 17 24
REMARK H PARENT 10 19 4 21 20 23 17 25
REMARK Flexibility Score: inf
ROOT
ATOM      1  C   UNL     1      23.721 -21.256  26.757  1.00  0.00     0.180 A 
ATOM      2  C   UNL     1      23.088 -22.125  27.661  1.00  0.00     0.208 A 
ATOM      3  C   UNL     1      22.911 -23.470  27.301  1.00  0.00     0.238 A 
ATOM      4  O   UNL     1      22.411 -24.260  28.146  1.00  0.00    -0.285 OA
ATOM      5  C   UNL     1      23.317 -23.919  26.021  1.00  0.00     0.111 A 
ATOM      6  C   UNL     1      23.146 -25.249  25.533  1.00  0.00     0.134 A 
ATOM      7  C   UNL     1      23.683 -25.604  24.289  1.00  0.00     0.093 A 
ATOM      8  C   UNL     1      24.328 -24.662  23.488  1.00  0.00     0.123 A 
ATOM      9  C   UNL     1      24.452 -23.345  23.931  1.00  0.00     0.094 A 
ATOM     10  C   UNL     1      23.961 -22.970  25.184  1.00  0.00     0.146 A 
ATOM     11  O   UNL     1      24.120 -21.711  25.575  1.00  0.00    -0.452 OA
ENDROOT
BRANCH   1  12
ATOM     12  C   UNL     1      23.956 -19.827  27.069  1.00  0.00     0.021 A 
ATOM     13  C   UNL     1      22.988 -18.846  26.787  1.00  0.00     0.016 A 
ATOM     14  C   UNL     1      23.224 -17.507  27.114  1.00  0.00     0.047 A 
ATOM     15  C   UNL     1      24.420 -17.134  27.738  1.00  0.00     0.115 A 
ATOM     16  C   UNL     1      25.145 -19.448  27.714  1.00  0.00     0.016 A 
ATOM     17  C   UNL     1      25.378 -18.108  28.039  1.00  0.00     0.047 A 
BRANCH  15  18
ATOM     18  O   UNL     1      24.666 -15.803  28.067  1.00  0.00    -0.508 OA
ATOM     19  H   UNL     1      24.705 -15.081  27.357  1.00  0.00     0.293 HD
ENDBRANCH  15  18
ENDBRANCH   1  12
BRANCH   2  20
ATOM     20  O   UNL     1      22.625 -21.647  28.890  1.00  0.00    -0.502 OA
ATOM     21  H   UNL     1      21.664 -21.361  29.036  1.00  0.00     0.293 HD
ENDBRANCH   2  20
BRANCH   6  22
ATOM     22  O   UNL     1      22.440 -26.248  26.212  1.00  0.00    -0.507 OA
ATOM     23  H   UNL     1      21.751 -26.853  25.796  1.00  0.00     0.293 HD
ENDBRANCH   6  22
BRANCH   8  24
ATOM     24  O   UNL     1      24.835 -25.046  22.248  1.00  0.00    -0.508 OA
ATOM     25  H   UNL     1      24.920 -24.387  21.483  1.00  0.00     0.293 HD
ENDBRANCH   8  24
TORSDOF 5
ENDMDL
MODEL 2
REMARK VINA RESULT:    -6.827      8.424     10.550
REMARK INTER + INTRA:          -8.313
REMARK INTER:                  -8.119
REMARK INTRA:                  -0.194
REMARK UNBOUND:                -0.289
REMARK SMILES O=c1c(O)c(-c2ccc(O)cc2)oc2cc(O)cc(O)c12
REMARK SMILES IDX 5 1 3 2 2 3 1 4 21 5 19 6 18 7 16 8 15 9 14 10 13 11 6 12
REMARK SMILES IDX 7 13 8 14 9 15 12 16 11 17 10 18 4 20 20 22 17 24
REMARK H PARENT 10 19 4 21 20 23 17 25
REMARK Flexibility Score: inf
ROOT
ATOM      1  C   UNL     1      27.064 -28.179  33.023  1.00  0.00     0.180 A 
ATOM      2  C   UNL     1      27.584 -29.004  32.012  1.00  0.00     0.208 A 
ATOM      3  C   UNL     1      27.640 -28.517  30.696  1.00  0.00     0.238 A 
ATOM      4  O   UNL     1      28.175 -29.234  29.810  1.00  0.00    -0.285 OA
ATOM      5  C   UNL     1      27.124 -27.233  30.396  1.00  0.00     0.111 A 
ATOM      6  C   UNL     1      27.088 -26.656  29.091  1.00  0.00     0.134 A 
ATOM      7  C   UNL     1      26.650 -25.335  28.932  1.00  0.00     0.093 A 
ATOM      8  C   UNL     1      26.188 -24.593  30.018  1.00  0.00     0.123 A 
ATOM      9  C   UNL     1      26.168 -25.166  31.290  1.00  0.00     0.094 A 
ATOM     10  C   UNL     1      26.634 -26.468  31.487  1.00  0.00     0.146 A 
ATOM     11  O   UNL     1      26.617 -26.967  32.717  1.00  0.00    -0.452 OA
ENDROOT
BRANCH   1  12
ATOM     12  C   UNL     1      26.985 -28.616  34.435  1.00  0.00     0.021 A 
ATOM     13  C   UNL     1      28.144 -28.794  35.213  1.00  0.00     0.016 A 
ATOM     14  C   UNL     1      28.042 -29.183  36.553  1.00  0.00     0.047 A 
ATOM     15  C   UNL     1      26.784 -29.385  37.135  1.00  0.00     0.115 A 
ATOM     16  C   UNL     1      25.726 -28.800  35.032  1.00  0.00     0.016 A 
ATOM     17  C   UNL     1      25.628 -29.190  36.372  1.00  0.00     0.047 A 
BRANCH  15  18
ATOM     18  O   UNL     1      26.671 -29.774  38.467  1.00  0.00    -0.508 OA
ATOM     19  H   UNL     1      25.789 -29.715  38.962  1.00  0.00     0.293 HD
ENDBRANCH  15  18
ENDBRANCH   1  12
BRANCH   2  20
ATOM     20  O   UNL     1      28.018 -30.298  32.314  1.00  0.00    -0.502 OA
ATOM     21  H   UNL     1      28.111 -30.633  33.266  1.00  0.00     0.293 HD
ENDBRANCH   2  20
BRANCH   6  22
ATOM     22  O   UNL     1      27.442 -27.339  27.923  1.00  0.00    -0.507 OA
ATOM     23  H   UNL     1      28.372 -27.657  27.698  1.00  0.00     0.293 HD
ENDBRANCH   6  22
BRANCH   8  24
ATOM     24  O   UNL     1      25.745 -23.287  29.819  1.00  0.00    -0.508 OA
ATOM     25  H   UNL     1      25.126 -23.049  29.053  1.00  0.00     0.293 HD
ENDBRANCH   8  24
TORSDOF 5
ENDMDL
MODEL 3
REMARK VINA RESULT:    -6.813      4.848      7.211
REMARK INTER + INTRA:          -8.297
REMARK INTER:                  -8.009
REMARK INTRA:                  -0.288
REMARK UNBOUND:                -0.289
REMARK SMILES O=c1c(O)c(-c2ccc(O)cc2)oc2cc(O)cc(O)c12
REMARK SMILES IDX 5 1 3 2 2 3 1 4 21 5 19 6 18 7 16 8 15 9 14 10 13 11 6 12
REMARK SMILES IDX 7 13 8 14 9 15 12 16 11 17 10 18 4 20 20 22 17 24
REMARK H PARENT 10 19 4 21 20 23 17 25
REMARK Flexibility Score: inf
ROOT
ATOM      1  C   UNL     1      25.666 -25.780  27.806  1.00  0.00     0.180 A 
ATOM      2  C   UNL     1      25.167 -25.025  28.880  1.00  0.00     0.208 A 
ATOM      3  C   UNL     1      25.484 -25.413  30.191  1.00  0.00     0.238 A 
ATOM      4  O   UNL     1      25.096 -24.688  31.145  1.00  0.00    -0.285 OA
ATOM      5  C   UNL     1      26.250 -26.583  30.416  1.00  0.00     0.111 A 
ATOM      6  C   UNL     1      26.593 -27.094  31.703  1.00  0.00     0.134 A 
ATOM      7  C   UNL     1      27.446 -28.202  31.801  1.00  0.00     0.093 A 
ATOM      8  C   UNL     1      27.914 -28.854  30.661  1.00  0.00     0.123 A 
ATOM      9  C   UNL     1      27.540 -28.395  29.398  1.00  0.00     0.094 A 
ATOM     10  C   UNL     1      26.723 -27.270  29.267  1.00  0.00     0.146 A 
ATOM     11  O   UNL     1      26.408 -26.855  28.046  1.00  0.00    -0.452 OA
ENDROOT
BRANCH   1  12
ATOM     12  C   UNL     1      25.387 -25.427  26.395  1.00  0.00     0.021 A 
ATOM     13  C   UNL     1      26.287 -24.651  25.642  1.00  0.00     0.016 A 
ATOM     14  C   UNL     1      26.013 -24.351  24.303  1.00  0.00     0.047 A 
ATOM     15  C   UNL     1      24.846 -24.834  23.698  1.00  0.00     0.115 A 
ATOM     16  C   UNL     1      24.229 -25.925  25.774  1.00  0.00     0.016 A 
ATOM     17  C   UNL     1      23.957 -25.623  24.436  1.00  0.00     0.047 A 
BRANCH  15  18
ATOM     18  O   UNL     1      24.562 -24.540  22.366  1.00  0.00    -0.508 OA
ATOM     19  H   UNL     1      24.952 -23.725  21.910  1.00  0.00     0.293 HD
ENDBRANCH  15  18
ENDBRANCH   1  12
BRANCH   2  20
ATOM     20  O   UNL     1      24.350 -23.917  28.640  1.00  0.00    -0.502 OA
ATOM     21  H   UNL     1      23.338 -23.972  28.662  1.00  0.00     0.293 HD
ENDBRANCH   2  20
BRANCH   6  22
ATOM     22  O   UNL     1      26.109 -26.574  32.907  1.00  0.00    -0.507 OA
ATOM     23  H   UNL     1      26.558 -25.850  33.447  1.00  0.00     0.293 HD
ENDBRANCH   6  22
BRANCH   8  24
ATOM     24  O   UNL     1      28.746 -29.964  30.797  1.00  0.00    -0.508 OA
ATOM     25  H   UNL     1      28.458 -30.883  30.484  1.00  0.00     0.293 HD
ENDBRANCH   8  24
TORSDOF 5
ENDMDL
MODEL 4
REMARK VINA RESULT:    -6.805      4.928      7.465
REMARK INTER + INTRA:          -8.287
REMARK INTER:                  -8.052
REMARK INTRA:                  -0.236
REMARK UNBOUND:                -0.289
REMARK SMILES O=c1c(O)c(-c2ccc(O)cc2)oc2cc(O)cc(O)c12
REMARK SMILES IDX 5 1 3 2 2 3 1 4 21 5 19 6 18 7 16 8 15 9 14 10 13 11 6 12
REMARK SMILES IDX 7 13 8 14 9 15 12 16 11 17 10 18 4 20 20 22 17 24
REMARK H PARENT 10 19 4 21 20 23 17 25
REMARK Flexibility Score: inf
ROOT
ATOM      1  C   UNL     1      26.397 -26.346  28.169  1.00  0.00     0.180 A 
ATOM      2  C   UNL     1      27.220 -25.462  27.452  1.00  0.00     0.208 A 
ATOM      3  C   UNL     1      26.672 -24.736  26.383  1.00  0.00     0.238 A 
ATOM      4  O   UNL     1      27.395 -23.890  25.794  1.00  0.00    -0.285 OA
ATOM      5  C   UNL     1      25.322 -24.943  26.008  1.00  0.00     0.111 A 
ATOM      6  C   UNL     1      24.675 -24.295  24.912  1.00  0.00     0.134 A 
ATOM      7  C   UNL     1      23.305 -24.500  24.701  1.00  0.00     0.093 A 
ATOM      8  C   UNL     1      22.575 -25.377  25.502  1.00  0.00     0.123 A 
ATOM      9  C   UNL     1      23.211 -26.057  26.541  1.00  0.00     0.094 A 
ATOM     10  C   UNL     1      24.566 -25.844  26.802  1.00  0.00     0.146 A 
ATOM     11  O   UNL     1      25.126 -26.496  27.814  1.00  0.00    -0.452 OA
ENDROOT
BRANCH   1  12
ATOM     12  C   UNL     1      26.898 -27.136  29.317  1.00  0.00     0.021 A 
ATOM     13  C   UNL     1      26.557 -26.803  30.641  1.00  0.00     0.016 A 
ATOM     14  C   UNL     1      27.023 -27.579  31.707  1.00  0.00     0.047 A 
ATOM     15  C   UNL     1      27.821 -28.704  31.464  1.00  0.00     0.115 A 
ATOM     16  C   UNL     1      27.682 -28.278  29.080  1.00  0.00     0.016 A 
ATOM     17  C   UNL     1      28.147 -29.052  30.148  1.00  0.00     0.047 A 
BRANCH  15  18
ATOM     18  O   UNL     1      28.292 -29.484  32.518  1.00  0.00    -0.508 OA
ATOM     19  H   UNL     1      27.859 -30.368  32.755  1.00  0.00     0.293 HD
ENDBRANCH  15  18
ENDBRANCH   1  12
BRANCH   2  20
ATOM     20  O   UNL     1      28.570 -25.327  27.790  1.00  0.00    -0.502 OA
ATOM     21  H   UNL     1      29.074 -24.456  27.677  1.00  0.00     0.293 HD
ENDBRANCH   2  20
BRANCH   6  22
ATOM     22  O   UNL     1      25.329 -23.468  23.994  1.00  0.00    -0.507 OA
ATOM     23  H   UNL     1      26.169 -22.944  24.184  1.00  0.00     0.293 HD
ENDBRANCH   6  22
BRANCH   8  24
ATOM     24  O   UNL     1      21.218 -25.569  25.252  1.00  0.00    -0.508 OA
ATOM     25  H   UNL     1      20.512 -24.984  25.682  1.00  0.00     0.293 HD
ENDBRANCH   8  24
TORSDOF 5
ENDMDL
MODEL 5
REMARK VINA RESULT:    -6.756      2.241      2.895
REMARK INTER + INTRA:          -8.230
REMARK INTER:                  -8.010
REMARK INTRA:                  -0.220
REMARK UNBOUND:                -0.289
REMARK SMILES O=c1c(O)c(-c2ccc(O)cc2)oc2cc(O)cc(O)c12
REMARK SMILES IDX 5 1 3 2 2 3 1 4 21 5 19 6 18 7 16 8 15 9 14 10 13 11 6 12
REMARK SMILES IDX 7 13 8 14 9 15 12 16 11 17 10 18 4 20 20 22 17 24
REMARK H PARENT 10 19 4 21 20 23 17 25
REMARK Flexibility Score: inf
ROOT
ATOM      1  C   UNL     1      23.556 -21.092  26.174  1.00  0.00     0.180 A 
ATOM      2  C   UNL     1      22.744 -22.069  25.575  1.00  0.00     0.208 A 
ATOM      3  C   UNL     1      23.351 -23.164  24.940  1.00  0.00     0.238 A 
ATOM      4  O   UNL     1      22.617 -24.073  24.471  1.00  0.00    -0.285 OA
ATOM      5  C   UNL     1      24.763 -23.241  24.862  1.00  0.00     0.111 A 
ATOM      6  C   UNL     1      25.485 -24.282  24.203  1.00  0.00     0.134 A 
ATOM      7  C   UNL     1      26.884 -24.308  24.282  1.00  0.00     0.093 A 
ATOM      8  C   UNL     1      27.588 -23.300  24.939  1.00  0.00     0.123 A 
ATOM      9  C   UNL     1      26.894 -22.248  25.538  1.00  0.00     0.094 A 
ATOM     10  C   UNL     1      25.498 -22.214  25.510  1.00  0.00     0.146 A 
ATOM     11  O   UNL     1      24.877 -21.207  26.112  1.00  0.00    -0.452 OA
ENDROOT
BRANCH   1  12
ATOM     12  C   UNL     1      22.990 -19.916  26.874  1.00  0.00     0.021 A 
ATOM     13  C   UNL     1      22.357 -20.042  28.124  1.00  0.00     0.016 A 
ATOM     14  C   UNL     1      21.852 -18.913  28.777  1.00  0.00     0.047 A 
ATOM     15  C   UNL     1      21.986 -17.645  28.198  1.00  0.00     0.115 A 
ATOM     16  C   UNL     1      23.138 -18.638  26.309  1.00  0.00     0.016 A 
ATOM     17  C   UNL     1      22.632 -17.511  26.964  1.00  0.00     0.047 A 
BRANCH  15  18
ATOM     18  O   UNL     1      21.486 -16.514  28.839  1.00  0.00    -0.508 OA
ATOM     19  H   UNL     1      20.505 -16.433  29.080  1.00  0.00     0.293 HD
ENDBRANCH  15  18
ENDBRANCH   1  12
BRANCH   2  20
ATOM     20  O   UNL     1      21.352 -21.937  25.596  1.00  0.00    -0.502 OA
ATOM     21  H   UNL     1      20.787 -22.258  26.374  1.00  0.00     0.293 HD
ENDBRANCH   2  20
BRANCH   6  22
ATOM     22  O   UNL     1      24.886 -25.291  23.443  1.00  0.00    -0.507 OA
ATOM     23  H   UNL     1      24.306 -26.027  23.814  1.00  0.00     0.293 HD
ENDBRANCH   6  22
BRANCH   8  24
ATOM     24  O   UNL     1      28.980 -23.350  24.982  1.00  0.00    -0.508 OA
ATOM     25  H   UNL     1      29.520 -23.741  24.219  1.00  0.00     0.293 HD
ENDBRANCH   8  24
TORSDOF 5
ENDMDL
MODEL 6
REMARK VINA RESULT:    -6.664      4.052      6.732
REMARK INTER + INTRA:          -8.121
REMARK INTER:                  -8.251
REMARK INTRA:                   0.130
REMARK UNBOUND:                -0.289
REMARK SMILES O=c1c(O)c(-c2ccc(O)cc2)oc2cc(O)cc(O)c12
REMARK SMILES IDX 5 1 3 2 2 3 1 4 21 5 19 6 18 7 16 8 15 9 14 10 13 11 6 12
REMARK SMILES IDX 7 13 8 14 9 15 12 16 11 17 10 18 4 20 20 22 17 24
REMARK H PARENT 10 19 4 21 20 23 17 25
REMARK Flexibility Score: inf
ROOT
ATOM      1  C   UNL     1      25.119 -26.035  28.044  1.00  0.00     0.180 A 
ATOM      2  C   UNL     1      24.108 -25.284  28.666  1.00  0.00     0.208 A 
ATOM      3  C   UNL     1      23.334 -24.409  27.888  1.00  0.00     0.238 A 
ATOM      4  O   UNL     1      22.381 -23.795  28.437  1.00  0.00    -0.285 OA
ATOM      5  C   UNL     1      23.616 -24.253  26.509  1.00  0.00     0.111 A 
ATOM      6  C   UNL     1      22.925 -23.361  25.634  1.00  0.00     0.134 A 
ATOM      7  C   UNL     1      23.221 -23.369  24.264  1.00  0.00     0.093 A 
ATOM      8  C   UNL     1      24.225 -24.189  23.749  1.00  0.00     0.123 A 
ATOM      9  C   UNL     1      24.944 -25.024  24.605  1.00  0.00     0.094 A 
ATOM     10  C   UNL     1      24.645 -25.067  25.968  1.00  0.00     0.146 A 
ATOM     11  O   UNL     1      25.340 -25.892  26.743  1.00  0.00    -0.452 OA
ENDROOT
BRANCH   1  12
ATOM     12  C   UNL     1      25.968 -26.989  28.794  1.00  0.00     0.021 A 
ATOM     13  C   UNL     1      25.424 -27.839  29.775  1.00  0.00     0.016 A 
ATOM     14  C   UNL     1      26.242 -28.749  30.453  1.00  0.00     0.047 A 
ATOM     15  C   UNL     1      27.607 -28.832  30.150  1.00  0.00     0.115 A 
ATOM     16  C   UNL     1      27.334 -27.092  28.482  1.00  0.00     0.016 A 
ATOM     17  C   UNL     1      28.149 -28.003  29.161  1.00  0.00     0.047 A 
BRANCH  15  18
ATOM     18  O   UNL     1      28.431 -29.733  30.819  1.00  0.00    -0.508 OA
ATOM     19  H   UNL     1      28.050 -30.524  31.324  1.00  0.00     0.293 HD
ENDBRANCH  15  18
ENDBRANCH   1  12
BRANCH   2  20
ATOM     20  O   UNL     1      23.895 -25.395  30.043  1.00  0.00    -0.502 OA
ATOM     21  H   UNL     1      24.554 -25.854  30.660  1.00  0.00     0.293 HD
ENDBRANCH   2  20
BRANCH   6  22
ATOM     22  O   UNL     1      21.966 -22.436  26.057  1.00  0.00    -0.507 OA
ATOM     23  H   UNL     1      21.961 -21.457  25.816  1.00  0.00     0.293 HD
ENDBRANCH   6  22
BRANCH   8  24
ATOM     24  O   UNL     1      24.504 -24.158  22.385  1.00  0.00    -0.508 OA
ATOM     25  H   UNL     1      24.990 -23.377  21.961  1.00  0.00     0.293 HD
ENDBRANCH   8  24
TORSDOF 5
ENDMDL
MODEL 7
REMARK VINA RESULT:    -6.630     11.096     13.435
REMARK INTER + INTRA:          -8.082
REMARK INTER:                  -7.793
REMARK INTRA:                  -0.288
REMARK UNBOUND:                -0.289
REMARK SMILES O=c1c(O)c(-c2ccc(O)cc2)oc2cc(O)cc(O)c12
REMARK SMILES IDX 5 1 3 2 2 3 1 4 21 5 19 6 18 7 16 8 15 9 14 10 13 11 6 12
REMARK SMILES IDX 7 13 8 14 9 15 12 16 11 17 10 18 4 20 20 22 17 24
REMARK H PARENT 10 19 4 21 20 23 17 25
REMARK Flexibility Score: inf
ROOT
ATOM      1  C   UNL     1      26.820 -27.853  35.936  1.00  0.00     0.180 A 
ATOM      2  C   UNL     1      25.978 -28.689  36.688  1.00  0.00     0.208 A 
ATOM      3  C   UNL     1      25.703 -28.355  38.023  1.00  0.00     0.238 A 
ATOM      4  O   UNL     1      24.889 -29.067  38.668  1.00  0.00    -0.285 OA
ATOM      5  C   UNL     1      26.317 -27.221  38.608  1.00  0.00     0.111 A 
ATOM      6  C   UNL     1      26.146 -26.814  39.966  1.00  0.00     0.134 A 
ATOM      7  C   UNL     1      26.721 -25.614  40.405  1.00  0.00     0.093 A 
ATOM      8  C   UNL     1      27.511 -24.840  39.555  1.00  0.00     0.123 A 
ATOM      9  C   UNL     1      27.730 -25.258  38.242  1.00  0.00     0.094 A 
ATOM     10  C   UNL     1      27.139 -26.429  37.764  1.00  0.00     0.146 A 
ATOM     11  O   UNL     1      27.356 -26.779  36.501  1.00  0.00    -0.452 OA
ENDROOT
BRANCH   1  12
ATOM     12  C   UNL     1      27.145 -28.131  34.518  1.00  0.00     0.021 A 
ATOM     13  C   UNL     1      26.417 -27.539  33.469  1.00  0.00     0.016 A 
ATOM     14  C   UNL     1      26.760 -27.797  32.138  1.00  0.00     0.047 A 
ATOM     15  C   UNL     1      27.840 -28.636  31.838  1.00  0.00     0.115 A 
ATOM     16  C   UNL     1      28.241 -28.954  34.209  1.00  0.00     0.016 A 
ATOM     17  C   UNL     1      28.580 -29.211  32.877  1.00  0.00     0.047 A 
BRANCH  15  18
ATOM     18  O   UNL     1      28.190 -28.902  30.516  1.00  0.00    -0.508 OA
ATOM     19  H   UNL     1      27.894 -28.296  29.760  1.00  0.00     0.293 HD
ENDBRANCH  15  18
ENDBRANCH   1  12
BRANCH   2  20
ATOM     20  O   UNL     1      25.441 -29.846  36.116  1.00  0.00    -0.502 OA
ATOM     21  H   UNL     1      25.933 -30.383  35.411  1.00  0.00     0.293 HD
ENDBRANCH   2  20
BRANCH   6  22
ATOM     22  O   UNL     1      25.450 -27.557  40.925  1.00  0.00    -0.507 OA
ATOM     23  H   UNL     1      24.449 -27.558  41.040  1.00  0.00     0.293 HD
ENDBRANCH   6  22
BRANCH   8  24
ATOM     24  O   UNL     1      28.081 -23.661  40.031  1.00  0.00    -0.508 OA
ATOM     25  H   UNL     1      27.966 -22.782  39.540  1.00  0.00     0.293 HD
ENDBRANCH   8  24
TORSDOF 5
ENDMDL
MODEL 8
REMARK VINA RESULT:    -6.580      4.670      7.139
REMARK INTER + INTRA:          -8.023
REMARK INTER:                  -7.755
REMARK INTRA:                  -0.268
REMARK UNBOUND:                -0.289
REMARK SMILES O=c1c(O)c(-c2ccc(O)cc2)oc2cc(O)cc(O)c12
REMARK SMILES IDX 5 1 3 2 2 3 1 4 21 5 19 6 18 7 16 8 15 9 14 10 13 11 6 12
REMARK SMILES IDX 7 13 8 14 9 15 12 16 11 17 10 18 4 20 20 22 17 24
REMARK H PARENT 10 19 4 21 20 23 17 25
REMARK Flexibility Score: inf
ROOT
ATOM      1  C   UNL     1      26.232 -26.102  27.875  1.00  0.00     0.180 A 
ATOM      2  C   UNL     1      24.958 -26.345  27.335  1.00  0.00     0.208 A 
ATOM      3  C   UNL     1      24.517 -25.566  26.254  1.00  0.00     0.238 A 
ATOM      4  O   UNL     1      23.406 -25.838  25.727  1.00  0.00    -0.285 OA
ATOM      5  C   UNL     1      25.331 -24.517  25.760  1.00  0.00     0.111 A 
ATOM      6  C   UNL     1      24.965 -23.636  24.698  1.00  0.00     0.134 A 
ATOM      7  C   UNL     1      25.896 -22.702  24.225  1.00  0.00     0.093 A 
ATOM      8  C   UNL     1      27.153 -22.574  24.815  1.00  0.00     0.123 A 
ATOM      9  C   UNL     1      27.499 -23.393  25.890  1.00  0.00     0.094 A 
ATOM     10  C   UNL     1      26.608 -24.360  26.360  1.00  0.00     0.146 A 
ATOM     11  O   UNL     1      26.986 -25.133  27.371  1.00  0.00    -0.452 OA
ENDROOT
BRANCH   1  12
ATOM     12  C   UNL     1      26.773 -26.890  29.006  1.00  0.00     0.021 A 
ATOM     13  C   UNL     1      26.399 -26.617  30.335  1.00  0.00     0.016 A 
ATOM     14  C   UNL     1      26.904 -27.391  31.384  1.00  0.00     0.047 A 
ATOM     15  C   UNL     1      27.776 -28.455  31.118  1.00  0.00     0.115 A 
ATOM     16  C   UNL     1      27.631 -27.972  28.746  1.00  0.00     0.016 A 
ATOM     17  C   UNL     1      28.135 -28.744  29.798  1.00  0.00     0.047 A 
BRANCH  15  18
ATOM     18  O   UNL     1      28.286 -29.232  32.156  1.00  0.00    -0.508 OA
ATOM     19  H   UNL     1      27.700 -29.877  32.671  1.00  0.00     0.293 HD
ENDBRANCH  15  18
ENDBRANCH   1  12
BRANCH   2  20
ATOM     20  O   UNL     1      24.138 -27.334  27.884  1.00  0.00    -0.502 OA
ATOM     21  H   UNL     1      23.975 -27.414  28.881  1.00  0.00     0.293 HD
ENDBRANCH   2  20
BRANCH   6  22
ATOM     22  O   UNL     1      23.704 -23.617  24.094  1.00  0.00    -0.507 OA
ATOM     23  H   UNL     1      23.401 -22.943  23.410  1.00  0.00     0.293 HD
ENDBRANCH   6  22
BRANCH   8  24
ATOM     24  O   UNL     1      28.047 -21.622  24.329  1.00  0.00    -0.508 OA
ATOM     25  H   UNL     1      28.994 -21.870  24.068  1.00  0.00     0.293 HD
ENDBRANCH   8  24
TORSDOF 5
ENDMDL
MODEL 9
REMARK VINA RESULT:    -6.501      3.715      6.698
REMARK INTER + INTRA:          -7.930
REMARK INTER:                  -7.673
REMARK INTRA:                  -0.257
REMARK UNBOUND:                -0.289
REMARK SMILES O=c1c(O)c(-c2ccc(O)cc2)oc2cc(O)cc(O)c12
REMARK SMILES IDX 5 1 3 2 2 3 1 4 21 5 19 6 18 7 16 8 15 9 14 10 13 11 6 12
REMARK SMILES IDX 7 13 8 14 9 15 12 16 11 17 10 18 4 20 20 22 17 24
REMARK H PARENT 10 19 4 21 20 23 17 25
REMARK Flexibility Score: inf
ROOT
ATOM      1  C   UNL     1      25.112 -24.846  27.804  1.00  0.00     0.180 A 
ATOM      2  C   UNL     1      23.912 -25.191  27.160  1.00  0.00     0.208 A 
ATOM      3  C   UNL     1      23.135 -24.178  26.578  1.00  0.00     0.238 A 
ATOM      4  O   UNL     1      22.100 -24.503  25.938  1.00  0.00    -0.285 OA
ATOM      5  C   UNL     1      23.537 -22.825  26.694  1.00  0.00     0.111 A 
ATOM      6  C   UNL     1      22.804 -21.712  26.182  1.00  0.00     0.134 A 
ATOM      7  C   UNL     1      23.353 -20.426  26.265  1.00  0.00     0.093 A 
ATOM      8  C   UNL     1      24.576 -20.204  26.897  1.00  0.00     0.123 A 
ATOM      9  C   UNL     1      25.275 -21.278  27.449  1.00  0.00     0.094 A 
ATOM     10  C   UNL     1      24.772 -22.577  27.349  1.00  0.00     0.146 A 
ATOM     11  O   UNL     1      25.480 -23.572  27.870  1.00  0.00    -0.452 OA
ENDROOT
BRANCH   1  12
ATOM     12  C   UNL     1      25.992 -25.859  28.429  1.00  0.00     0.021 A 
ATOM     13  C   UNL     1      27.171 -26.296  27.797  1.00  0.00     0.016 A 
ATOM     14  C   UNL     1      27.999 -27.236  28.419  1.00  0.00     0.047 A 
ATOM     15  C   UNL     1      27.669 -27.739  29.684  1.00  0.00     0.115 A 
ATOM     16  C   UNL     1      25.679 -26.353  29.707  1.00  0.00     0.016 A 
ATOM     17  C   UNL     1      26.509 -27.293  30.326  1.00  0.00     0.047 A 
BRANCH  15  18
ATOM     18  O   UNL     1      28.486 -28.676  30.312  1.00  0.00    -0.508 OA
ATOM     19  H   UNL     1      28.371 -28.905  31.292  1.00  0.00     0.293 HD
ENDBRANCH  15  18
ENDBRANCH   1  12
BRANCH   2  20
ATOM     20  O   UNL     1      23.493 -26.524  27.121  1.00  0.00    -0.502 OA
ATOM     21  H   UNL     1      23.184 -26.973  26.267  1.00  0.00     0.293 HD
ENDBRANCH   2  20
BRANCH   6  22
ATOM     22  O   UNL     1      21.531 -21.809  25.610  1.00  0.00    -0.507 OA
ATOM     23  H   UNL     1      21.087 -22.669  25.331  1.00  0.00     0.293 HD
ENDBRANCH   6  22
BRANCH   8  24
ATOM     24  O   UNL     1      25.084 -18.909  26.975  1.00  0.00    -0.508 OA
ATOM     25  H   UNL     1      24.805 -18.190  26.318  1.00  0.00     0.293 HD
ENDBRANCH   8  24
TORSDOF 5
ENDMDL
