MODEL 1
REMARK VINA RESULT:    -3.282      0.000      0.000
REMARK INTER + INTRA:          -3.176
REMARK INTER:                  -3.762
REMARK INTRA:                   0.586
REMARK UNBOUND:                 0.586
REMARK SMILES O=C([O-])C=Cc1ccc(O)cc1
REMARK SMILES IDX 6 1 7 2 12 3 8 4 11 5 9 6 5 7 4 8 2 9 1 10 3 11 10 12
REMARK H PARENT 10 13
REMARK Flexibility Score: inf
ROOT
ATOM      1  C   UNL     1      -4.226  -1.132   2.441  1.00  0.00    -0.025 A 
ATOM      2  C   UNL     1      -3.886  -0.596   1.187  1.00  0.00     0.012 A 
ATOM      3  C   UNL     1      -4.991  -2.307   2.501  1.00  0.00     0.012 A 
ATOM      4  C   UNL     1      -4.261  -1.257   0.013  1.00  0.00     0.047 A 
ATOM      5  C   UNL     1      -5.364  -2.966   1.326  1.00  0.00     0.047 A 
ATOM      6  C   UNL     1      -4.999  -2.447   0.080  1.00  0.00     0.115 A 
ENDROOT
BRANCH   1   7
ATOM      7  C   UNL     1      -3.889  -0.425   3.694  1.00  0.00     0.010 C 
ATOM      8  C   UNL     1      -2.758   0.262   3.918  1.00  0.00     0.025 C 
BRANCH   8   9
ATOM      9  C   UNL     1      -1.576   0.274   3.036  1.00  0.00     0.064 C 
ATOM     10  O   UNL     1      -1.574   1.016   2.019  1.00  0.00    -0.545 OA
ATOM     11  O   UNL     1      -0.435  -0.460   3.339  1.00  0.00    -0.545 OA
ENDBRANCH   8   9
ENDBRANCH   1   7
BRANCH   6  12
ATOM     12  O   UNL     1      -5.376  -3.114  -1.082  1.00  0.00    -0.508 OA
ATOM     13  H   UNL     1      -5.883  -2.643  -1.823  1.00  0.00     0.293 HD
ENDBRANCH   6  12
TORSDOF 3
ENDMDL
MODEL 2
REMARK VINA RESULT:    -1.695      1.078      4.631
REMARK INTER + INTRA:          -1.357
REMARK INTER:                  -2.205
REMARK INTRA:                   0.848
REMARK UNBOUND:                 0.586
REMARK SMILES O=C([O-])C=Cc1ccc(O)cc1
REMARK SMILES IDX 6 1 7 2 12 3 8 4 11 5 9 6 5 7 4 8 2 9 1 10 3 11 10 12
REMARK H PARENT 10 13
REMARK Flexibility Score: inf
ROOT
ATOM      1  C   UNL     1      -4.440  -1.273   2.299  1.00  0.00    -0.025 A 
ATOM      2  C   UNL     1      -3.518  -0.839   1.331  1.00  0.00     0.012 A 
ATOM      3  C   UNL     1      -4.176  -1.032   3.656  1.00  0.00     0.012 A 
ATOM      4  C   UNL     1      -2.376  -0.129   1.714  1.00  0.00     0.047 A 
ATOM      5  C   UNL     1      -3.034  -0.322   4.037  1.00  0.00     0.047 A 
ATOM      6  C   UNL     1      -2.132   0.135   3.069  1.00  0.00     0.115 A 
ENDROOT
BRANCH   1   7
ATOM      7  C   UNL     1      -5.626  -2.071   1.924  1.00  0.00     0.010 C 
ATOM      8  C   UNL     1      -5.895  -2.532   0.693  1.00  0.00     0.025 C 
BRANCH   8   9
ATOM      9  C   UNL     1      -5.163  -2.168  -0.535  1.00  0.00     0.064 C 
ATOM     10  O   UNL     1      -4.444  -3.030  -1.103  1.00  0.00    -0.545 OA
ATOM     11  O   UNL     1      -5.306  -0.915  -1.121  1.00  0.00    -0.545 OA
ENDBRANCH   8   9
ENDBRANCH   1   7
BRANCH   6  12
ATOM     12  O   UNL     1      -1.000   0.842   3.462  1.00  0.00    -0.508 OA
ATOM     13  H   UNL     1      -0.117   0.742   2.974  1.00  0.00     0.293 HD
ENDBRANCH   6  12
TORSDOF 3
ENDMDL
