MODEL 1
REMARK VINA RESULT:    -3.975      0.000      0.000
REMARK INTER + INTRA:         -13.205
REMARK INTER:                  -9.087
REMARK INTRA:                  -4.118
REMARK UNBOUND:                -4.118
REMARK SMILES CCCCCCCCCCCCCCCCCCCCCCCC(=O)[O-]
REMARK SMILES IDX 13 1 14 2 15 3 16 4 17 5 18 6 19 7 20 8 21 9 22 10 23 11
REMARK SMILES IDX 24 12 25 13 26 14 12 15 11 16 10 17 9 18 8 19 7 20 6 21 5 22
REMARK SMILES IDX 4 23 3 24 2 25 1 26
REMARK H PARENT
REMARK Flexibility Score: inf
ROOT
ATOM      1  C   UNL     1     -36.086   5.879  -1.432  1.00  0.00     0.000 C 
ENDROOT
BRANCH   1   2
ATOM      2  C   UNL     1     -35.694   7.356  -1.659  1.00  0.00     0.000 C 
BRANCH   2   3
ATOM      3  C   UNL     1     -35.987   7.863  -3.082  1.00  0.00     0.000 C 
BRANCH   3   4
ATOM      4  C   UNL     1     -34.998   8.945  -3.544  1.00  0.00     0.000 C 
BRANCH   4   5
ATOM      5  C   UNL     1     -33.565   8.685  -3.053  1.00  0.00     0.000 C 
BRANCH   5   6
ATOM      6  C   UNL     1     -32.603   8.308  -4.193  1.00  0.00     0.000 C 
BRANCH   6   7
ATOM      7  C   UNL     1     -32.334   6.794  -4.266  1.00  0.00     0.000 C 
BRANCH   7   8
ATOM      8  C   UNL     1     -33.408   5.984  -5.020  1.00  0.00     0.000 C 
BRANCH   8   9
ATOM      9  C   UNL     1     -33.810   4.652  -4.357  1.00  0.00     0.000 C 
BRANCH   9  10
ATOM     10  C   UNL     1     -35.215   4.138  -4.726  1.00  0.00     0.006 C 
BRANCH  10  11
ATOM     11  C   UNL     1     -35.589   2.845  -3.989  1.00  0.00     0.053 C 
BRANCH  11  12
ATOM     12  C   UNL     1     -35.398   1.658  -4.879  1.00  0.00     0.041 C 
ATOM     13  O   UNL     1     -35.550   0.492  -4.425  1.00  0.00    -0.550 OA
ATOM     14  O   UNL     1     -35.035   1.836  -6.210  1.00  0.00    -0.550 OA
ENDBRANCH  11  12
ENDBRANCH  10  11
ENDBRANCH   9  10
ENDBRANCH   8   9
ENDBRANCH   7   8
ENDBRANCH   6   7
ENDBRANCH   5   6
ENDBRANCH   4   5
ENDBRANCH   3   4
ENDBRANCH   2   3
ENDBRANCH   1   2
BRANCH   1  15
ATOM     15  C   UNL     1     -34.884   5.021  -0.997  1.00  0.00     0.000 C 
BRANCH  15  16
ATOM     16  C   UNL     1     -33.583   5.832  -0.898  1.00  0.00     0.000 C 
BRANCH  16  17
ATOM     17  C   UNL     1     -32.355   4.943  -0.640  1.00  0.00     0.000 C 
BRANCH  17  18
ATOM     18  C   UNL     1     -31.122   5.754  -0.208  1.00  0.00    -0.000 C 
BRANCH  18  19
ATOM     19  C   UNL     1     -31.088   7.160  -0.827  1.00  0.00    -0.000 C 
BRANCH  19  20
ATOM     20  C   UNL     1     -29.646   7.588  -1.133  1.00  0.00    -0.000 C 
BRANCH  20  21
ATOM     21  C   UNL     1     -29.147   7.115  -2.513  1.00  0.00    -0.000 C 
BRANCH  21  22
ATOM     22  C   UNL     1     -27.978   6.109  -2.480  1.00  0.00    -0.000 C 
BRANCH  22  23
ATOM     23  C   UNL     1     -28.411   4.625  -2.540  1.00  0.00    -0.000 C 
BRANCH  23  24
ATOM     24  C   UNL     1     -28.174   3.855  -1.226  1.00  0.00    -0.000 C 
BRANCH  24  25
ATOM     25  C   UNL     1     -27.197   4.535  -0.250  1.00  0.00    -0.003 C 
ATOM     26  C   UNL     1     -27.021   3.757   1.056  1.00  0.00     0.004 C 
ENDBRANCH  24  25
ENDBRANCH  23  24
ENDBRANCH  22  23
ENDBRANCH  21  22
ENDBRANCH  20  21
ENDBRANCH  19  20
ENDBRANCH  18  19
ENDBRANCH  17  18
ENDBRANCH  16  17
ENDBRANCH  15  16
ENDBRANCH   1  15
TORSDOF 22
ENDMDL
MODEL 2
REMARK VINA RESULT:    -3.834      2.322      3.392
REMARK INTER + INTRA:         -12.883
REMARK INTER:                  -8.314
REMARK INTRA:                  -4.570
REMARK UNBOUND:                -4.118
REMARK SMILES CCCCCCCCCCCCCCCCCCCCCCCC(=O)[O-]
REMARK SMILES IDX 13 1 14 2 15 3 16 4 17 5 18 6 19 7 20 8 21 9 22 10 23 11
REMARK SMILES IDX 24 12 25 13 26 14 12 15 11 16 10 17 9 18 8 19 7 20 6 21 5 22
REMARK SMILES IDX 4 23 3 24 2 25 1 26
REMARK H PARENT
REMARK Flexibility Score: inf
ROOT
ATOM      1  C   UNL     1     -33.304   7.399  -1.872  1.00  0.00     0.000 C 
ENDROOT
BRANCH   1   2
ATOM      2  C   UNL     1     -34.840   7.558  -1.886  1.00  0.00     0.000 C 
BRANCH   2   3
ATOM      3  C   UNL     1     -35.592   6.368  -1.265  1.00  0.00     0.000 C 
BRANCH   3   4
ATOM      4  C   UNL     1     -36.449   5.605  -2.288  1.00  0.00     0.000 C 
BRANCH   4   5
ATOM      5  C   UNL     1     -36.441   6.264  -3.676  1.00  0.00     0.000 C 
BRANCH   5   6
ATOM      6  C   UNL     1     -36.021   5.295  -4.794  1.00  0.00     0.000 C 
BRANCH   6   7
ATOM      7  C   UNL     1     -34.530   5.416  -5.156  1.00  0.00     0.000 C 
BRANCH   7   8
ATOM      8  C   UNL     1     -33.671   4.196  -4.763  1.00  0.00     0.000 C 
BRANCH   8   9
ATOM      9  C   UNL     1     -33.147   4.202  -3.313  1.00  0.00     0.000 C 
BRANCH   9  10
ATOM     10  C   UNL     1     -33.693   3.074  -2.418  1.00  0.00     0.006 C 
BRANCH  10  11
ATOM     11  C   UNL     1     -32.664   2.571  -1.398  1.00  0.00     0.053 C 
BRANCH  11  12
ATOM     12  C   UNL     1     -32.965   3.112  -0.036  1.00  0.00     0.041 C 
ATOM     13  O   UNL     1     -34.139   3.460   0.265  1.00  0.00    -0.550 OA
ATOM     14  O   UNL     1     -31.946   3.248   0.901  1.00  0.00    -0.550 OA
ENDBRANCH  11  12
ENDBRANCH  10  11
ENDBRANCH   9  10
ENDBRANCH   8   9
ENDBRANCH   7   8
ENDBRANCH   6   7
ENDBRANCH   5   6
ENDBRANCH   4   5
ENDBRANCH   3   4
ENDBRANCH   2   3
ENDBRANCH   1   2
BRANCH   1  15
ATOM     15  C   UNL     1     -32.811   6.642  -0.625  1.00  0.00     0.000 C 
BRANCH  15  16
ATOM     16  C   UNL     1     -31.278   6.591  -0.532  1.00  0.00     0.000 C 
BRANCH  16  17
ATOM     17  C   UNL     1     -30.601   7.676  -1.387  1.00  0.00     0.000 C 
BRANCH  17  18
ATOM     18  C   UNL     1     -29.101   7.816  -1.079  1.00  0.00    -0.000 C 
BRANCH  18  19
ATOM     19  C   UNL     1     -28.237   7.895  -2.347  1.00  0.00    -0.000 C 
BRANCH  19  20
ATOM     20  C   UNL     1     -28.813   7.003  -3.457  1.00  0.00    -0.000 C 
BRANCH  20  21
ATOM     21  C   UNL     1     -27.887   5.833  -3.844  1.00  0.00    -0.000 C 
BRANCH  21  22
ATOM     22  C   UNL     1     -28.579   4.459  -3.962  1.00  0.00    -0.000 C 
BRANCH  22  23
ATOM     23  C   UNL     1     -29.578   4.149  -2.822  1.00  0.00    -0.000 C 
BRANCH  23  24
ATOM     24  C   UNL     1     -28.969   3.334  -1.666  1.00  0.00    -0.000 C 
BRANCH  24  25
ATOM     25  C   UNL     1     -28.669   4.148  -0.394  1.00  0.00    -0.003 C 
ATOM     26  C   UNL     1     -27.216   4.620  -0.318  1.00  0.00     0.004 C 
ENDBRANCH  24  25
ENDBRANCH  23  24
ENDBRANCH  22  23
ENDBRANCH  21  22
ENDBRANCH  20  21
ENDBRANCH  19  20
ENDBRANCH  18  19
ENDBRANCH  17  18
ENDBRANCH  16  17
ENDBRANCH  15  16
ENDBRANCH   1  15
TORSDOF 22
ENDMDL
MODEL 3
REMARK VINA RESULT:    -3.826      1.218      3.111
REMARK INTER + INTRA:         -12.866
REMARK INTER:                  -7.898
REMARK INTRA:                  -4.968
REMARK UNBOUND:                -4.118
REMARK SMILES CCCCCCCCCCCCCCCCCCCCCCCC(=O)[O-]
REMARK SMILES IDX 13 1 14 2 15 3 16 4 17 5 18 6 19 7 20 8 21 9 22 10 23 11
REMARK SMILES IDX 24 12 25 13 26 14 12 15 11 16 10 17 9 18 8 19 7 20 6 21 5 22
REMARK SMILES IDX 4 23 3 24 2 25 1 26
REMARK H PARENT
REMARK Flexibility Score: inf
ROOT
ATOM      1  C   UNL     1     -32.674   5.544  -4.515  1.00  0.00     0.000 C 
ENDROOT
BRANCH   1   2
ATOM      2  C   UNL     1     -33.706   6.543  -5.082  1.00  0.00     0.000 C 
BRANCH   2   3
ATOM      3  C   UNL     1     -35.119   5.953  -5.239  1.00  0.00     0.000 C 
BRANCH   3   4
ATOM      4  C   UNL     1     -36.201   6.812  -4.566  1.00  0.00     0.000 C 
BRANCH   4   5
ATOM      5  C   UNL     1     -35.615   7.856  -3.604  1.00  0.00     0.000 C 
BRANCH   5   6
ATOM      6  C   UNL     1     -35.793   7.472  -2.125  1.00  0.00     0.000 C 
BRANCH   6   7
ATOM      7  C   UNL     1     -34.456   7.172  -1.425  1.00  0.00     0.000 C 
BRANCH   7   8
ATOM      8  C   UNL     1     -34.232   5.687  -1.073  1.00  0.00     0.000 C 
BRANCH   8   9
ATOM      9  C   UNL     1     -35.343   4.727  -1.543  1.00  0.00     0.000 C 
BRANCH   9  10
ATOM     10  C   UNL     1     -34.854   3.504  -2.343  1.00  0.00     0.006 C 
BRANCH  10  11
ATOM     11  C   UNL     1     -35.944   2.903  -3.239  1.00  0.00     0.053 C 
BRANCH  11  12
ATOM     12  C   UNL     1     -35.359   1.893  -4.174  1.00  0.00     0.041 C 
ATOM     13  O   UNL     1     -34.737   2.267  -5.205  1.00  0.00    -0.550 OA
ATOM     14  O   UNL     1     -35.512   0.534  -3.917  1.00  0.00    -0.550 OA
ENDBRANCH  11  12
ENDBRANCH  10  11
ENDBRANCH   9  10
ENDBRANCH   8   9
ENDBRANCH   7   8
ENDBRANCH   6   7
ENDBRANCH   5   6
ENDBRANCH   4   5
ENDBRANCH   3   4
ENDBRANCH   2   3
ENDBRANCH   1   2
BRANCH   1  15
ATOM     15  C   UNL     1     -31.573   6.247  -3.700  1.00  0.00     0.000 C 
BRANCH  15  16
ATOM     16  C   UNL     1     -31.763   7.770  -3.640  1.00  0.00     0.000 C 
BRANCH  16  17
ATOM     17  C   UNL     1     -30.947   8.420  -2.510  1.00  0.00     0.000 C 
BRANCH  17  18
ATOM     18  C   UNL     1     -30.593   7.424  -1.393  1.00  0.00    -0.000 C 
BRANCH  18  19
ATOM     19  C   UNL     1     -29.088   7.383  -1.087  1.00  0.00    -0.000 C 
BRANCH  19  20
ATOM     20  C   UNL     1     -28.283   7.026  -2.344  1.00  0.00    -0.000 C 
BRANCH  20  21
ATOM     21  C   UNL     1     -28.032   5.512  -2.501  1.00  0.00    -0.000 C 
BRANCH  21  22
ATOM     22  C   UNL     1     -27.763   4.751  -1.186  1.00  0.00    -0.000 C 
BRANCH  22  23
ATOM     23  C   UNL     1     -28.785   3.632  -0.877  1.00  0.00    -0.000 C 
BRANCH  23  24
ATOM     24  C   UNL     1     -29.851   3.444  -1.974  1.00  0.00    -0.000 C 
BRANCH  24  25
ATOM     25  C   UNL     1     -31.301   3.393  -1.459  1.00  0.00    -0.003 C 
ATOM     26  C   UNL     1     -31.434   3.856  -0.007  1.00  0.00     0.004 C 
ENDBRANCH  24  25
ENDBRANCH  23  24
ENDBRANCH  22  23
ENDBRANCH  21  22
ENDBRANCH  20  21
ENDBRANCH  19  20
ENDBRANCH  18  19
ENDBRANCH  17  18
ENDBRANCH  16  17
ENDBRANCH  15  16
ENDBRANCH   1  15
TORSDOF 22
ENDMDL
MODEL 4
REMARK VINA RESULT:    -3.817      2.808      6.072
REMARK INTER + INTRA:         -12.844
REMARK INTER:                  -9.068
REMARK INTRA:                  -3.776
REMARK UNBOUND:                -4.118
REMARK SMILES CCCCCCCCCCCCCCCCCCCCCCCC(=O)[O-]
REMARK SMILES IDX 13 1 14 2 15 3 16 4 17 5 18 6 19 7 20 8 21 9 22 10 23 11
REMARK SMILES IDX 24 12 25 13 26 14 12 15 11 16 10 17 9 18 8 19 7 20 6 21 5 22
REMARK SMILES IDX 4 23 3 24 2 25 1 26
REMARK H PARENT
REMARK Flexibility Score: inf
ROOT
ATOM      1  C   UNL     1     -33.198   7.015  -0.864  1.00  0.00     0.000 C 
ENDROOT
BRANCH   1   2
ATOM      2  C   UNL     1     -31.674   6.906  -0.642  1.00  0.00     0.000 C 
BRANCH   2   3
ATOM      3  C   UNL     1     -30.870   6.724  -1.941  1.00  0.00     0.000 C 
BRANCH   3   4
ATOM      4  C   UNL     1     -29.642   7.646  -2.017  1.00  0.00     0.000 C 
BRANCH   4   5
ATOM      5  C   UNL     1     -28.316   6.873  -1.940  1.00  0.00     0.000 C 
BRANCH   5   6
ATOM      6  C   UNL     1     -28.174   6.061  -0.642  1.00  0.00     0.000 C 
BRANCH   6   7
ATOM      7  C   UNL     1     -27.554   4.671  -0.877  1.00  0.00     0.000 C 
BRANCH   7   8
ATOM      8  C   UNL     1     -28.561   3.503  -0.843  1.00  0.00     0.000 C 
BRANCH   8   9
ATOM      9  C   UNL     1     -29.430   3.349  -2.107  1.00  0.00     0.000 C 
BRANCH   9  10
ATOM     10  C   UNL     1     -28.658   3.404  -3.440  1.00  0.00     0.006 C 
BRANCH  10  11
ATOM     11  C   UNL     1     -29.290   4.363  -4.456  1.00  0.00     0.053 C 
BRANCH  11  12
ATOM     12  C   UNL     1     -28.373   4.578  -5.618  1.00  0.00     0.041 C 
ATOM     13  O   UNL     1     -28.577   3.977  -6.708  1.00  0.00    -0.550 OA
ATOM     14  O   UNL     1     -27.281   5.430  -5.496  1.00  0.00    -0.550 OA
ENDBRANCH  11  12
ENDBRANCH  10  11
ENDBRANCH   9  10
ENDBRANCH   8   9
ENDBRANCH   7   8
ENDBRANCH   6   7
ENDBRANCH   5   6
ENDBRANCH   4   5
ENDBRANCH   3   4
ENDBRANCH   2   3
ENDBRANCH   1   2
BRANCH   1  15
ATOM     15  C   UNL     1     -33.543   7.728  -2.184  1.00  0.00     0.000 C 
BRANCH  15  16
ATOM     16  C   UNL     1     -35.029   7.602  -2.554  1.00  0.00     0.000 C 
BRANCH  16  17
ATOM     17  C   UNL     1     -35.857   6.938  -1.440  1.00  0.00     0.000 C 
BRANCH  17  18
ATOM     18  C   UNL     1     -36.369   5.544  -1.841  1.00  0.00    -0.000 C 
BRANCH  18  19
ATOM     19  C   UNL     1     -35.975   5.154  -3.274  1.00  0.00    -0.000 C 
BRANCH  19  20
ATOM     20  C   UNL     1     -35.232   3.811  -3.290  1.00  0.00    -0.000 C 
BRANCH  20  21
ATOM     21  C   UNL     1     -33.745   3.930  -2.899  1.00  0.00    -0.000 C 
BRANCH  21  22
ATOM     22  C   UNL     1     -33.239   2.860  -1.909  1.00  0.00    -0.000 C 
BRANCH  22  23
ATOM     23  C   UNL     1     -32.844   3.414  -0.520  1.00  0.00    -0.000 C 
BRANCH  23  24
ATOM     24  C   UNL     1     -34.034   3.573   0.446  1.00  0.00    -0.000 C 
BRANCH  24  25
ATOM     25  C   UNL     1     -33.887   2.815   1.778  1.00  0.00    -0.003 C 
ATOM     26  C   UNL     1     -35.142   2.894   2.650  1.00  0.00     0.004 C 
ENDBRANCH  24  25
ENDBRANCH  23  24
ENDBRANCH  22  23
ENDBRANCH  21  22
ENDBRANCH  20  21
ENDBRANCH  19  20
ENDBRANCH  18  19
ENDBRANCH  17  18
ENDBRANCH  16  17
ENDBRANCH  15  16
ENDBRANCH   1  15
TORSDOF 22
ENDMDL
MODEL 5
REMARK VINA RESULT:    -3.756      1.396      3.113
REMARK INTER + INTRA:         -12.705
REMARK INTER:                  -8.709
REMARK INTRA:                  -3.996
REMARK UNBOUND:                -4.118
REMARK SMILES CCCCCCCCCCCCCCCCCCCCCCCC(=O)[O-]
REMARK SMILES IDX 13 1 14 2 15 3 16 4 17 5 18 6 19 7 20 8 21 9 22 10 23 11
REMARK SMILES IDX 24 12 25 13 26 14 12 15 11 16 10 17 9 18 8 19 7 20 6 21 5 22
REMARK SMILES IDX 4 23 3 24 2 25 1 26
REMARK H PARENT
REMARK Flexibility Score: inf
ROOT
ATOM      1  C   UNL     1     -33.296   8.749  -3.192  1.00  0.00     0.000 C 
ENDROOT
BRANCH   1   2
ATOM      2  C   UNL     1     -34.694   8.847  -3.841  1.00  0.00     0.000 C 
BRANCH   2   3
ATOM      3  C   UNL     1     -35.836   8.363  -2.931  1.00  0.00     0.000 C 
BRANCH   3   4
ATOM      4  C   UNL     1     -36.124   6.861  -3.085  1.00  0.00     0.000 C 
BRANCH   4   5
ATOM      5  C   UNL     1     -36.223   6.135  -1.734  1.00  0.00     0.000 C 
BRANCH   5   6
ATOM      6  C   UNL     1     -34.851   5.706  -1.186  1.00  0.00     0.000 C 
BRANCH   6   7
ATOM      7  C   UNL     1     -34.498   4.251  -1.544  1.00  0.00     0.000 C 
BRANCH   7   8
ATOM      8  C   UNL     1     -33.517   4.098  -2.724  1.00  0.00     0.000 C 
BRANCH   8   9
ATOM      9  C   UNL     1     -34.177   3.894  -4.103  1.00  0.00     0.000 C 
BRANCH   9  10
ATOM     10  C   UNL     1     -35.501   3.105  -4.082  1.00  0.00     0.006 C 
BRANCH  10  11
ATOM     11  C   UNL     1     -35.290   1.591  -3.949  1.00  0.00     0.053 C 
BRANCH  11  12
ATOM     12  C   UNL     1     -35.528   0.910  -5.260  1.00  0.00     0.041 C 
ATOM     13  O   UNL     1     -36.371   1.375  -6.074  1.00  0.00    -0.550 OA
ATOM     14  O   UNL     1     -34.830  -0.250  -5.579  1.00  0.00    -0.550 OA
ENDBRANCH  11  12
ENDBRANCH  10  11
ENDBRANCH   9  10
ENDBRANCH   8   9
ENDBRANCH   7   8
ENDBRANCH   6   7
ENDBRANCH   5   6
ENDBRANCH   4   5
ENDBRANCH   3   4
ENDBRANCH   2   3
ENDBRANCH   1   2
BRANCH   1  15
ATOM     15  C   UNL     1     -32.466   7.591  -3.775  1.00  0.00     0.000 C 
BRANCH  15  16
ATOM     16  C   UNL     1     -31.427   7.049  -2.780  1.00  0.00     0.000 C 
BRANCH  16  17
ATOM     17  C   UNL     1     -31.667   7.555  -1.347  1.00  0.00     0.000 C 
BRANCH  17  18
ATOM     18  C   UNL     1     -31.379   6.477  -0.288  1.00  0.00    -0.000 C 
BRANCH  18  19
ATOM     19  C   UNL     1     -30.185   5.583  -0.658  1.00  0.00    -0.000 C 
BRANCH  19  20
ATOM     20  C   UNL     1     -30.560   4.098  -0.548  1.00  0.00    -0.000 C 
BRANCH  20  21
ATOM     21  C   UNL     1     -29.640   3.173  -1.369  1.00  0.00    -0.000 C 
BRANCH  21  22
ATOM     22  C   UNL     1     -28.469   3.878  -2.085  1.00  0.00    -0.000 C 
BRANCH  22  23
ATOM     23  C   UNL     1     -28.616   3.955  -3.623  1.00  0.00    -0.000 C 
BRANCH  23  24
ATOM     24  C   UNL     1     -28.334   5.353  -4.205  1.00  0.00    -0.000 C 
BRANCH  24  25
ATOM     25  C   UNL     1     -27.693   6.343  -3.216  1.00  0.00    -0.003 C 
ATOM     26  C   UNL     1     -27.898   7.805  -3.619  1.00  0.00     0.004 C 
ENDBRANCH  24  25
ENDBRANCH  23  24
ENDBRANCH  22  23
ENDBRANCH  21  22
ENDBRANCH  20  21
ENDBRANCH  19  20
ENDBRANCH  18  19
ENDBRANCH  17  18
ENDBRANCH  16  17
ENDBRANCH  15  16
ENDBRANCH   1  15
TORSDOF 22
ENDMDL
MODEL 6
REMARK VINA RESULT:    -3.745      3.186      6.406
REMARK INTER + INTRA:         -12.680
REMARK INTER:                  -8.361
REMARK INTRA:                  -4.319
REMARK UNBOUND:                -4.118
REMARK SMILES CCCCCCCCCCCCCCCCCCCCCCCC(=O)[O-]
REMARK SMILES IDX 13 1 14 2 15 3 16 4 17 5 18 6 19 7 20 8 21 9 22 10 23 11
REMARK SMILES IDX 24 12 25 13 26 14 12 15 11 16 10 17 9 18 8 19 7 20 6 21 5 22
REMARK SMILES IDX 4 23 3 24 2 25 1 26
REMARK H PARENT
REMARK Flexibility Score: inf
ROOT
ATOM      1  C   UNL     1     -31.711   7.133  -1.147  1.00  0.00     0.000 C 
ENDROOT
BRANCH   1   2
ATOM      2  C   UNL     1     -30.302   7.746  -0.987  1.00  0.00     0.000 C 
BRANCH   2   3
ATOM      3  C   UNL     1     -30.147   9.125  -1.652  1.00  0.00     0.000 C 
BRANCH   3   4
ATOM      4  C   UNL     1     -28.841   9.258  -2.451  1.00  0.00     0.000 C 
BRANCH   4   5
ATOM      5  C   UNL     1     -28.056   7.939  -2.526  1.00  0.00     0.000 C 
BRANCH   5   6
ATOM      6  C   UNL     1     -27.930   7.400  -3.962  1.00  0.00     0.000 C 
BRANCH   6   7
ATOM      7  C   UNL     1     -28.844   6.190  -4.223  1.00  0.00     0.000 C 
BRANCH   7   8
ATOM      8  C   UNL     1     -28.243   4.829  -3.816  1.00  0.00     0.000 C 
BRANCH   8   9
ATOM      9  C   UNL     1     -29.201   3.888  -3.059  1.00  0.00     0.000 C 
BRANCH   9  10
ATOM     10  C   UNL     1     -29.190   4.042  -1.526  1.00  0.00     0.006 C 
BRANCH  10  11
ATOM     11  C   UNL     1     -27.869   4.612  -0.994  1.00  0.00     0.053 C 
BRANCH  11  12
ATOM     12  C   UNL     1     -27.412   3.847   0.208  1.00  0.00     0.041 C 
ATOM     13  O   UNL     1     -27.879   2.701   0.447  1.00  0.00    -0.550 OA
ATOM     14  O   UNL     1     -26.480   4.406   1.076  1.00  0.00    -0.550 OA
ENDBRANCH  11  12
ENDBRANCH  10  11
ENDBRANCH   9  10
ENDBRANCH   8   9
ENDBRANCH   7   8
ENDBRANCH   6   7
ENDBRANCH   5   6
ENDBRANCH   4   5
ENDBRANCH   3   4
ENDBRANCH   2   3
ENDBRANCH   1   2
BRANCH   1  15
ATOM     15  C   UNL     1     -31.890   6.439  -2.510  1.00  0.00     0.000 C 
BRANCH  15  16
ATOM     16  C   UNL     1     -32.726   7.274  -3.493  1.00  0.00     0.000 C 
BRANCH  16  17
ATOM     17  C   UNL     1     -33.629   8.293  -2.778  1.00  0.00     0.000 C 
BRANCH  17  18
ATOM     18  C   UNL     1     -35.092   7.824  -2.694  1.00  0.00    -0.000 C 
BRANCH  18  19
ATOM     19  C   UNL     1     -35.434   7.184  -1.340  1.00  0.00    -0.000 C 
BRANCH  19  20
ATOM     20  C   UNL     1     -36.425   6.024  -1.518  1.00  0.00    -0.000 C 
BRANCH  20  21
ATOM     21  C   UNL     1     -36.260   5.280  -2.858  1.00  0.00    -0.000 C 
BRANCH  21  22
ATOM     22  C   UNL     1     -35.700   3.846  -2.748  1.00  0.00    -0.000 C 
BRANCH  22  23
ATOM     23  C   UNL     1     -34.161   3.752  -2.867  1.00  0.00    -0.000 C 
BRANCH  23  24
ATOM     24  C   UNL     1     -33.475   3.170  -1.615  1.00  0.00    -0.000 C 
BRANCH  24  25
ATOM     25  C   UNL     1     -33.594   4.043  -0.353  1.00  0.00    -0.003 C 
ATOM     26  C   UNL     1     -32.510   3.743   0.684  1.00  0.00     0.004 C 
ENDBRANCH  24  25
ENDBRANCH  23  24
ENDBRANCH  22  23
ENDBRANCH  21  22
ENDBRANCH  20  21
ENDBRANCH  19  20
ENDBRANCH  18  19
ENDBRANCH  17  18
ENDBRANCH  16  17
ENDBRANCH  15  16
ENDBRANCH   1  15
TORSDOF 22
ENDMDL
MODEL 7
REMARK VINA RESULT:    -3.736      3.116      5.745
REMARK INTER + INTRA:         -12.660
REMARK INTER:                  -8.534
REMARK INTRA:                  -4.125
REMARK UNBOUND:                -4.118
REMARK SMILES CCCCCCCCCCCCCCCCCCCCCCCC(=O)[O-]
REMARK SMILES IDX 13 1 14 2 15 3 16 4 17 5 18 6 19 7 20 8 21 9 22 10 23 11
REMARK SMILES IDX 24 12 25 13 26 14 12 15 11 16 10 17 9 18 8 19 7 20 6 21 5 22
REMARK SMILES IDX 4 23 3 24 2 25 1 26
REMARK H PARENT
REMARK Flexibility Score: inf
ROOT
ATOM      1  C   UNL     1     -34.575   2.102  -3.325  1.00  0.00     0.000 C 
ENDROOT
BRANCH   1   2
ATOM      2  C   UNL     1     -35.629   1.134  -3.906  1.00  0.00     0.000 C 
BRANCH   2   3
ATOM      3  C   UNL     1     -35.378   0.756  -5.377  1.00  0.00     0.000 C 
BRANCH   3   4
ATOM      4  C   UNL     1     -36.193   1.613  -6.359  1.00  0.00     0.000 C 
BRANCH   4   5
ATOM      5  C   UNL     1     -35.307   2.515  -7.233  1.00  0.00     0.000 C 
BRANCH   5   6
ATOM      6  C   UNL     1     -35.016   3.877  -6.581  1.00  0.00     0.000 C 
BRANCH   6   7
ATOM      7  C   UNL     1     -33.512   4.119  -6.357  1.00  0.00     0.000 C 
BRANCH   7   8
ATOM      8  C   UNL     1     -33.183   5.223  -5.332  1.00  0.00     0.000 C 
BRANCH   8   9
ATOM      9  C   UNL     1     -32.244   4.795  -4.186  1.00  0.00     0.000 C 
BRANCH   9  10
ATOM     10  C   UNL     1     -30.996   5.679  -4.001  1.00  0.00     0.006 C 
BRANCH  10  11
ATOM     11  C   UNL     1     -29.807   4.914  -3.404  1.00  0.00     0.053 C 
BRANCH  11  12
ATOM     12  C   UNL     1     -28.920   5.840  -2.634  1.00  0.00     0.041 C 
ATOM     13  O   UNL     1     -28.118   5.383  -1.774  1.00  0.00    -0.550 OA
ATOM     14  O   UNL     1     -28.986   7.212  -2.854  1.00  0.00    -0.550 OA
ENDBRANCH  11  12
ENDBRANCH  10  11
ENDBRANCH   9  10
ENDBRANCH   8   9
ENDBRANCH   7   8
ENDBRANCH   6   7
ENDBRANCH   5   6
ENDBRANCH   4   5
ENDBRANCH   3   4
ENDBRANCH   2   3
ENDBRANCH   1   2
BRANCH   1  15
ATOM     15  C   UNL     1     -35.223   3.294  -2.596  1.00  0.00     0.000 C 
BRANCH  15  16
ATOM     16  C   UNL     1     -36.471   3.823  -3.320  1.00  0.00     0.000 C 
BRANCH  16  17
ATOM     17  C   UNL     1     -36.745   5.305  -3.010  1.00  0.00     0.000 C 
BRANCH  17  18
ATOM     18  C   UNL     1     -36.359   5.686  -1.571  1.00  0.00    -0.000 C 
BRANCH  18  19
ATOM     19  C   UNL     1     -36.072   7.186  -1.409  1.00  0.00    -0.000 C 
BRANCH  19  20
ATOM     20  C   UNL     1     -34.608   7.502  -1.746  1.00  0.00    -0.000 C 
BRANCH  20  21
ATOM     21  C   UNL     1     -33.631   6.381  -1.339  1.00  0.00    -0.000 C 
BRANCH  21  22
ATOM     22  C   UNL     1     -32.287   6.861  -0.752  1.00  0.00    -0.000 C 
BRANCH  22  23
ATOM     23  C   UNL     1     -31.516   5.781   0.043  1.00  0.00    -0.000 C 
BRANCH  23  24
ATOM     24  C   UNL     1     -31.990   4.343  -0.242  1.00  0.00    -0.000 C 
BRANCH  24  25
ATOM     25  C   UNL     1     -32.653   3.636   0.954  1.00  0.00    -0.003 C 
ATOM     26  C   UNL     1     -33.587   2.501   0.532  1.00  0.00     0.004 C 
ENDBRANCH  24  25
ENDBRANCH  23  24
ENDBRANCH  22  23
ENDBRANCH  21  22
ENDBRANCH  20  21
ENDBRANCH  19  20
ENDBRANCH  18  19
ENDBRANCH  17  18
ENDBRANCH  16  17
ENDBRANCH  15  16
ENDBRANCH   1  15
TORSDOF 22
ENDMDL
MODEL 8
REMARK VINA RESULT:    -3.718      2.410      4.028
REMARK INTER + INTRA:         -12.619
REMARK INTER:                  -8.515
REMARK INTRA:                  -4.103
REMARK UNBOUND:                -4.118
REMARK SMILES CCCCCCCCCCCCCCCCCCCCCCCC(=O)[O-]
REMARK SMILES IDX 13 1 14 2 15 3 16 4 17 5 18 6 19 7 20 8 21 9 22 10 23 11
REMARK SMILES IDX 24 12 25 13 26 14 12 15 11 16 10 17 9 18 8 19 7 20 6 21 5 22
REMARK SMILES IDX 4 23 3 24 2 25 1 26
REMARK H PARENT
REMARK Flexibility Score: inf
ROOT
ATOM      1  C   UNL     1     -34.816   7.097  -1.491  1.00  0.00     0.000 C 
ENDROOT
BRANCH   1   2
ATOM      2  C   UNL     1     -35.785   5.897  -1.416  1.00  0.00     0.000 C 
BRANCH   2   3
ATOM      3  C   UNL     1     -36.273   5.407  -2.790  1.00  0.00     0.000 C 
BRANCH   3   4
ATOM      4  C   UNL     1     -36.190   3.880  -2.943  1.00  0.00     0.000 C 
BRANCH   4   5
ATOM      5  C   UNL     1     -34.742   3.367  -2.976  1.00  0.00     0.000 C 
BRANCH   5   6
ATOM      6  C   UNL     1     -33.853   4.151  -3.956  1.00  0.00     0.000 C 
BRANCH   6   7
ATOM      7  C   UNL     1     -32.555   4.661  -3.302  1.00  0.00     0.000 C 
BRANCH   7   8
ATOM      8  C   UNL     1     -32.119   3.882  -2.044  1.00  0.00     0.000 C 
BRANCH   8   9
ATOM      9  C   UNL     1     -32.012   4.723  -0.757  1.00  0.00     0.000 C 
BRANCH   9  10
ATOM     10  C   UNL     1     -32.349   3.969   0.544  1.00  0.00     0.006 C 
BRANCH  10  11
ATOM     11  C   UNL     1     -33.806   3.491   0.596  1.00  0.00     0.053 C 
BRANCH  11  12
ATOM     12  C   UNL     1     -34.044   2.660   1.816  1.00  0.00     0.041 C 
ATOM     13  O   UNL     1     -33.592   3.028   2.934  1.00  0.00    -0.550 OA
ATOM     14  O   UNL     1     -34.753   1.467   1.719  1.00  0.00    -0.550 OA
ENDBRANCH  11  12
ENDBRANCH  10  11
ENDBRANCH   9  10
ENDBRANCH   8   9
ENDBRANCH   7   8
ENDBRANCH   6   7
ENDBRANCH   5   6
ENDBRANCH   4   5
ENDBRANCH   3   4
ENDBRANCH   2   3
ENDBRANCH   1   2
BRANCH   1  15
ATOM     15  C   UNL     1     -35.188   8.073  -2.623  1.00  0.00     0.000 C 
BRANCH  15  16
ATOM     16  C   UNL     1     -33.982   8.880  -3.128  1.00  0.00     0.000 C 
BRANCH  16  17
ATOM     17  C   UNL     1     -32.681   8.059  -3.120  1.00  0.00     0.000 C 
BRANCH  17  18
ATOM     18  C   UNL     1     -31.506   8.824  -2.488  1.00  0.00    -0.000 C 
BRANCH  18  19
ATOM     19  C   UNL     1     -30.698   7.966  -1.503  1.00  0.00    -0.000 C 
BRANCH  19  20
ATOM     20  C   UNL     1     -29.268   7.746  -2.015  1.00  0.00    -0.000 C 
BRANCH  20  21
ATOM     21  C   UNL     1     -29.161   6.626  -3.070  1.00  0.00    -0.000 C 
BRANCH  21  22
ATOM     22  C   UNL     1     -28.053   5.584  -2.811  1.00  0.00    -0.000 C 
BRANCH  22  23
ATOM     23  C   UNL     1     -28.573   4.146  -2.578  1.00  0.00    -0.000 C 
BRANCH  23  24
ATOM     24  C   UNL     1     -28.316   3.615  -1.155  1.00  0.00    -0.000 C 
BRANCH  24  25
ATOM     25  C   UNL     1     -27.927   4.694  -0.127  1.00  0.00    -0.003 C 
ATOM     26  C   UNL     1     -26.655   4.348   0.648  1.00  0.00     0.004 C 
ENDBRANCH  24  25
ENDBRANCH  23  24
ENDBRANCH  22  23
ENDBRANCH  21  22
ENDBRANCH  20  21
ENDBRANCH  19  20
ENDBRANCH  18  19
ENDBRANCH  17  18
ENDBRANCH  16  17
ENDBRANCH  15  16
ENDBRANCH   1  15
TORSDOF 22
ENDMDL
MODEL 9
REMARK VINA RESULT:    -3.709      1.127      2.391
REMARK INTER + INTRA:         -12.599
REMARK INTER:                  -8.147
REMARK INTRA:                  -4.451
REMARK UNBOUND:                -4.118
REMARK SMILES CCCCCCCCCCCCCCCCCCCCCCCC(=O)[O-]
REMARK SMILES IDX 13 1 14 2 15 3 16 4 17 5 18 6 19 7 20 8 21 9 22 10 23 11
REMARK SMILES IDX 24 12 25 13 26 14 12 15 11 16 10 17 9 18 8 19 7 20 6 21 5 22
REMARK SMILES IDX 4 23 3 24 2 25 1 26
REMARK H PARENT
REMARK Flexibility Score: inf
ROOT
ATOM      1  C   UNL     1     -35.137   7.055  -1.250  1.00  0.00     0.000 C 
ENDROOT
BRANCH   1   2
ATOM      2  C   UNL     1     -35.918   6.846  -2.566  1.00  0.00     0.000 C 
BRANCH   2   3
ATOM      3  C   UNL     1     -35.647   7.927  -3.626  1.00  0.00     0.000 C 
BRANCH   3   4
ATOM      4  C   UNL     1     -34.477   8.851  -3.249  1.00  0.00     0.000 C 
BRANCH   4   5
ATOM      5  C   UNL     1     -33.183   8.505  -4.002  1.00  0.00     0.000 C 
BRANCH   5   6
ATOM      6  C   UNL     1     -33.359   7.331  -4.981  1.00  0.00     0.000 C 
BRANCH   6   7
ATOM      7  C   UNL     1     -32.171   6.352  -4.951  1.00  0.00     0.000 C 
BRANCH   7   8
ATOM      8  C   UNL     1     -32.455   5.018  -4.231  1.00  0.00     0.000 C 
BRANCH   8   9
ATOM      9  C   UNL     1     -33.806   4.360  -4.577  1.00  0.00     0.000 C 
BRANCH   9  10
ATOM     10  C   UNL     1     -34.409   3.485  -3.462  1.00  0.00     0.006 C 
BRANCH  10  11
ATOM     11  C   UNL     1     -35.876   3.117  -3.720  1.00  0.00     0.053 C 
BRANCH  11  12
ATOM     12  C   UNL     1     -35.971   1.980  -4.688  1.00  0.00     0.041 C 
ATOM     13  O   UNL     1     -36.379   2.178  -5.864  1.00  0.00    -0.550 OA
ATOM     14  O   UNL     1     -35.622   0.694  -4.288  1.00  0.00    -0.550 OA
ENDBRANCH  11  12
ENDBRANCH  10  11
ENDBRANCH   9  10
ENDBRANCH   8   9
ENDBRANCH   7   8
ENDBRANCH   6   7
ENDBRANCH   5   6
ENDBRANCH   4   5
ENDBRANCH   3   4
ENDBRANCH   2   3
ENDBRANCH   1   2
BRANCH   1  15
ATOM     15  C   UNL     1     -34.096   5.946  -1.011  1.00  0.00     0.000 C 
BRANCH  15  16
ATOM     16  C   UNL     1     -32.669   6.497  -0.862  1.00  0.00     0.000 C 
BRANCH  16  17
ATOM     17  C   UNL     1     -31.695   5.456  -0.284  1.00  0.00     0.000 C 
BRANCH  17  18
ATOM     18  C   UNL     1     -32.225   4.018  -0.418  1.00  0.00    -0.000 C 
BRANCH  18  19
ATOM     19  C   UNL     1     -31.333   3.136  -1.305  1.00  0.00    -0.000 C 
BRANCH  19  20
ATOM     20  C   UNL     1     -29.884   3.139  -0.798  1.00  0.00    -0.000 C 
BRANCH  20  21
ATOM     21  C   UNL     1     -28.864   3.591  -1.862  1.00  0.00    -0.000 C 
BRANCH  21  22
ATOM     22  C   UNL     1     -27.962   4.773  -1.448  1.00  0.00    -0.000 C 
BRANCH  22  23
ATOM     23  C   UNL     1     -27.775   5.847  -2.546  1.00  0.00    -0.000 C 
BRANCH  23  24
ATOM     24  C   UNL     1     -29.099   6.432  -3.074  1.00  0.00    -0.000 C 
BRANCH  24  25
ATOM     25  C   UNL     1     -29.565   7.714  -2.360  1.00  0.00    -0.003 C 
ATOM     26  C   UNL     1     -28.445   8.401  -1.577  1.00  0.00     0.004 C 
ENDBRANCH  24  25
ENDBRANCH  23  24
ENDBRANCH  22  23
ENDBRANCH  21  22
ENDBRANCH  20  21
ENDBRANCH  19  20
ENDBRANCH  18  19
ENDBRANCH  17  18
ENDBRANCH  16  17
ENDBRANCH  15  16
ENDBRANCH   1  15
TORSDOF 22
ENDMDL
