MODEL 1
REMARK VINA RESULT:    -7.142      0.000      0.000
REMARK INTER + INTRA:          -9.398
REMARK INTER:                  -9.021
REMARK INTRA:                  -0.377
REMARK UNBOUND:                -0.377
REMARK SMILES Oc1ccc(CCc2cc(O)cc(O)c2)cc1
REMARK SMILES IDX 6 1 5 2 4 3 3 4 2 5 16 6 17 7 1 8 7 10 8 11 15 12 9 13 13 14
REMARK SMILES IDX 10 15 12 16 14 17 11 19
REMARK H PARENT 1 9 14 18 11 20
REMARK Flexibility Score: inf
ROOT
ATOM      1  C   UNL     1      19.796  28.472 -16.093  1.00  0.00     0.040 C 
ENDROOT
BRANCH   1   2
ATOM      2  C   UNL     1      19.009  27.907 -14.942  1.00  0.00    -0.047 A 
ATOM      3  C   UNL     1      17.994  26.964 -15.171  1.00  0.00     0.007 A 
ATOM      4  C   UNL     1      17.285  26.415 -14.099  1.00  0.00     0.046 A 
ATOM      5  C   UNL     1      17.589  26.794 -12.787  1.00  0.00     0.115 A 
ATOM      6  C   UNL     1      19.320  28.275 -13.622  1.00  0.00     0.007 A 
ATOM      7  C   UNL     1      18.610  27.724 -12.550  1.00  0.00     0.046 A 
BRANCH   5   8
ATOM      8  O   UNL     1      16.875  26.239 -11.728  1.00  0.00    -0.508 OA
ATOM      9  H   UNL     1      16.110  26.737 -11.286  1.00  0.00     0.293 HD
ENDBRANCH   5   8
ENDBRANCH   1   2
BRANCH   1  10
ATOM     10  C   UNL     1      21.202  27.867 -16.132  1.00  0.00     0.040 C 
BRANCH  10  11
ATOM     11  C   UNL     1      22.103  28.678 -17.024  1.00  0.00    -0.040 A 
ATOM     12  C   UNL     1      23.468  28.808 -16.722  1.00  0.00     0.050 A 
ATOM     13  C   UNL     1      21.597  29.264 -18.196  1.00  0.00     0.050 A 
ATOM     14  C   UNL     1      24.314  29.537 -17.570  1.00  0.00     0.119 A 
ATOM     15  C   UNL     1      22.442  29.993 -19.044  1.00  0.00     0.119 A 
ATOM     16  C   UNL     1      23.798  30.129 -18.727  1.00  0.00     0.092 A 
BRANCH  14  17
ATOM     17  O   UNL     1      25.668  29.675 -17.274  1.00  0.00    -0.508 OA
ATOM     18  H   UNL     1      26.309  28.893 -17.347  1.00  0.00     0.293 HD
ENDBRANCH  14  17
BRANCH  15  19
ATOM     19  O   UNL     1      21.945  30.583 -20.204  1.00  0.00    -0.508 OA
ATOM     20  H   UNL     1      22.219  30.257 -21.124  1.00  0.00     0.293 HD
ENDBRANCH  15  19
ENDBRANCH  10  11
ENDBRANCH   1  10
TORSDOF 6
ENDMDL
MODEL 2
REMARK VINA RESULT:    -7.125      0.074      2.031
REMARK INTER + INTRA:          -9.376
REMARK INTER:                  -9.000
REMARK INTRA:                  -0.376
REMARK UNBOUND:                -0.377
REMARK SMILES Oc1ccc(CCc2cc(O)cc(O)c2)cc1
REMARK SMILES IDX 6 1 5 2 4 3 3 4 2 5 16 6 17 7 1 8 7 10 8 11 15 12 9 13 13 14
REMARK SMILES IDX 10 15 12 16 14 17 11 19
REMARK H PARENT 1 9 14 18 11 20
REMARK Flexibility Score: inf
ROOT
ATOM      1  C   UNL     1      19.785  28.513 -16.052  1.00  0.00     0.040 C 
ENDROOT
BRANCH   1   2
ATOM      2  C   UNL     1      19.001  27.943 -14.900  1.00  0.00    -0.047 A 
ATOM      3  C   UNL     1      17.964  27.025 -15.133  1.00  0.00     0.007 A 
ATOM      4  C   UNL     1      17.259  26.472 -14.061  1.00  0.00     0.046 A 
ATOM      5  C   UNL     1      17.588  26.820 -12.747  1.00  0.00     0.115 A 
ATOM      6  C   UNL     1      19.338  28.281 -13.579  1.00  0.00     0.007 A 
ATOM      7  C   UNL     1      18.631  27.725 -12.508  1.00  0.00     0.046 A 
BRANCH   5   8
ATOM      8  O   UNL     1      16.876  26.261 -11.688  1.00  0.00    -0.508 OA
ATOM      9  H   UNL     1      17.085  26.499 -10.725  1.00  0.00     0.293 HD
ENDBRANCH   5   8
ENDBRANCH   1   2
BRANCH   1  10
ATOM     10  C   UNL     1      21.134  27.802 -16.190  1.00  0.00     0.040 C 
BRANCH  10  11
ATOM     11  C   UNL     1      22.053  28.582 -17.090  1.00  0.00    -0.040 A 
ATOM     12  C   UNL     1      21.555  29.194 -18.253  1.00  0.00     0.050 A 
ATOM     13  C   UNL     1      23.405  28.752 -16.747  1.00  0.00     0.050 A 
ATOM     14  C   UNL     1      22.404  29.948 -19.075  1.00  0.00     0.119 A 
ATOM     15  C   UNL     1      24.254  29.506 -17.569  1.00  0.00     0.119 A 
ATOM     16  C   UNL     1      23.752  30.099 -18.731  1.00  0.00     0.092 A 
BRANCH  14  17
ATOM     17  O   UNL     1      21.918  30.552 -20.232  1.00  0.00    -0.508 OA
ATOM     18  H   UNL     1      21.039  30.269 -20.648  1.00  0.00     0.293 HD
ENDBRANCH  14  17
BRANCH  15  19
ATOM     19  O   UNL     1      25.597  29.672 -17.237  1.00  0.00    -0.508 OA
ATOM     20  H   UNL     1      26.313  29.055 -17.600  1.00  0.00     0.293 HD
ENDBRANCH  15  19
ENDBRANCH  10  11
ENDBRANCH   1  10
TORSDOF 6
ENDMDL
MODEL 3
REMARK VINA RESULT:    -6.969     11.238     13.964
REMARK INTER + INTRA:          -9.180
REMARK INTER:                  -8.501
REMARK INTRA:                  -0.679
REMARK UNBOUND:                -0.377
REMARK SMILES Oc1ccc(CCc2cc(O)cc(O)c2)cc1
REMARK SMILES IDX 6 1 5 2 4 3 3 4 2 5 16 6 17 7 1 8 7 10 8 11 15 12 9 13 13 14
REMARK SMILES IDX 10 15 12 16 14 17 11 19
REMARK H PARENT 1 9 14 18 11 20
REMARK Flexibility Score: inf
ROOT
ATOM      1  C   UNL     1      34.568  32.454 -14.828  1.00  0.00     0.040 C 
ENDROOT
BRANCH   1   2
ATOM      2  C   UNL     1      33.332  32.251 -15.661  1.00  0.00    -0.047 A 
ATOM      3  C   UNL     1      33.432  31.743 -16.967  1.00  0.00     0.007 A 
ATOM      4  C   UNL     1      32.281  31.525 -17.729  1.00  0.00     0.046 A 
ATOM      5  C   UNL     1      31.019  31.800 -17.192  1.00  0.00     0.115 A 
ATOM      6  C   UNL     1      32.062  32.513 -15.121  1.00  0.00     0.007 A 
ATOM      7  C   UNL     1      30.911  32.293 -15.885  1.00  0.00     0.046 A 
BRANCH   5   8
ATOM      8  O   UNL     1      29.880  31.577 -17.962  1.00  0.00    -0.508 OA
ATOM      9  H   UNL     1      29.124  30.986 -17.633  1.00  0.00     0.293 HD
ENDBRANCH   5   8
ENDBRANCH   1   2
BRANCH   1  10
ATOM     10  C   UNL     1      35.069  31.117 -14.274  1.00  0.00     0.040 C 
BRANCH  10  11
ATOM     11  C   UNL     1      34.430  30.822 -12.944  1.00  0.00    -0.040 A 
ATOM     12  C   UNL     1      34.804  31.549 -11.801  1.00  0.00     0.050 A 
ATOM     13  C   UNL     1      33.413  29.858 -12.845  1.00  0.00     0.050 A 
ATOM     14  C   UNL     1      34.185  31.298 -10.569  1.00  0.00     0.119 A 
ATOM     15  C   UNL     1      32.794  29.606 -11.613  1.00  0.00     0.119 A 
ATOM     16  C   UNL     1      33.184  30.325 -10.478  1.00  0.00     0.092 A 
BRANCH  14  17
ATOM     17  O   UNL     1      34.556  32.010  -9.431  1.00  0.00    -0.508 OA
ATOM     18  H   UNL     1      34.151  31.808  -8.524  1.00  0.00     0.293 HD
ENDBRANCH  14  17
BRANCH  15  19
ATOM     19  O   UNL     1      31.791  28.646 -11.507  1.00  0.00    -0.508 OA
ATOM     20  H   UNL     1      31.952  27.758 -11.046  1.00  0.00     0.293 HD
ENDBRANCH  15  19
ENDBRANCH  10  11
ENDBRANCH   1  10
TORSDOF 6
ENDMDL
MODEL 4
REMARK VINA RESULT:    -6.929     11.003     13.650
REMARK INTER + INTRA:          -9.129
REMARK INTER:                  -8.417
REMARK INTRA:                  -0.713
REMARK UNBOUND:                -0.377
REMARK SMILES Oc1ccc(CCc2cc(O)cc(O)c2)cc1
REMARK SMILES IDX 6 1 5 2 4 3 3 4 2 5 16 6 17 7 1 8 7 10 8 11 15 12 9 13 13 14
REMARK SMILES IDX 10 15 12 16 14 17 11 19
REMARK H PARENT 1 9 14 18 11 20
REMARK Flexibility Score: inf
ROOT
ATOM      1  C   UNL     1      35.268  31.300 -14.976  1.00  0.00     0.040 C 
ENDROOT
BRANCH   1   2
ATOM      2  C   UNL     1      34.943  31.101 -13.520  1.00  0.00    -0.047 A 
ATOM      3  C   UNL     1      34.118  30.040 -13.116  1.00  0.00     0.007 A 
ATOM      4  C   UNL     1      33.844  29.837 -11.760  1.00  0.00     0.046 A 
ATOM      5  C   UNL     1      34.398  30.683 -10.795  1.00  0.00     0.115 A 
ATOM      6  C   UNL     1      35.509  31.942 -12.547  1.00  0.00     0.007 A 
ATOM      7  C   UNL     1      35.234  31.736 -11.191  1.00  0.00     0.046 A 
BRANCH   5   8
ATOM      8  O   UNL     1      34.116  30.469  -9.448  1.00  0.00    -0.508 OA
ATOM      9  H   UNL     1      33.474  29.743  -9.150  1.00  0.00     0.293 HD
ENDBRANCH   5   8
ENDBRANCH   1   2
BRANCH   1  10
ATOM     10  C   UNL     1      34.605  32.574 -15.506  1.00  0.00     0.040 C 
BRANCH  10  11
ATOM     11  C   UNL     1      33.204  32.287 -15.973  1.00  0.00    -0.040 A 
ATOM     12  C   UNL     1      32.985  31.490 -17.109  1.00  0.00     0.050 A 
ATOM     13  C   UNL     1      32.102  32.764 -15.243  1.00  0.00     0.050 A 
ATOM     14  C   UNL     1      31.679  31.194 -17.525  1.00  0.00     0.119 A 
ATOM     15  C   UNL     1      30.797  32.469 -15.659  1.00  0.00     0.119 A 
ATOM     16  C   UNL     1      30.589  31.687 -16.800  1.00  0.00     0.092 A 
BRANCH  14  17
ATOM     17  O   UNL     1      31.455  30.411 -18.654  1.00  0.00    -0.508 OA
ATOM     18  H   UNL     1      30.598  30.485 -19.190  1.00  0.00     0.293 HD
ENDBRANCH  14  17
BRANCH  15  19
ATOM     19  O   UNL     1      29.700  32.945 -14.944  1.00  0.00    -0.508 OA
ATOM     20  H   UNL     1      29.298  32.420 -14.177  1.00  0.00     0.293 HD
ENDBRANCH  15  19
ENDBRANCH  10  11
ENDBRANCH   1  10
TORSDOF 6
ENDMDL
MODEL 5
REMARK VINA RESULT:    -6.897      1.508      6.932
REMARK INTER + INTRA:          -9.088
REMARK INTER:                  -8.530
REMARK INTRA:                  -0.558
REMARK UNBOUND:                -0.377
REMARK SMILES Oc1ccc(CCc2cc(O)cc(O)c2)cc1
REMARK SMILES IDX 6 1 5 2 4 3 3 4 2 5 16 6 17 7 1 8 7 10 8 11 15 12 9 13 13 14
REMARK SMILES IDX 10 15 12 16 14 17 11 19
REMARK H PARENT 1 9 14 18 11 20
REMARK Flexibility Score: inf
ROOT
ATOM      1  C   UNL     1      20.211  27.624 -16.285  1.00  0.00     0.040 C 
ENDROOT
BRANCH   1   2
ATOM      2  C   UNL     1      21.585  28.156 -16.592  1.00  0.00    -0.047 A 
ATOM      3  C   UNL     1      22.726  27.413 -16.248  1.00  0.00     0.007 A 
ATOM      4  C   UNL     1      24.001  27.893 -16.563  1.00  0.00     0.046 A 
ATOM      5  C   UNL     1      24.148  29.112 -17.233  1.00  0.00     0.115 A 
ATOM      6  C   UNL     1      21.736  29.373 -17.276  1.00  0.00     0.007 A 
ATOM      7  C   UNL     1      23.012  29.851 -17.591  1.00  0.00     0.046 A 
BRANCH   5   8
ATOM      8  O   UNL     1      25.424  29.578 -17.541  1.00  0.00    -0.508 OA
ATOM      9  H   UNL     1      25.859  29.379 -18.436  1.00  0.00     0.293 HD
ENDBRANCH   5   8
ENDBRANCH   1   2
BRANCH   1  10
ATOM     10  C   UNL     1      19.390  28.664 -15.518  1.00  0.00     0.040 C 
BRANCH  10  11
ATOM     11  C   UNL     1      19.211  28.245 -14.084  1.00  0.00    -0.040 A 
ATOM     12  C   UNL     1      20.093  28.710 -13.094  1.00  0.00     0.050 A 
ATOM     13  C   UNL     1      18.128  27.430 -13.714  1.00  0.00     0.050 A 
ATOM     14  C   UNL     1      19.908  28.346 -11.753  1.00  0.00     0.119 A 
ATOM     15  C   UNL     1      17.943  27.065 -12.373  1.00  0.00     0.119 A 
ATOM     16  C   UNL     1      18.834  27.523 -11.397  1.00  0.00     0.092 A 
BRANCH  14  17
ATOM     17  O   UNL     1      20.781  28.799 -10.768  1.00  0.00    -0.508 OA
ATOM     18  H   UNL     1      20.471  29.419 -10.028  1.00  0.00     0.293 HD
ENDBRANCH  14  17
BRANCH  15  19
ATOM     19  O   UNL     1      16.875  26.252 -12.001  1.00  0.00    -0.508 OA
ATOM     20  H   UNL     1      16.667  25.391 -12.493  1.00  0.00     0.293 HD
ENDBRANCH  15  19
ENDBRANCH  10  11
ENDBRANCH   1  10
TORSDOF 6
ENDMDL
MODEL 6
REMARK VINA RESULT:    -6.891      1.713      2.252
REMARK INTER + INTRA:          -9.081
REMARK INTER:                  -8.434
REMARK INTRA:                  -0.648
REMARK UNBOUND:                -0.377
REMARK SMILES Oc1ccc(CCc2cc(O)cc(O)c2)cc1
REMARK SMILES IDX 6 1 5 2 4 3 3 4 2 5 16 6 17 7 1 8 7 10 8 11 15 12 9 13 13 14
REMARK SMILES IDX 10 15 12 16 14 17 11 19
REMARK H PARENT 1 9 14 18 11 20
REMARK Flexibility Score: inf
ROOT
ATOM      1  C   UNL     1      19.052  28.494 -15.152  1.00  0.00     0.040 C 
ENDROOT
BRANCH   1   2
ATOM      2  C   UNL     1      19.194  28.425 -13.655  1.00  0.00    -0.047 A 
ATOM      3  C   UNL     1      18.451  27.492 -12.914  1.00  0.00     0.007 A 
ATOM      4  C   UNL     1      18.608  27.406 -11.528  1.00  0.00     0.046 A 
ATOM      5  C   UNL     1      19.514  28.243 -10.870  1.00  0.00     0.115 A 
ATOM      6  C   UNL     1      20.113  29.255 -12.992  1.00  0.00     0.007 A 
ATOM      7  C   UNL     1      20.269  29.167 -11.605  1.00  0.00     0.046 A 
BRANCH   5   8
ATOM      8  O   UNL     1      19.660  28.147  -9.488  1.00  0.00    -0.508 OA
ATOM      9  H   UNL     1      18.885  28.327  -8.859  1.00  0.00     0.293 HD
ENDBRANCH   5   8
ENDBRANCH   1   2
BRANCH   1  10
ATOM     10  C   UNL     1      19.903  27.412 -15.824  1.00  0.00     0.040 C 
BRANCH  10  11
ATOM     11  C   UNL     1      21.234  27.973 -16.246  1.00  0.00    -0.040 A 
ATOM     12  C   UNL     1      22.422  27.294 -15.927  1.00  0.00     0.050 A 
ATOM     13  C   UNL     1      21.296  29.149 -17.012  1.00  0.00     0.050 A 
ATOM     14  C   UNL     1      23.660  27.799 -16.349  1.00  0.00     0.119 A 
ATOM     15  C   UNL     1      22.534  29.654 -17.433  1.00  0.00     0.119 A 
ATOM     16  C   UNL     1      23.712  28.978 -17.098  1.00  0.00     0.092 A 
BRANCH  14  17
ATOM     17  O   UNL     1      24.842  27.134 -16.031  1.00  0.00    -0.508 OA
ATOM     18  H   UNL     1      25.720  27.631 -15.935  1.00  0.00     0.293 HD
ENDBRANCH  14  17
BRANCH  15  19
ATOM     19  O   UNL     1      22.603  30.824 -18.186  1.00  0.00    -0.508 OA
ATOM     20  H   UNL     1      23.487  31.182 -18.530  1.00  0.00     0.293 HD
ENDBRANCH  15  19
ENDBRANCH  10  11
ENDBRANCH   1  10
TORSDOF 6
ENDMDL
MODEL 7
REMARK VINA RESULT:    -6.889      1.364      2.673
REMARK INTER + INTRA:          -9.078
REMARK INTER:                  -8.566
REMARK INTRA:                  -0.512
REMARK UNBOUND:                -0.377
REMARK SMILES Oc1ccc(CCc2cc(O)cc(O)c2)cc1
REMARK SMILES IDX 6 1 5 2 4 3 3 4 2 5 16 6 17 7 1 8 7 10 8 11 15 12 9 13 13 14
REMARK SMILES IDX 10 15 12 16 14 17 11 19
REMARK H PARENT 1 9 14 18 11 20
REMARK Flexibility Score: inf
ROOT
ATOM      1  C   UNL     1      20.009  28.139 -15.422  1.00  0.00     0.040 C 
ENDROOT
BRANCH   1   2
ATOM      2  C   UNL     1      19.859  28.254 -13.929  1.00  0.00    -0.047 A 
ATOM      3  C   UNL     1      18.750  27.686 -13.281  1.00  0.00     0.007 A 
ATOM      4  C   UNL     1      18.628  27.765 -11.891  1.00  0.00     0.046 A 
ATOM      5  C   UNL     1      19.617  28.401 -11.134  1.00  0.00     0.115 A 
ATOM      6  C   UNL     1      20.857  28.880 -13.164  1.00  0.00     0.007 A 
ATOM      7  C   UNL     1      20.733  28.957 -11.773  1.00  0.00     0.046 A 
BRANCH   5   8
ATOM      8  O   UNL     1      19.483  28.472  -9.749  1.00  0.00    -0.508 OA
ATOM      9  H   UNL     1      19.903  27.778  -9.140  1.00  0.00     0.293 HD
ENDBRANCH   5   8
ENDBRANCH   1   2
BRANCH   1  10
ATOM     10  C   UNL     1      21.363  27.521 -15.782  1.00  0.00     0.040 C 
BRANCH  10  11
ATOM     11  C   UNL     1      22.100  28.395 -16.760  1.00  0.00    -0.040 A 
ATOM     12  C   UNL     1      21.413  29.011 -17.818  1.00  0.00     0.050 A 
ATOM     13  C   UNL     1      23.471  28.649 -16.588  1.00  0.00     0.050 A 
ATOM     14  C   UNL     1      22.093  29.852 -18.710  1.00  0.00     0.119 A 
ATOM     15  C   UNL     1      24.152  29.489 -17.480  1.00  0.00     0.119 A 
ATOM     16  C   UNL     1      23.461  30.087 -18.539  1.00  0.00     0.092 A 
BRANCH  14  17
ATOM     17  O   UNL     1      21.418  30.461 -19.765  1.00  0.00    -0.508 OA
ATOM     18  H   UNL     1      20.727  31.185 -19.605  1.00  0.00     0.293 HD
ENDBRANCH  14  17
BRANCH  15  19
ATOM     19  O   UNL     1      25.513  29.739 -17.320  1.00  0.00    -0.508 OA
ATOM     20  H   UNL     1      26.211  29.238 -17.857  1.00  0.00     0.293 HD
ENDBRANCH  15  19
ENDBRANCH  10  11
ENDBRANCH   1  10
TORSDOF 6
ENDMDL
MODEL 8
REMARK VINA RESULT:    -6.867     11.235     14.035
REMARK INTER + INTRA:          -9.050
REMARK INTER:                  -8.392
REMARK INTRA:                  -0.658
REMARK UNBOUND:                -0.377
REMARK SMILES Oc1ccc(CCc2cc(O)cc(O)c2)cc1
REMARK SMILES IDX 6 1 5 2 4 3 3 4 2 5 16 6 17 7 1 8 7 10 8 11 15 12 9 13 13 14
REMARK SMILES IDX 10 15 12 16 14 17 11 19
REMARK H PARENT 1 9 14 18 11 20
REMARK Flexibility Score: inf
ROOT
ATOM      1  C   UNL     1      34.557  32.478 -14.824  1.00  0.00     0.040 C 
ENDROOT
BRANCH   1   2
ATOM      2  C   UNL     1      33.333  32.251 -15.668  1.00  0.00    -0.047 A 
ATOM      3  C   UNL     1      33.455  31.742 -16.972  1.00  0.00     0.007 A 
ATOM      4  C   UNL     1      32.315  31.500 -17.743  1.00  0.00     0.046 A 
ATOM      5  C   UNL     1      31.043  31.754 -17.220  1.00  0.00     0.115 A 
ATOM      6  C   UNL     1      32.054  32.493 -15.141  1.00  0.00     0.007 A 
ATOM      7  C   UNL     1      30.914  32.250 -15.915  1.00  0.00     0.046 A 
BRANCH   5   8
ATOM      8  O   UNL     1      29.916  31.509 -18.000  1.00  0.00    -0.508 OA
ATOM      9  H   UNL     1      29.969  31.474 -19.012  1.00  0.00     0.293 HD
ENDBRANCH   5   8
ENDBRANCH   1   2
BRANCH   1  10
ATOM     10  C   UNL     1      35.066  31.155 -14.245  1.00  0.00     0.040 C 
BRANCH  10  11
ATOM     11  C   UNL     1      34.374  30.846 -12.945  1.00  0.00    -0.040 A 
ATOM     12  C   UNL     1      33.383  29.851 -12.888  1.00  0.00     0.050 A 
ATOM     13  C   UNL     1      34.754  31.508 -11.766  1.00  0.00     0.050 A 
ATOM     14  C   UNL     1      32.762  29.540 -11.671  1.00  0.00     0.119 A 
ATOM     15  C   UNL     1      34.132  31.197 -10.548  1.00  0.00     0.119 A 
ATOM     16  C   UNL     1      33.137  30.215 -10.505  1.00  0.00     0.092 A 
BRANCH  14  17
ATOM     17  O   UNL     1      31.774  28.560 -11.609  1.00  0.00    -0.508 OA
ATOM     18  H   UNL     1      31.330  28.201 -12.446  1.00  0.00     0.293 HD
ENDBRANCH  14  17
BRANCH  15  19
ATOM     19  O   UNL     1      34.499  31.855  -9.377  1.00  0.00    -0.508 OA
ATOM     20  H   UNL     1      34.144  32.777  -9.153  1.00  0.00     0.293 HD
ENDBRANCH  15  19
ENDBRANCH  10  11
ENDBRANCH   1  10
TORSDOF 6
ENDMDL
MODEL 9
REMARK VINA RESULT:    -6.864      1.554      7.255
REMARK INTER + INTRA:          -9.047
REMARK INTER:                  -8.536
REMARK INTRA:                  -0.511
REMARK UNBOUND:                -0.377
REMARK SMILES Oc1ccc(CCc2cc(O)cc(O)c2)cc1
REMARK SMILES IDX 6 1 5 2 4 3 3 4 2 5 16 6 17 7 1 8 7 10 8 11 15 12 9 13 13 14
REMARK SMILES IDX 10 15 12 16 14 17 11 19
REMARK H PARENT 1 9 14 18 11 20
REMARK Flexibility Score: inf
ROOT
ATOM      1  C   UNL     1      20.020  27.858 -16.317  1.00  0.00     0.040 C 
ENDROOT
BRANCH   1   2
ATOM      2  C   UNL     1      21.147  28.564 -17.022  1.00  0.00    -0.047 A 
ATOM      3  C   UNL     1      22.167  29.185 -16.284  1.00  0.00     0.007 A 
ATOM      4  C   UNL     1      23.230  29.812 -16.940  1.00  0.00     0.046 A 
ATOM      5  C   UNL     1      23.291  29.817 -18.337  1.00  0.00     0.115 A 
ATOM      6  C   UNL     1      21.218  28.559 -18.425  1.00  0.00     0.007 A 
ATOM      7  C   UNL     1      22.283  29.187 -19.079  1.00  0.00     0.046 A 
BRANCH   5   8
ATOM      8  O   UNL     1      24.356  30.446 -18.978  1.00  0.00    -0.508 OA
ATOM      9  H   UNL     1      24.647  30.176 -19.911  1.00  0.00     0.293 HD
ENDBRANCH   5   8
ENDBRANCH   1   2
BRANCH   1  10
ATOM     10  C   UNL     1      19.199  28.848 -15.487  1.00  0.00     0.040 C 
BRANCH  10  11
ATOM     11  C   UNL     1      19.073  28.370 -14.066  1.00  0.00    -0.040 A 
ATOM     12  C   UNL     1      18.026  27.509 -13.699  1.00  0.00     0.050 A 
ATOM     13  C   UNL     1      20.033  28.735 -13.108  1.00  0.00     0.050 A 
ATOM     14  C   UNL     1      17.927  27.036 -12.383  1.00  0.00     0.119 A 
ATOM     15  C   UNL     1      19.934  28.263 -11.792  1.00  0.00     0.119 A 
ATOM     16  C   UNL     1      18.880  27.417 -11.433  1.00  0.00     0.092 A 
BRANCH  14  17
ATOM     17  O   UNL     1      16.888  26.187 -12.011  1.00  0.00    -0.508 OA
ATOM     18  H   UNL     1      16.611  25.402 -12.590  1.00  0.00     0.293 HD
ENDBRANCH  14  17
BRANCH  15  19
ATOM     19  O   UNL     1      20.879  28.627 -10.835  1.00  0.00    -0.508 OA
ATOM     20  H   UNL     1      20.669  29.308 -10.114  1.00  0.00     0.293 HD
ENDBRANCH  15  19
ENDBRANCH  10  11
ENDBRANCH   1  10
TORSDOF 6
ENDMDL
