MODEL 1
REMARK VINA RESULT:    -3.031      0.000      0.000
REMARK INTER + INTRA:          -6.962
REMARK INTER:                  -4.714
REMARK INTRA:                  -2.248
REMARK UNBOUND:                -2.248
REMARK SMILES COc1cc(CNC(=O)CCCCC=CC(C)C)ccc1O
REMARK SMILES IDX 11 1 12 2 13 3 14 4 15 5 16 6 17 7 18 8 10 9 8 10 9 11 7 12
REMARK SMILES IDX 6 14 5 15 4 16 19 17 3 18 20 19 21 20 2 21 1 22 22 23
REMARK H PARENT 7 13 22 24
REMARK Flexibility Score: inf
ROOT
ATOM      1  C   UNL     1     110.329 117.065 106.209  1.00  0.00     0.010 C 
ENDROOT
BRANCH   1   2
ATOM      2  C   UNL     1     110.673 117.226 107.698  1.00  0.00     0.005 C 
BRANCH   2   3
ATOM      3  C   UNL     1     109.606 116.606 108.613  1.00  0.00     0.027 C 
BRANCH   3   4
ATOM      4  C   UNL     1     108.265 117.274 108.437  1.00  0.00    -0.031 C 
ATOM      5  C   UNL     1     107.204 116.795 107.753  1.00  0.00    -0.028 C 
BRANCH   5   6
ATOM      6  C   UNL     1     107.051 115.440 107.080  1.00  0.00     0.005 C 
ATOM      7  C   UNL     1     106.954 115.550 105.554  1.00  0.00     0.012 C 
ATOM      8  C   UNL     1     105.937 114.573 107.680  1.00  0.00     0.012 C 
ENDBRANCH   5   6
ENDBRANCH   3   4
ENDBRANCH   2   3
ENDBRANCH   1   2
BRANCH   1   9
ATOM      9  C   UNL     1     111.437 116.344 105.430  1.00  0.00     0.100 C 
BRANCH   9  10
ATOM     10  C   UNL     1     111.465 114.874 105.730  1.00  0.00     0.220 C 
ATOM     11  O   UNL     1     112.548 114.333 106.079  1.00  0.00    -0.275 OA
ATOM     12  N   UNL     1     110.258 114.101 105.654  1.00  0.00    -0.352 N 
ATOM     13  H   UNL     1     109.365 114.577 105.396  1.00  0.00     0.163 HD
BRANCH  12  14
ATOM     14  C   UNL     1     110.219 112.676 105.973  1.00  0.00     0.151 C 
BRANCH  14  15
ATOM     15  C   UNL     1     109.409 112.440 107.220  1.00  0.00    -0.025 A 
ATOM     16  C   UNL     1     108.319 111.557 107.192  1.00  0.00     0.056 A 
ATOM     17  C   UNL     1     109.741 113.088 108.419  1.00  0.00     0.009 A 
ATOM     18  C   UNL     1     107.560 111.316 108.356  1.00  0.00     0.160 A 
ATOM     19  C   UNL     1     108.992 112.858 109.573  1.00  0.00     0.050 A 
ATOM     20  C   UNL     1     107.905 111.978 109.549  1.00  0.00     0.157 A 
BRANCH  18  21
ATOM     21  O   UNL     1     106.468 110.435 108.362  1.00  0.00    -0.493 OA
ATOM     22  C   UNL     1     106.573 109.017 108.441  1.00  0.00     0.278 C 
ENDBRANCH  18  21
BRANCH  20  23
ATOM     23  O   UNL     1     107.180 111.772 110.723  1.00  0.00    -0.504 OA
ATOM     24  H   UNL     1     107.096 112.485 111.438  1.00  0.00     0.293 HD
ENDBRANCH  20  23
ENDBRANCH  14  15
ENDBRANCH  12  14
ENDBRANCH   9  10
ENDBRANCH   1   9
TORSDOF 10
ENDMDL
MODEL 2
REMARK VINA RESULT:    -2.906     10.578     12.742
REMARK INTER + INTRA:          -6.768
REMARK INTER:                  -5.471
REMARK INTRA:                  -1.298
REMARK UNBOUND:                -2.248
REMARK SMILES COc1cc(CNC(=O)CCCCC=CC(C)C)ccc1O
REMARK SMILES IDX 11 1 12 2 13 3 14 4 15 5 16 6 17 7 18 8 10 9 8 10 9 11 7 12
REMARK SMILES IDX 6 14 5 15 4 16 19 17 3 18 20 19 21 20 2 21 1 22 22 23
REMARK H PARENT 7 13 22 24
REMARK Flexibility Score: inf
ROOT
ATOM      1  C   UNL     1     120.457 115.808 107.392  1.00  0.00     0.010 C 
ENDROOT
BRANCH   1   2
ATOM      2  C   UNL     1     121.802 116.125 108.066  1.00  0.00     0.005 C 
BRANCH   2   3
ATOM      3  C   UNL     1     122.501 114.863 108.594  1.00  0.00     0.027 C 
BRANCH   3   4
ATOM      4  C   UNL     1     123.966 114.847 108.235  1.00  0.00    -0.031 C 
ATOM      5  C   UNL     1     124.511 114.445 107.066  1.00  0.00    -0.028 C 
BRANCH   5   6
ATOM      6  C   UNL     1     123.798 114.009 105.797  1.00  0.00     0.005 C 
ATOM      7  C   UNL     1     124.501 112.835 105.103  1.00  0.00     0.012 C 
ATOM      8  C   UNL     1     123.487 115.161 104.833  1.00  0.00     0.012 C 
ENDBRANCH   5   6
ENDBRANCH   3   4
ENDBRANCH   2   3
ENDBRANCH   1   2
BRANCH   1   9
ATOM      9  C   UNL     1     120.406 114.377 106.839  1.00  0.00     0.100 C 
BRANCH   9  10
ATOM     10  C   UNL     1     119.274 113.590 107.432  1.00  0.00     0.220 C 
ATOM     11  O   UNL     1     118.164 113.556 106.836  1.00  0.00    -0.275 OA
ATOM     12  N   UNL     1     119.468 112.854 108.649  1.00  0.00    -0.352 N 
ATOM     13  H   UNL     1     120.406 112.868 109.107  1.00  0.00     0.163 HD
BRANCH  12  14
ATOM     14  C   UNL     1     118.414 112.039 109.248  1.00  0.00     0.151 C 
BRANCH  14  15
ATOM     15  C   UNL     1     118.633 110.583 108.935  1.00  0.00    -0.025 A 
ATOM     16  C   UNL     1     119.495 109.816 109.733  1.00  0.00     0.056 A 
ATOM     17  C   UNL     1     117.971 109.980 107.856  1.00  0.00     0.009 A 
ATOM     18  C   UNL     1     119.699 108.448 109.458  1.00  0.00     0.160 A 
ATOM     19  C   UNL     1     118.172 108.628 107.576  1.00  0.00     0.050 A 
ATOM     20  C   UNL     1     119.030 107.859 108.369  1.00  0.00     0.157 A 
BRANCH  18  21
ATOM     21  O   UNL     1     120.550 107.652 110.241  1.00  0.00    -0.493 OA
ATOM     22  C   UNL     1     121.972 107.672 110.165  1.00  0.00     0.278 C 
ENDBRANCH  18  21
BRANCH  20  23
ATOM     23  O   UNL     1     119.205 106.511 108.059  1.00  0.00    -0.504 OA
ATOM     24  H   UNL     1     119.331 105.803 108.774  1.00  0.00     0.293 HD
ENDBRANCH  20  23
ENDBRANCH  14  15
ENDBRANCH  12  14
ENDBRANCH   9  10
ENDBRANCH   1   9
TORSDOF 10
ENDMDL
MODEL 3
REMARK VINA RESULT:    -2.811     11.466     14.495
REMARK INTER + INTRA:          -6.620
REMARK INTER:                  -4.503
REMARK INTRA:                  -2.118
REMARK UNBOUND:                -2.248
REMARK SMILES COc1cc(CNC(=O)CCCCC=CC(C)C)ccc1O
REMARK SMILES IDX 11 1 12 2 13 3 14 4 15 5 16 6 17 7 18 8 10 9 8 10 9 11 7 12
REMARK SMILES IDX 6 14 5 15 4 16 19 17 3 18 20 19 21 20 2 21 1 22 22 23
REMARK H PARENT 7 13 22 24
REMARK Flexibility Score: inf
ROOT
ATOM      1  C   UNL     1     124.813 114.607 106.186  1.00  0.00     0.010 C 
ENDROOT
BRANCH   1   2
ATOM      2  C   UNL     1     124.956 115.079 107.641  1.00  0.00     0.005 C 
BRANCH   2   3
ATOM      3  C   UNL     1     123.855 114.510 108.548  1.00  0.00     0.027 C 
BRANCH   3   4
ATOM      4  C   UNL     1     122.669 115.438 108.633  1.00  0.00    -0.031 C 
ATOM      5  C   UNL     1     121.558 115.408 107.865  1.00  0.00    -0.028 C 
BRANCH   5   6
ATOM      6  C   UNL     1     121.175 114.389 106.804  1.00  0.00     0.005 C 
ATOM      7  C   UNL     1     121.151 114.991 105.394  1.00  0.00     0.012 C 
ATOM      8  C   UNL     1     119.899 113.604 107.131  1.00  0.00     0.012 C 
ENDBRANCH   5   6
ENDBRANCH   3   4
ENDBRANCH   2   3
ENDBRANCH   1   2
BRANCH   1   9
ATOM      9  C   UNL     1     125.367 115.632 105.185  1.00  0.00     0.100 C 
BRANCH   9  10
ATOM     10  C   UNL     1     125.059 117.040 105.601  1.00  0.00     0.220 C 
ATOM     11  O   UNL     1     125.983 117.767 106.059  1.00  0.00    -0.275 OA
ATOM     12  N   UNL     1     123.733 117.565 105.444  1.00  0.00    -0.352 N 
ATOM     13  H   UNL     1     122.992 116.957 105.030  1.00  0.00     0.163 HD
BRANCH  12  14
ATOM     14  C   UNL     1     123.387 118.940 105.795  1.00  0.00     0.151 C 
BRANCH  14  15
ATOM     15  C   UNL     1     122.498 118.964 107.010  1.00  0.00    -0.025 A 
ATOM     16  C   UNL     1     121.104 118.939 106.859  1.00  0.00     0.056 A 
ATOM     17  C   UNL     1     123.053 119.000 108.297  1.00  0.00     0.009 A 
ATOM     18  C   UNL     1     120.260 118.948 107.988  1.00  0.00     0.160 A 
ATOM     19  C   UNL     1     122.224 119.013 109.419  1.00  0.00     0.050 A 
ATOM     20  C   UNL     1     120.833 118.987 109.273  1.00  0.00     0.157 A 
BRANCH  18  21
ATOM     21  O   UNL     1     118.861 118.918 107.872  1.00  0.00    -0.493 OA
ATOM     22  C   UNL     1     118.069 119.988 107.369  1.00  0.00     0.278 C 
ENDBRANCH  18  21
BRANCH  20  23
ATOM     23  O   UNL     1     120.036 119.001 110.418  1.00  0.00    -0.504 OA
ATOM     24  H   UNL     1     119.107 119.404 110.425  1.00  0.00     0.293 HD
ENDBRANCH  20  23
ENDBRANCH  14  15
ENDBRANCH  12  14
ENDBRANCH   9  10
ENDBRANCH   1   9
TORSDOF 10
ENDMDL
MODEL 4
REMARK VINA RESULT:    -2.740      8.775     10.628
REMARK INTER + INTRA:          -6.511
REMARK INTER:                  -4.545
REMARK INTRA:                  -1.966
REMARK UNBOUND:                -2.248
REMARK SMILES COc1cc(CNC(=O)CCCCC=CC(C)C)ccc1O
REMARK SMILES IDX 11 1 12 2 13 3 14 4 15 5 16 6 17 7 18 8 10 9 8 10 9 11 7 12
REMARK SMILES IDX 6 14 5 15 4 16 19 17 3 18 20 19 21 20 2 21 1 22 22 23
REMARK H PARENT 7 13 22 24
REMARK Flexibility Score: inf
ROOT
ATOM      1  C   UNL     1     114.578 108.947 104.329  1.00  0.00     0.010 C 
ENDROOT
BRANCH   1   2
ATOM      2  C   UNL     1     113.458 107.998 104.782  1.00  0.00     0.005 C 
BRANCH   2   3
ATOM      3  C   UNL     1     114.004 106.661 105.305  1.00  0.00     0.027 C 
BRANCH   3   4
ATOM      4  C   UNL     1     113.787 106.514 106.791  1.00  0.00    -0.031 C 
ATOM      5  C   UNL     1     114.505 107.095 107.777  1.00  0.00    -0.028 C 
BRANCH   5   6
ATOM      6  C   UNL     1     115.633 108.106 107.649  1.00  0.00     0.005 C 
ATOM      7  C   UNL     1     117.018 107.453 107.719  1.00  0.00     0.012 C 
ATOM      8  C   UNL     1     115.500 109.305 108.596  1.00  0.00     0.012 C 
ENDBRANCH   5   6
ENDBRANCH   3   4
ENDBRANCH   2   3
ENDBRANCH   1   2
BRANCH   1   9
ATOM      9  C   UNL     1     115.721 108.204 103.623  1.00  0.00     0.100 C 
BRANCH   9  10
ATOM     10  C   UNL     1     117.066 108.728 104.035  1.00  0.00     0.220 C 
ATOM     11  O   UNL     1     118.106 108.108 103.686  1.00  0.00    -0.275 OA
ATOM     12  N   UNL     1     117.164 109.946 104.788  1.00  0.00    -0.352 N 
ATOM     13  H   UNL     1     116.291 110.463 105.036  1.00  0.00     0.163 HD
BRANCH  12  14
ATOM     14  C   UNL     1     118.447 110.523 105.180  1.00  0.00     0.151 C 
BRANCH  14  15
ATOM     15  C   UNL     1     118.411 110.951 106.623  1.00  0.00    -0.025 A 
ATOM     16  C   UNL     1     119.095 110.205 107.594  1.00  0.00     0.056 A 
ATOM     17  C   UNL     1     117.706 112.102 107.007  1.00  0.00     0.009 A 
ATOM     18  C   UNL     1     119.080 110.602 108.947  1.00  0.00     0.160 A 
ATOM     19  C   UNL     1     117.684 112.498 108.345  1.00  0.00     0.050 A 
ATOM     20  C   UNL     1     118.365 111.757 109.315  1.00  0.00     0.157 A 
BRANCH  18  21
ATOM     21  O   UNL     1     119.758 109.879 109.941  1.00  0.00    -0.493 OA
ATOM     22  C   UNL     1     120.096 108.499 109.849  1.00  0.00     0.278 C 
ENDBRANCH  18  21
BRANCH  20  23
ATOM     23  O   UNL     1     118.320 112.184 110.642  1.00  0.00    -0.504 OA
ATOM     24  H   UNL     1     117.447 112.350 111.128  1.00  0.00     0.293 HD
ENDBRANCH  20  23
ENDBRANCH  14  15
ENDBRANCH  12  14
ENDBRANCH   9  10
ENDBRANCH   1   9
TORSDOF 10
ENDMDL
MODEL 5
REMARK VINA RESULT:    -2.731      2.318      3.851
REMARK INTER + INTRA:          -6.496
REMARK INTER:                  -4.277
REMARK INTRA:                  -2.219
REMARK UNBOUND:                -2.248
REMARK SMILES COc1cc(CNC(=O)CCCCC=CC(C)C)ccc1O
REMARK SMILES IDX 11 1 12 2 13 3 14 4 15 5 16 6 17 7 18 8 10 9 8 10 9 11 7 12
REMARK SMILES IDX 6 14 5 15 4 16 19 17 3 18 20 19 21 20 2 21 1 22 22 23
REMARK H PARENT 7 13 22 24
REMARK Flexibility Score: inf
ROOT
ATOM      1  C   UNL     1     108.760 115.230 103.800  1.00  0.00     0.010 C 
ENDROOT
BRANCH   1   2
ATOM      2  C   UNL     1     110.084 115.780 104.355  1.00  0.00     0.005 C 
BRANCH   2   3
ATOM      3  C   UNL     1     109.863 116.849 105.435  1.00  0.00     0.027 C 
BRANCH   3   4
ATOM      4  C   UNL     1     109.932 116.261 106.823  1.00  0.00    -0.031 C 
ATOM      5  C   UNL     1     108.895 116.012 107.651  1.00  0.00    -0.028 C 
BRANCH   5   6
ATOM      6  C   UNL     1     107.409 116.161 107.369  1.00  0.00     0.005 C 
ATOM      7  C   UNL     1     106.802 117.391 108.055  1.00  0.00     0.012 C 
ATOM      8  C   UNL     1     106.598 114.885 107.626  1.00  0.00     0.012 C 
ENDBRANCH   5   6
ENDBRANCH   3   4
ENDBRANCH   2   3
ENDBRANCH   1   2
BRANCH   1   9
ATOM      9  C   UNL     1     108.931 113.854 103.143  1.00  0.00     0.100 C 
BRANCH   9  10
ATOM     10  C   UNL     1     109.079 112.763 104.163  1.00  0.00     0.220 C 
ATOM     11  O   UNL     1     109.737 111.728 103.872  1.00  0.00    -0.275 OA
ATOM     12  N   UNL     1     108.507 112.916 105.470  1.00  0.00    -0.352 N 
ATOM     13  H   UNL     1     107.996 113.797 105.701  1.00  0.00     0.163 HD
BRANCH  12  14
ATOM     14  C   UNL     1     108.655 111.905 106.514  1.00  0.00     0.151 C 
BRANCH  14  15
ATOM     15  C   UNL     1     109.597 112.389 107.584  1.00  0.00    -0.025 A 
ATOM     16  C   UNL     1     110.908 112.760 107.250  1.00  0.00     0.056 A 
ATOM     17  C   UNL     1     109.171 112.486 108.917  1.00  0.00     0.009 A 
ATOM     18  C   UNL     1     111.796 113.227 108.239  1.00  0.00     0.160 A 
ATOM     19  C   UNL     1     110.046 112.944 109.902  1.00  0.00     0.050 A 
ATOM     20  C   UNL     1     111.353 113.315 109.573  1.00  0.00     0.157 A 
BRANCH  18  21
ATOM     21  O   UNL     1     113.112 113.610 107.936  1.00  0.00    -0.493 OA
ATOM     22  C   UNL     1     113.477 114.853 107.345  1.00  0.00     0.278 C 
ENDBRANCH  18  21
BRANCH  20  23
ATOM     23  O   UNL     1     112.199 113.768 110.584  1.00  0.00    -0.504 OA
ATOM     24  H   UNL     1     113.046 113.275 110.844  1.00  0.00     0.293 HD
ENDBRANCH  20  23
ENDBRANCH  14  15
ENDBRANCH  12  14
ENDBRANCH   9  10
ENDBRANCH   1   9
TORSDOF 10
ENDMDL
MODEL 6
REMARK VINA RESULT:    -2.709      4.499      6.779
REMARK INTER + INTRA:          -6.463
REMARK INTER:                  -5.239
REMARK INTRA:                  -1.224
REMARK UNBOUND:                -2.248
REMARK SMILES COc1cc(CNC(=O)CCCCC=CC(C)C)ccc1O
REMARK SMILES IDX 11 1 12 2 13 3 14 4 15 5 16 6 17 7 18 8 10 9 8 10 9 11 7 12
REMARK SMILES IDX 6 14 5 15 4 16 19 17 3 18 20 19 21 20 2 21 1 22 22 23
REMARK H PARENT 7 13 22 24
REMARK Flexibility Score: inf
ROOT
ATOM      1  C   UNL     1     113.715 111.481 106.350  1.00  0.00     0.010 C 
ENDROOT
BRANCH   1   2
ATOM      2  C   UNL     1     114.594 110.253 106.634  1.00  0.00     0.005 C 
BRANCH   2   3
ATOM      3  C   UNL     1     114.887 110.081 108.132  1.00  0.00     0.027 C 
BRANCH   3   4
ATOM      4  C   UNL     1     116.211 109.397 108.365  1.00  0.00    -0.031 C 
ATOM      5  C   UNL     1     117.416 109.991 108.510  1.00  0.00    -0.028 C 
BRANCH   5   6
ATOM      6  C   UNL     1     117.732 111.476 108.577  1.00  0.00     0.005 C 
ATOM      7  C   UNL     1     118.069 112.066 107.202  1.00  0.00     0.012 C 
ATOM      8  C   UNL     1     118.769 111.841 109.645  1.00  0.00     0.012 C 
ENDBRANCH   5   6
ENDBRANCH   3   4
ENDBRANCH   2   3
ENDBRANCH   1   2
BRANCH   1   9
ATOM      9  C   UNL     1     114.356 112.784 106.849  1.00  0.00     0.100 C 
BRANCH   9  10
ATOM     10  C   UNL     1     113.427 113.558 107.739  1.00  0.00     0.220 C 
ATOM     11  O   UNL     1     113.315 114.804 107.584  1.00  0.00    -0.275 OA
ATOM     12  N   UNL     1     112.646 112.876 108.731  1.00  0.00    -0.352 N 
ATOM     13  H   UNL     1     112.728 111.839 108.819  1.00  0.00     0.163 HD
BRANCH  12  14
ATOM     14  C   UNL     1     111.697 113.573 109.596  1.00  0.00     0.151 C 
BRANCH  14  15
ATOM     15  C   UNL     1     110.284 113.277 109.171  1.00  0.00    -0.025 A 
ATOM     16  C   UNL     1     109.518 112.340 109.881  1.00  0.00     0.056 A 
ATOM     17  C   UNL     1     109.717 113.942 108.074  1.00  0.00     0.009 A 
ATOM     18  C   UNL     1     108.190 112.063 109.501  1.00  0.00     0.160 A 
ATOM     19  C   UNL     1     108.403 113.670 107.690  1.00  0.00     0.050 A 
ATOM     20  C   UNL     1     107.637 112.736 108.395  1.00  0.00     0.157 A 
BRANCH  18  21
ATOM     21  O   UNL     1     107.396 111.135 110.194  1.00  0.00    -0.493 OA
ATOM     22  C   UNL     1     107.412 109.729 109.967  1.00  0.00     0.278 C 
ENDBRANCH  18  21
BRANCH  20  23
ATOM     23  O   UNL     1     106.328 112.491 107.983  1.00  0.00    -0.504 OA
ATOM     24  H   UNL     1     105.544 112.520 108.625  1.00  0.00     0.293 HD
ENDBRANCH  20  23
ENDBRANCH  14  15
ENDBRANCH  12  14
ENDBRANCH   9  10
ENDBRANCH   1   9
TORSDOF 10
ENDMDL
MODEL 7
REMARK VINA RESULT:    -2.699     11.301     14.940
REMARK INTER + INTRA:          -6.447
REMARK INTER:                  -4.755
REMARK INTRA:                  -1.692
REMARK UNBOUND:                -2.248
REMARK SMILES COc1cc(CNC(=O)CCCCC=CC(C)C)ccc1O
REMARK SMILES IDX 11 1 12 2 13 3 14 4 15 5 16 6 17 7 18 8 10 9 8 10 9 11 7 12
REMARK SMILES IDX 6 14 5 15 4 16 19 17 3 18 20 19 21 20 2 21 1 22 22 23
REMARK H PARENT 7 13 22 24
REMARK Flexibility Score: inf
ROOT
ATOM      1  C   UNL     1     118.606 116.586 106.234  1.00  0.00     0.010 C 
ENDROOT
BRANCH   1   2
ATOM      2  C   UNL     1     119.933 117.080 105.637  1.00  0.00     0.005 C 
BRANCH   2   3
ATOM      3  C   UNL     1     120.947 115.942 105.451  1.00  0.00     0.027 C 
BRANCH   3   4
ATOM      4  C   UNL     1     120.963 115.011 106.637  1.00  0.00    -0.031 C 
ATOM      5  C   UNL     1     122.035 114.370 107.151  1.00  0.00    -0.028 C 
BRANCH   5   6
ATOM      6  C   UNL     1     123.493 114.495 106.740  1.00  0.00     0.005 C 
ATOM      7  C   UNL     1     123.886 113.485 105.655  1.00  0.00     0.012 C 
ATOM      8  C   UNL     1     124.472 114.500 107.921  1.00  0.00     0.012 C 
ENDBRANCH   5   6
ENDBRANCH   3   4
ENDBRANCH   2   3
ENDBRANCH   1   2
BRANCH   1   9
ATOM      9  C   UNL     1     117.809 117.717 106.899  1.00  0.00     0.100 C 
BRANCH   9  10
ATOM     10  C   UNL     1     118.660 118.521 107.837  1.00  0.00     0.220 C 
ATOM     11  O   UNL     1     118.738 119.771 107.687  1.00  0.00    -0.275 OA
ATOM     12  N   UNL     1     119.348 117.876 108.918  1.00  0.00    -0.352 N 
ATOM     13  H   UNL     1     119.242 116.845 109.045  1.00  0.00     0.163 HD
BRANCH  12  14
ATOM     14  C   UNL     1     120.157 118.614 109.885  1.00  0.00     0.151 C 
BRANCH  14  15
ATOM     15  C   UNL     1     121.572 118.751 109.390  1.00  0.00    -0.025 A 
ATOM     16  C   UNL     1     122.409 119.743 109.922  1.00  0.00     0.056 A 
ATOM     17  C   UNL     1     122.069 117.884 108.406  1.00  0.00     0.009 A 
ATOM     18  C   UNL     1     123.740 119.874 109.477  1.00  0.00     0.160 A 
ATOM     19  C   UNL     1     123.384 118.010 107.958  1.00  0.00     0.050 A 
ATOM     20  C   UNL     1     124.222 118.998 108.486  1.00  0.00     0.157 A 
BRANCH  18  21
ATOM     21  O   UNL     1     124.604 120.852 109.994  1.00  0.00    -0.493 OA
ATOM     22  C   UNL     1     124.651 122.205 109.551  1.00  0.00     0.278 C 
ENDBRANCH  18  21
BRANCH  20  23
ATOM     23  O   UNL     1     125.531 119.093 108.014  1.00  0.00    -0.504 OA
ATOM     24  H   UNL     1     126.020 118.301 107.614  1.00  0.00     0.293 HD
ENDBRANCH  20  23
ENDBRANCH  14  15
ENDBRANCH  12  14
ENDBRANCH   9  10
ENDBRANCH   1   9
TORSDOF 10
ENDMDL
MODEL 8
REMARK VINA RESULT:    -2.698      8.306     11.196
REMARK INTER + INTRA:          -6.445
REMARK INTER:                  -4.735
REMARK INTRA:                  -1.711
REMARK UNBOUND:                -2.248
REMARK SMILES COc1cc(CNC(=O)CCCCC=CC(C)C)ccc1O
REMARK SMILES IDX 11 1 12 2 13 3 14 4 15 5 16 6 17 7 18 8 10 9 8 10 9 11 7 12
REMARK SMILES IDX 6 14 5 15 4 16 19 17 3 18 20 19 21 20 2 21 1 22 22 23
REMARK H PARENT 7 13 22 24
REMARK Flexibility Score: inf
ROOT
ATOM      1  C   UNL     1     115.950 119.730 105.567  1.00  0.00     0.010 C 
ENDROOT
BRANCH   1   2
ATOM      2  C   UNL     1     117.269 120.515 105.637  1.00  0.00     0.005 C 
BRANCH   2   3
ATOM      3  C   UNL     1     117.152 121.909 105.004  1.00  0.00     0.027 C 
BRANCH   3   4
ATOM      4  C   UNL     1     115.959 122.664 105.536  1.00  0.00    -0.031 C 
ATOM      5  C   UNL     1     115.900 123.389 106.674  1.00  0.00    -0.028 C 
BRANCH   5   6
ATOM      6  C   UNL     1     117.025 123.712 107.643  1.00  0.00     0.005 C 
ATOM      7  C   UNL     1     117.047 122.770 108.853  1.00  0.00     0.012 C 
ATOM      8  C   UNL     1     117.089 125.190 108.048  1.00  0.00     0.012 C 
ENDBRANCH   5   6
ENDBRANCH   3   4
ENDBRANCH   2   3
ENDBRANCH   1   2
BRANCH   1   9
ATOM      9  C   UNL     1     115.802 118.734 106.726  1.00  0.00     0.100 C 
BRANCH   9  10
ATOM     10  C   UNL     1     114.661 119.097 107.631  1.00  0.00     0.220 C 
ATOM     11  O   UNL     1     113.658 118.336 107.699  1.00  0.00    -0.275 OA
ATOM     12  N   UNL     1     114.730 120.281 108.438  1.00  0.00    -0.352 N 
ATOM     13  H   UNL     1     115.586 120.879 108.392  1.00  0.00     0.163 HD
BRANCH  12  14
ATOM     14  C   UNL     1     113.667 120.661 109.365  1.00  0.00     0.151 C 
BRANCH  14  15
ATOM     15  C   UNL     1     112.944 121.882 108.863  1.00  0.00    -0.025 A 
ATOM     16  C   UNL     1     112.544 122.881 109.764  1.00  0.00     0.056 A 
ATOM     17  C   UNL     1     112.677 122.039 107.496  1.00  0.00     0.009 A 
ATOM     18  C   UNL     1     111.878 124.035 109.306  1.00  0.00     0.160 A 
ATOM     19  C   UNL     1     112.014 123.178 107.036  1.00  0.00     0.050 A 
ATOM     20  C   UNL     1     111.614 124.175 107.930  1.00  0.00     0.157 A 
BRANCH  18  21
ATOM     21  O   UNL     1     111.469 125.054 110.181  1.00  0.00    -0.493 OA
ATOM     22  C   UNL     1     110.179 125.137 110.779  1.00  0.00     0.278 C 
ENDBRANCH  18  21
BRANCH  20  23
ATOM     23  O   UNL     1     110.955 125.299 107.434  1.00  0.00    -0.504 OA
ATOM     24  H   UNL     1     110.145 125.699 107.894  1.00  0.00     0.293 HD
ENDBRANCH  20  23
ENDBRANCH  14  15
ENDBRANCH  12  14
ENDBRANCH   9  10
ENDBRANCH   1   9
TORSDOF 10
ENDMDL
MODEL 9
REMARK VINA RESULT:    -2.693      4.474      8.145
REMARK INTER + INTRA:          -6.437
REMARK INTER:                  -5.089
REMARK INTRA:                  -1.348
REMARK UNBOUND:                -2.248
REMARK SMILES COc1cc(CNC(=O)CCCCC=CC(C)C)ccc1O
REMARK SMILES IDX 11 1 12 2 13 3 14 4 15 5 16 6 17 7 18 8 10 9 8 10 9 11 7 12
REMARK SMILES IDX 6 14 5 15 4 16 19 17 3 18 20 19 21 20 2 21 1 22 22 23
REMARK H PARENT 7 13 22 24
REMARK Flexibility Score: inf
ROOT
ATOM      1  C   UNL     1     108.525 117.267 106.169  1.00  0.00     0.010 C 
ENDROOT
BRANCH   1   2
ATOM      2  C   UNL     1     108.122 117.419 107.644  1.00  0.00     0.005 C 
BRANCH   2   3
ATOM      3  C   UNL     1     109.249 117.002 108.601  1.00  0.00     0.027 C 
BRANCH   3   4
ATOM      4  C   UNL     1     110.379 116.322 107.868  1.00  0.00    -0.031 C 
ATOM      5  C   UNL     1     110.929 115.124 108.159  1.00  0.00    -0.028 C 
BRANCH   5   6
ATOM      6  C   UNL     1     110.497 114.121 109.217  1.00  0.00     0.005 C 
ATOM      7  C   UNL     1     111.679 113.342 109.805  1.00  0.00     0.012 C 
ATOM      8  C   UNL     1     109.352 113.204 108.770  1.00  0.00     0.012 C 
ENDBRANCH   5   6
ENDBRANCH   3   4
ENDBRANCH   2   3
ENDBRANCH   1   2
BRANCH   1   9
ATOM      9  C   UNL     1     108.233 118.533 105.352  1.00  0.00     0.100 C 
BRANCH   9  10
ATOM     10  C   UNL     1     109.473 119.345 105.118  1.00  0.00     0.220 C 
ATOM     11  O   UNL     1     109.373 120.504 104.632  1.00  0.00    -0.275 OA
ATOM     12  N   UNL     1     110.758 118.818 105.479  1.00  0.00    -0.352 N 
ATOM     13  H   UNL     1     110.814 117.869 105.913  1.00  0.00     0.163 HD
BRANCH  12  14
ATOM     14  C   UNL     1     111.993 119.579 105.311  1.00  0.00     0.151 C 
BRANCH  14  15
ATOM     15  C   UNL     1     112.462 120.118 106.636  1.00  0.00    -0.025 A 
ATOM     16  C   UNL     1     112.718 121.489 106.786  1.00  0.00     0.056 A 
ATOM     17  C   UNL     1     112.635 119.260 107.733  1.00  0.00     0.009 A 
ATOM     18  C   UNL     1     113.145 122.009 108.024  1.00  0.00     0.160 A 
ATOM     19  C   UNL     1     113.062 119.767 108.961  1.00  0.00     0.050 A 
ATOM     20  C   UNL     1     113.317 121.133 109.114  1.00  0.00     0.157 A 
BRANCH  18  21
ATOM     21  O   UNL     1     113.404 123.376 108.208  1.00  0.00    -0.493 OA
ATOM     22  C   UNL     1     112.488 124.421 107.897  1.00  0.00     0.278 C 
ENDBRANCH  18  21
BRANCH  20  23
ATOM     23  O   UNL     1     113.741 121.604 110.356  1.00  0.00    -0.504 OA
ATOM     24  H   UNL     1     113.364 121.248 111.227  1.00  0.00     0.293 HD
ENDBRANCH  20  23
ENDBRANCH  14  15
ENDBRANCH  12  14
ENDBRANCH   9  10
ENDBRANCH   1   9
TORSDOF 10
ENDMDL
