MODEL 1
REMARK VINA RESULT:    -4.613      0.000      0.000
REMARK INTER + INTRA:          -7.122
REMARK INTER:                  -6.231
REMARK INTRA:                  -0.891
REMARK UNBOUND:                -0.891
REMARK SMILES CC(=O)CCC=C(C)CCC=C(C)C
REMARK SMILES IDX 7 1 6 2 8 3 9 4 10 5 11 6 13 7 12 8 14 9 5 10 4 11 2 12 3 13
REMARK SMILES IDX 1 14
REMARK H PARENT
REMARK Flexibility Score: inf
ROOT
ATOM      1  C   UNL     1      20.779  25.290  27.808  1.00  0.00    -0.077 C 
ATOM      2  C   UNL     1      21.938  25.897  28.146  1.00  0.00    -0.028 C 
ATOM      3  C   UNL     1      20.823  24.175  26.794  1.00  0.00     0.039 C 
ENDROOT
BRANCH   1   4
ATOM      4  C   UNL     1      19.441  25.674  28.419  1.00  0.00     0.034 C 
BRANCH   4   5
ATOM      5  C   UNL     1      18.653  26.645  27.529  1.00  0.00     0.032 C 
BRANCH   5   6
ATOM      6  C   UNL     1      17.659  27.449  28.335  1.00  0.00    -0.028 C 
ATOM      7  C   UNL     1      16.808  29.346  29.644  1.00  0.00     0.039 C 
ATOM      8  C   UNL     1      17.874  28.702  28.795  1.00  0.00    -0.080 C 
ATOM      9  C   UNL     1      19.140  29.465  28.488  1.00  0.00     0.039 C 
ENDBRANCH   5   6
ENDBRANCH   4   5
ENDBRANCH   1   4
BRANCH   2  10
ATOM     10  C   UNL     1      22.032  27.042  29.127  1.00  0.00     0.035 C 
BRANCH  10  11
ATOM     11  C   UNL     1      22.671  28.275  28.478  1.00  0.00     0.079 C 
BRANCH  11  12
ATOM     12  C   UNL     1      24.054  27.959  27.980  1.00  0.00     0.130 C 
ATOM     13  O   UNL     1      24.291  27.997  26.782  1.00  0.00    -0.300 OA
ATOM     14  C   UNL     1      25.139  27.577  28.941  1.00  0.00     0.087 C 
ENDBRANCH  11  12
ENDBRANCH  10  11
ENDBRANCH   2  10
TORSDOF 6
ENDMDL
MODEL 2
REMARK VINA RESULT:    -4.494      2.669      4.225
REMARK INTER + INTRA:          -6.962
REMARK INTER:                  -6.355
REMARK INTRA:                  -0.607
REMARK UNBOUND:                -0.891
REMARK SMILES CC(=O)CCC=C(C)CCC=C(C)C
REMARK SMILES IDX 7 1 6 2 8 3 9 4 10 5 11 6 13 7 12 8 14 9 5 10 4 11 2 12 3 13
REMARK SMILES IDX 1 14
REMARK H PARENT
REMARK Flexibility Score: inf
ROOT
ATOM      1  C   UNL     1      20.679  24.920  27.717  1.00  0.00    -0.077 C 
ATOM      2  C   UNL     1      21.339  24.074  26.896  1.00  0.00    -0.028 C 
ATOM      3  C   UNL     1      21.263  25.196  29.080  1.00  0.00     0.039 C 
ENDROOT
BRANCH   1   4
ATOM      4  C   UNL     1      19.387  25.612  27.318  1.00  0.00     0.034 C 
BRANCH   4   5
ATOM      5  C   UNL     1      18.706  26.303  28.508  1.00  0.00     0.032 C 
BRANCH   5   6
ATOM      6  C   UNL     1      18.533  27.783  28.262  1.00  0.00    -0.028 C 
ATOM      7  C   UNL     1      18.874  30.193  28.598  1.00  0.00     0.039 C 
ATOM      8  C   UNL     1      19.209  28.757  28.911  1.00  0.00    -0.080 C 
ATOM      9  C   UNL     1      20.278  28.449  29.932  1.00  0.00     0.039 C 
ENDBRANCH   5   6
ENDBRANCH   4   5
ENDBRANCH   1   4
BRANCH   2  10
ATOM     10  C   UNL     1      20.853  23.690  25.518  1.00  0.00     0.035 C 
BRANCH  10  11
ATOM     11  C   UNL     1      21.698  24.359  24.428  1.00  0.00     0.079 C 
BRANCH  11  12
ATOM     12  C   UNL     1      22.132  23.353  23.398  1.00  0.00     0.130 C 
ATOM     13  O   UNL     1      23.323  23.177  23.187  1.00  0.00    -0.300 OA
ATOM     14  C   UNL     1      21.116  22.582  22.612  1.00  0.00     0.087 C 
ENDBRANCH  11  12
ENDBRANCH  10  11
ENDBRANCH   2  10
TORSDOF 6
ENDMDL
MODEL 3
REMARK VINA RESULT:    -4.460      1.310      3.810
REMARK INTER + INTRA:          -6.915
REMARK INTER:                  -5.964
REMARK INTRA:                  -0.951
REMARK UNBOUND:                -0.891
REMARK SMILES CC(=O)CCC=C(C)CCC=C(C)C
REMARK SMILES IDX 7 1 6 2 8 3 9 4 10 5 11 6 13 7 12 8 14 9 5 10 4 11 2 12 3 13
REMARK SMILES IDX 1 14
REMARK H PARENT
REMARK Flexibility Score: inf
ROOT
ATOM      1  C   UNL     1      19.480  29.247  29.039  1.00  0.00    -0.077 C 
ATOM      2  C   UNL     1      20.789  29.389  29.344  1.00  0.00    -0.028 C 
ATOM      3  C   UNL     1      18.467  30.001  29.862  1.00  0.00     0.039 C 
ENDROOT
BRANCH   1   4
ATOM      4  C   UNL     1      18.993  28.373  27.895  1.00  0.00     0.034 C 
BRANCH   4   5
ATOM      5  C   UNL     1      18.563  26.979  28.371  1.00  0.00     0.032 C 
BRANCH   5   6
ATOM      6  C   UNL     1      19.185  25.891  27.527  1.00  0.00    -0.028 C 
ATOM      7  C   UNL     1      20.823  24.174  26.889  1.00  0.00     0.039 C 
ATOM      8  C   UNL     1      20.284  25.182  27.871  1.00  0.00    -0.080 C 
ATOM      9  C   UNL     1      20.979  25.371  29.197  1.00  0.00     0.039 C 
ENDBRANCH   5   6
ENDBRANCH   4   5
ENDBRANCH   1   4
BRANCH   2  10
ATOM     10  C   UNL     1      21.904  28.673  28.620  1.00  0.00     0.035 C 
BRANCH  10  11
ATOM     11  C   UNL     1      23.128  28.496  29.525  1.00  0.00     0.079 C 
BRANCH  11  12
ATOM     12  C   UNL     1      24.328  28.078  28.723  1.00  0.00     0.130 C 
ATOM     13  O   UNL     1      25.365  27.776  29.295  1.00  0.00    -0.300 OA
ATOM     14  C   UNL     1      24.270  28.050  27.225  1.00  0.00     0.087 C 
ENDBRANCH  11  12
ENDBRANCH  10  11
ENDBRANCH   2  10
TORSDOF 6
ENDMDL
MODEL 4
REMARK VINA RESULT:    -4.426      1.929      4.684
REMARK INTER + INTRA:          -6.870
REMARK INTER:                  -5.880
REMARK INTRA:                  -0.989
REMARK UNBOUND:                -0.891
REMARK SMILES CC(=O)CCC=C(C)CCC=C(C)C
REMARK SMILES IDX 7 1 6 2 8 3 9 4 10 5 11 6 13 7 12 8 14 9 5 10 4 11 2 12 3 13
REMARK SMILES IDX 1 14
REMARK H PARENT
REMARK Flexibility Score: inf
ROOT
ATOM      1  C   UNL     1      20.273  25.122  27.726  1.00  0.00    -0.077 C 
ATOM      2  C   UNL     1      19.038  25.635  27.536  1.00  0.00    -0.028 C 
ATOM      3  C   UNL     1      20.741  24.022  26.806  1.00  0.00     0.039 C 
ENDROOT
BRANCH   1   4
ATOM      4  C   UNL     1      21.210  25.617  28.814  1.00  0.00     0.034 C 
BRANCH   4   5
ATOM      5  C   UNL     1      22.424  26.362  28.242  1.00  0.00     0.032 C 
BRANCH   5   6
ATOM      6  C   UNL     1      22.638  27.686  28.939  1.00  0.00    -0.028 C 
ATOM      7  C   UNL     1      23.893  29.514  29.996  1.00  0.00     0.039 C 
ATOM      8  C   UNL     1      23.847  28.213  29.237  1.00  0.00    -0.080 C 
ATOM      9  C   UNL     1      25.137  27.541  28.835  1.00  0.00     0.039 C 
ENDBRANCH   5   6
ENDBRANCH   4   5
ENDBRANCH   1   4
BRANCH   2  10
ATOM     10  C   UNL     1      18.436  26.719  28.399  1.00  0.00     0.035 C 
BRANCH  10  11
ATOM     11  C   UNL     1      18.688  28.107  27.799  1.00  0.00     0.079 C 
BRANCH  11  12
ATOM     12  C   UNL     1      19.058  29.092  28.873  1.00  0.00     0.130 C 
ATOM     13  O   UNL     1      19.155  30.279  28.600  1.00  0.00    -0.300 OA
ATOM     14  C   UNL     1      19.331  28.626  30.272  1.00  0.00     0.087 C 
ENDBRANCH  11  12
ENDBRANCH  10  11
ENDBRANCH   2  10
TORSDOF 6
ENDMDL
MODEL 5
REMARK VINA RESULT:    -4.416      2.637      5.459
REMARK INTER + INTRA:          -6.857
REMARK INTER:                  -6.306
REMARK INTRA:                  -0.550
REMARK UNBOUND:                -0.891
REMARK SMILES CC(=O)CCC=C(C)CCC=C(C)C
REMARK SMILES IDX 7 1 6 2 8 3 9 4 10 5 11 6 13 7 12 8 14 9 5 10 4 11 2 12 3 13
REMARK SMILES IDX 1 14
REMARK H PARENT
REMARK Flexibility Score: inf
ROOT
ATOM      1  C   UNL     1      20.151  24.975  27.527  1.00  0.00    -0.077 C 
ATOM      2  C   UNL     1      20.104  24.303  26.356  1.00  0.00    -0.028 C 
ATOM      3  C   UNL     1      18.879  25.598  28.047  1.00  0.00     0.039 C 
ENDROOT
BRANCH   1   4
ATOM      4  C   UNL     1      21.423  25.113  28.345  1.00  0.00     0.034 C 
BRANCH   4   5
ATOM      5  C   UNL     1      21.766  26.579  28.645  1.00  0.00     0.032 C 
BRANCH   5   6
ATOM      6  C   UNL     1      23.189  26.904  28.252  1.00  0.00    -0.028 C 
ATOM      7  C   UNL     1      25.280  28.191  28.170  1.00  0.00     0.039 C 
ATOM      8  C   UNL     1      23.891  27.965  28.709  1.00  0.00    -0.080 C 
ATOM      9  C   UNL     1      23.327  28.921  29.732  1.00  0.00     0.039 C 
ENDBRANCH   5   6
ENDBRANCH   4   5
ENDBRANCH   1   4
BRANCH   2  10
ATOM     10  C   UNL     1      21.305  23.654  25.711  1.00  0.00     0.035 C 
BRANCH  10  11
ATOM     11  C   UNL     1      21.665  24.346  24.391  1.00  0.00     0.079 C 
BRANCH  11  12
ATOM     12  C   UNL     1      22.104  23.339  23.364  1.00  0.00     0.130 C 
ATOM     13  O   UNL     1      23.295  23.178  23.142  1.00  0.00    -0.300 OA
ATOM     14  C   UNL     1      21.090  22.548  22.593  1.00  0.00     0.087 C 
ENDBRANCH  11  12
ENDBRANCH  10  11
ENDBRANCH   2  10
TORSDOF 6
ENDMDL
MODEL 6
REMARK VINA RESULT:    -4.382      1.607      2.982
REMARK INTER + INTRA:          -6.811
REMARK INTER:                  -5.855
REMARK INTRA:                  -0.955
REMARK UNBOUND:                -0.891
REMARK SMILES CC(=O)CCC=C(C)CCC=C(C)C
REMARK SMILES IDX 7 1 6 2 8 3 9 4 10 5 11 6 13 7 12 8 14 9 5 10 4 11 2 12 3 13
REMARK SMILES IDX 1 14
REMARK H PARENT
REMARK Flexibility Score: inf
ROOT
ATOM      1  C   UNL     1      19.346  27.910  28.441  1.00  0.00    -0.077 C 
ATOM      2  C   UNL     1      20.113  26.855  28.791  1.00  0.00    -0.028 C 
ATOM      3  C   UNL     1      17.981  27.641  27.858  1.00  0.00     0.039 C 
ENDROOT
BRANCH   1   4
ATOM      4  C   UNL     1      19.794  29.350  28.626  1.00  0.00     0.034 C 
BRANCH   4   5
ATOM      5  C   UNL     1      19.152  30.006  29.856  1.00  0.00     0.032 C 
BRANCH   5   6
ATOM      6  C   UNL     1      18.505  31.325  29.502  1.00  0.00    -0.028 C 
ATOM      7  C   UNL     1      16.681  32.896  29.012  1.00  0.00     0.039 C 
ATOM      8  C   UNL     1      17.171  31.538  29.446  1.00  0.00    -0.080 C 
ATOM      9  C   UNL     1      16.170  30.465  29.799  1.00  0.00     0.039 C 
ENDBRANCH   5   6
ENDBRANCH   4   5
ENDBRANCH   1   4
BRANCH   2  10
ATOM     10  C   UNL     1      21.507  26.980  29.360  1.00  0.00     0.035 C 
BRANCH  10  11
ATOM     11  C   UNL     1      22.567  26.833  28.264  1.00  0.00     0.079 C 
BRANCH  11  12
ATOM     12  C   UNL     1      23.436  28.058  28.194  1.00  0.00     0.130 C 
ATOM     13  O   UNL     1      24.095  28.278  27.189  1.00  0.00    -0.300 OA
ATOM     14  C   UNL     1      23.516  29.001  29.357  1.00  0.00     0.087 C 
ENDBRANCH  11  12
ENDBRANCH  10  11
ENDBRANCH   2  10
TORSDOF 6
ENDMDL
MODEL 7
REMARK VINA RESULT:    -4.282      3.885      7.093
REMARK INTER + INTRA:          -6.675
REMARK INTER:                  -5.145
REMARK INTRA:                  -1.531
REMARK UNBOUND:                -0.891
REMARK SMILES CC(=O)CCC=C(C)CCC=C(C)C
REMARK SMILES IDX 7 1 6 2 8 3 9 4 10 5 11 6 13 7 12 8 14 9 5 10 4 11 2 12 3 13
REMARK SMILES IDX 1 14
REMARK H PARENT
REMARK Flexibility Score: inf
ROOT
ATOM      1  C   UNL     1      17.370  32.413  29.740  1.00  0.00    -0.077 C 
ATOM      2  C   UNL     1      16.031  32.230  29.746  1.00  0.00    -0.028 C 
ATOM      3  C   UNL     1      17.929  33.592  28.984  1.00  0.00     0.039 C 
ENDROOT
BRANCH   1   4
ATOM      4  C   UNL     1      18.329  31.492  30.476  1.00  0.00     0.034 C 
BRANCH   4   5
ATOM      5  C   UNL     1      19.394  30.897  29.544  1.00  0.00     0.032 C 
BRANCH   5   6
ATOM      6  C   UNL     1      18.785  29.925  28.560  1.00  0.00    -0.028 C 
ATOM      7  C   UNL     1      18.333  27.753  27.503  1.00  0.00     0.039 C 
ATOM      8  C   UNL     1      18.953  28.584  28.598  1.00  0.00    -0.080 C 
ATOM      9  C   UNL     1      19.737  27.902  29.693  1.00  0.00     0.039 C 
ENDBRANCH   5   6
ENDBRANCH   4   5
ENDBRANCH   1   4
BRANCH   2  10
ATOM     10  C   UNL     1      15.343  31.078  30.440  1.00  0.00     0.035 C 
BRANCH  10  11
ATOM     11  C   UNL     1      15.059  29.933  29.462  1.00  0.00     0.079 C 
BRANCH  11  12
ATOM     12  C   UNL     1      15.537  28.623  30.022  1.00  0.00     0.130 C 
ATOM     13  O   UNL     1      15.286  27.582  29.432  1.00  0.00    -0.300 OA
ATOM     14  C   UNL     1      16.302  28.580  31.311  1.00  0.00     0.087 C 
ENDBRANCH  11  12
ENDBRANCH  10  11
ENDBRANCH   2  10
TORSDOF 6
ENDMDL
MODEL 8
REMARK VINA RESULT:    -4.280      4.068      6.659
REMARK INTER + INTRA:          -6.673
REMARK INTER:                  -4.878
REMARK INTRA:                  -1.795
REMARK UNBOUND:                -0.891
REMARK SMILES CC(=O)CCC=C(C)CCC=C(C)C
REMARK SMILES IDX 7 1 6 2 8 3 9 4 10 5 11 6 13 7 12 8 14 9 5 10 4 11 2 12 3 13
REMARK SMILES IDX 1 14
REMARK H PARENT
REMARK Flexibility Score: inf
ROOT
ATOM      1  C   UNL     1      15.819  30.406  30.214  1.00  0.00    -0.077 C 
ATOM      2  C   UNL     1      15.716  31.503  29.431  1.00  0.00    -0.028 C 
ATOM      3  C   UNL     1      15.087  29.156  29.795  1.00  0.00     0.039 C 
ENDROOT
BRANCH   1   4
ATOM      4  C   UNL     1      16.654  30.378  31.483  1.00  0.00     0.034 C 
BRANCH   4   5
ATOM      5  C   UNL     1      17.807  29.369  31.399  1.00  0.00     0.032 C 
BRANCH   5   6
ATOM      6  C   UNL     1      19.075  30.020  30.900  1.00  0.00    -0.028 C 
ATOM      7  C   UNL     1      20.871  30.567  29.314  1.00  0.00     0.039 C 
ATOM      8  C   UNL     1      19.554  29.910  29.640  1.00  0.00    -0.080 C 
ATOM      9  C   UNL     1      18.815  29.154  28.563  1.00  0.00     0.039 C 
ENDBRANCH   5   6
ENDBRANCH   4   5
ENDBRANCH   1   4
BRANCH   2  10
ATOM     10  C   UNL     1      16.375  32.825  29.745  1.00  0.00     0.035 C 
BRANCH  10  11
ATOM     11  C   UNL     1      17.657  33.011  28.928  1.00  0.00     0.079 C 
BRANCH  11  12
ATOM     12  C   UNL     1      18.749  33.603  29.776  1.00  0.00     0.130 C 
ATOM     13  O   UNL     1      19.769  34.021  29.248  1.00  0.00    -0.300 OA
ATOM     14  C   UNL     1      18.605  33.664  31.267  1.00  0.00     0.087 C 
ENDBRANCH  11  12
ENDBRANCH  10  11
ENDBRANCH   2  10
TORSDOF 6
ENDMDL
MODEL 9
REMARK VINA RESULT:    -4.257      3.488      6.410
REMARK INTER + INTRA:          -6.642
REMARK INTER:                  -5.778
REMARK INTRA:                  -0.864
REMARK UNBOUND:                -0.891
REMARK SMILES CC(=O)CCC=C(C)CCC=C(C)C
REMARK SMILES IDX 7 1 6 2 8 3 9 4 10 5 11 6 13 7 12 8 14 9 5 10 4 11 2 12 3 13
REMARK SMILES IDX 1 14
REMARK H PARENT
REMARK Flexibility Score: inf
ROOT
ATOM      1  C   UNL     1      18.513  28.832  28.869  1.00  0.00    -0.077 C 
ATOM      2  C   UNL     1      17.879  29.569  29.808  1.00  0.00    -0.028 C 
ATOM      3  C   UNL     1      19.984  29.073  28.641  1.00  0.00     0.039 C 
ENDROOT
BRANCH   1   4
ATOM      4  C   UNL     1      17.809  27.763  28.049  1.00  0.00     0.034 C 
BRANCH   4   5
ATOM      5  C   UNL     1      18.069  26.350  28.589  1.00  0.00     0.032 C 
BRANCH   5   6
ATOM      6  C   UNL     1      18.858  25.520  27.604  1.00  0.00    -0.028 C 
ATOM      7  C   UNL     1      20.809  24.350  26.676  1.00  0.00     0.039 C 
ATOM      8  C   UNL     1      20.136  25.118  27.784  1.00  0.00    -0.080 C 
ATOM      9  C   UNL     1      20.901  25.417  29.051  1.00  0.00     0.039 C 
ENDBRANCH   5   6
ENDBRANCH   4   5
ENDBRANCH   1   4
BRANCH   2  10
ATOM     10  C   UNL     1      16.406  29.447  30.119  1.00  0.00     0.035 C 
BRANCH  10  11
ATOM     11  C   UNL     1      15.591  30.494  29.352  1.00  0.00     0.079 C 
BRANCH  11  12
ATOM     12  C   UNL     1      15.894  31.878  29.854  1.00  0.00     0.130 C 
ATOM     13  O   UNL     1      15.565  32.199  30.986  1.00  0.00    -0.300 OA
ATOM     14  C   UNL     1      16.576  32.876  28.967  1.00  0.00     0.087 C 
ENDBRANCH  11  12
ENDBRANCH  10  11
ENDBRANCH   2  10
TORSDOF 6
ENDMDL
