MODEL 1
REMARK VINA RESULT:    -4.031      0.000      0.000
REMARK INTER + INTRA:          -4.940
REMARK INTER:                  -5.681
REMARK INTRA:                   0.741
REMARK UNBOUND:                 0.741
REMARK SMILES CC1=CCC(=C(C)C)C(=O)CC(C)=CCC1
REMARK SMILES IDX 12 1 14 2 13 3 15 4 16 5 2 6 1 7 3 8 11 10 9 11 10 12 5 13
REMARK SMILES IDX 6 14 7 15 8 16 4 17
REMARK H PARENT
REMARK Flexibility Score: 60.00
ROOT
ATOM      1  C   UNL     1      87.068  38.229  29.148  1.00  0.00    -0.070 C 
ATOM      2  C   UNL     1      86.520  39.330  29.714  1.00  0.00    -0.027 C 
ATOM      3  C   UNL     1      88.270  38.415  28.256  1.00  0.00     0.039 C 
ENDROOT
BRANCH   2   4
ATOM      4  C   UNL     1      85.280  39.366  30.575  1.00  0.00     0.032 C 
BRANCH   4   5
ATOM      5  C   UNL     1      84.171  38.429  30.069  1.00  0.00     0.034 C 
BRANCH   5   6
ATOM      6  C   UNL     1      83.452  38.979  28.851  1.00  0.00    -0.077 C 
ATOM      7  C   UNL     1      82.936  40.394  28.903  1.00  0.00     0.039 C 
ATOM      8  C   UNL     1      83.263  38.279  27.708  1.00  0.00    -0.023 CG0
ATOM      9  G   UNL     1      83.752  36.877  27.436  1.00  0.00     0.000 G0
ENDBRANCH   5   6
ENDBRANCH   4   5
ENDBRANCH   2   4
BRANCH   1  10
ATOM     10  C   UNL     1      86.532  36.823  29.345  1.00  0.00     0.111 C 
BRANCH  10  11
ATOM     11  C   UNL     1      86.161  36.161  28.041  1.00  0.00     0.163 C 
ATOM     12  O   UNL     1      86.730  35.078  27.741  1.00  0.00    -0.294 OA
BRANCH  11  13
ATOM     13  C   UNL     1      85.214  36.786  27.066  1.00  0.00    -0.002 C 
ATOM     14  C   UNL     1      85.645  37.151  25.822  1.00  0.00    -0.069 C 
ATOM     15  C   UNL     1      84.685  37.684  24.784  1.00  0.00     0.039 C 
ATOM     16  C   UNL     1      87.093  36.991  25.413  1.00  0.00     0.039 C 
BRANCH  13  17
ATOM     17  C   UNL     1      83.738  36.861  27.437  1.00  0.00     0.066 CG0
ATOM     18  G   UNL     1      83.301  38.282  27.702  1.00  0.00     0.000 G0
ENDBRANCH  13  17
ENDBRANCH  11  13
ENDBRANCH  10  11
ENDBRANCH   1  10
TORSDOF 0
ENDMDL
MODEL 2
REMARK VINA RESULT:    -3.904      2.287      4.292
REMARK INTER + INTRA:          -4.761
REMARK INTER:                  -5.030
REMARK INTRA:                   0.269
REMARK UNBOUND:                 0.741
REMARK SMILES CC1=CCC(=C(C)C)C(=O)CC(C)=CCC1
REMARK SMILES IDX 12 1 14 2 13 3 15 4 16 5 2 6 1 7 3 8 11 10 9 11 10 12 5 13
REMARK SMILES IDX 6 14 7 15 8 16 4 17
REMARK H PARENT
REMARK Flexibility Score: 60.00
ROOT
ATOM      1  C   UNL     1      87.660  38.245  28.408  1.00  0.00    -0.070 C 
ATOM      2  C   UNL     1      88.667  38.737  27.648  1.00  0.00    -0.027 C 
ATOM      3  C   UNL     1      87.295  38.989  29.667  1.00  0.00     0.039 C 
ENDROOT
BRANCH   2   4
ATOM      4  C   UNL     1      89.229  38.106  26.397  1.00  0.00     0.032 C 
BRANCH   4   5
ATOM      5  C   UNL     1      88.417  38.448  25.136  1.00  0.00     0.034 C 
BRANCH   5   6
ATOM      6  C   UNL     1      87.961  37.213  24.382  1.00  0.00    -0.077 C 
ATOM      7  C   UNL     1      89.004  36.364  23.702  1.00  0.00     0.039 C 
ATOM      8  C   UNL     1      86.670  36.814  24.301  1.00  0.00    -0.023 CG0
ATOM      9  G   UNL     1      85.490  37.490  24.958  1.00  0.00     0.000 G0
ENDBRANCH   5   6
ENDBRANCH   4   5
ENDBRANCH   2   4
BRANCH   1  10
ATOM     10  C   UNL     1      86.893  36.979  28.075  1.00  0.00     0.111 C 
BRANCH  10  11
ATOM     11  C   UNL     1      85.512  37.268  27.540  1.00  0.00     0.163 C 
ATOM     12  O   UNL     1      84.713  37.911  28.273  1.00  0.00    -0.294 OA
BRANCH  11  13
ATOM     13  C   UNL     1      85.038  36.749  26.221  1.00  0.00    -0.002 C 
ATOM     14  C   UNL     1      84.126  35.734  26.165  1.00  0.00    -0.069 C 
ATOM     15  C   UNL     1      83.552  35.265  24.848  1.00  0.00     0.039 C 
ATOM     16  C   UNL     1      83.613  35.067  27.423  1.00  0.00     0.039 C 
BRANCH  13  17
ATOM     17  C   UNL     1      85.477  37.477  24.956  1.00  0.00     0.066 CG0
ATOM     18  G   UNL     1      86.674  36.815  24.317  1.00  0.00     0.000 G0
ENDBRANCH  13  17
ENDBRANCH  11  13
ENDBRANCH  10  11
ENDBRANCH   1  10
TORSDOF 0
ENDMDL
MODEL 3
REMARK VINA RESULT:    -3.717      1.810      3.486
REMARK INTER + INTRA:          -4.497
REMARK INTER:                  -4.579
REMARK INTRA:                   0.082
REMARK UNBOUND:                 0.741
REMARK SMILES CC1=CCC(=C(C)C)C(=O)CC(C)=CCC1
REMARK SMILES IDX 12 1 14 2 13 3 15 4 16 5 2 6 1 7 3 8 11 10 9 11 10 12 5 13
REMARK SMILES IDX 6 14 7 15 8 16 4 17
REMARK H PARENT
REMARK Flexibility Score: 60.00
ROOT
ATOM      1  C   UNL     1      87.983  37.577  24.908  1.00  0.00    -0.070 C 
ATOM      2  C   UNL     1      88.813  38.057  25.864  1.00  0.00    -0.027 C 
ATOM      3  C   UNL     1      88.601  36.964  23.677  1.00  0.00     0.039 C 
ENDROOT
BRANCH   2   4
ATOM      4  C   UNL     1      88.398  38.768  27.130  1.00  0.00     0.032 C 
BRANCH   4   5
ATOM      5  C   UNL     1      87.961  37.802  28.244  1.00  0.00     0.034 C 
BRANCH   5   6
ATOM      6  C   UNL     1      86.673  38.235  28.921  1.00  0.00    -0.077 C 
ATOM      7  C   UNL     1      86.664  39.542  29.672  1.00  0.00     0.039 C 
ATOM      8  C   UNL     1      85.522  37.525  28.873  1.00  0.00    -0.023 CG0
ATOM      9  G   UNL     1      85.311  36.228  28.129  1.00  0.00     0.000 G0
ENDBRANCH   5   6
ENDBRANCH   4   5
ENDBRANCH   2   4
BRANCH   1  10
ATOM     10  C   UNL     1      86.469  37.639  24.996  1.00  0.00     0.111 C 
BRANCH  10  11
ATOM     11  C   UNL     1      85.879  36.398  25.618  1.00  0.00     0.163 C 
ATOM     12  O   UNL     1      86.229  35.278  25.158  1.00  0.00    -0.294 OA
BRANCH  11  13
ATOM     13  C   UNL     1      84.840  36.456  26.692  1.00  0.00    -0.002 C 
ATOM     14  C   UNL     1      83.519  36.577  26.369  1.00  0.00    -0.069 C 
ATOM     15  C   UNL     1      82.443  36.530  27.429  1.00  0.00     0.039 C 
ATOM     16  C   UNL     1      83.070  36.715  24.930  1.00  0.00     0.039 C 
BRANCH  13  17
ATOM     17  C   UNL     1      85.275  36.222  28.134  1.00  0.00     0.066 CG0
ATOM     18  G   UNL     1      85.526  37.523  28.859  1.00  0.00     0.000 G0
ENDBRANCH  13  17
ENDBRANCH  11  13
ENDBRANCH  10  11
ENDBRANCH   1  10
TORSDOF 0
ENDMDL
MODEL 4
REMARK VINA RESULT:    -3.643      3.772      5.794
REMARK INTER + INTRA:          -4.393
REMARK INTER:                  -4.884
REMARK INTRA:                   0.491
REMARK UNBOUND:                 0.741
REMARK SMILES CC1=CCC(=C(C)C)C(=O)CC(C)=CCC1
REMARK SMILES IDX 12 1 14 2 13 3 15 4 16 5 2 6 1 7 3 8 11 10 9 11 10 12 5 13
REMARK SMILES IDX 6 14 7 15 8 16 4 17
REMARK H PARENT
REMARK Flexibility Score: 60.00
ROOT
ATOM      1  C   UNL     1      85.722  34.611  33.289  1.00  0.00    -0.070 C 
ATOM      2  C   UNL     1      86.861  33.879  33.305  1.00  0.00    -0.027 C 
ATOM      3  C   UNL     1      84.496  34.027  33.945  1.00  0.00     0.039 C 
ENDROOT
BRANCH   2   4
ATOM      4  C   UNL     1      88.168  34.251  32.646  1.00  0.00     0.032 C 
BRANCH   4   5
ATOM      5  C   UNL     1      88.572  33.281  31.524  1.00  0.00     0.034 C 
BRANCH   5   6
ATOM      6  C   UNL     1      87.438  33.002  30.555  1.00  0.00    -0.077 C 
ATOM      7  C   UNL     1      86.845  31.617  30.525  1.00  0.00     0.039 C 
ATOM      8  C   UNL     1      86.909  33.934  29.727  1.00  0.00    -0.023 CG0
ATOM      9  G   UNL     1      87.321  35.385  29.647  1.00  0.00     0.000 G0
ENDBRANCH   5   6
ENDBRANCH   4   5
ENDBRANCH   2   4
BRANCH   1  10
ATOM     10  C   UNL     1      85.604  35.975  32.635  1.00  0.00     0.111 C 
BRANCH  10  11
ATOM     11  C   UNL     1      85.277  35.881  31.165  1.00  0.00     0.163 C 
ATOM     12  O   UNL     1      84.199  35.322  30.830  1.00  0.00    -0.294 OA
BRANCH  11  13
ATOM     13  C   UNL     1      86.221  36.349  30.103  1.00  0.00    -0.002 C 
ATOM     14  C   UNL     1      86.183  37.642  29.666  1.00  0.00    -0.069 C 
ATOM     15  C   UNL     1      87.195  38.166  28.674  1.00  0.00     0.039 C 
ATOM     16  C   UNL     1      85.157  38.621  30.195  1.00  0.00     0.039 C 
BRANCH  13  17
ATOM     17  C   UNL     1      87.316  35.397  29.636  1.00  0.00     0.066 CG0
ATOM     18  G   UNL     1      86.887  33.954  29.749  1.00  0.00     0.000 G0
ENDBRANCH  13  17
ENDBRANCH  11  13
ENDBRANCH  10  11
ENDBRANCH   1  10
TORSDOF 0
ENDMDL
MODEL 5
REMARK VINA RESULT:    -3.637      3.187      6.216
REMARK INTER + INTRA:          -4.385
REMARK INTER:                  -4.513
REMARK INTRA:                   0.128
REMARK UNBOUND:                 0.741
REMARK SMILES CC1=CCC(=C(C)C)C(=O)CC(C)=CCC1
REMARK SMILES IDX 12 1 14 2 13 3 15 4 16 5 2 6 1 7 3 8 11 10 9 11 10 12 5 13
REMARK SMILES IDX 6 14 7 15 8 16 4 17
REMARK H PARENT
REMARK Flexibility Score: 60.00
ROOT
ATOM      1  C   UNL     1      86.230  36.440  24.217  1.00  0.00    -0.070 C 
ATOM      2  C   UNL     1      86.514  35.498  23.286  1.00  0.00    -0.027 C 
ATOM      3  C   UNL     1      85.311  37.569  23.824  1.00  0.00     0.039 C 
ENDROOT
BRANCH   2   4
ATOM      4  C   UNL     1      87.461  34.334  23.456  1.00  0.00     0.032 C 
BRANCH   4   5
ATOM      5  C   UNL     1      86.814  33.134  24.167  1.00  0.00     0.034 C 
BRANCH   5   6
ATOM      6  C   UNL     1      87.667  32.596  25.301  1.00  0.00    -0.077 C 
ATOM      7  C   UNL     1      88.999  31.978  24.964  1.00  0.00     0.039 C 
ATOM      8  C   UNL     1      87.311  32.659  26.606  1.00  0.00    -0.023 CG0
ATOM      9  G   UNL     1      86.051  33.288  27.152  1.00  0.00     0.000 G0
ENDBRANCH   5   6
ENDBRANCH   4   5
ENDBRANCH   2   4
BRANCH   1  10
ATOM     10  C   UNL     1      86.798  36.434  25.624  1.00  0.00     0.111 C 
BRANCH  10  11
ATOM     11  C   UNL     1      85.847  35.825  26.625  1.00  0.00     0.163 C 
ATOM     12  O   UNL     1      84.683  36.302  26.706  1.00  0.00    -0.294 OA
BRANCH  11  13
ATOM     13  C   UNL     1      86.263  34.744  27.571  1.00  0.00    -0.002 C 
ATOM     14  C   UNL     1      86.691  35.055  28.830  1.00  0.00    -0.069 C 
ATOM     15  C   UNL     1      87.014  33.977  29.839  1.00  0.00     0.039 C 
ATOM     16  C   UNL     1      86.815  36.493  29.286  1.00  0.00     0.039 C 
BRANCH  13  17
ATOM     17  C   UNL     1      86.051  33.294  27.153  1.00  0.00     0.066 CG0
ATOM     18  G   UNL     1      87.318  32.679  26.609  1.00  0.00     0.000 G0
ENDBRANCH  13  17
ENDBRANCH  11  13
ENDBRANCH  10  11
ENDBRANCH   1  10
TORSDOF 0
ENDMDL
MODEL 6
REMARK VINA RESULT:    -3.636      4.525      6.603
REMARK INTER + INTRA:          -4.383
REMARK INTER:                  -4.870
REMARK INTRA:                   0.486
REMARK UNBOUND:                 0.741
REMARK SMILES CC1=CCC(=C(C)C)C(=O)CC(C)=CCC1
REMARK SMILES IDX 12 1 14 2 13 3 15 4 16 5 2 6 1 7 3 8 11 10 9 11 10 12 5 13
REMARK SMILES IDX 6 14 7 15 8 16 4 17
REMARK H PARENT
REMARK Flexibility Score: 60.00
ROOT
ATOM      1  C   UNL     1      83.143  36.658  20.441  1.00  0.00    -0.070 C 
ATOM      2  C   UNL     1      82.764  37.958  20.426  1.00  0.00    -0.027 C 
ATOM      3  C   UNL     1      82.141  35.624  19.993  1.00  0.00     0.039 C 
ENDROOT
BRANCH   2   4
ATOM      4  C   UNL     1      83.588  39.132  20.900  1.00  0.00     0.032 C 
BRANCH   4   5
ATOM      5  C   UNL     1      82.967  39.852  22.108  1.00  0.00     0.034 C 
BRANCH   5   6
ATOM      6  C   UNL     1      82.574  38.897  23.220  1.00  0.00    -0.077 C 
ATOM      7  C   UNL     1      81.110  38.733  23.539  1.00  0.00     0.039 C 
ATOM      8  C   UNL     1      83.462  38.164  23.931  1.00  0.00    -0.023 CG0
ATOM      9  G   UNL     1      84.958  38.141  23.727  1.00  0.00     0.000 G0
ENDBRANCH   5   6
ENDBRANCH   4   5
ENDBRANCH   2   4
BRANCH   1  10
ATOM     10  C   UNL     1      84.508  36.182  20.901  1.00  0.00     0.111 C 
BRANCH  10  11
ATOM     11  C   UNL     1      84.565  35.951  22.392  1.00  0.00     0.163 C 
ATOM     12  O   UNL     1      83.782  35.099  22.892  1.00  0.00    -0.294 OA
BRANCH  11  13
ATOM     13  C   UNL     1      85.448  36.752  23.294  1.00  0.00    -0.002 C 
ATOM     14  C   UNL     1      86.709  36.318  23.590  1.00  0.00    -0.069 C 
ATOM     15  C   UNL     1      87.658  37.161  24.410  1.00  0.00     0.039 C 
ATOM     16  C   UNL     1      87.228  34.996  23.068  1.00  0.00     0.039 C 
BRANCH  13  17
ATOM     17  C   UNL     1      84.968  38.127  23.744  1.00  0.00     0.066 CG0
ATOM     18  G   UNL     1      83.469  38.163  23.925  1.00  0.00     0.000 G0
ENDBRANCH  13  17
ENDBRANCH  11  13
ENDBRANCH  10  11
ENDBRANCH   1  10
TORSDOF 0
ENDMDL
MODEL 7
REMARK VINA RESULT:    -3.530      1.876      4.019
REMARK INTER + INTRA:          -4.233
REMARK INTER:                  -4.467
REMARK INTRA:                   0.234
REMARK UNBOUND:                 0.741
REMARK SMILES CC1=CCC(=C(C)C)C(=O)CC(C)=CCC1
REMARK SMILES IDX 12 1 14 2 13 3 15 4 16 5 2 6 1 7 3 8 11 10 9 11 10 12 5 13
REMARK SMILES IDX 6 14 7 15 8 16 4 17
REMARK H PARENT
REMARK Flexibility Score: 60.00
ROOT
ATOM      1  C   UNL     1      87.895  37.850  27.050  1.00  0.00    -0.070 C 
ATOM      2  C   UNL     1      87.811  37.946  25.702  1.00  0.00    -0.027 C 
ATOM      3  C   UNL     1      88.877  38.745  27.764  1.00  0.00     0.039 C 
ENDROOT
BRANCH   2   4
ATOM      4  C   UNL     1      86.948  37.095  24.801  1.00  0.00     0.032 C 
BRANCH   4   5
ATOM      5  C   UNL     1      85.462  37.488  24.848  1.00  0.00     0.034 C 
BRANCH   5   6
ATOM      6  C   UNL     1      84.556  36.313  25.166  1.00  0.00    -0.077 C 
ATOM      7  C   UNL     1      84.570  35.127  24.237  1.00  0.00     0.039 C 
ATOM      8  C   UNL     1      83.749  36.257  26.251  1.00  0.00    -0.023 CG0
ATOM      9  G   UNL     1      83.636  37.311  27.327  1.00  0.00     0.000 G0
ENDBRANCH   5   6
ENDBRANCH   4   5
ENDBRANCH   2   4
BRANCH   1  10
ATOM     10  C   UNL     1      87.074  36.882  27.881  1.00  0.00     0.111 C 
BRANCH  10  11
ATOM     11  C   UNL     1      85.902  37.553  28.555  1.00  0.00     0.163 C 
ATOM     12  O   UNL     1      86.121  38.601  29.221  1.00  0.00    -0.294 OA
BRANCH  11  13
ATOM     13  C   UNL     1      84.524  36.976  28.530  1.00  0.00    -0.002 C 
ATOM     14  C   UNL     1      84.040  36.295  29.610  1.00  0.00    -0.069 C 
ATOM     15  C   UNL     1      82.614  35.795  29.651  1.00  0.00     0.039 C 
ATOM     16  C   UNL     1      84.895  36.054  30.835  1.00  0.00     0.039 C 
BRANCH  13  17
ATOM     17  C   UNL     1      83.626  37.296  27.341  1.00  0.00     0.066 CG0
ATOM     18  G   UNL     1      83.755  36.261  26.249  1.00  0.00     0.000 G0
ENDBRANCH  13  17
ENDBRANCH  11  13
ENDBRANCH  10  11
ENDBRANCH   1  10
TORSDOF 0
ENDMDL
MODEL 8
REMARK VINA RESULT:    -3.408      3.147      4.738
REMARK INTER + INTRA:          -4.061
REMARK INTER:                  -4.313
REMARK INTRA:                   0.251
REMARK UNBOUND:                 0.741
REMARK SMILES CC1=CCC(=C(C)C)C(=O)CC(C)=CCC1
REMARK SMILES IDX 12 1 14 2 13 3 15 4 16 5 2 6 1 7 3 8 11 10 9 11 10 12 5 13
REMARK SMILES IDX 6 14 7 15 8 16 4 17
REMARK H PARENT
REMARK Flexibility Score: 60.00
ROOT
ATOM      1  C   UNL     1      86.826  37.158  24.598  1.00  0.00    -0.070 C 
ATOM      2  C   UNL     1      86.609  37.013  25.926  1.00  0.00    -0.027 C 
ATOM      3  C   UNL     1      88.252  37.135  24.106  1.00  0.00     0.039 C 
ENDROOT
BRANCH   2   4
ATOM      4  C   UNL     1      85.271  37.079  26.623  1.00  0.00     0.032 C 
BRANCH   4   5
ATOM      5  C   UNL     1      84.413  35.824  26.391  1.00  0.00     0.034 C 
BRANCH   5   6
ATOM      6  C   UNL     1      83.018  36.153  25.891  1.00  0.00    -0.077 C 
ATOM      7  C   UNL     1      82.155  37.064  26.725  1.00  0.00     0.039 C 
ATOM      8  C   UNL     1      82.509  35.693  24.724  1.00  0.00    -0.023 CG0
ATOM      9  G   UNL     1      83.231  34.821  23.725  1.00  0.00     0.000 G0
ENDBRANCH   5   6
ENDBRANCH   4   5
ENDBRANCH   2   4
BRANCH   1  10
ATOM     10  C   UNL     1      85.720  37.361  23.579  1.00  0.00     0.111 C 
BRANCH  10  11
ATOM     11  C   UNL     1      85.351  36.081  22.868  1.00  0.00     0.163 C 
ATOM     12  O   UNL     1      86.281  35.383  22.381  1.00  0.00    -0.294 OA
BRANCH  11  13
ATOM     13  C   UNL     1      83.932  35.664  22.652  1.00  0.00    -0.002 C 
ATOM     14  C   UNL     1      83.312  35.915  21.462  1.00  0.00    -0.069 C 
ATOM     15  C   UNL     1      81.915  35.409  21.181  1.00  0.00     0.039 C 
ATOM     16  C   UNL     1      84.014  36.668  20.352  1.00  0.00     0.039 C 
BRANCH  13  17
ATOM     17  C   UNL     1      83.252  34.825  23.727  1.00  0.00     0.066 CG0
ATOM     18  G   UNL     1      82.499  35.684  24.714  1.00  0.00     0.000 G0
ENDBRANCH  13  17
ENDBRANCH  11  13
ENDBRANCH  10  11
ENDBRANCH   1  10
TORSDOF 0
ENDMDL
MODEL 9
REMARK VINA RESULT:    -3.349      1.759      3.548
REMARK INTER + INTRA:          -3.979
REMARK INTER:                  -4.522
REMARK INTRA:                   0.543
REMARK UNBOUND:                 0.741
REMARK SMILES CC1=CCC(=C(C)C)C(=O)CC(C)=CCC1
REMARK SMILES IDX 12 1 14 2 13 3 15 4 16 5 2 6 1 7 3 8 11 10 9 11 10 12 5 13
REMARK SMILES IDX 6 14 7 15 8 16 4 17
REMARK H PARENT
REMARK Flexibility Score: 60.00
ROOT
ATOM      1  C   UNL     1      83.122  36.953  28.011  1.00  0.00    -0.070 C 
ATOM      2  C   UNL     1      83.169  37.533  29.234  1.00  0.00    -0.027 C 
ATOM      3  C   UNL     1      82.217  35.761  27.827  1.00  0.00     0.039 C 
ENDROOT
BRANCH   2   4
ATOM      4  C   UNL     1      84.059  38.683  29.640  1.00  0.00     0.032 C 
BRANCH   4   5
ATOM      5  C   UNL     1      85.109  38.287  30.692  1.00  0.00     0.034 C 
BRANCH   5   6
ATOM      6  C   UNL     1      85.774  36.959  30.383  1.00  0.00    -0.077 C 
ATOM      7  C   UNL     1      85.493  35.789  31.290  1.00  0.00     0.039 C 
ATOM      8  C   UNL     1      86.592  36.755  29.323  1.00  0.00    -0.023 CG0
ATOM      9  G   UNL     1      86.950  37.777  28.270  1.00  0.00     0.000 G0
ENDBRANCH   5   6
ENDBRANCH   4   5
ENDBRANCH   2   4
BRANCH   1  10
ATOM     10  C   UNL     1      83.941  37.422  26.822  1.00  0.00     0.111 C 
BRANCH  10  11
ATOM     11  C   UNL     1      85.234  36.656  26.677  1.00  0.00     0.163 C 
ATOM     12  O   UNL     1      85.169  35.418  26.450  1.00  0.00    -0.294 OA
BRANCH  11  13
ATOM     13  C   UNL     1      86.571  37.296  26.874  1.00  0.00    -0.002 C 
ATOM     14  C   UNL     1      87.371  37.569  25.802  1.00  0.00    -0.069 C 
ATOM     15  C   UNL     1      88.677  38.311  25.965  1.00  0.00     0.039 C 
ATOM     16  C   UNL     1      86.962  37.183  24.397  1.00  0.00     0.039 C 
BRANCH  13  17
ATOM     17  C   UNL     1      86.946  37.773  28.272  1.00  0.00     0.066 CG0
ATOM     18  G   UNL     1      86.602  36.745  29.324  1.00  0.00     0.000 G0
ENDBRANCH  13  17
ENDBRANCH  11  13
ENDBRANCH  10  11
ENDBRANCH   1  10
TORSDOF 0
ENDMDL
