MODEL 1
REMARK VINA RESULT:    -5.897      0.000      0.000
REMARK INTER + INTRA:         -13.093
REMARK INTER:                 -11.413
REMARK INTRA:                  -1.680
REMARK UNBOUND:                -1.680
REMARK SMILES CCCCCCCCCCCCCCCCCC(=O)[O-]
REMARK SMILES IDX 10 1 11 2 12 3 13 4 14 5 15 6 16 7 17 8 18 9 19 10 20 11
REMARK SMILES IDX 9 12 8 13 7 14 6 15 5 16 4 17 3 18 2 19 1 20
REMARK H PARENT
REMARK Flexibility Score: inf
ROOT
ATOM      1  C   UNL     1      -4.212  10.376 -17.667  1.00  0.00     0.000 C 
ENDROOT
BRANCH   1   2
ATOM      2  C   UNL     1      -3.318   9.174 -17.321  1.00  0.00     0.000 C 
BRANCH   2   3
ATOM      3  C   UNL     1      -2.262   8.943 -18.413  1.00  0.00     0.000 C 
BRANCH   3   4
ATOM      4  C   UNL     1      -0.841   9.346 -17.974  1.00  0.00     0.000 C 
BRANCH   4   5
ATOM      5  C   UNL     1       0.288   8.723 -18.817  1.00  0.00     0.000 C 
BRANCH   5   6
ATOM      6  C   UNL     1       0.083   7.216 -19.099  1.00  0.00     0.000 C 
BRANCH   6   7
ATOM      7  C   UNL     1       0.350   6.326 -17.872  1.00  0.00     0.006 C 
BRANCH   7   8
ATOM      8  C   UNL     1      -0.338   4.954 -17.948  1.00  0.00     0.053 C 
BRANCH   8   9
ATOM      9  C   UNL     1      -1.829   5.073 -18.032  1.00  0.00     0.041 C 
ATOM     10  O   UNL     1      -2.460   5.753 -17.179  1.00  0.00    -0.550 OA
ATOM     11  O   UNL     1      -2.521   4.435 -19.053  1.00  0.00    -0.550 OA
ENDBRANCH   8   9
ENDBRANCH   7   8
ENDBRANCH   6   7
ENDBRANCH   5   6
ENDBRANCH   4   5
ENDBRANCH   3   4
ENDBRANCH   2   3
ENDBRANCH   1   2
BRANCH   1  12
ATOM     12  C   UNL     1      -3.433  11.519 -18.337  1.00  0.00     0.000 C 
BRANCH  12  13
ATOM     13  C   UNL     1      -4.232  12.189 -19.471  1.00  0.00    -0.000 C 
BRANCH  13  14
ATOM     14  C   UNL     1      -5.132  11.198 -20.229  1.00  0.00    -0.000 C 
BRANCH  14  15
ATOM     15  C   UNL     1      -6.501  11.800 -20.587  1.00  0.00    -0.000 C 
BRANCH  15  16
ATOM     16  C   UNL     1      -7.671  10.900 -20.159  1.00  0.00    -0.000 C 
BRANCH  16  17
ATOM     17  C   UNL     1      -7.739  10.699 -18.635  1.00  0.00    -0.000 C 
BRANCH  17  18
ATOM     18  C   UNL     1      -7.627  12.020 -17.856  1.00  0.00    -0.000 C 
BRANCH  18  19
ATOM     19  C   UNL     1      -7.876  11.843 -16.350  1.00  0.00    -0.003 C 
ATOM     20  C   UNL     1      -7.410  10.469 -15.874  1.00  0.00     0.004 C 
ENDBRANCH  18  19
ENDBRANCH  17  18
ENDBRANCH  16  17
ENDBRANCH  15  16
ENDBRANCH  14  15
ENDBRANCH  13  14
ENDBRANCH  12  13
ENDBRANCH   1  12
TORSDOF 16
ENDMDL
MODEL 2
REMARK VINA RESULT:    -5.743      2.482      7.457
REMARK INTER + INTRA:         -12.794
REMARK INTER:                 -11.448
REMARK INTRA:                  -1.347
REMARK UNBOUND:                -1.680
REMARK SMILES CCCCCCCCCCCCCCCCCC(=O)[O-]
REMARK SMILES IDX 10 1 11 2 12 3 13 4 14 5 15 6 16 7 17 8 18 9 19 10 20 11
REMARK SMILES IDX 9 12 8 13 7 14 6 15 5 16 4 17 3 18 2 19 1 20
REMARK H PARENT
REMARK Flexibility Score: inf
ROOT
ATOM      1  C   UNL     1      -4.072  10.200 -18.009  1.00  0.00     0.000 C 
ENDROOT
BRANCH   1   2
ATOM      2  C   UNL     1      -3.364  11.507 -18.402  1.00  0.00     0.000 C 
BRANCH   2   3
ATOM      3  C   UNL     1      -4.154  12.255 -19.488  1.00  0.00     0.000 C 
BRANCH   3   4
ATOM      4  C   UNL     1      -5.038  11.324 -20.340  1.00  0.00     0.000 C 
BRANCH   4   5
ATOM      5  C   UNL     1      -6.474  11.836 -20.561  1.00  0.00     0.000 C 
BRANCH   5   6
ATOM      6  C   UNL     1      -7.553  10.746 -20.358  1.00  0.00     0.000 C 
BRANCH   6   7
ATOM      7  C   UNL     1      -8.053  10.650 -18.905  1.00  0.00     0.006 C 
BRANCH   7   8
ATOM      8  C   UNL     1      -7.490  11.747 -17.989  1.00  0.00     0.053 C 
BRANCH   8   9
ATOM      9  C   UNL     1      -7.561  11.367 -16.541  1.00  0.00     0.041 C 
ATOM     10  O   UNL     1      -8.380  11.940 -15.774  1.00  0.00    -0.550 OA
ATOM     11  O   UNL     1      -6.725  10.378 -16.041  1.00  0.00    -0.550 OA
ENDBRANCH   8   9
ENDBRANCH   7   8
ENDBRANCH   6   7
ENDBRANCH   5   6
ENDBRANCH   4   5
ENDBRANCH   3   4
ENDBRANCH   2   3
ENDBRANCH   1   2
BRANCH   1  12
ATOM     12  C   UNL     1      -3.108   9.161 -17.415  1.00  0.00     0.000 C 
BRANCH  12  13
ATOM     13  C   UNL     1      -2.010   8.740 -18.409  1.00  0.00    -0.000 C 
BRANCH  13  14
ATOM     14  C   UNL     1      -0.626   9.299 -18.037  1.00  0.00    -0.000 C 
BRANCH  14  15
ATOM     15  C   UNL     1       0.516   8.331 -18.390  1.00  0.00    -0.000 C 
BRANCH  15  16
ATOM     16  C   UNL     1       0.087   7.259 -19.404  1.00  0.00    -0.000 C 
BRANCH  16  17
ATOM     17  C   UNL     1       0.129   5.836 -18.819  1.00  0.00    -0.000 C 
BRANCH  17  18
ATOM     18  C   UNL     1      -0.816   4.866 -19.549  1.00  0.00    -0.000 C 
BRANCH  18  19
ATOM     19  C   UNL     1      -1.951   4.356 -18.648  1.00  0.00    -0.003 C 
ATOM     20  C   UNL     1      -2.214   5.322 -17.495  1.00  0.00     0.004 C 
ENDBRANCH  18  19
ENDBRANCH  17  18
ENDBRANCH  16  17
ENDBRANCH  15  16
ENDBRANCH  14  15
ENDBRANCH  13  14
ENDBRANCH  12  13
ENDBRANCH   1  12
TORSDOF 16
ENDMDL
MODEL 3
REMARK VINA RESULT:    -5.298      0.886      3.051
REMARK INTER + INTRA:         -11.933
REMARK INTER:                 -10.433
REMARK INTRA:                  -1.500
REMARK UNBOUND:                -1.680
REMARK SMILES CCCCCCCCCCCCCCCCCC(=O)[O-]
REMARK SMILES IDX 10 1 11 2 12 3 13 4 14 5 15 6 16 7 17 8 18 9 19 10 20 11
REMARK SMILES IDX 9 12 8 13 7 14 6 15 5 16 4 17 3 18 2 19 1 20
REMARK H PARENT
REMARK Flexibility Score: inf
ROOT
ATOM      1  C   UNL     1      -6.270  10.206 -16.212  1.00  0.00     0.000 C 
ENDROOT
BRANCH   1   2
ATOM      2  C   UNL     1      -5.217  10.217 -17.333  1.00  0.00     0.000 C 
BRANCH   2   3
ATOM      3  C   UNL     1      -3.822   9.890 -16.779  1.00  0.00     0.000 C 
BRANCH   3   4
ATOM      4  C   UNL     1      -3.052   8.875 -17.645  1.00  0.00     0.000 C 
BRANCH   4   5
ATOM      5  C   UNL     1      -1.858   9.469 -18.414  1.00  0.00     0.000 C 
BRANCH   5   6
ATOM      6  C   UNL     1      -0.511   8.780 -18.087  1.00  0.00     0.000 C 
BRANCH   6   7
ATOM      7  C   UNL     1      -0.074   7.763 -19.157  1.00  0.00     0.006 C 
BRANCH   7   8
ATOM      8  C   UNL     1       0.205   6.361 -18.592  1.00  0.00     0.053 C 
BRANCH   8   9
ATOM      9  C   UNL     1      -0.998   5.471 -18.668  1.00  0.00     0.041 C 
ATOM     10  O   UNL     1      -1.132   4.666 -19.628  1.00  0.00    -0.550 OA
ATOM     11  O   UNL     1      -1.970   5.530 -17.678  1.00  0.00    -0.550 OA
ENDBRANCH   8   9
ENDBRANCH   7   8
ENDBRANCH   6   7
ENDBRANCH   5   6
ENDBRANCH   4   5
ENDBRANCH   3   4
ENDBRANCH   2   3
ENDBRANCH   1   2
BRANCH   1  12
ATOM     12  C   UNL     1      -7.495  11.075 -16.542  1.00  0.00     0.000 C 
BRANCH  12  13
ATOM     13  C   UNL     1      -7.522  11.517 -18.017  1.00  0.00    -0.000 C 
BRANCH  13  14
ATOM     14  C   UNL     1      -8.159  10.464 -18.941  1.00  0.00    -0.000 C 
BRANCH  14  15
ATOM     15  C   UNL     1      -8.007  10.817 -20.430  1.00  0.00    -0.000 C 
BRANCH  15  16
ATOM     16  C   UNL     1      -6.854  11.801 -20.688  1.00  0.00    -0.000 C 
BRANCH  16  17
ATOM     17  C   UNL     1      -5.574  11.102 -21.179  1.00  0.00    -0.000 C 
BRANCH  17  18
ATOM     18  C   UNL     1      -4.400  11.257 -20.197  1.00  0.00    -0.000 C 
BRANCH  18  19
ATOM     19  C   UNL     1      -4.398  12.620 -19.488  1.00  0.00    -0.003 C 
ATOM     20  C   UNL     1      -3.023  12.933 -18.903  1.00  0.00     0.004 C 
ENDBRANCH  18  19
ENDBRANCH  17  18
ENDBRANCH  16  17
ENDBRANCH  15  16
ENDBRANCH  14  15
ENDBRANCH  13  14
ENDBRANCH  12  13
ENDBRANCH   1  12
TORSDOF 16
ENDMDL
MODEL 4
REMARK VINA RESULT:    -4.930      2.608      7.257
REMARK INTER + INTRA:         -11.222
REMARK INTER:                 -10.201
REMARK INTRA:                  -1.021
REMARK UNBOUND:                -1.680
REMARK SMILES CCCCCCCCCCCCCCCCCC(=O)[O-]
REMARK SMILES IDX 10 1 11 2 12 3 13 4 14 5 15 6 16 7 17 8 18 9 19 10 20 11
REMARK SMILES IDX 9 12 8 13 7 14 6 15 5 16 4 17 3 18 2 19 1 20
REMARK H PARENT
REMARK Flexibility Score: inf
ROOT
ATOM      1  C   UNL     1      -6.035  10.364 -16.243  1.00  0.00     0.000 C 
ENDROOT
BRANCH   1   2
ATOM      2  C   UNL     1      -7.469  10.705 -16.679  1.00  0.00     0.000 C 
BRANCH   2   3
ATOM      3  C   UNL     1      -7.466  11.709 -17.842  1.00  0.00     0.000 C 
BRANCH   3   4
ATOM      4  C   UNL     1      -7.708  11.047 -19.212  1.00  0.00     0.000 C 
BRANCH   4   5
ATOM      5  C   UNL     1      -7.074  11.793 -20.401  1.00  0.00     0.000 C 
BRANCH   5   6
ATOM      6  C   UNL     1      -5.827  11.082 -20.978  1.00  0.00     0.000 C 
BRANCH   6   7
ATOM      7  C   UNL     1      -4.549  11.336 -20.159  1.00  0.00     0.006 C 
BRANCH   7   8
ATOM      8  C   UNL     1      -4.504  12.729 -19.510  1.00  0.00     0.053 C 
BRANCH   8   9
ATOM      9  C   UNL     1      -3.120  13.105 -19.075  1.00  0.00     0.041 C 
ATOM     10  O   UNL     1      -2.829  14.311 -18.858  1.00  0.00    -0.550 OA
ATOM     11  O   UNL     1      -2.154  12.122 -18.906  1.00  0.00    -0.550 OA
ENDBRANCH   8   9
ENDBRANCH   7   8
ENDBRANCH   6   7
ENDBRANCH   5   6
ENDBRANCH   4   5
ENDBRANCH   3   4
ENDBRANCH   2   3
ENDBRANCH   1   2
BRANCH   1  12
ATOM     12  C   UNL     1      -5.135   9.971 -17.426  1.00  0.00     0.000 C 
BRANCH  12  13
ATOM     13  C   UNL     1      -3.662   9.793 -17.010  1.00  0.00    -0.000 C 
BRANCH  13  14
ATOM     14  C   UNL     1      -2.920   8.765 -17.882  1.00  0.00    -0.000 C 
BRANCH  14  15
ATOM     15  C   UNL     1      -1.409   9.039 -17.959  1.00  0.00    -0.000 C 
BRANCH  15  16
ATOM     16  C   UNL     1      -0.671   8.026 -18.849  1.00  0.00    -0.000 C 
BRANCH  16  17
ATOM     17  C   UNL     1       0.302   7.136 -18.056  1.00  0.00    -0.000 C 
BRANCH  17  18
ATOM     18  C   UNL     1      -0.200   5.690 -17.911  1.00  0.00    -0.000 C 
BRANCH  18  19
ATOM     19  C   UNL     1      -0.826   5.149 -19.206  1.00  0.00    -0.003 C 
ATOM     20  C   UNL     1      -2.095   4.353 -18.912  1.00  0.00     0.004 C 
ENDBRANCH  18  19
ENDBRANCH  17  18
ENDBRANCH  16  17
ENDBRANCH  15  16
ENDBRANCH  14  15
ENDBRANCH  13  14
ENDBRANCH  12  13
ENDBRANCH   1  12
TORSDOF 16
ENDMDL
MODEL 5
REMARK VINA RESULT:    -4.892      0.784      2.619
REMARK INTER + INTRA:         -11.148
REMARK INTER:                  -9.954
REMARK INTRA:                  -1.194
REMARK UNBOUND:                -1.680
REMARK SMILES CCCCCCCCCCCCCCCCCC(=O)[O-]
REMARK SMILES IDX 10 1 11 2 12 3 13 4 14 5 15 6 16 7 17 8 18 9 19 10 20 11
REMARK SMILES IDX 9 12 8 13 7 14 6 15 5 16 4 17 3 18 2 19 1 20
REMARK H PARENT
REMARK Flexibility Score: inf
ROOT
ATOM      1  C   UNL     1      -4.133   9.649 -16.700  1.00  0.00     0.000 C 
ENDROOT
BRANCH   1   2
ATOM      2  C   UNL     1      -2.836  10.200 -17.314  1.00  0.00     0.000 C 
BRANCH   2   3
ATOM      3  C   UNL     1      -2.280   9.241 -18.378  1.00  0.00     0.000 C 
BRANCH   3   4
ATOM      4  C   UNL     1      -0.783   8.933 -18.191  1.00  0.00     0.000 C 
BRANCH   4   5
ATOM      5  C   UNL     1      -0.157   8.100 -19.325  1.00  0.00     0.000 C 
BRANCH   5   6
ATOM      6  C   UNL     1       0.841   7.029 -18.823  1.00  0.00     0.000 C 
BRANCH   6   7
ATOM      7  C   UNL     1       0.261   5.603 -18.843  1.00  0.00     0.006 C 
BRANCH   7   8
ATOM      8  C   UNL     1      -0.495   5.231 -17.558  1.00  0.00     0.053 C 
BRANCH   8   9
ATOM      9  C   UNL     1      -1.981   5.230 -17.757  1.00  0.00     0.041 C 
ATOM     10  O   UNL     1      -2.484   4.682 -18.773  1.00  0.00    -0.550 OA
ATOM     11  O   UNL     1      -2.808   5.834 -16.819  1.00  0.00    -0.550 OA
ENDBRANCH   8   9
ENDBRANCH   7   8
ENDBRANCH   6   7
ENDBRANCH   5   6
ENDBRANCH   4   5
ENDBRANCH   3   4
ENDBRANCH   2   3
ENDBRANCH   1   2
BRANCH   1  12
ATOM     12  C   UNL     1      -5.386  10.378 -17.212  1.00  0.00     0.000 C 
BRANCH  12  13
ATOM     13  C   UNL     1      -6.542  10.347 -16.195  1.00  0.00    -0.000 C 
BRANCH  13  14
ATOM     14  C   UNL     1      -7.713  11.259 -16.599  1.00  0.00    -0.000 C 
BRANCH  14  15
ATOM     15  C   UNL     1      -7.571  11.800 -18.031  1.00  0.00    -0.000 C 
BRANCH  15  16
ATOM     16  C   UNL     1      -8.075  10.806 -19.089  1.00  0.00    -0.000 C 
BRANCH  16  17
ATOM     17  C   UNL     1      -7.265  10.868 -20.396  1.00  0.00    -0.000 C 
BRANCH  17  18
ATOM     18  C   UNL     1      -6.271  12.042 -20.423  1.00  0.00    -0.000 C 
BRANCH  18  19
ATOM     19  C   UNL     1      -4.817  11.590 -20.220  1.00  0.00    -0.003 C 
ATOM     20  C   UNL     1      -4.014  12.646 -19.465  1.00  0.00     0.004 C 
ENDBRANCH  18  19
ENDBRANCH  17  18
ENDBRANCH  16  17
ENDBRANCH  15  16
ENDBRANCH  14  15
ENDBRANCH  13  14
ENDBRANCH  12  13
ENDBRANCH   1  12
TORSDOF 16
ENDMDL
MODEL 6
REMARK VINA RESULT:    -4.715      2.369      7.435
REMARK INTER + INTRA:         -10.806
REMARK INTER:                  -9.656
REMARK INTRA:                  -1.149
REMARK UNBOUND:                -1.680
REMARK SMILES CCCCCCCCCCCCCCCCCC(=O)[O-]
REMARK SMILES IDX 10 1 11 2 12 3 13 4 14 5 15 6 16 7 17 8 18 9 19 10 20 11
REMARK SMILES IDX 9 12 8 13 7 14 6 15 5 16 4 17 3 18 2 19 1 20
REMARK H PARENT
REMARK Flexibility Score: inf
ROOT
ATOM      1  C   UNL     1      -4.119   9.701 -16.845  1.00  0.00     0.000 C 
ENDROOT
BRANCH   1   2
ATOM      2  C   UNL     1      -5.437  10.355 -17.287  1.00  0.00     0.000 C 
BRANCH   2   3
ATOM      3  C   UNL     1      -6.456  10.369 -16.137  1.00  0.00     0.000 C 
BRANCH   3   4
ATOM      4  C   UNL     1      -7.708  11.212 -16.449  1.00  0.00     0.000 C 
BRANCH   4   5
ATOM      5  C   UNL     1      -7.742  11.798 -17.873  1.00  0.00     0.000 C 
BRANCH   5   6
ATOM      6  C   UNL     1      -8.074  10.750 -18.961  1.00  0.00     0.000 C 
BRANCH   6   7
ATOM      7  C   UNL     1      -7.376  11.028 -20.305  1.00  0.00     0.006 C 
BRANCH   7   8
ATOM      8  C   UNL     1      -6.455  12.257 -20.274  1.00  0.00     0.053 C 
BRANCH   8   9
ATOM      9  C   UNL     1      -5.008  11.877 -20.194  1.00  0.00     0.041 C 
ATOM     10  O   UNL     1      -4.588  10.848 -20.788  1.00  0.00    -0.550 OA
ATOM     11  O   UNL     1      -4.122  12.660 -19.466  1.00  0.00    -0.550 OA
ENDBRANCH   8   9
ENDBRANCH   7   8
ENDBRANCH   6   7
ENDBRANCH   5   6
ENDBRANCH   4   5
ENDBRANCH   3   4
ENDBRANCH   2   3
ENDBRANCH   1   2
BRANCH   1  12
ATOM     12  C   UNL     1      -3.263   9.234 -18.034  1.00  0.00     0.000 C 
BRANCH  12  13
ATOM     13  C   UNL     1      -1.770   9.569 -17.852  1.00  0.00    -0.000 C 
BRANCH  13  14
ATOM     14  C   UNL     1      -0.872   8.848 -18.871  1.00  0.00    -0.000 C 
BRANCH  14  15
ATOM     15  C   UNL     1       0.494   8.459 -18.282  1.00  0.00    -0.000 C 
BRANCH  15  16
ATOM     16  C   UNL     1       0.885   7.008 -18.606  1.00  0.00    -0.000 C 
BRANCH  16  17
ATOM     17  C   UNL     1      -0.273   6.203 -19.221  1.00  0.00    -0.000 C 
BRANCH  17  18
ATOM     18  C   UNL     1      -0.652   4.972 -18.380  1.00  0.00    -0.000 C 
BRANCH  18  19
ATOM     19  C   UNL     1      -2.165   4.869 -18.130  1.00  0.00    -0.003 C 
ATOM     20  C   UNL     1      -2.598   5.796 -16.997  1.00  0.00     0.004 C 
ENDBRANCH  18  19
ENDBRANCH  17  18
ENDBRANCH  16  17
ENDBRANCH  15  16
ENDBRANCH  14  15
ENDBRANCH  13  14
ENDBRANCH  12  13
ENDBRANCH   1  12
TORSDOF 16
ENDMDL
MODEL 7
REMARK VINA RESULT:    -4.710      4.202      5.937
REMARK INTER + INTRA:         -10.796
REMARK INTER:                  -9.821
REMARK INTRA:                  -0.974
REMARK UNBOUND:                -1.680
REMARK SMILES CCCCCCCCCCCCCCCCCC(=O)[O-]
REMARK SMILES IDX 10 1 11 2 12 3 13 4 14 5 15 6 16 7 17 8 18 9 19 10 20 11
REMARK SMILES IDX 9 12 8 13 7 14 6 15 5 16 4 17 3 18 2 19 1 20
REMARK H PARENT
REMARK Flexibility Score: inf
ROOT
ATOM      1  C   UNL     1      -3.951  12.114 -19.132  1.00  0.00     0.000 C 
ENDROOT
BRANCH   1   2
ATOM      2  C   UNL     1      -4.247  10.734 -18.524  1.00  0.00     0.000 C 
BRANCH   2   3
ATOM      3  C   UNL     1      -3.125  10.302 -17.568  1.00  0.00     0.000 C 
BRANCH   3   4
ATOM      4  C   UNL     1      -2.412   9.012 -18.017  1.00  0.00     0.000 C 
BRANCH   4   5
ATOM      5  C   UNL     1      -0.942   9.208 -18.431  1.00  0.00     0.000 C 
BRANCH   5   6
ATOM      6  C   UNL     1      -0.046   7.986 -18.116  1.00  0.00     0.000 C 
BRANCH   6   7
ATOM      7  C   UNL     1      -0.178   6.854 -19.151  1.00  0.00     0.006 C 
BRANCH   7   8
ATOM      8  C   UNL     1      -0.310   5.459 -18.519  1.00  0.00     0.053 C 
BRANCH   8   9
ATOM      9  C   UNL     1      -1.739   5.085 -18.269  1.00  0.00     0.041 C 
ATOM     10  O   UNL     1      -2.350   4.337 -19.079  1.00  0.00    -0.550 OA
ATOM     11  O   UNL     1      -2.395   5.560 -17.141  1.00  0.00    -0.550 OA
ENDBRANCH   8   9
ENDBRANCH   7   8
ENDBRANCH   6   7
ENDBRANCH   5   6
ENDBRANCH   4   5
ENDBRANCH   3   4
ENDBRANCH   2   3
ENDBRANCH   1   2
BRANCH   1  12
ATOM     12  C   UNL     1      -2.566  12.651 -18.734  1.00  0.00     0.000 C 
BRANCH  12  13
ATOM     13  C   UNL     1      -2.379  14.133 -19.111  1.00  0.00    -0.000 C 
BRANCH  13  14
ATOM     14  C   UNL     1      -1.944  14.998 -17.915  1.00  0.00    -0.000 C 
BRANCH  14  15
ATOM     15  C   UNL     1      -1.438  16.385 -18.345  1.00  0.00    -0.000 C 
BRANCH  15  16
ATOM     16  C   UNL     1       0.051  16.377 -18.726  1.00  0.00    -0.000 C 
BRANCH  16  17
ATOM     17  C   UNL     1       0.666  17.787 -18.753  1.00  0.00    -0.000 C 
BRANCH  17  18
ATOM     18  C   UNL     1       0.014  18.699 -19.805  1.00  0.00    -0.000 C 
BRANCH  18  19
ATOM     19  C   UNL     1      -0.384  20.069 -19.235  1.00  0.00    -0.003 C 
ATOM     20  C   UNL     1      -1.592  19.950 -18.310  1.00  0.00     0.004 C 
ENDBRANCH  18  19
ENDBRANCH  17  18
ENDBRANCH  16  17
ENDBRANCH  15  16
ENDBRANCH  14  15
ENDBRANCH  13  14
ENDBRANCH  12  13
ENDBRANCH   1  12
TORSDOF 16
ENDMDL
MODEL 8
REMARK VINA RESULT:    -4.685      5.673      9.098
REMARK INTER + INTRA:         -10.748
REMARK INTER:                  -9.632
REMARK INTRA:                  -1.115
REMARK UNBOUND:                -1.680
REMARK SMILES CCCCCCCCCCCCCCCCCC(=O)[O-]
REMARK SMILES IDX 10 1 11 2 12 3 13 4 14 5 15 6 16 7 17 8 18 9 19 10 20 11
REMARK SMILES IDX 9 12 8 13 7 14 6 15 5 16 4 17 3 18 2 19 1 20
REMARK H PARENT
REMARK Flexibility Score: inf
ROOT
ATOM      1  C   UNL     1      -4.431  10.740 -18.491  1.00  0.00     0.000 C 
ENDROOT
BRANCH   1   2
ATOM      2  C   UNL     1      -4.039  12.021 -19.244  1.00  0.00     0.000 C 
BRANCH   2   3
ATOM      3  C   UNL     1      -2.703  12.576 -18.725  1.00  0.00     0.000 C 
BRANCH   3   4
ATOM      4  C   UNL     1      -2.468  14.047 -19.118  1.00  0.00     0.000 C 
BRANCH   4   5
ATOM      5  C   UNL     1      -2.187  14.987 -17.930  1.00  0.00     0.000 C 
BRANCH   5   6
ATOM      6  C   UNL     1      -0.883  15.805 -18.088  1.00  0.00     0.000 C 
BRANCH   6   7
ATOM      7  C   UNL     1      -1.115  17.209 -18.675  1.00  0.00     0.006 C 
BRANCH   7   8
ATOM      8  C   UNL     1       0.179  17.908 -19.121  1.00  0.00     0.053 C 
BRANCH   8   9
ATOM      9  C   UNL     1       0.032  19.399 -19.159  1.00  0.00     0.041 C 
ATOM     10  O   UNL     1       1.007  20.124 -19.488  1.00  0.00    -0.550 OA
ATOM     11  O   UNL     1      -1.184  19.985 -18.832  1.00  0.00    -0.550 OA
ENDBRANCH   8   9
ENDBRANCH   7   8
ENDBRANCH   6   7
ENDBRANCH   5   6
ENDBRANCH   4   5
ENDBRANCH   3   4
ENDBRANCH   2   3
ENDBRANCH   1   2
BRANCH   1  12
ATOM     12  C   UNL     1      -3.321  10.241 -17.552  1.00  0.00     0.000 C 
BRANCH  12  13
ATOM     13  C   UNL     1      -2.657   8.947 -18.061  1.00  0.00    -0.000 C 
BRANCH  13  14
ATOM     14  C   UNL     1      -1.129   9.074 -18.187  1.00  0.00    -0.000 C 
BRANCH  14  15
ATOM     15  C   UNL     1      -0.532   8.050 -19.165  1.00  0.00    -0.000 C 
BRANCH  15  16
ATOM     16  C   UNL     1       0.627   7.250 -18.547  1.00  0.00    -0.000 C 
BRANCH  16  17
ATOM     17  C   UNL     1       0.219   5.818 -18.158  1.00  0.00    -0.000 C 
BRANCH  17  18
ATOM     18  C   UNL     1      -0.569   5.103 -19.269  1.00  0.00    -0.000 C 
BRANCH  18  19
ATOM     19  C   UNL     1      -1.979   4.690 -18.822  1.00  0.00    -0.003 C 
ATOM     20  C   UNL     1      -2.320   5.285 -17.458  1.00  0.00     0.004 C 
ENDBRANCH  18  19
ENDBRANCH  17  18
ENDBRANCH  16  17
ENDBRANCH  15  16
ENDBRANCH  14  15
ENDBRANCH  13  14
ENDBRANCH  12  13
ENDBRANCH   1  12
TORSDOF 16
ENDMDL
