MODEL 1
REMARK VINA RESULT:    -6.897      0.000      0.000
REMARK INTER + INTRA:          -8.595
REMARK INTER:                  -8.509
REMARK INTRA:                  -0.086
REMARK UNBOUND:                -0.086
REMARK SMILES O=c1c(O)c(-c2cc(O)c(O)c(O)c2)oc2cc(O)cc(O)c12
REMARK SMILES IDX 5 1 3 2 2 3 1 4 23 5 21 6 20 7 18 8 17 9 16 10 15 11 6 12
REMARK SMILES IDX 7 13 8 14 14 15 10 16 12 17 9 18 11 20 13 22 4 24 22 26
REMARK SMILES IDX 19 28
REMARK H PARENT 9 19 11 21 13 23 4 25 22 27 19 29
REMARK Flexibility Score: inf
ROOT
ATOM      1  C   UNL     1      20.653  49.527  45.803  1.00  0.00     0.180 A 
ATOM      2  C   UNL     1      19.711  49.987  44.867  1.00  0.00     0.208 A 
ATOM      3  C   UNL     1      19.280  49.118  43.851  1.00  0.00     0.238 A 
ATOM      4  O   UNL     1      18.478  49.552  42.984  1.00  0.00    -0.285 OA
ATOM      5  C   UNL     1      19.782  47.795  43.796  1.00  0.00     0.111 A 
ATOM      6  C   UNL     1      19.384  46.817  42.836  1.00  0.00     0.134 A 
ATOM      7  C   UNL     1      20.043  45.582  42.794  1.00  0.00     0.093 A 
ATOM      8  C   UNL     1      21.041  45.266  43.721  1.00  0.00     0.123 A 
ATOM      9  C   UNL     1      21.394  46.192  44.699  1.00  0.00     0.094 A 
ATOM     10  C   UNL     1      20.780  47.447  44.743  1.00  0.00     0.146 A 
ATOM     11  O   UNL     1      21.154  48.303  45.685  1.00  0.00    -0.452 OA
ENDROOT
BRANCH   1  12
ATOM     12  C   UNL     1      21.137  50.377  46.916  1.00  0.00     0.029 A 
ATOM     13  C   UNL     1      22.515  50.502  47.139  1.00  0.00     0.062 A 
ATOM     14  C   UNL     1      23.007  51.280  48.195  1.00  0.00     0.162 A 
ATOM     15  C   UNL     1      20.243  51.015  47.790  1.00  0.00     0.062 A 
ATOM     16  C   UNL     1      22.100  51.939  49.058  1.00  0.00     0.200 A 
ATOM     17  C   UNL     1      20.721  51.796  48.850  1.00  0.00     0.162 A 
BRANCH  14  18
ATOM     18  O   UNL     1      24.393  51.367  48.347  1.00  0.00    -0.504 OA
ATOM     19  H   UNL     1      24.938  50.747  48.929  1.00  0.00     0.293 HD
ENDBRANCH  14  18
BRANCH  16  20
ATOM     20  O   UNL     1      22.523  52.735  50.125  1.00  0.00    -0.502 OA
ATOM     21  H   UNL     1      23.432  53.169  50.181  1.00  0.00     0.293 HD
ENDBRANCH  16  20
BRANCH  17  22
ATOM     22  O   UNL     1      19.826  52.433  49.708  1.00  0.00    -0.504 OA
ATOM     23  H   UNL     1      19.363  53.297  49.448  1.00  0.00     0.293 HD
ENDBRANCH  17  22
ENDBRANCH   1  12
BRANCH   2  24
ATOM     24  O   UNL     1      19.245  51.303  44.926  1.00  0.00    -0.502 OA
ATOM     25  H   UNL     1      19.759  52.080  44.528  1.00  0.00     0.293 HD
ENDBRANCH   2  24
BRANCH   6  26
ATOM     26  O   UNL     1      18.339  46.997  41.926  1.00  0.00    -0.507 OA
ATOM     27  H   UNL     1      18.296  46.581  41.009  1.00  0.00     0.293 HD
ENDBRANCH   6  26
BRANCH   8  28
ATOM     28  O   UNL     1      21.680  44.028  43.683  1.00  0.00    -0.508 OA
ATOM     29  H   UNL     1      21.542  43.338  44.411  1.00  0.00     0.293 HD
ENDBRANCH   8  28
TORSDOF 7
ENDMDL
MODEL 2
REMARK VINA RESULT:    -6.795      1.274      6.960
REMARK INTER + INTRA:          -8.470
REMARK INTER:                  -8.221
REMARK INTRA:                  -0.249
REMARK UNBOUND:                -0.086
REMARK SMILES O=c1c(O)c(-c2cc(O)c(O)c(O)c2)oc2cc(O)cc(O)c12
REMARK SMILES IDX 5 1 3 2 2 3 1 4 23 5 21 6 20 7 18 8 17 9 16 10 15 11 6 12
REMARK SMILES IDX 7 13 8 14 14 15 10 16 12 17 9 18 11 20 13 22 4 24 22 26
REMARK SMILES IDX 19 28
REMARK H PARENT 9 19 11 21 13 23 4 25 22 27 19 29
REMARK Flexibility Score: inf
ROOT
ATOM      1  C   UNL     1      20.336  48.648  46.005  1.00  0.00     0.180 A 
ATOM      2  C   UNL     1      19.336  48.897  46.962  1.00  0.00     0.208 A 
ATOM      3  C   UNL     1      19.593  49.814  47.993  1.00  0.00     0.238 A 
ATOM      4  O   UNL     1      18.716  49.992  48.877  1.00  0.00    -0.285 OA
ATOM      5  C   UNL     1      20.840  50.485  48.045  1.00  0.00     0.111 A 
ATOM      6  C   UNL     1      21.193  51.465  49.021  1.00  0.00     0.134 A 
ATOM      7  C   UNL     1      22.500  51.966  49.053  1.00  0.00     0.093 A 
ATOM      8  C   UNL     1      23.447  51.572  48.104  1.00  0.00     0.123 A 
ATOM      9  C   UNL     1      23.094  50.662  47.112  1.00  0.00     0.094 A 
ATOM     10  C   UNL     1      21.808  50.115  47.075  1.00  0.00     0.146 A 
ATOM     11  O   UNL     1      21.517  49.243  46.119  1.00  0.00    -0.452 OA
ENDROOT
BRANCH   1  12
ATOM     12  C   UNL     1      20.129  47.713  44.875  1.00  0.00     0.029 A 
ATOM     13  C   UNL     1      20.906  46.549  44.792  1.00  0.00     0.062 A 
ATOM     14  C   UNL     1      20.752  45.653  43.727  1.00  0.00     0.162 A 
ATOM     15  C   UNL     1      19.211  47.995  43.852  1.00  0.00     0.062 A 
ATOM     16  C   UNL     1      19.808  45.932  42.711  1.00  0.00     0.200 A 
ATOM     17  C   UNL     1      19.047  47.108  42.780  1.00  0.00     0.162 A 
BRANCH  14  18
ATOM     18  O   UNL     1      21.553  44.509  43.719  1.00  0.00    -0.504 OA
ATOM     19  H   UNL     1      22.440  44.437  44.196  1.00  0.00     0.293 HD
ENDBRANCH  14  18
BRANCH  16  20
ATOM     20  O   UNL     1      19.600  45.079  41.625  1.00  0.00    -0.502 OA
ATOM     21  H   UNL     1      19.716  44.078  41.661  1.00  0.00     0.293 HD
ENDBRANCH  16  20
BRANCH  17  22
ATOM     22  O   UNL     1      18.126  47.392  41.772  1.00  0.00    -0.504 OA
ATOM     23  H   UNL     1      17.333  46.787  41.591  1.00  0.00     0.293 HD
ENDBRANCH  17  22
ENDBRANCH   1  12
BRANCH   2  24
ATOM     24  O   UNL     1      18.121  48.208  46.905  1.00  0.00    -0.502 OA
ATOM     25  H   UNL     1      17.885  47.584  46.142  1.00  0.00     0.293 HD
ENDBRANCH   2  24
BRANCH   6  26
ATOM     26  O   UNL     1      20.298  51.993  49.955  1.00  0.00    -0.507 OA
ATOM     27  H   UNL     1      19.848  51.462  50.684  1.00  0.00     0.293 HD
ENDBRANCH   6  26
BRANCH   8  28
ATOM     28  O   UNL     1      24.741  52.089  48.135  1.00  0.00    -0.508 OA
ATOM     29  H   UNL     1      24.928  53.062  47.928  1.00  0.00     0.293 HD
ENDBRANCH   8  28
TORSDOF 7
ENDMDL
MODEL 3
REMARK VINA RESULT:    -6.757      2.683      7.678
REMARK INTER + INTRA:          -8.423
REMARK INTER:                  -8.140
REMARK INTRA:                  -0.283
REMARK UNBOUND:                -0.086
REMARK SMILES O=c1c(O)c(-c2cc(O)c(O)c(O)c2)oc2cc(O)cc(O)c12
REMARK SMILES IDX 5 1 3 2 2 3 1 4 23 5 21 6 20 7 18 8 17 9 16 10 15 11 6 12
REMARK SMILES IDX 7 13 8 14 14 15 10 16 12 17 9 18 11 20 13 22 4 24 22 26
REMARK SMILES IDX 19 28
REMARK H PARENT 9 19 11 21 13 23 4 25 22 27 19 29
REMARK Flexibility Score: inf
ROOT
ATOM      1  C   UNL     1      18.880  47.317  43.399  1.00  0.00     0.180 A 
ATOM      2  C   UNL     1      18.428  47.268  44.729  1.00  0.00     0.208 A 
ATOM      3  C   UNL     1      19.156  47.943  45.722  1.00  0.00     0.238 A 
ATOM      4  O   UNL     1      18.778  47.850  46.919  1.00  0.00    -0.285 OA
ATOM      5  C   UNL     1      20.318  48.673  45.370  1.00  0.00     0.111 A 
ATOM      6  C   UNL     1      21.110  49.428  46.286  1.00  0.00     0.134 A 
ATOM      7  C   UNL     1      22.310  50.003  45.851  1.00  0.00     0.093 A 
ATOM      8  C   UNL     1      22.713  49.905  44.516  1.00  0.00     0.123 A 
ATOM      9  C   UNL     1      21.917  49.221  43.602  1.00  0.00     0.094 A 
ATOM     10  C   UNL     1      20.732  48.605  44.014  1.00  0.00     0.146 A 
ATOM     11  O   UNL     1      20.008  47.955  43.112  1.00  0.00    -0.452 OA
ENDROOT
BRANCH   1  12
ATOM     12  C   UNL     1      18.152  46.651  42.295  1.00  0.00     0.029 A 
ATOM     13  C   UNL     1      18.729  45.543  41.658  1.00  0.00     0.062 A 
ATOM     14  C   UNL     1      18.078  44.902  40.596  1.00  0.00     0.162 A 
ATOM     15  C   UNL     1      16.920  47.139  41.832  1.00  0.00     0.062 A 
ATOM     16  C   UNL     1      16.825  45.386  40.150  1.00  0.00     0.200 A 
ATOM     17  C   UNL     1      16.259  46.508  40.771  1.00  0.00     0.162 A 
BRANCH  14  18
ATOM     18  O   UNL     1      18.709  43.797  40.019  1.00  0.00    -0.504 OA
ATOM     19  H   UNL     1      18.366  42.850  40.090  1.00  0.00     0.293 HD
ENDBRANCH  14  18
BRANCH  16  20
ATOM     20  O   UNL     1      16.120  44.791  39.102  1.00  0.00    -0.502 OA
ATOM     21  H   UNL     1      15.154  44.505  39.160  1.00  0.00     0.293 HD
ENDBRANCH  16  20
BRANCH  17  22
ATOM     22  O   UNL     1      15.031  46.996  40.323  1.00  0.00    -0.504 OA
ATOM     23  H   UNL     1      14.420  47.533  40.928  1.00  0.00     0.293 HD
ENDBRANCH  17  22
ENDBRANCH   1  12
BRANCH   2  24
ATOM     24  O   UNL     1      17.292  46.523  45.059  1.00  0.00    -0.502 OA
ATOM     25  H   UNL     1      17.019  45.693  44.546  1.00  0.00     0.293 HD
ENDBRANCH   2  24
BRANCH   6  26
ATOM     26  O   UNL     1      20.751  49.663  47.616  1.00  0.00    -0.507 OA
ATOM     27  H   UNL     1      19.998  50.266  47.911  1.00  0.00     0.293 HD
ENDBRANCH   6  26
BRANCH   8  28
ATOM     28  O   UNL     1      23.902  50.494  44.088  1.00  0.00    -0.508 OA
ATOM     29  H   UNL     1      23.925  51.126  43.297  1.00  0.00     0.293 HD
ENDBRANCH   8  28
TORSDOF 7
ENDMDL
MODEL 4
REMARK VINA RESULT:    -6.607      3.042      7.861
REMARK INTER + INTRA:          -8.238
REMARK INTER:                  -8.165
REMARK INTRA:                  -0.072
REMARK UNBOUND:                -0.086
REMARK SMILES O=c1c(O)c(-c2cc(O)c(O)c(O)c2)oc2cc(O)cc(O)c12
REMARK SMILES IDX 5 1 3 2 2 3 1 4 23 5 21 6 20 7 18 8 17 9 16 10 15 11 6 12
REMARK SMILES IDX 7 13 8 14 14 15 10 16 12 17 9 18 11 20 13 22 4 24 22 26
REMARK SMILES IDX 19 28
REMARK H PARENT 9 19 11 21 13 23 4 25 22 27 19 29
REMARK Flexibility Score: inf
ROOT
ATOM      1  C   UNL     1      17.873  47.931  42.861  1.00  0.00     0.180 A 
ATOM      2  C   UNL     1      17.877  49.326  42.687  1.00  0.00     0.208 A 
ATOM      3  C   UNL     1      18.314  50.142  43.742  1.00  0.00     0.238 A 
ATOM      4  O   UNL     1      18.264  51.392  43.601  1.00  0.00    -0.285 OA
ATOM      5  C   UNL     1      18.759  49.554  44.951  1.00  0.00     0.111 A 
ATOM      6  C   UNL     1      19.262  50.282  46.070  1.00  0.00     0.134 A 
ATOM      7  C   UNL     1      19.551  49.605  47.262  1.00  0.00     0.093 A 
ATOM      8  C   UNL     1      19.416  48.216  47.352  1.00  0.00     0.123 A 
ATOM      9  C   UNL     1      18.983  47.491  46.246  1.00  0.00     0.094 A 
ATOM     10  C   UNL     1      18.652  48.142  45.054  1.00  0.00     0.146 A 
ATOM     11  O   UNL     1      18.234  47.413  44.028  1.00  0.00    -0.452 OA
ENDROOT
BRANCH   1  12
ATOM     12  C   UNL     1      17.449  47.005  41.785  1.00  0.00     0.029 A 
ATOM     13  C   UNL     1      18.340  46.023  41.330  1.00  0.00     0.062 A 
ATOM     14  C   UNL     1      17.980  45.145  40.300  1.00  0.00     0.162 A 
ATOM     15  C   UNL     1      16.194  47.126  41.169  1.00  0.00     0.062 A 
ATOM     16  C   UNL     1      16.704  45.258  39.699  1.00  0.00     0.200 A 
ATOM     17  C   UNL     1      15.821  46.255  40.137  1.00  0.00     0.162 A 
BRANCH  14  18
ATOM     18  O   UNL     1      18.916  44.184  39.908  1.00  0.00    -0.504 OA
ATOM     19  H   UNL     1      19.357  44.162  39.001  1.00  0.00     0.293 HD
ENDBRANCH  14  18
BRANCH  16  20
ATOM     20  O   UNL     1      16.280  44.411  38.673  1.00  0.00    -0.502 OA
ATOM     21  H   UNL     1      16.851  43.686  38.264  1.00  0.00     0.293 HD
ENDBRANCH  16  20
BRANCH  17  22
ATOM     22  O   UNL     1      14.569  46.377  39.536  1.00  0.00    -0.504 OA
ATOM     23  H   UNL     1      13.813  45.735  39.748  1.00  0.00     0.293 HD
ENDBRANCH  17  22
ENDBRANCH   1  12
BRANCH   2  24
ATOM     24  O   UNL     1      17.412  49.887  41.494  1.00  0.00    -0.502 OA
ATOM     25  H   UNL     1      17.837  50.707  41.077  1.00  0.00     0.293 HD
ENDBRANCH   2  24
BRANCH   6  26
ATOM     26  O   UNL     1      19.519  51.656  46.055  1.00  0.00    -0.507 OA
ATOM     27  H   UNL     1      19.970  52.165  46.799  1.00  0.00     0.293 HD
ENDBRANCH   6  26
BRANCH   8  28
ATOM     28  O   UNL     1      19.721  47.549  48.537  1.00  0.00    -0.508 OA
ATOM     29  H   UNL     1      19.527  47.961  49.442  1.00  0.00     0.293 HD
ENDBRANCH   8  28
TORSDOF 7
ENDMDL
MODEL 5
REMARK VINA RESULT:    -6.556      2.427      3.560
REMARK INTER + INTRA:          -8.175
REMARK INTER:                  -7.860
REMARK INTRA:                  -0.315
REMARK UNBOUND:                -0.086
REMARK SMILES O=c1c(O)c(-c2cc(O)c(O)c(O)c2)oc2cc(O)cc(O)c12
REMARK SMILES IDX 5 1 3 2 2 3 1 4 23 5 21 6 20 7 18 8 17 9 16 10 15 11 6 12
REMARK SMILES IDX 7 13 8 14 14 15 10 16 12 17 9 18 11 20 13 22 4 24 22 26
REMARK SMILES IDX 19 28
REMARK H PARENT 9 19 11 21 13 23 4 25 22 27 19 29
REMARK Flexibility Score: inf
ROOT
ATOM      1  C   UNL     1      19.133  48.364  43.411  1.00  0.00     0.180 A 
ATOM      2  C   UNL     1      17.988  49.086  43.031  1.00  0.00     0.208 A 
ATOM      3  C   UNL     1      17.060  48.484  42.166  1.00  0.00     0.238 A 
ATOM      4  O   UNL     1      16.065  49.154  41.786  1.00  0.00    -0.285 OA
ATOM      5  C   UNL     1      17.278  47.162  41.707  1.00  0.00     0.111 A 
ATOM      6  C   UNL     1      16.384  46.439  40.862  1.00  0.00     0.134 A 
ATOM      7  C   UNL     1      16.764  45.187  40.364  1.00  0.00     0.093 A 
ATOM      8  C   UNL     1      17.979  44.603  40.735  1.00  0.00     0.123 A 
ATOM      9  C   UNL     1      18.831  45.275  41.606  1.00  0.00     0.094 A 
ATOM     10  C   UNL     1      18.496  46.543  42.091  1.00  0.00     0.146 A 
ATOM     11  O   UNL     1      19.342  47.152  42.912  1.00  0.00    -0.452 OA
ENDROOT
BRANCH   1  12
ATOM     12  C   UNL     1      20.143  48.923  44.339  1.00  0.00     0.029 A 
ATOM     13  C   UNL     1      21.392  49.319  43.840  1.00  0.00     0.062 A 
ATOM     14  C   UNL     1      22.379  49.832  44.691  1.00  0.00     0.162 A 
ATOM     15  C   UNL     1      19.900  49.011  45.718  1.00  0.00     0.062 A 
ATOM     16  C   UNL     1      22.118  49.939  46.078  1.00  0.00     0.200 A 
ATOM     17  C   UNL     1      20.878  49.521  46.581  1.00  0.00     0.162 A 
BRANCH  14  18
ATOM     18  O   UNL     1      23.594  50.218  44.120  1.00  0.00    -0.504 OA
ATOM     19  H   UNL     1      24.226  49.583  43.654  1.00  0.00     0.293 HD
ENDBRANCH  14  18
BRANCH  16  20
ATOM     20  O   UNL     1      23.055  50.447  46.981  1.00  0.00    -0.502 OA
ATOM     21  H   UNL     1      22.873  50.592  47.963  1.00  0.00     0.293 HD
ENDBRANCH  16  20
BRANCH  17  22
ATOM     22  O   UNL     1      20.625  49.613  47.949  1.00  0.00    -0.504 OA
ATOM     23  H   UNL     1      21.365  49.512  48.635  1.00  0.00     0.293 HD
ENDBRANCH  17  22
ENDBRANCH   1  12
BRANCH   2  24
ATOM     24  O   UNL     1      17.803  50.397  43.478  1.00  0.00    -0.502 OA
ATOM     25  H   UNL     1      17.186  51.049  43.009  1.00  0.00     0.293 HD
ENDBRANCH   2  24
BRANCH   6  26
ATOM     26  O   UNL     1      15.110  46.892  40.506  1.00  0.00    -0.507 OA
ATOM     27  H   UNL     1      14.922  47.753  40.015  1.00  0.00     0.293 HD
ENDBRANCH   6  26
BRANCH   8  28
ATOM     28  O   UNL     1      18.342  43.350  40.247  1.00  0.00    -0.508 OA
ATOM     29  H   UNL     1      17.658  42.717  39.850  1.00  0.00     0.293 HD
ENDBRANCH   8  28
TORSDOF 7
ENDMDL
MODEL 6
REMARK VINA RESULT:    -6.554      3.748      6.599
REMARK INTER + INTRA:          -8.173
REMARK INTER:                  -7.809
REMARK INTRA:                  -0.364
REMARK UNBOUND:                -0.086
REMARK SMILES O=c1c(O)c(-c2cc(O)c(O)c(O)c2)oc2cc(O)cc(O)c12
REMARK SMILES IDX 5 1 3 2 2 3 1 4 23 5 21 6 20 7 18 8 17 9 16 10 15 11 6 12
REMARK SMILES IDX 7 13 8 14 14 15 10 16 12 17 9 18 11 20 13 22 4 24 22 26
REMARK SMILES IDX 19 28
REMARK H PARENT 9 19 11 21 13 23 4 25 22 27 19 29
REMARK Flexibility Score: inf
ROOT
ATOM      1  C   UNL     1      17.207  48.710  44.753  1.00  0.00     0.180 A 
ATOM      2  C   UNL     1      17.932  49.741  45.377  1.00  0.00     0.208 A 
ATOM      3  C   UNL     1      19.330  49.637  45.458  1.00  0.00     0.238 A 
ATOM      4  O   UNL     1      19.969  50.535  46.065  1.00  0.00    -0.285 OA
ATOM      5  C   UNL     1      19.987  48.514  44.899  1.00  0.00     0.111 A 
ATOM      6  C   UNL     1      21.401  48.325  44.887  1.00  0.00     0.134 A 
ATOM      7  C   UNL     1      21.933  47.114  44.424  1.00  0.00     0.093 A 
ATOM      8  C   UNL     1      21.103  46.113  43.912  1.00  0.00     0.123 A 
ATOM      9  C   UNL     1      19.726  46.312  43.864  1.00  0.00     0.094 A 
ATOM     10  C   UNL     1      19.163  47.495  44.353  1.00  0.00     0.146 A 
ATOM     11  O   UNL     1      17.845  47.640  44.298  1.00  0.00    -0.452 OA
ENDROOT
BRANCH   1  12
ATOM     12  C   UNL     1      15.733  48.761  44.608  1.00  0.00     0.029 A 
ATOM     13  C   UNL     1      14.923  48.194  45.602  1.00  0.00     0.062 A 
ATOM     14  C   UNL     1      13.527  48.205  45.487  1.00  0.00     0.162 A 
ATOM     15  C   UNL     1      15.130  49.314  43.468  1.00  0.00     0.062 A 
ATOM     16  C   UNL     1      12.925  48.785  44.346  1.00  0.00     0.200 A 
ATOM     17  C   UNL     1      13.735  49.331  43.341  1.00  0.00     0.162 A 
BRANCH  14  18
ATOM     18  O   UNL     1      12.786  47.632  46.523  1.00  0.00    -0.504 OA
ATOM     19  H   UNL     1      11.886  47.192  46.398  1.00  0.00     0.293 HD
ENDBRANCH  14  18
BRANCH  16  20
ATOM     20  O   UNL     1      11.540  48.834  44.172  1.00  0.00    -0.502 OA
ATOM     21  H   UNL     1      10.872  48.756  44.924  1.00  0.00     0.293 HD
ENDBRANCH  16  20
BRANCH  17  22
ATOM     22  O   UNL     1      13.143  49.890  42.208  1.00  0.00    -0.504 OA
ATOM     23  H   UNL     1      13.573  49.817  41.293  1.00  0.00     0.293 HD
ENDBRANCH  17  22
ENDBRANCH   1  12
BRANCH   2  24
ATOM     24  O   UNL     1      17.262  50.830  45.941  1.00  0.00    -0.502 OA
ATOM     25  H   UNL     1      17.625  51.337  46.740  1.00  0.00     0.293 HD
ENDBRANCH   2  24
BRANCH   6  26
ATOM     26  O   UNL     1      22.321  49.297  45.290  1.00  0.00    -0.507 OA
ATOM     27  H   UNL     1      22.791  49.309  46.182  1.00  0.00     0.293 HD
ENDBRANCH   6  26
BRANCH   8  28
ATOM     28  O   UNL     1      21.642  44.918  43.438  1.00  0.00    -0.508 OA
ATOM     29  H   UNL     1      22.521  44.557  43.790  1.00  0.00     0.293 HD
ENDBRANCH   8  28
TORSDOF 7
ENDMDL
MODEL 7
REMARK VINA RESULT:    -6.503      4.996     10.413
REMARK INTER + INTRA:          -8.110
REMARK INTER:                  -7.861
REMARK INTRA:                  -0.249
REMARK UNBOUND:                -0.086
REMARK SMILES O=c1c(O)c(-c2cc(O)c(O)c(O)c2)oc2cc(O)cc(O)c12
REMARK SMILES IDX 5 1 3 2 2 3 1 4 23 5 21 6 20 7 18 8 17 9 16 10 15 11 6 12
REMARK SMILES IDX 7 13 8 14 14 15 10 16 12 17 9 18 11 20 13 22 4 24 22 26
REMARK SMILES IDX 19 28
REMARK H PARENT 9 19 11 21 13 23 4 25 22 27 19 29
REMARK Flexibility Score: inf
ROOT
ATOM      1  C   UNL     1      17.612  45.976  39.698  1.00  0.00     0.180 A 
ATOM      2  C   UNL     1      18.477  45.248  40.534  1.00  0.00     0.208 A 
ATOM      3  C   UNL     1      18.657  45.670  41.860  1.00  0.00     0.238 A 
ATOM      4  O   UNL     1      19.473  45.048  42.588  1.00  0.00    -0.285 OA
ATOM      5  C   UNL     1      17.956  46.804  42.340  1.00  0.00     0.111 A 
ATOM      6  C   UNL     1      18.030  47.296  43.678  1.00  0.00     0.134 A 
ATOM      7  C   UNL     1      17.396  48.501  44.006  1.00  0.00     0.093 A 
ATOM      8  C   UNL     1      16.637  49.197  43.061  1.00  0.00     0.123 A 
ATOM      9  C   UNL     1      16.509  48.692  41.770  1.00  0.00     0.094 A 
ATOM     10  C   UNL     1      17.160  47.511  41.402  1.00  0.00     0.146 A 
ATOM     11  O   UNL     1      17.021  47.071  40.157  1.00  0.00    -0.452 OA
ENDROOT
BRANCH   1  12
ATOM     12  C   UNL     1      17.353  45.577  38.295  1.00  0.00     0.029 A 
ATOM     13  C   UNL     1      16.116  45.011  37.956  1.00  0.00     0.062 A 
ATOM     14  C   UNL     1      15.845  44.602  36.644  1.00  0.00     0.162 A 
ATOM     15  C   UNL     1      18.341  45.700  37.306  1.00  0.00     0.062 A 
ATOM     16  C   UNL     1      16.838  44.751  35.647  1.00  0.00     0.200 A 
ATOM     17  C   UNL     1      18.084  45.295  35.990  1.00  0.00     0.162 A 
BRANCH  14  18
ATOM     18  O   UNL     1      14.586  44.058  36.379  1.00  0.00    -0.504 OA
ATOM     19  H   UNL     1      13.877  43.907  37.082  1.00  0.00     0.293 HD
ENDBRANCH  14  18
BRANCH  16  20
ATOM     20  O   UNL     1      16.631  44.371  34.319  1.00  0.00    -0.502 OA
ATOM     21  H   UNL     1      17.237  44.631  33.555  1.00  0.00     0.293 HD
ENDBRANCH  16  20
BRANCH  17  22
ATOM     22  O   UNL     1      19.069  45.429  35.012  1.00  0.00    -0.504 OA
ATOM     23  H   UNL     1      19.408  46.338  34.719  1.00  0.00     0.293 HD
ENDBRANCH  17  22
ENDBRANCH   1  12
BRANCH   2  24
ATOM     24  O   UNL     1      19.175  44.146  40.034  1.00  0.00    -0.502 OA
ATOM     25  H   UNL     1      19.965  43.737  40.519  1.00  0.00     0.293 HD
ENDBRANCH   2  24
BRANCH   6  26
ATOM     26  O   UNL     1      18.686  46.632  44.718  1.00  0.00    -0.507 OA
ATOM     27  H   UNL     1      19.445  47.017  45.258  1.00  0.00     0.293 HD
ENDBRANCH   6  26
BRANCH   8  28
ATOM     28  O   UNL     1      15.996  50.387  43.401  1.00  0.00    -0.508 OA
ATOM     29  H   UNL     1      16.260  51.269  42.980  1.00  0.00     0.293 HD
ENDBRANCH   8  28
TORSDOF 7
ENDMDL
MODEL 8
REMARK VINA RESULT:    -6.441      2.917      7.397
REMARK INTER + INTRA:          -8.033
REMARK INTER:                  -7.701
REMARK INTRA:                  -0.332
REMARK UNBOUND:                -0.086
REMARK SMILES O=c1c(O)c(-c2cc(O)c(O)c(O)c2)oc2cc(O)cc(O)c12
REMARK SMILES IDX 5 1 3 2 2 3 1 4 23 5 21 6 20 7 18 8 17 9 16 10 15 11 6 12
REMARK SMILES IDX 7 13 8 14 14 15 10 16 12 17 9 18 11 20 13 22 4 24 22 26
REMARK SMILES IDX 19 28
REMARK H PARENT 9 19 11 21 13 23 4 25 22 27 19 29
REMARK Flexibility Score: inf
ROOT
ATOM      1  C   UNL     1      18.091  49.310  45.572  1.00  0.00     0.180 A 
ATOM      2  C   UNL     1      18.277  48.087  46.240  1.00  0.00     0.208 A 
ATOM      3  C   UNL     1      19.139  48.041  47.347  1.00  0.00     0.238 A 
ATOM      4  O   UNL     1      19.345  46.933  47.908  1.00  0.00    -0.285 OA
ATOM      5  C   UNL     1      19.789  49.221  47.784  1.00  0.00     0.111 A 
ATOM      6  C   UNL     1      20.652  49.299  48.919  1.00  0.00     0.134 A 
ATOM      7  C   UNL     1      21.343  50.489  49.180  1.00  0.00     0.093 A 
ATOM      8  C   UNL     1      21.153  51.622  48.385  1.00  0.00     0.123 A 
ATOM      9  C   UNL     1      20.268  51.573  47.311  1.00  0.00     0.094 A 
ATOM     10  C   UNL     1      19.591  50.390  47.003  1.00  0.00     0.146 A 
ATOM     11  O   UNL     1      18.765  50.384  45.965  1.00  0.00    -0.452 OA
ENDROOT
BRANCH   1  12
ATOM     12  C   UNL     1      17.179  49.442  44.412  1.00  0.00     0.029 A 
ATOM     13  C   UNL     1      15.798  49.554  44.629  1.00  0.00     0.062 A 
ATOM     14  C   UNL     1      14.905  49.658  43.556  1.00  0.00     0.162 A 
ATOM     15  C   UNL     1      17.661  49.398  43.095  1.00  0.00     0.062 A 
ATOM     16  C   UNL     1      15.401  49.638  42.231  1.00  0.00     0.200 A 
ATOM     17  C   UNL     1      16.779  49.502  42.011  1.00  0.00     0.162 A 
BRANCH  14  18
ATOM     18  O   UNL     1      13.545  49.780  43.851  1.00  0.00    -0.504 OA
ATOM     19  H   UNL     1      12.842  50.042  43.176  1.00  0.00     0.293 HD
ENDBRANCH  14  18
BRANCH  16  20
ATOM     20  O   UNL     1      14.566  49.744  41.115  1.00  0.00    -0.502 OA
ATOM     21  H   UNL     1      13.769  50.360  41.062  1.00  0.00     0.293 HD
ENDBRANCH  16  20
BRANCH  17  22
ATOM     22  O   UNL     1      17.267  49.466  40.706  1.00  0.00    -0.504 OA
ATOM     23  H   UNL     1      18.252  49.599  40.503  1.00  0.00     0.293 HD
ENDBRANCH  17  22
ENDBRANCH   1  12
BRANCH   2  24
ATOM     24  O   UNL     1      17.643  46.930  45.779  1.00  0.00    -0.502 OA
ATOM     25  H   UNL     1      16.980  46.942  45.013  1.00  0.00     0.293 HD
ENDBRANCH   2  24
BRANCH   6  26
ATOM     26  O   UNL     1      20.841  48.254  49.828  1.00  0.00    -0.507 OA
ATOM     27  H   UNL     1      21.686  47.712  49.913  1.00  0.00     0.293 HD
ENDBRANCH   6  26
BRANCH   8  28
ATOM     28  O   UNL     1      21.833  52.806  48.662  1.00  0.00    -0.508 OA
ATOM     29  H   UNL     1      21.958  53.523  47.957  1.00  0.00     0.293 HD
ENDBRANCH   8  28
TORSDOF 7
ENDMDL
MODEL 9
REMARK VINA RESULT:    -6.376      2.323      4.150
REMARK INTER + INTRA:          -7.954
REMARK INTER:                  -7.610
REMARK INTRA:                  -0.343
REMARK UNBOUND:                -0.086
REMARK SMILES O=c1c(O)c(-c2cc(O)c(O)c(O)c2)oc2cc(O)cc(O)c12
REMARK SMILES IDX 5 1 3 2 2 3 1 4 23 5 21 6 20 7 18 8 17 9 16 10 15 11 6 12
REMARK SMILES IDX 7 13 8 14 14 15 10 16 12 17 9 18 11 20 13 22 4 24 22 26
REMARK SMILES IDX 19 28
REMARK H PARENT 9 19 11 21 13 23 4 25 22 27 19 29
REMARK Flexibility Score: inf
ROOT
ATOM      1  C   UNL     1      19.245  48.346  45.031  1.00  0.00     0.180 A 
ATOM      2  C   UNL     1      19.805  47.240  44.369  1.00  0.00     0.208 A 
ATOM      3  C   UNL     1      19.243  46.819  43.153  1.00  0.00     0.238 A 
ATOM      4  O   UNL     1      19.714  45.795  42.592  1.00  0.00    -0.285 OA
ATOM      5  C   UNL     1      18.141  47.520  42.605  1.00  0.00     0.111 A 
ATOM      6  C   UNL     1      17.519  47.207  41.359  1.00  0.00     0.134 A 
ATOM      7  C   UNL     1      16.354  47.886  40.979  1.00  0.00     0.093 A 
ATOM      8  C   UNL     1      15.827  48.911  41.770  1.00  0.00     0.123 A 
ATOM      9  C   UNL     1      16.461  49.263  42.958  1.00  0.00     0.094 A 
ATOM     10  C   UNL     1      17.605  48.580  43.382  1.00  0.00     0.146 A 
ATOM     11  O   UNL     1      18.172  48.942  44.526  1.00  0.00    -0.452 OA
ENDROOT
BRANCH   1  12
ATOM     12  C   UNL     1      19.797  48.863  46.305  1.00  0.00     0.029 A 
ATOM     13  C   UNL     1      19.139  48.576  47.509  1.00  0.00     0.062 A 
ATOM     14  C   UNL     1      19.621  49.066  48.729  1.00  0.00     0.162 A 
ATOM     15  C   UNL     1      20.935  49.684  46.329  1.00  0.00     0.062 A 
ATOM     16  C   UNL     1      20.782  49.874  48.747  1.00  0.00     0.200 A 
ATOM     17  C   UNL     1      21.428  50.181  47.542  1.00  0.00     0.162 A 
BRANCH  14  18
ATOM     18  O   UNL     1      18.918  48.728  49.888  1.00  0.00    -0.504 OA
ATOM     19  H   UNL     1      18.403  49.390  50.450  1.00  0.00     0.293 HD
ENDBRANCH  14  18
BRANCH  16  20
ATOM     20  O   UNL     1      21.319  50.390  49.929  1.00  0.00    -0.502 OA
ATOM     21  H   UNL     1      22.207  50.866  49.986  1.00  0.00     0.293 HD
ENDBRANCH  16  20
BRANCH  17  22
ATOM     22  O   UNL     1      22.564  50.990  47.556  1.00  0.00    -0.504 OA
ATOM     23  H   UNL     1      23.125  51.103  48.393  1.00  0.00     0.293 HD
ENDBRANCH  17  22
ENDBRANCH   1  12
BRANCH   2  24
ATOM     24  O   UNL     1      20.878  46.549  44.938  1.00  0.00    -0.502 OA
ATOM     25  H   UNL     1      20.784  45.612  45.313  1.00  0.00     0.293 HD
ENDBRANCH   2  24
BRANCH   6  26
ATOM     26  O   UNL     1      18.017  46.265  40.454  1.00  0.00    -0.507 OA
ATOM     27  H   UNL     1      17.457  45.757  39.788  1.00  0.00     0.293 HD
ENDBRANCH   6  26
BRANCH   8  28
ATOM     28  O   UNL     1      14.677  49.591  41.376  1.00  0.00    -0.508 OA
ATOM     29  H   UNL     1      14.249  50.295  41.965  1.00  0.00     0.293 HD
ENDBRANCH   8  28
TORSDOF 7
ENDMDL
