MODEL 1
REMARK VINA RESULT:    -3.066      0.000      0.000
REMARK INTER + INTRA:          -3.066
REMARK INTER:                  -3.066
REMARK INTRA:                   0.000
REMARK UNBOUND:                 0.000
REMARK SMILES c1cc[nH]c1
REMARK SMILES IDX 1 1 5 2 4 3 3 4 2 5
REMARK H PARENT 4 6
REMARK Flexibility Score: inf
ROOT
ATOM      1  C   UNL     1      97.130 112.273 124.467  1.00  0.00     0.019 A 
ATOM      2  C   UNL     1      97.818 111.656 125.492  1.00  0.00     0.082 A 
ATOM      3  N   UNL     1      97.049 111.605 126.595  1.00  0.00    -0.368 N 
ATOM      4  C   UNL     1      95.875 112.183 126.286  1.00  0.00     0.082 A 
ATOM      5  C   UNL     1      95.890 112.609 124.973  1.00  0.00     0.019 A 
ATOM      6  H   UNL     1      97.315 111.195 127.517  1.00  0.00     0.165 HD
ENDROOT
TORSDOF 0
ENDMDL
MODEL 2
REMARK VINA RESULT:    -3.012     15.237     15.840
REMARK INTER + INTRA:          -3.012
REMARK INTER:                  -3.012
REMARK INTRA:                   0.000
REMARK UNBOUND:                 0.000
REMARK SMILES c1cc[nH]c1
REMARK SMILES IDX 1 1 5 2 4 3 3 4 2 5
REMARK H PARENT 4 6
REMARK Flexibility Score: inf
ROOT
ATOM      1  C   UNL     1     100.375  97.089 124.490  1.00  0.00     0.019 A 
ATOM      2  C   UNL     1     101.006  97.764 125.516  1.00  0.00     0.082 A 
ATOM      3  N   UNL     1     100.982  97.020 126.637  1.00  0.00    -0.368 N 
ATOM      4  C   UNL     1     100.342  95.875 126.339  1.00  0.00     0.082 A 
ATOM      5  C   UNL     1      99.952  95.884 125.015  1.00  0.00     0.019 A 
ATOM      6  H   UNL     1     101.384  97.283 127.563  1.00  0.00     0.165 HD
ENDROOT
TORSDOF 0
ENDMDL
MODEL 3
REMARK VINA RESULT:    -2.940     14.432     15.155
REMARK INTER + INTRA:          -2.940
REMARK INTER:                  -2.940
REMARK INTRA:                   0.000
REMARK UNBOUND:                 0.000
REMARK SMILES c1cc[nH]c1
REMARK SMILES IDX 1 1 5 2 4 3 3 4 2 5
REMARK H PARENT 4 6
REMARK Flexibility Score: inf
ROOT
ATOM      1  C   UNL     1     107.406 100.665 127.847  1.00  0.00     0.019 A 
ATOM      2  C   UNL     1     107.540 100.668 129.220  1.00  0.00     0.082 A 
ATOM      3  N   UNL     1     106.407 101.114 129.791  1.00  0.00    -0.368 N 
ATOM      4  C   UNL     1     105.547 101.397 128.796  1.00  0.00     0.082 A 
ATOM      5  C   UNL     1     106.134 101.130 127.576  1.00  0.00     0.019 A 
ATOM      6  H   UNL     1     106.228 101.221 130.813  1.00  0.00     0.165 HD
ENDROOT
TORSDOF 0
ENDMDL
MODEL 4
REMARK VINA RESULT:    -2.933     14.446     15.271
REMARK INTER + INTRA:          -2.933
REMARK INTER:                  -2.933
REMARK INTRA:                   0.000
REMARK UNBOUND:                 0.000
REMARK SMILES c1cc[nH]c1
REMARK SMILES IDX 1 1 5 2 4 3 3 4 2 5
REMARK H PARENT 4 6
REMARK Flexibility Score: inf
ROOT
ATOM      1  C   UNL     1     106.253 101.064 127.531  1.00  0.00     0.019 A 
ATOM      2  C   UNL     1     105.559 101.338 128.692  1.00  0.00     0.082 A 
ATOM      3  N   UNL     1     106.340 101.094 129.761  1.00  0.00    -0.368 N 
ATOM      4  C   UNL     1     107.528 100.668 129.294  1.00  0.00     0.082 A 
ATOM      5  C   UNL     1     107.509 100.638 127.915  1.00  0.00     0.019 A 
ATOM      6  H   UNL     1     106.075 101.213 130.762  1.00  0.00     0.165 HD
ENDROOT
TORSDOF 0
ENDMDL
MODEL 5
REMARK VINA RESULT:    -2.919      7.838      8.296
REMARK INTER + INTRA:          -2.919
REMARK INTER:                  -2.919
REMARK INTRA:                   0.000
REMARK UNBOUND:                 0.000
REMARK SMILES c1cc[nH]c1
REMARK SMILES IDX 1 1 5 2 4 3 3 4 2 5
REMARK H PARENT 4 6
REMARK Flexibility Score: inf
ROOT
ATOM      1  C   UNL     1     101.201 106.280 127.618  1.00  0.00     0.019 A 
ATOM      2  C   UNL     1     101.589 106.850 128.813  1.00  0.00     0.082 A 
ATOM      3  N   UNL     1     101.295 106.023 129.833  1.00  0.00    -0.368 N 
ATOM      4  C   UNL     1     100.722 104.929 129.302  1.00  0.00     0.082 A 
ATOM      5  C   UNL     1     100.648 105.054 127.930  1.00  0.00     0.019 A 
ATOM      6  H   UNL     1     101.477 106.199 130.845  1.00  0.00     0.165 HD
ENDROOT
TORSDOF 0
ENDMDL
MODEL 6
REMARK VINA RESULT:    -2.906     15.892     15.994
REMARK INTER + INTRA:          -2.906
REMARK INTER:                  -2.906
REMARK INTRA:                   0.000
REMARK UNBOUND:                 0.000
REMARK SMILES c1cc[nH]c1
REMARK SMILES IDX 1 1 5 2 4 3 3 4 2 5
REMARK H PARENT 4 6
REMARK Flexibility Score: inf
ROOT
ATOM      1  C   UNL     1     111.313 106.196 127.540  1.00  0.00     0.019 A 
ATOM      2  C   UNL     1     110.909 105.547 128.690  1.00  0.00     0.082 A 
ATOM      3  N   UNL     1     111.183 106.307 129.765  1.00  0.00    -0.368 N 
ATOM      4  C   UNL     1     111.758 107.437 129.316  1.00  0.00     0.082 A 
ATOM      5  C   UNL     1     111.854 107.402 127.940  1.00  0.00     0.019 A 
ATOM      6  H   UNL     1     110.986 106.065 130.761  1.00  0.00     0.165 HD
ENDROOT
TORSDOF 0
ENDMDL
MODEL 7
REMARK VINA RESULT:    -2.888     10.885     11.177
REMARK INTER + INTRA:          -2.888
REMARK INTER:                  -2.888
REMARK INTRA:                   0.000
REMARK UNBOUND:                 0.000
REMARK SMILES c1cc[nH]c1
REMARK SMILES IDX 1 1 5 2 4 3 3 4 2 5
REMARK H PARENT 4 6
REMARK Flexibility Score: inf
ROOT
ATOM      1  C   UNL     1     107.515 109.879 127.902  1.00  0.00     0.019 A 
ATOM      2  C   UNL     1     107.525 109.492 129.227  1.00  0.00     0.082 A 
ATOM      3  N   UNL     1     107.209 110.538 130.012  1.00  0.00    -0.368 N 
ATOM      4  C   UNL     1     106.997 111.591 129.202  1.00  0.00     0.082 A 
ATOM      5  C   UNL     1     107.178 111.218 127.887  1.00  0.00     0.019 A 
ATOM      6  H   UNL     1     107.142 110.533 131.053  1.00  0.00     0.165 HD
ENDROOT
TORSDOF 0
ENDMDL
MODEL 8
REMARK VINA RESULT:    -2.882      7.389      7.832
REMARK INTER + INTRA:          -2.882
REMARK INTER:                  -2.882
REMARK INTRA:                   0.000
REMARK UNBOUND:                 0.000
REMARK SMILES c1cc[nH]c1
REMARK SMILES IDX 1 1 5 2 4 3 3 4 2 5
REMARK H PARENT 4 6
REMARK Flexibility Score: inf
ROOT
ATOM      1  C   UNL     1     102.633 107.500 127.887  1.00  0.00     0.019 A 
ATOM      2  C   UNL     1     103.035 107.519 129.207  1.00  0.00     0.082 A 
ATOM      3  N   UNL     1     101.998 107.212 130.007  1.00  0.00    -0.368 N 
ATOM      4  C   UNL     1     100.935 106.996 129.212  1.00  0.00     0.082 A 
ATOM      5  C   UNL     1     101.292 107.166 127.891  1.00  0.00     0.019 A 
ATOM      6  H   UNL     1     102.015 107.153 131.049  1.00  0.00     0.165 HD
ENDROOT
TORSDOF 0
ENDMDL
MODEL 9
REMARK VINA RESULT:    -2.877     13.046     13.702
REMARK INTER + INTRA:          -2.877
REMARK INTER:                  -2.877
REMARK INTRA:                   0.000
REMARK UNBOUND:                 0.000
REMARK SMILES c1cc[nH]c1
REMARK SMILES IDX 1 1 5 2 4 3 3 4 2 5
REMARK H PARENT 4 6
REMARK Flexibility Score: inf
ROOT
ATOM      1  C   UNL     1     105.047 102.533 127.831  1.00  0.00     0.019 A 
ATOM      2  C   UNL     1     105.018 102.983 129.135  1.00  0.00     0.082 A 
ATOM      3  N   UNL     1     105.287 101.968 129.977  1.00  0.00    -0.368 N 
ATOM      4  C   UNL     1     105.489 100.872 129.223  1.00  0.00     0.082 A 
ATOM      5  C   UNL     1     105.348 101.186 127.887  1.00  0.00     0.019 A 
ATOM      6  H   UNL     1     105.331 102.021 131.018  1.00  0.00     0.165 HD
ENDROOT
TORSDOF 0
ENDMDL
