MODEL 1
REMARK VINA RESULT:     4.781      0.000      0.000
REMARK INTER + INTRA:           8.964
REMARK INTER:                   6.738
REMARK INTRA:                   2.227
REMARK UNBOUND:                 2.227
REMARK SMILES CC1=CCC(=C(C)C)C(=O)CC(C)=CCC1
REMARK SMILES IDX 12 1 14 2 13 3 15 4 16 5 2 6 1 7 3 8 11 10 9 11 10 12 5 13
REMARK SMILES IDX 6 14 7 15 8 16 4 17
REMARK H PARENT
REMARK Flexibility Score: 60.00
ROOT
ATOM      1  C   UNL     1      -2.629   6.751   9.581  1.00  0.00    -0.070 C 
ATOM      2  C   UNL     1      -3.895   6.987  10.017  1.00  0.00    -0.027 C 
ATOM      3  C   UNL     1      -1.561   7.712  10.047  1.00  0.00     0.039 C 
ENDROOT
BRANCH   2   4
ATOM      4  C   UNL     1      -5.115   6.124   9.800  1.00  0.00     0.032 C 
BRANCH   4   5
ATOM      5  C   UNL     1      -4.913   4.634  10.125  1.00  0.00     0.034 C 
BRANCH   5   6
ATOM      6  C   UNL     1      -5.669   3.660   9.238  1.00  0.00    -0.077 C 
ATOM      7  C   UNL     1      -7.163   3.538   9.405  1.00  0.00     0.039 C 
ATOM      8  C   UNL     1      -5.062   2.823   8.362  1.00  0.00    -0.023 CG0
ATOM      9  G   UNL     1      -3.616   2.889   7.949  1.00  0.00     0.000 G0
ENDBRANCH   5   6
ENDBRANCH   4   5
ENDBRANCH   2   4
BRANCH   1  10
ATOM     10  C   UNL     1      -2.222   5.684   8.570  1.00  0.00     0.111 C 
BRANCH  10  11
ATOM     11  C   UNL     1      -3.232   5.380   7.499  1.00  0.00     0.163 C 
ATOM     12  O   UNL     1      -4.042   6.273   7.132  1.00  0.00    -0.294 OA
BRANCH  11  13
ATOM     13  C   UNL     1      -3.360   4.005   6.954  1.00  0.00    -0.002 C 
ATOM     14  C   UNL     1      -3.298   3.799   5.609  1.00  0.00    -0.069 C 
ATOM     15  C   UNL     1      -3.466   2.424   5.008  1.00  0.00     0.039 C 
ATOM     16  C   UNL     1      -3.082   4.959   4.663  1.00  0.00     0.039 C 
BRANCH  13  17
ATOM     17  C   UNL     1      -3.618   2.880   7.949  1.00  0.00     0.066 CG0
ATOM     18  G   UNL     1      -5.074   2.860   8.336  1.00  0.00     0.000 G0
ENDBRANCH  13  17
ENDBRANCH  11  13
ENDBRANCH  10  11
ENDBRANCH   1  10
TORSDOF 0
ENDMDL
MODEL 2
REMARK VINA RESULT:     4.891      1.688      3.668
REMARK INTER + INTRA:           9.119
REMARK INTER:                   6.542
REMARK INTRA:                   2.577
REMARK UNBOUND:                 2.227
REMARK SMILES CC1=CCC(=C(C)C)C(=O)CC(C)=CCC1
REMARK SMILES IDX 12 1 14 2 13 3 15 4 16 5 2 6 1 7 3 8 11 10 9 11 10 12 5 13
REMARK SMILES IDX 6 14 7 15 8 16 4 17
REMARK H PARENT
REMARK Flexibility Score: 60.00
ROOT
ATOM      1  C   UNL     1      -5.988   4.841   9.851  1.00  0.00    -0.070 C 
ATOM      2  C   UNL     1      -5.905   6.172  10.109  1.00  0.00    -0.027 C 
ATOM      3  C   UNL     1      -7.368   4.229   9.880  1.00  0.00     0.039 C 
ENDROOT
BRANCH   2   4
ATOM      4  C   UNL     1      -4.676   7.047  10.028  1.00  0.00     0.032 C 
BRANCH   4   5
ATOM      5  C   UNL     1      -3.341   6.288  10.125  1.00  0.00     0.034 C 
BRANCH   5   6
ATOM      6  C   UNL     1      -2.423   6.419   8.922  1.00  0.00    -0.077 C 
ATOM      7  C   UNL     1      -1.021   6.935   9.133  1.00  0.00     0.039 C 
ATOM      8  C   UNL     1      -2.821   6.182   7.649  1.00  0.00    -0.023 CG0
ATOM      9  G   UNL     1      -4.118   5.531   7.246  1.00  0.00     0.000 G0
ENDBRANCH   5   6
ENDBRANCH   4   5
ENDBRANCH   2   4
BRANCH   1  10
ATOM     10  C   UNL     1      -4.804   3.897   9.659  1.00  0.00     0.111 C 
BRANCH  10  11
ATOM     11  C   UNL     1      -4.674   3.282   8.295  1.00  0.00     0.163 C 
ATOM     12  O   UNL     1      -4.989   2.074   8.120  1.00  0.00    -0.294 OA
BRANCH  11  13
ATOM     13  C   UNL     1      -4.068   4.050   7.178  1.00  0.00    -0.002 C 
ATOM     14  C   UNL     1      -3.432   3.393   6.169  1.00  0.00    -0.069 C 
ATOM     15  C   UNL     1      -2.764   4.135   5.035  1.00  0.00     0.039 C 
ATOM     16  C   UNL     1      -3.350   1.883   6.166  1.00  0.00     0.039 C 
BRANCH  13  17
ATOM     17  C   UNL     1      -4.143   5.570   7.253  1.00  0.00     0.066 CG0
ATOM     18  G   UNL     1      -2.810   6.130   7.673  1.00  0.00     0.000 G0
ENDBRANCH  13  17
ENDBRANCH  11  13
ENDBRANCH  10  11
ENDBRANCH   1  10
TORSDOF 0
ENDMDL
MODEL 3
REMARK VINA RESULT:     5.162      1.350      2.053
REMARK INTER + INTRA:           9.500
REMARK INTER:                   8.065
REMARK INTRA:                   1.435
REMARK UNBOUND:                 2.227
REMARK SMILES CC1=CCC(=C(C)C)C(=O)CC(C)=CCC1
REMARK SMILES IDX 12 1 14 2 13 3 15 4 16 5 2 6 1 7 3 8 11 10 9 11 10 12 5 13
REMARK SMILES IDX 6 14 7 15 8 16 4 17
REMARK H PARENT
REMARK Flexibility Score: 60.00
ROOT
ATOM      1  C   UNL     1      -4.913   6.336  10.109  1.00  0.00    -0.070 C 
ATOM      2  C   UNL     1      -6.130   5.745   9.976  1.00  0.00    -0.027 C 
ATOM      3  C   UNL     1      -4.891   7.846  10.118  1.00  0.00     0.039 C 
ENDROOT
BRANCH   2   4
ATOM      4  C   UNL     1      -6.445   4.270  10.054  1.00  0.00     0.032 C 
BRANCH   4   5
ATOM      5  C   UNL     1      -5.267   3.343   9.710  1.00  0.00     0.034 C 
BRANCH   5   6
ATOM      6  C   UNL     1      -5.228   2.831   8.280  1.00  0.00    -0.077 C 
ATOM      7  C   UNL     1      -6.485   2.246   7.686  1.00  0.00     0.039 C 
ATOM      8  C   UNL     1      -4.099   2.788   7.534  1.00  0.00    -0.023 CG0
ATOM      9  G   UNL     1      -2.791   3.447   7.888  1.00  0.00     0.000 G0
ENDBRANCH   5   6
ENDBRANCH   4   5
ENDBRANCH   2   4
BRANCH   1  10
ATOM     10  C   UNL     1      -3.571   5.613  10.125  1.00  0.00     0.111 C 
BRANCH  10  11
ATOM     11  C   UNL     1      -2.710   5.809   8.910  1.00  0.00     0.163 C 
ATOM     12  O   UNL     1      -1.879   6.757   8.877  1.00  0.00    -0.294 OA
BRANCH  11  13
ATOM     13  C   UNL     1      -2.909   4.968   7.702  1.00  0.00    -0.002 C 
ATOM     14  C   UNL     1      -3.238   5.551   6.516  1.00  0.00    -0.069 C 
ATOM     15  C   UNL     1      -3.493   4.731   5.273  1.00  0.00     0.039 C 
ATOM     16  C   UNL     1      -3.386   7.052   6.412  1.00  0.00     0.039 C 
BRANCH  13  17
ATOM     17  C   UNL     1      -2.789   3.459   7.874  1.00  0.00     0.066 CG0
ATOM     18  G   UNL     1      -4.088   2.794   7.501  1.00  0.00     0.000 G0
ENDBRANCH  13  17
ENDBRANCH  11  13
ENDBRANCH  10  11
ENDBRANCH   1  10
TORSDOF 0
ENDMDL
MODEL 4
REMARK VINA RESULT:     5.768      1.240      3.413
REMARK INTER + INTRA:          10.355
REMARK INTER:                   4.637
REMARK INTRA:                   5.718
REMARK UNBOUND:                 2.227
REMARK SMILES CC1=CCC(=C(C)C)C(=O)CC(C)=CCC1
REMARK SMILES IDX 12 1 14 2 13 3 15 4 16 5 2 6 1 7 3 8 11 10 9 11 10 12 5 13
REMARK SMILES IDX 6 14 7 15 8 16 4 17
REMARK H PARENT
REMARK Flexibility Score: 60.00
ROOT
ATOM      1  C   UNL     1      -2.053   6.674   9.185  1.00  0.00    -0.070 C 
ATOM      2  C   UNL     1      -2.197   7.159   7.924  1.00  0.00    -0.027 C 
ATOM      3  C   UNL     1      -1.033   7.360  10.063  1.00  0.00     0.039 C 
ENDROOT
BRANCH   2   4
ATOM      4  C   UNL     1      -3.216   6.740   6.891  1.00  0.00     0.032 C 
BRANCH   4   5
ATOM      5  C   UNL     1      -4.121   5.573   7.320  1.00  0.00     0.034 C 
BRANCH   5   6
ATOM      6  C   UNL     1      -3.718   4.203   6.801  1.00  0.00    -0.077 C 
ATOM      7  C   UNL     1      -3.212   4.086   5.384  1.00  0.00     0.039 C 
ATOM      8  C   UNL     1      -3.872   3.060   7.511  1.00  0.00    -0.023 CG0
ATOM      9  G   UNL     1      -4.220   2.981   8.974  1.00  0.00     0.000 G0
ENDBRANCH   5   6
ENDBRANCH   4   5
ENDBRANCH   2   4
BRANCH   1  10
ATOM     10  C   UNL     1      -2.738   5.430   9.743  1.00  0.00     0.111 C 
BRANCH  10  11
ATOM     11  C   UNL     1      -4.240   5.443   9.710  1.00  0.00     0.163 C 
ATOM     12  O   UNL     1      -4.864   6.496  10.012  1.00  0.00    -0.294 OA
BRANCH  11  13
ATOM     13  C   UNL     1      -4.998   4.195   9.439  1.00  0.00    -0.002 C 
ATOM     14  C   UNL     1      -6.344   4.161   9.641  1.00  0.00    -0.069 C 
ATOM     15  C   UNL     1      -7.148   2.901   9.419  1.00  0.00     0.039 C 
ATOM     16  C   UNL     1      -7.081   5.390  10.125  1.00  0.00     0.039 C 
BRANCH  13  17
ATOM     17  C   UNL     1      -4.200   2.976   8.994  1.00  0.00     0.066 CG0
ATOM     18  G   UNL     1      -3.894   3.070   7.522  1.00  0.00     0.000 G0
ENDBRANCH  13  17
ENDBRANCH  11  13
ENDBRANCH  10  11
ENDBRANCH   1  10
TORSDOF 0
ENDMDL
MODEL 5
REMARK VINA RESULT:     6.975      1.440      4.516
REMARK INTER + INTRA:          12.056
REMARK INTER:                   9.611
REMARK INTRA:                   2.444
REMARK UNBOUND:                 2.227
REMARK SMILES CC1=CCC(=C(C)C)C(=O)CC(C)=CCC1
REMARK SMILES IDX 12 1 14 2 13 3 15 4 16 5 2 6 1 7 3 8 11 10 9 11 10 12 5 13
REMARK SMILES IDX 6 14 7 15 8 16 4 17
REMARK H PARENT
REMARK Flexibility Score: 60.00
ROOT
ATOM      1  C   UNL     1      -6.291   3.575   9.323  1.00  0.00    -0.070 C 
ATOM      2  C   UNL     1      -6.350   2.727   8.263  1.00  0.00    -0.027 C 
ATOM      3  C   UNL     1      -7.601   4.159   9.797  1.00  0.00     0.039 C 
ENDROOT
BRANCH   2   4
ATOM      4  C   UNL     1      -5.218   1.921   7.670  1.00  0.00     0.032 C 
BRANCH   4   5
ATOM      5  C   UNL     1      -3.815   2.488   7.943  1.00  0.00     0.034 C 
BRANCH   5   6
ATOM      6  C   UNL     1      -3.397   3.658   7.068  1.00  0.00    -0.077 C 
ATOM      7  C   UNL     1      -3.702   3.603   5.592  1.00  0.00     0.039 C 
ATOM      8  C   UNL     1      -2.682   4.714   7.525  1.00  0.00    -0.023 CG0
ATOM      9  G   UNL     1      -2.407   5.022   8.973  1.00  0.00     0.000 G0
ENDBRANCH   5   6
ENDBRANCH   4   5
ENDBRANCH   2   4
BRANCH   1  10
ATOM     10  C   UNL     1      -5.014   4.077   9.990  1.00  0.00     0.111 C 
BRANCH  10  11
ATOM     11  C   UNL     1      -4.744   5.549   9.856  1.00  0.00     0.163 C 
ATOM     12  O   UNL     1      -5.697   6.370   9.937  1.00  0.00    -0.294 OA
BRANCH  11  13
ATOM     13  C   UNL     1      -3.384   6.036   9.512  1.00  0.00    -0.002 C 
ATOM     14  C   UNL     1      -3.088   7.360   9.630  1.00  0.00    -0.069 C 
ATOM     15  C   UNL     1      -1.731   7.906   9.250  1.00  0.00     0.039 C 
ATOM     16  C   UNL     1      -4.127   8.340  10.125  1.00  0.00     0.039 C 
BRANCH  13  17
ATOM     17  C   UNL     1      -2.389   5.013   8.978  1.00  0.00     0.066 CG0
ATOM     18  G   UNL     1      -2.670   4.732   7.526  1.00  0.00     0.000 G0
ENDBRANCH  13  17
ENDBRANCH  11  13
ENDBRANCH  10  11
ENDBRANCH   1  10
TORSDOF 0
ENDMDL
