MODEL 1
REMARK VINA RESULT:    -4.947      0.000      0.000
REMARK INTER + INTRA:          -5.335
REMARK INTER:                  -5.236
REMARK INTRA:                  -0.098
REMARK UNBOUND:                -0.098
REMARK SMILES C=C(C)[C@H]1CC=C(C)C(=O)C1
REMARK SMILES IDX 8 1 7 2 6 3 5 4 4 5 11 6 9 7 10 8 2 9 1 10 3 11
REMARK H PARENT
REMARK Flexibility Score: inf
ROOT
ATOM      1  C   UNL     1      -1.495   4.774  11.967  1.00  0.00     0.048 C 
ATOM      2  C   UNL     1      -1.051   5.414  13.253  1.00  0.00    -0.012 C 
ATOM      3  C   UNL     1      -0.753   6.725  13.287  1.00  0.00    -0.019 C 
ATOM      4  C   UNL     1      -0.228   7.392  14.530  1.00  0.00     0.036 C 
ATOM      5  C   UNL     1      -0.768   6.708  15.800  1.00  0.00     0.025 C 
ATOM      6  C   UNL     1      -0.456   5.201  15.772  1.00  0.00     0.089 C 
ATOM      7  C   UNL     1      -0.919   4.588  14.479  1.00  0.00     0.158 C 
ATOM      8  O   UNL     1      -1.150   3.349  14.435  1.00  0.00    -0.295 OA
ENDROOT
BRANCH   5   9
ATOM      9  C   UNL     1      -0.225   7.365  17.062  1.00  0.00    -0.077 C 
ATOM     10  C   UNL     1       0.010   6.627  18.158  1.00  0.00     0.008 C 
ATOM     11  C   UNL     1       0.064   8.846  17.115  1.00  0.00     0.039 C 
ENDBRANCH   5   9
TORSDOF 1
ENDMDL
MODEL 2
REMARK VINA RESULT:    -4.906      0.252      1.072
REMARK INTER + INTRA:          -5.292
REMARK INTER:                  -5.196
REMARK INTRA:                  -0.096
REMARK UNBOUND:                -0.098
REMARK SMILES C=C(C)[C@H]1CC=C(C)C(=O)C1
REMARK SMILES IDX 8 1 7 2 6 3 5 4 4 5 11 6 9 7 10 8 2 9 1 10 3 11
REMARK H PARENT
REMARK Flexibility Score: inf
ROOT
ATOM      1  C   UNL     1      -1.509   4.866  12.113  1.00  0.00     0.048 C 
ATOM      2  C   UNL     1      -1.038   5.452  13.416  1.00  0.00    -0.012 C 
ATOM      3  C   UNL     1      -0.733   6.759  13.497  1.00  0.00    -0.019 C 
ATOM      4  C   UNL     1      -0.182   7.373  14.756  1.00  0.00     0.036 C 
ATOM      5  C   UNL     1      -0.702   6.641  16.007  1.00  0.00     0.025 C 
ATOM      6  C   UNL     1      -0.398   5.134  15.913  1.00  0.00     0.089 C 
ATOM      7  C   UNL     1      -0.888   4.577  14.605  1.00  0.00     0.158 C 
ATOM      8  O   UNL     1      -1.127   3.342  14.515  1.00  0.00    -0.295 OA
ENDROOT
BRANCH   5   9
ATOM      9  C   UNL     1      -0.133   7.244  17.284  1.00  0.00    -0.077 C 
ATOM     10  C   UNL     1       0.023   8.574  17.390  1.00  0.00     0.008 C 
ATOM     11  C   UNL     1       0.266   6.377  18.454  1.00  0.00     0.039 C 
ENDBRANCH   5   9
TORSDOF 1
ENDMDL
MODEL 3
REMARK VINA RESULT:    -4.683      1.907      4.677
REMARK INTER + INTRA:          -5.055
REMARK INTER:                  -4.958
REMARK INTRA:                  -0.098
REMARK UNBOUND:                -0.098
REMARK SMILES C=C(C)[C@H]1CC=C(C)C(=O)C1
REMARK SMILES IDX 8 1 7 2 6 3 5 4 4 5 11 6 9 7 10 8 2 9 1 10 3 11
REMARK H PARENT
REMARK Flexibility Score: inf
ROOT
ATOM      1  C   UNL     1       0.291   5.052  17.537  1.00  0.00     0.048 C 
ATOM      2  C   UNL     1      -0.174   5.205  16.114  1.00  0.00    -0.012 C 
ATOM      3  C   UNL     1      -0.445   4.117  15.371  1.00  0.00    -0.019 C 
ATOM      4  C   UNL     1      -0.835   4.218  13.921  1.00  0.00     0.036 C 
ATOM      5  C   UNL     1      -1.587   5.532  13.637  1.00  0.00     0.025 C 
ATOM      6  C   UNL     1      -0.752   6.739  14.101  1.00  0.00     0.089 C 
ATOM      7  C   UNL     1      -0.310   6.561  15.527  1.00  0.00     0.158 C 
ATOM      8  O   UNL     1      -0.009   7.578  16.208  1.00  0.00    -0.295 OA
ENDROOT
BRANCH   5   9
ATOM      9  C   UNL     1      -1.967   5.650  12.167  1.00  0.00    -0.077 C 
ATOM     10  C   UNL     1      -2.270   6.849  11.644  1.00  0.00     0.008 C 
ATOM     11  C   UNL     1      -2.011   4.439  11.266  1.00  0.00     0.039 C 
ENDBRANCH   5   9
TORSDOF 1
ENDMDL
MODEL 4
REMARK VINA RESULT:    -4.652      1.371      4.201
REMARK INTER + INTRA:          -5.023
REMARK INTER:                  -4.924
REMARK INTRA:                  -0.098
REMARK UNBOUND:                -0.098
REMARK SMILES C=C(C)[C@H]1CC=C(C)C(=O)C1
REMARK SMILES IDX 8 1 7 2 6 3 5 4 4 5 11 6 9 7 10 8 2 9 1 10 3 11
REMARK H PARENT
REMARK Flexibility Score: inf
ROOT
ATOM      1  C   UNL     1       0.314   5.297  17.475  1.00  0.00     0.048 C 
ATOM      2  C   UNL     1      -0.289   5.366  16.098  1.00  0.00    -0.012 C 
ATOM      3  C   UNL     1      -0.578   6.557  15.546  1.00  0.00    -0.019 C 
ATOM      4  C   UNL     1      -1.256   6.673  14.207  1.00  0.00     0.036 C 
ATOM      5  C   UNL     1      -0.892   5.487  13.294  1.00  0.00     0.025 C 
ATOM      6  C   UNL     1      -1.210   4.153  13.994  1.00  0.00     0.089 C 
ATOM      7  C   UNL     1      -0.587   4.112  15.363  1.00  0.00     0.158 C 
ATOM      8  O   UNL     1      -0.361   2.994  15.901  1.00  0.00    -0.295 OA
ENDROOT
BRANCH   5   9
ATOM      9  C   UNL     1      -1.590   5.588  11.945  1.00  0.00    -0.077 C 
ATOM     10  C   UNL     1      -1.922   4.473  11.274  1.00  0.00     0.008 C 
ATOM     11  C   UNL     1      -1.927   6.925  11.331  1.00  0.00     0.039 C 
ENDBRANCH   5   9
TORSDOF 1
ENDMDL
MODEL 5
REMARK VINA RESULT:    -4.613      1.186      1.748
REMARK INTER + INTRA:          -4.981
REMARK INTER:                  -4.882
REMARK INTRA:                  -0.098
REMARK UNBOUND:                -0.098
REMARK SMILES C=C(C)[C@H]1CC=C(C)C(=O)C1
REMARK SMILES IDX 8 1 7 2 6 3 5 4 4 5 11 6 9 7 10 8 2 9 1 10 3 11
REMARK H PARENT
REMARK Flexibility Score: inf
ROOT
ATOM      1  C   UNL     1      -2.133   5.950  13.140  1.00  0.00     0.048 C 
ATOM      2  C   UNL     1      -1.371   5.924  14.437  1.00  0.00    -0.012 C 
ATOM      3  C   UNL     1      -1.164   7.062  15.122  1.00  0.00    -0.019 C 
ATOM      4  C   UNL     1      -0.340   7.098  16.381  1.00  0.00     0.036 C 
ATOM      5  C   UNL     1      -0.434   5.764  17.146  1.00  0.00     0.025 C 
ATOM      6  C   UNL     1      -0.046   4.591  16.228  1.00  0.00     0.089 C 
ATOM      7  C   UNL     1      -0.829   4.640  14.945  1.00  0.00     0.158 C 
ATOM      8  O   UNL     1      -0.981   3.580  14.278  1.00  0.00    -0.295 OA
ENDROOT
BRANCH   5   9
ATOM      9  C   UNL     1       0.413   5.786  18.411  1.00  0.00    -0.077 C 
ATOM     10  C   UNL     1       0.891   4.640  18.921  1.00  0.00     0.008 C 
ATOM     11  C   UNL     1       0.738   7.079  19.118  1.00  0.00     0.039 C 
ENDBRANCH   5   9
TORSDOF 1
ENDMDL
MODEL 6
REMARK VINA RESULT:    -4.515      1.716      4.351
REMARK INTER + INTRA:          -4.877
REMARK INTER:                  -4.779
REMARK INTRA:                  -0.098
REMARK UNBOUND:                -0.098
REMARK SMILES C=C(C)[C@H]1CC=C(C)C(=O)C1
REMARK SMILES IDX 8 1 7 2 6 3 5 4 4 5 11 6 9 7 10 8 2 9 1 10 3 11
REMARK H PARENT
REMARK Flexibility Score: inf
ROOT
ATOM      1  C   UNL     1       0.532   7.211  19.067  1.00  0.00     0.048 C 
ATOM      2  C   UNL     1      -0.041   6.698  17.775  1.00  0.00    -0.012 C 
ATOM      3  C   UNL     1      -0.897   7.456  17.068  1.00  0.00    -0.019 C 
ATOM      4  C   UNL     1      -1.559   6.954  15.812  1.00  0.00     0.036 C 
ATOM      5  C   UNL     1      -0.659   5.945  15.074  1.00  0.00     0.025 C 
ATOM      6  C   UNL     1      -0.253   4.798  16.017  1.00  0.00     0.089 C 
ATOM      7  C   UNL     1       0.323   5.342  17.296  1.00  0.00     0.158 C 
ATOM      8  O   UNL     1       1.088   4.612  17.984  1.00  0.00    -0.295 OA
ENDROOT
BRANCH   5   9
ATOM      9  C   UNL     1      -1.329   5.418  13.813  1.00  0.00    -0.077 C 
ATOM     10  C   UNL     1      -0.864   4.309  13.216  1.00  0.00     0.008 C 
ATOM     11  C   UNL     1      -2.523   6.115  13.207  1.00  0.00     0.039 C 
ENDBRANCH   5   9
TORSDOF 1
ENDMDL
MODEL 7
REMARK VINA RESULT:    -4.497      1.806      2.514
REMARK INTER + INTRA:          -4.859
REMARK INTER:                  -4.761
REMARK INTRA:                  -0.098
REMARK UNBOUND:                -0.098
REMARK SMILES C=C(C)[C@H]1CC=C(C)C(=O)C1
REMARK SMILES IDX 8 1 7 2 6 3 5 4 4 5 11 6 9 7 10 8 2 9 1 10 3 11
REMARK H PARENT
REMARK Flexibility Score: inf
ROOT
ATOM      1  C   UNL     1      -1.515   5.434  12.024  1.00  0.00     0.048 C 
ATOM      2  C   UNL     1      -1.193   5.316  13.489  1.00  0.00    -0.012 C 
ATOM      3  C   UNL     1      -0.784   4.142  13.999  1.00  0.00    -0.019 C 
ATOM      4  C   UNL     1      -0.529   3.955  15.471  1.00  0.00     0.036 C 
ATOM      5  C   UNL     1      -0.054   5.267  16.123  1.00  0.00     0.025 C 
ATOM      6  C   UNL     1      -1.059   6.399  15.846  1.00  0.00     0.089 C 
ATOM      7  C   UNL     1      -1.354   6.497  14.374  1.00  0.00     0.158 C 
ATOM      8  O   UNL     1      -1.784   7.585  13.905  1.00  0.00    -0.295 OA
ENDROOT
BRANCH   5   9
ATOM      9  C   UNL     1       0.187   5.091  17.617  1.00  0.00    -0.077 C 
ATOM     10  C   UNL     1       0.298   3.860  18.141  1.00  0.00     0.008 C 
ATOM     11  C   UNL     1       0.309   6.280  18.539  1.00  0.00     0.039 C 
ENDBRANCH   5   9
TORSDOF 1
ENDMDL
MODEL 8
REMARK VINA RESULT:    -4.382      3.357      4.879
REMARK INTER + INTRA:          -4.736
REMARK INTER:                  -4.638
REMARK INTRA:                  -0.098
REMARK UNBOUND:                -0.098
REMARK SMILES C=C(C)[C@H]1CC=C(C)C(=O)C1
REMARK SMILES IDX 8 1 7 2 6 3 5 4 4 5 11 6 9 7 10 8 2 9 1 10 3 11
REMARK H PARENT
REMARK Flexibility Score: inf
ROOT
ATOM      1  C   UNL     1      -0.058   6.245  15.682  1.00  0.00     0.048 C 
ATOM      2  C   UNL     1      -0.000   5.060  16.607  1.00  0.00    -0.012 C 
ATOM      3  C   UNL     1       0.409   5.214  17.878  1.00  0.00    -0.019 C 
ATOM      4  C   UNL     1       0.560   4.046  18.816  1.00  0.00     0.036 C 
ATOM      5  C   UNL     1      -0.442   2.927  18.477  1.00  0.00     0.025 C 
ATOM      6  C   UNL     1      -0.304   2.511  17.001  1.00  0.00     0.089 C 
ATOM      7  C   UNL     1      -0.374   3.715  16.103  1.00  0.00     0.158 C 
ATOM      8  O   UNL     1      -0.710   3.562  14.897  1.00  0.00    -0.295 OA
ENDROOT
BRANCH   5   9
ATOM      9  C   UNL     1      -0.282   1.734  19.409  1.00  0.00    -0.077 C 
ATOM     10  C   UNL     1       0.554   1.805  20.457  1.00  0.00     0.008 C 
ATOM     11  C   UNL     1      -1.050   0.454  19.186  1.00  0.00     0.039 C 
ENDBRANCH   5   9
TORSDOF 1
ENDMDL
MODEL 9
REMARK VINA RESULT:    -4.345     18.688     20.367
REMARK INTER + INTRA:          -4.697
REMARK INTER:                  -4.608
REMARK INTRA:                  -0.090
REMARK UNBOUND:                -0.098
REMARK SMILES C=C(C)[C@H]1CC=C(C)C(=O)C1
REMARK SMILES IDX 8 1 7 2 6 3 5 4 4 5 11 6 9 7 10 8 2 9 1 10 3 11
REMARK H PARENT
REMARK Flexibility Score: inf
ROOT
ATOM      1  C   UNL     1     -14.908  -1.920   5.191  1.00  0.00     0.048 C 
ATOM      2  C   UNL     1     -15.460  -2.960   6.128  1.00  0.00    -0.012 C 
ATOM      3  C   UNL     1     -16.679  -3.483   5.913  1.00  0.00    -0.019 C 
ATOM      4  C   UNL     1     -17.306  -4.465   6.866  1.00  0.00     0.036 C 
ATOM      5  C   UNL     1     -16.234  -5.315   7.574  1.00  0.00     0.025 C 
ATOM      6  C   UNL     1     -15.202  -4.408   8.268  1.00  0.00     0.089 C 
ATOM      7  C   UNL     1     -14.663  -3.386   7.304  1.00  0.00     0.158 C 
ATOM      8  O   UNL     1     -13.541  -2.859   7.533  1.00  0.00    -0.295 OA
ENDROOT
BRANCH   5   9
ATOM      9  C   UNL     1     -16.860  -6.297   8.556  1.00  0.00    -0.077 C 
ATOM     10  C   UNL     1     -16.317  -7.512   8.731  1.00  0.00     0.008 C 
ATOM     11  C   UNL     1     -18.091  -5.937   9.351  1.00  0.00     0.039 C 
ENDBRANCH   5   9
TORSDOF 1
ENDMDL
