MODEL 1
REMARK VINA RESULT:    -5.138      0.000      0.000
REMARK INTER + INTRA:          -6.336
REMARK INTER:                  -6.039
REMARK INTRA:                  -0.298
REMARK UNBOUND:                -0.298
REMARK SMILES O=c1c(O)c(-c2ccc(O)cc2)oc2cc(O)cc(O)c12
REMARK SMILES IDX 5 1 3 2 2 3 1 4 21 5 19 6 18 7 16 8 15 9 14 10 13 11 6 12
REMARK SMILES IDX 7 13 8 14 9 15 12 16 11 17 10 18 4 20 20 22 17 24
REMARK H PARENT 10 19 4 21 20 23 17 25
REMARK Flexibility Score: inf
ROOT
ATOM      1  C   UNL     1     -15.184  15.457  11.464  1.00  0.00     0.180 A 
ATOM      2  C   UNL     1     -16.281  16.142  10.908  1.00  0.00     0.208 A 
ATOM      3  C   UNL     1     -16.367  16.266   9.512  1.00  0.00     0.238 A 
ATOM      4  O   UNL     1     -17.339  16.887   9.003  1.00  0.00    -0.285 OA
ATOM      5  C   UNL     1     -15.371  15.688   8.699  1.00  0.00     0.111 A 
ATOM      6  C   UNL     1     -15.385  15.764   7.286  1.00  0.00     0.134 A 
ATOM      7  C   UNL     1     -14.360  15.155   6.545  1.00  0.00     0.093 A 
ATOM      8  C   UNL     1     -13.326  14.472   7.190  1.00  0.00     0.123 A 
ATOM      9  C   UNL     1     -13.306  14.395   8.586  1.00  0.00     0.094 A 
ATOM     10  C   UNL     1     -14.316  14.996   9.341  1.00  0.00     0.146 A 
ATOM     11  O   UNL     1     -14.271  14.912  10.666  1.00  0.00    -0.452 OA
ENDROOT
BRANCH   1  12
ATOM     12  C   UNL     1     -15.013  15.301  12.927  1.00  0.00     0.021 A 
ATOM     13  C   UNL     1     -15.445  14.119  13.552  1.00  0.00     0.016 A 
ATOM     14  C   UNL     1     -15.273  13.942  14.928  1.00  0.00     0.047 A 
ATOM     15  C   UNL     1     -14.655  14.934  15.693  1.00  0.00     0.115 A 
ATOM     16  C   UNL     1     -14.373  16.288  13.699  1.00  0.00     0.016 A 
ATOM     17  C   UNL     1     -14.203  16.107  15.076  1.00  0.00     0.047 A 
BRANCH  15  18
ATOM     18  O   UNL     1     -14.492  14.744  17.064  1.00  0.00    -0.508 OA
ATOM     19  H   UNL     1     -15.033  14.053  17.570  1.00  0.00     0.293 HD
ENDBRANCH  15  18
ENDBRANCH   1  12
BRANCH   2  20
ATOM     20  O   UNL     1     -17.281  16.662  11.734  1.00  0.00    -0.502 OA
ATOM     21  H   UNL     1     -17.566  17.634  11.694  1.00  0.00     0.293 HD
ENDBRANCH   2  20
BRANCH   6  22
ATOM     22  O   UNL     1     -16.405  16.437   6.613  1.00  0.00    -0.507 OA
ATOM     23  H   UNL     1     -16.338  16.657   5.626  1.00  0.00     0.293 HD
ENDBRANCH   6  22
BRANCH   8  24
ATOM     24  O   UNL     1     -12.321  13.875   6.432  1.00  0.00    -0.508 OA
ATOM     25  H   UNL     1     -12.064  12.904   6.562  1.00  0.00     0.293 HD
ENDBRANCH   8  24
TORSDOF 5
ENDMDL
MODEL 2
REMARK VINA RESULT:    -4.676     11.927     14.773
REMARK INTER + INTRA:          -5.794
REMARK INTER:                  -5.541
REMARK INTRA:                  -0.252
REMARK UNBOUND:                -0.298
REMARK SMILES O=c1c(O)c(-c2ccc(O)cc2)oc2cc(O)cc(O)c12
REMARK SMILES IDX 5 1 3 2 2 3 1 4 21 5 19 6 18 7 16 8 15 9 14 10 13 11 6 12
REMARK SMILES IDX 7 13 8 14 9 15 12 16 11 17 10 18 4 20 20 22 17 24
REMARK H PARENT 10 19 4 21 20 23 17 25
REMARK Flexibility Score: inf
ROOT
ATOM      1  C   UNL     1     -26.313  15.580  18.994  1.00  0.00     0.180 A 
ATOM      2  C   UNL     1     -25.306  14.969  18.223  1.00  0.00     0.208 A 
ATOM      3  C   UNL     1     -23.990  15.451  18.323  1.00  0.00     0.238 A 
ATOM      4  O   UNL     1     -23.081  14.920  17.630  1.00  0.00    -0.285 OA
ATOM      5  C   UNL     1     -23.702  16.515  19.202  1.00  0.00     0.111 A 
ATOM      6  C   UNL     1     -22.405  17.056  19.363  1.00  0.00     0.134 A 
ATOM      7  C   UNL     1     -22.197  18.110  20.266  1.00  0.00     0.093 A 
ATOM      8  C   UNL     1     -23.260  18.632  21.007  1.00  0.00     0.123 A 
ATOM      9  C   UNL     1     -24.544  18.103  20.851  1.00  0.00     0.094 A 
ATOM     10  C   UNL     1     -24.772  17.054  19.956  1.00  0.00     0.146 A 
ATOM     11  O   UNL     1     -26.003  16.572  19.823  1.00  0.00    -0.452 OA
ENDROOT
BRANCH   1  12
ATOM     12  C   UNL     1     -27.727  15.142  18.929  1.00  0.00     0.021 A 
ATOM     13  C   UNL     1     -28.522  15.533  17.839  1.00  0.00     0.016 A 
ATOM     14  C   UNL     1     -29.852  15.113  17.746  1.00  0.00     0.047 A 
ATOM     15  C   UNL     1     -30.400  14.286  18.731  1.00  0.00     0.115 A 
ATOM     16  C   UNL     1     -28.277  14.293  19.907  1.00  0.00     0.016 A 
ATOM     17  C   UNL     1     -29.608  13.875  19.810  1.00  0.00     0.047 A 
BRANCH  15  18
ATOM     18  O   UNL     1     -31.727  13.877  18.626  1.00  0.00    -0.508 OA
ATOM     19  H   UNL     1     -32.091  13.475  17.769  1.00  0.00     0.293 HD
ENDBRANCH  15  18
ENDBRANCH   1  12
BRANCH   2  20
ATOM     20  O   UNL     1     -25.608  13.884  17.397  1.00  0.00    -0.502 OA
ATOM     21  H   UNL     1     -26.075  13.053  17.742  1.00  0.00     0.293 HD
ENDBRANCH   2  20
BRANCH   6  22
ATOM     22  O   UNL     1     -21.323  16.555  18.639  1.00  0.00    -0.507 OA
ATOM     23  H   UNL     1     -21.158  15.560  18.546  1.00  0.00     0.293 HD
ENDBRANCH   6  22
BRANCH   8  24
ATOM     24  O   UNL     1     -23.028  19.679  21.897  1.00  0.00    -0.508 OA
ATOM     25  H   UNL     1     -22.132  20.150  21.939  1.00  0.00     0.293 HD
ENDBRANCH   8  24
TORSDOF 5
ENDMDL
MODEL 3
REMARK VINA RESULT:    -4.549      1.190      3.123
REMARK INTER + INTRA:          -5.644
REMARK INTER:                  -5.357
REMARK INTRA:                  -0.287
REMARK UNBOUND:                -0.298
REMARK SMILES O=c1c(O)c(-c2ccc(O)cc2)oc2cc(O)cc(O)c12
REMARK SMILES IDX 5 1 3 2 2 3 1 4 21 5 19 6 18 7 16 8 15 9 14 10 13 11 6 12
REMARK SMILES IDX 7 13 8 14 9 15 12 16 11 17 10 18 4 20 20 22 17 24
REMARK H PARENT 10 19 4 21 20 23 17 25
REMARK Flexibility Score: inf
ROOT
ATOM      1  C   UNL     1     -14.204  15.053  11.554  1.00  0.00     0.180 A 
ATOM      2  C   UNL     1     -13.032  14.494  11.011  1.00  0.00     0.208 A 
ATOM      3  C   UNL     1     -12.916  14.386   9.615  1.00  0.00     0.238 A 
ATOM      4  O   UNL     1     -11.876  13.877   9.117  1.00  0.00    -0.285 OA
ATOM      5  C   UNL     1     -13.960  14.854   8.791  1.00  0.00     0.111 A 
ATOM      6  C   UNL     1     -13.921  14.785   7.378  1.00  0.00     0.134 A 
ATOM      7  C   UNL     1     -14.997  15.281   6.627  1.00  0.00     0.093 A 
ATOM      8  C   UNL     1     -16.107  15.843   7.260  1.00  0.00     0.123 A 
ATOM      9  C   UNL     1     -16.153  15.913   8.655  1.00  0.00     0.094 A 
ATOM     10  C   UNL     1     -15.092  15.423   9.422  1.00  0.00     0.146 A 
ATOM     11  O   UNL     1     -15.162  15.497  10.746  1.00  0.00    -0.452 OA
ENDROOT
BRANCH   1  12
ATOM     12  C   UNL     1     -14.409  15.183  13.015  1.00  0.00     0.021 A 
ATOM     13  C   UNL     1     -13.943  16.331  13.679  1.00  0.00     0.016 A 
ATOM     14  C   UNL     1     -14.146  16.485  15.054  1.00  0.00     0.047 A 
ATOM     15  C   UNL     1     -14.828  15.505  15.779  1.00  0.00     0.115 A 
ATOM     16  C   UNL     1     -15.113  14.209  13.747  1.00  0.00     0.016 A 
ATOM     17  C   UNL     1     -15.313  14.367  15.122  1.00  0.00     0.047 A 
BRANCH  15  18
ATOM     18  O   UNL     1     -15.020  15.672  17.149  1.00  0.00    -0.508 OA
ATOM     19  H   UNL     1     -15.749  15.172  17.645  1.00  0.00     0.293 HD
ENDBRANCH  15  18
ENDBRANCH   1  12
BRANCH   2  20
ATOM     20  O   UNL     1     -11.991  14.083  11.848  1.00  0.00    -0.502 OA
ATOM     21  H   UNL     1     -11.863  14.460  12.779  1.00  0.00     0.293 HD
ENDBRANCH   2  20
BRANCH   6  22
ATOM     22  O   UNL     1     -12.825  14.231   6.717  1.00  0.00    -0.507 OA
ATOM     23  H   UNL     1     -12.529  14.561   5.805  1.00  0.00     0.293 HD
ENDBRANCH   6  22
BRANCH   8  24
ATOM     24  O   UNL     1     -17.163  16.330   6.491  1.00  0.00    -0.508 OA
ATOM     25  H   UNL     1     -17.003  16.800   5.608  1.00  0.00     0.293 HD
ENDBRANCH   8  24
TORSDOF 5
ENDMDL
MODEL 4
REMARK VINA RESULT:    -4.118      1.994      6.928
REMARK INTER + INTRA:          -5.138
REMARK INTER:                  -4.924
REMARK INTRA:                  -0.214
REMARK UNBOUND:                -0.298
REMARK SMILES O=c1c(O)c(-c2ccc(O)cc2)oc2cc(O)cc(O)c12
REMARK SMILES IDX 5 1 3 2 2 3 1 4 21 5 19 6 18 7 16 8 15 9 14 10 13 11 6 12
REMARK SMILES IDX 7 13 8 14 9 15 12 16 11 17 10 18 4 20 20 22 17 24
REMARK H PARENT 10 19 4 21 20 23 17 25
REMARK Flexibility Score: inf
ROOT
ATOM      1  C   UNL     1     -15.216  14.989   9.128  1.00  0.00     0.180 A 
ATOM      2  C   UNL     1     -13.808  14.990   9.135  1.00  0.00     0.208 A 
ATOM      3  C   UNL     1     -13.137  14.995  10.369  1.00  0.00     0.238 A 
ATOM      4  O   UNL     1     -11.876  15.007  10.389  1.00  0.00    -0.285 OA
ATOM      5  C   UNL     1     -13.880  14.977  11.567  1.00  0.00     0.111 A 
ATOM      6  C   UNL     1     -13.281  14.977  12.849  1.00  0.00     0.134 A 
ATOM      7  C   UNL     1     -14.090  14.950  13.995  1.00  0.00     0.093 A 
ATOM      8  C   UNL     1     -15.482  14.923  13.883  1.00  0.00     0.123 A 
ATOM      9  C   UNL     1     -16.080  14.924  12.620  1.00  0.00     0.094 A 
ATOM     10  C   UNL     1     -15.292  14.952  11.466  1.00  0.00     0.146 A 
ATOM     11  O   UNL     1     -15.884  14.958  10.277  1.00  0.00    -0.452 OA
ENDROOT
BRANCH   1  12
ATOM     12  C   UNL     1     -15.995  15.004   7.869  1.00  0.00     0.021 A 
ATOM     13  C   UNL     1     -16.752  13.875   7.510  1.00  0.00     0.016 A 
ATOM     14  C   UNL     1     -17.513  13.875   6.338  1.00  0.00     0.047 A 
ATOM     15  C   UNL     1     -17.541  15.006   5.517  1.00  0.00     0.115 A 
ATOM     16  C   UNL     1     -16.044  16.147   7.049  1.00  0.00     0.016 A 
ATOM     17  C   UNL     1     -16.806  16.143   5.877  1.00  0.00     0.047 A 
BRANCH  15  18
ATOM     18  O   UNL     1     -18.302  14.991   4.351  1.00  0.00    -0.508 OA
ATOM     19  H   UNL     1     -18.861  14.186   4.093  1.00  0.00     0.293 HD
ENDBRANCH  15  18
ENDBRANCH   1  12
BRANCH   2  20
ATOM     20  O   UNL     1     -13.095  14.957   7.935  1.00  0.00    -0.502 OA
ATOM     21  H   UNL     1     -12.438  14.218   7.714  1.00  0.00     0.293 HD
ENDBRANCH   2  20
BRANCH   6  22
ATOM     22  O   UNL     1     -11.894  15.002  12.994  1.00  0.00    -0.507 OA
ATOM     23  H   UNL     1     -11.452  14.961  13.905  1.00  0.00     0.293 HD
ENDBRANCH   6  22
BRANCH   8  24
ATOM     24  O   UNL     1     -16.263  14.895  15.037  1.00  0.00    -0.508 OA
ATOM     25  H   UNL     1     -15.990  15.395  15.875  1.00  0.00     0.293 HD
ENDBRANCH   8  24
TORSDOF 5
ENDMDL
MODEL 5
REMARK VINA RESULT:    -3.520      2.633      5.054
REMARK INTER + INTRA:          -4.435
REMARK INTER:                  -4.274
REMARK INTRA:                  -0.162
REMARK UNBOUND:                -0.298
REMARK SMILES O=c1c(O)c(-c2ccc(O)cc2)oc2cc(O)cc(O)c12
REMARK SMILES IDX 5 1 3 2 2 3 1 4 21 5 19 6 18 7 16 8 15 9 14 10 13 11 6 12
REMARK SMILES IDX 7 13 8 14 9 15 12 16 11 17 10 18 4 20 20 22 17 24
REMARK H PARENT 10 19 4 21 20 23 17 25
REMARK Flexibility Score: inf
ROOT
ATOM      1  C   UNL     1     -13.960  14.987  15.289  1.00  0.00     0.180 A 
ATOM      2  C   UNL     1     -13.090  14.452  14.320  1.00  0.00     0.208 A 
ATOM      3  C   UNL     1     -13.451  14.535  12.965  1.00  0.00     0.238 A 
ATOM      4  O   UNL     1     -12.686  14.049  12.088  1.00  0.00    -0.285 OA
ATOM      5  C   UNL     1     -14.658  15.166  12.603  1.00  0.00     0.111 A 
ATOM      6  C   UNL     1     -15.093  15.295  11.262  1.00  0.00     0.134 A 
ATOM      7  C   UNL     1     -16.304  15.945  10.982  1.00  0.00     0.093 A 
ATOM      8  C   UNL     1     -17.086  16.469  12.014  1.00  0.00     0.123 A 
ATOM      9  C   UNL     1     -16.663  16.343  13.341  1.00  0.00     0.094 A 
ATOM     10  C   UNL     1     -15.461  15.698  13.641  1.00  0.00     0.146 A 
ATOM     11  O   UNL     1     -15.084  15.588  14.910  1.00  0.00    -0.452 OA
ENDROOT
BRANCH   1  12
ATOM     12  C   UNL     1     -13.659  14.921  16.737  1.00  0.00     0.021 A 
ATOM     13  C   UNL     1     -14.419  14.075  17.564  1.00  0.00     0.016 A 
ATOM     14  C   UNL     1     -14.139  13.980  18.930  1.00  0.00     0.047 A 
ATOM     15  C   UNL     1     -13.087  14.714  19.485  1.00  0.00     0.115 A 
ATOM     16  C   UNL     1     -12.589  15.642  17.298  1.00  0.00     0.016 A 
ATOM     17  C   UNL     1     -12.311  15.544  18.666  1.00  0.00     0.047 A 
BRANCH  15  18
ATOM     18  O   UNL     1     -12.820  14.611  20.848  1.00  0.00    -0.508 OA
ATOM     19  H   UNL     1     -12.799  15.428  21.447  1.00  0.00     0.293 HD
ENDBRANCH  15  18
ENDBRANCH   1  12
BRANCH   2  20
ATOM     20  O   UNL     1     -11.876  13.875  14.701  1.00  0.00    -0.502 OA
ATOM     21  H   UNL     1     -11.106  13.753  14.054  1.00  0.00     0.293 HD
ENDBRANCH   2  20
BRANCH   6  22
ATOM     22  O   UNL     1     -14.334  14.785  10.209  1.00  0.00    -0.507 OA
ATOM     23  H   UNL     1     -13.877  13.881  10.269  1.00  0.00     0.293 HD
ENDBRANCH   6  22
BRANCH   8  24
ATOM     24  O   UNL     1     -18.285  17.111  11.710  1.00  0.00    -0.508 OA
ATOM     25  H   UNL     1     -19.180  16.654  11.841  1.00  0.00     0.293 HD
ENDBRANCH   8  24
TORSDOF 5
ENDMDL
MODEL 6
REMARK VINA RESULT:    -2.171      3.320      6.378
REMARK INTER + INTRA:          -2.850
REMARK INTER:                  -2.734
REMARK INTRA:                  -0.116
REMARK UNBOUND:                -0.298
REMARK SMILES O=c1c(O)c(-c2ccc(O)cc2)oc2cc(O)cc(O)c12
REMARK SMILES IDX 5 1 3 2 2 3 1 4 21 5 19 6 18 7 16 8 15 9 14 10 13 11 6 12
REMARK SMILES IDX 7 13 8 14 9 15 12 16 11 17 10 18 4 20 20 22 17 24
REMARK H PARENT 10 19 4 21 20 23 17 25
REMARK Flexibility Score: inf
ROOT
ATOM      1  C   UNL     1     -13.943  15.286  16.971  1.00  0.00     0.180 A 
ATOM      2  C   UNL     1     -12.925  14.586  16.297  1.00  0.00     0.208 A 
ATOM      3  C   UNL     1     -12.967  14.511  14.895  1.00  0.00     0.238 A 
ATOM      4  O   UNL     1     -12.068  13.877  14.280  1.00  0.00    -0.285 OA
ATOM      5  C   UNL     1     -14.009  15.152  14.194  1.00  0.00     0.111 A 
ATOM      6  C   UNL     1     -14.123  15.128  12.783  1.00  0.00     0.134 A 
ATOM      7  C   UNL     1     -15.185  15.798  12.158  1.00  0.00     0.093 A 
ATOM      8  C   UNL     1     -16.133  16.491  12.915  1.00  0.00     0.123 A 
ATOM      9  C   UNL     1     -16.027  16.517  14.309  1.00  0.00     0.094 A 
ATOM     10  C   UNL     1     -14.977  15.854  14.951  1.00  0.00     0.146 A 
ATOM     11  O   UNL     1     -14.903  15.891  16.276  1.00  0.00    -0.452 OA
ENDROOT
BRANCH   1  12
ATOM     12  C   UNL     1     -13.979  15.393  18.447  1.00  0.00     0.021 A 
ATOM     13  C   UNL     1     -12.961  16.094  19.115  1.00  0.00     0.016 A 
ATOM     14  C   UNL     1     -12.986  16.227  20.506  1.00  0.00     0.047 A 
ATOM     15  C   UNL     1     -14.035  15.674  21.247  1.00  0.00     0.115 A 
ATOM     16  C   UNL     1     -15.043  14.857  19.196  1.00  0.00     0.016 A 
ATOM     17  C   UNL     1     -15.066  14.991  20.588  1.00  0.00     0.047 A 
BRANCH  15  18
ATOM     18  O   UNL     1     -14.047  15.813  22.633  1.00  0.00    -0.508 OA
ATOM     19  H   UNL     1     -13.589  15.140  23.236  1.00  0.00     0.293 HD
ENDBRANCH  15  18
ENDBRANCH   1  12
BRANCH   2  20
ATOM     20  O   UNL     1     -11.876  14.001  17.011  1.00  0.00    -0.502 OA
ATOM     21  H   UNL     1     -11.245  14.543  17.589  1.00  0.00     0.293 HD
ENDBRANCH   2  20
BRANCH   6  22
ATOM     22  O   UNL     1     -13.191  14.447  12.000  1.00  0.00    -0.507 OA
ATOM     23  H   UNL     1     -13.475  13.844  11.236  1.00  0.00     0.293 HD
ENDBRANCH   6  22
BRANCH   8  24
ATOM     24  O   UNL     1     -17.178  17.150  12.271  1.00  0.00    -0.508 OA
ATOM     25  H   UNL     1     -17.349  18.138  12.412  1.00  0.00     0.293 HD
ENDBRANCH   8  24
TORSDOF 5
ENDMDL
