MODEL 1
REMARK VINA RESULT:    -3.683      0.000      0.000
REMARK INTER + INTRA:          -4.499
REMARK INTER:                  -4.329
REMARK INTRA:                  -0.170
REMARK UNBOUND:                -0.170
REMARK SMILES O=C([O-])CCC(=O)[O-]
REMARK SMILES IDX 4 1 2 2 1 3 3 4 5 5 6 6 7 7 8 8
REMARK H PARENT
REMARK Flexibility Score: inf
ROOT
ATOM      1  C   UNL     1     -16.904  61.393   0.711  1.00  0.00     0.059 C 
ENDROOT
BRANCH   1   2
ATOM      2  C   UNL     1     -17.349  61.838   2.070  1.00  0.00     0.042 C 
ATOM      3  O   UNL     1     -16.505  62.257   2.906  1.00  0.00    -0.550 OA
ATOM      4  O   UNL     1     -18.698  61.829   2.399  1.00  0.00    -0.550 OA
ENDBRANCH   1   2
BRANCH   1   5
ATOM      5  C   UNL     1     -16.448  62.576  -0.150  1.00  0.00     0.059 C 
BRANCH   5   6
ATOM      6  C   UNL     1     -17.605  63.427  -0.574  1.00  0.00     0.042 C 
ATOM      7  O   UNL     1     -17.544  64.680  -0.465  1.00  0.00    -0.550 OA
ATOM      8  O   UNL     1     -18.767  62.834  -1.053  1.00  0.00    -0.550 OA
ENDBRANCH   5   6
ENDBRANCH   1   5
TORSDOF 3
ENDMDL
MODEL 2
REMARK VINA RESULT:    -3.661      0.087      3.431
REMARK INTER + INTRA:          -4.473
REMARK INTER:                  -4.312
REMARK INTRA:                  -0.160
REMARK UNBOUND:                -0.170
REMARK SMILES O=C([O-])CCC(=O)[O-]
REMARK SMILES IDX 4 1 2 2 1 3 3 4 5 5 6 6 7 7 8 8
REMARK H PARENT
REMARK Flexibility Score: inf
ROOT
ATOM      1  C   UNL     1     -16.484  62.599  -0.172  1.00  0.00     0.059 C 
ENDROOT
BRANCH   1   2
ATOM      2  C   UNL     1     -17.642  63.465  -0.563  1.00  0.00     0.042 C 
ATOM      3  O   UNL     1     -18.696  62.945  -1.016  1.00  0.00    -0.550 OA
ATOM      4  O   UNL     1     -17.574  64.842  -0.390  1.00  0.00    -0.550 OA
ENDBRANCH   1   2
BRANCH   1   5
ATOM      5  C   UNL     1     -16.931  61.412   0.688  1.00  0.00     0.059 C 
BRANCH   5   6
ATOM      6  C   UNL     1     -17.351  61.851   2.058  1.00  0.00     0.042 C 
ATOM      7  O   UNL     1     -16.488  62.224   2.895  1.00  0.00    -0.550 OA
ATOM      8  O   UNL     1     -18.691  61.811   2.421  1.00  0.00    -0.550 OA
ENDBRANCH   5   6
ENDBRANCH   1   5
TORSDOF 3
ENDMDL
MODEL 3
REMARK VINA RESULT:    -3.529      1.988      2.500
REMARK INTER + INTRA:          -4.318
REMARK INTER:                  -4.289
REMARK INTRA:                  -0.029
REMARK UNBOUND:                -0.170
REMARK SMILES O=C([O-])CCC(=O)[O-]
REMARK SMILES IDX 4 1 2 2 1 3 3 4 5 5 6 6 7 7 8 8
REMARK H PARENT
REMARK Flexibility Score: inf
ROOT
ATOM      1  C   UNL     1     -17.409  63.337  -0.373  1.00  0.00     0.059 C 
ENDROOT
BRANCH   1   2
ATOM      2  C   UNL     1     -16.498  62.313   0.231  1.00  0.00     0.042 C 
ATOM      3  O   UNL     1     -15.601  61.773  -0.469  1.00  0.00    -0.550 OA
ATOM      4  O   UNL     1     -16.612  61.985   1.576  1.00  0.00    -0.550 OA
ENDBRANCH   1   2
BRANCH   1   5
ATOM      5  C   UNL     1     -18.685  62.699  -0.932  1.00  0.00     0.059 C 
BRANCH   5   6
ATOM      6  C   UNL     1     -19.869  63.604  -0.773  1.00  0.00     0.042 C 
ATOM      7  O   UNL     1     -19.867  64.747  -1.301  1.00  0.00    -0.550 OA
ATOM      8  O   UNL     1     -20.957  63.200  -0.010  1.00  0.00    -0.550 OA
ENDBRANCH   5   6
ENDBRANCH   1   5
TORSDOF 3
ENDMDL
MODEL 4
REMARK VINA RESULT:    -3.529      1.994      3.581
REMARK INTER + INTRA:          -4.318
REMARK INTER:                  -4.289
REMARK INTRA:                  -0.029
REMARK UNBOUND:                -0.170
REMARK SMILES O=C([O-])CCC(=O)[O-]
REMARK SMILES IDX 4 1 2 2 1 3 3 4 5 5 6 6 7 7 8 8
REMARK H PARENT
REMARK Flexibility Score: inf
ROOT
ATOM      1  C   UNL     1     -18.699  62.698  -0.934  1.00  0.00     0.059 C 
ENDROOT
BRANCH   1   2
ATOM      2  C   UNL     1     -19.886  63.597  -0.772  1.00  0.00     0.042 C 
ATOM      3  O   UNL     1     -19.900  64.731  -1.322  1.00  0.00    -0.550 OA
ATOM      4  O   UNL     1     -20.993  63.169  -0.050  1.00  0.00    -0.550 OA
ENDBRANCH   1   2
BRANCH   1   5
ATOM      5  C   UNL     1     -17.420  63.348  -0.396  1.00  0.00     0.059 C 
BRANCH   5   6
ATOM      6  C   UNL     1     -16.472  62.326   0.154  1.00  0.00     0.042 C 
ATOM      7  O   UNL     1     -15.603  61.802  -0.591  1.00  0.00    -0.550 OA
ATOM      8  O   UNL     1     -16.574  61.924   1.480  1.00  0.00    -0.550 OA
ENDBRANCH   5   6
ENDBRANCH   1   5
TORSDOF 3
ENDMDL
MODEL 5
REMARK VINA RESULT:    -3.509      1.453      2.053
REMARK INTER + INTRA:          -4.294
REMARK INTER:                  -4.173
REMARK INTRA:                  -0.121
REMARK UNBOUND:                -0.170
REMARK SMILES O=C([O-])CCC(=O)[O-]
REMARK SMILES IDX 4 1 2 2 1 3 3 4 5 5 6 6 7 7 8 8
REMARK H PARENT
REMARK Flexibility Score: inf
ROOT
ATOM      1  C   UNL     1     -17.812  63.298   1.357  1.00  0.00     0.059 C 
ENDROOT
BRANCH   1   2
ATOM      2  C   UNL     1     -16.924  62.140   1.694  1.00  0.00     0.042 C 
ATOM      3  O   UNL     1     -16.519  61.368   0.784  1.00  0.00    -0.550 OA
ATOM      4  O   UNL     1     -16.510  61.936   3.004  1.00  0.00    -0.550 OA
ENDBRANCH   1   2
BRANCH   1   5
ATOM      5  C   UNL     1     -17.705  63.681  -0.123  1.00  0.00     0.059 C 
BRANCH   5   6
ATOM      6  C   UNL     1     -18.971  63.373  -0.864  1.00  0.00     0.042 C 
ATOM      7  O   UNL     1     -19.216  62.196  -1.237  1.00  0.00    -0.550 OA
ATOM      8  O   UNL     1     -19.860  64.394  -1.177  1.00  0.00    -0.550 OA
ENDBRANCH   5   6
ENDBRANCH   1   5
TORSDOF 3
ENDMDL
MODEL 6
REMARK VINA RESULT:    -3.504      1.464      3.653
REMARK INTER + INTRA:          -4.288
REMARK INTER:                  -4.168
REMARK INTRA:                  -0.120
REMARK UNBOUND:                -0.170
REMARK SMILES O=C([O-])CCC(=O)[O-]
REMARK SMILES IDX 4 1 2 2 1 3 3 4 5 5 6 6 7 7 8 8
REMARK H PARENT
REMARK Flexibility Score: inf
ROOT
ATOM      1  C   UNL     1     -17.719  63.692  -0.212  1.00  0.00     0.059 C 
ENDROOT
BRANCH   1   2
ATOM      2  C   UNL     1     -19.016  63.377  -0.890  1.00  0.00     0.042 C 
ATOM      3  O   UNL     1     -19.288  62.190  -1.215  1.00  0.00    -0.550 OA
ATOM      4  O   UNL     1     -19.943  64.384  -1.127  1.00  0.00    -0.550 OA
ENDBRANCH   1   2
BRANCH   1   5
ATOM      5  C   UNL     1     -17.745  63.299   1.269  1.00  0.00     0.059 C 
BRANCH   5   6
ATOM      6  C   UNL     1     -16.839  62.139   1.547  1.00  0.00     0.042 C 
ATOM      7  O   UNL     1     -16.541  61.837   2.733  1.00  0.00    -0.550 OA
ATOM      8  O   UNL     1     -16.292  61.415   0.495  1.00  0.00    -0.550 OA
ENDBRANCH   5   6
ENDBRANCH   1   5
TORSDOF 3
ENDMDL
MODEL 7
REMARK VINA RESULT:    -3.470      2.199      2.769
REMARK INTER + INTRA:          -4.248
REMARK INTER:                  -4.145
REMARK INTRA:                  -0.103
REMARK UNBOUND:                -0.170
REMARK SMILES O=C([O-])CCC(=O)[O-]
REMARK SMILES IDX 4 1 2 2 1 3 3 4 5 5 6 6 7 7 8 8
REMARK H PARENT
REMARK Flexibility Score: inf
ROOT
ATOM      1  C   UNL     1     -18.798  64.884   1.677  1.00  0.00     0.059 C 
ENDROOT
BRANCH   1   2
ATOM      2  C   UNL     1     -17.988  64.480   2.871  1.00  0.00     0.042 C 
ATOM      3  O   UNL     1     -17.635  63.280   3.018  1.00  0.00    -0.550 OA
ATOM      4  O   UNL     1     -17.589  65.434   3.798  1.00  0.00    -0.550 OA
ENDBRANCH   1   2
BRANCH   1   5
ATOM      5  C   UNL     1     -17.914  65.118   0.447  1.00  0.00     0.059 C 
BRANCH   5   6
ATOM      6  C   UNL     1     -17.781  63.875  -0.379  1.00  0.00     0.042 C 
ATOM      7  O   UNL     1     -18.788  63.388  -0.957  1.00  0.00    -0.550 OA
ATOM      8  O   UNL     1     -16.552  63.235  -0.480  1.00  0.00    -0.550 OA
ENDBRANCH   5   6
ENDBRANCH   1   5
TORSDOF 3
ENDMDL
MODEL 8
REMARK VINA RESULT:    -3.439      2.039      2.942
REMARK INTER + INTRA:          -4.212
REMARK INTER:                  -4.119
REMARK INTRA:                  -0.093
REMARK UNBOUND:                -0.170
REMARK SMILES O=C([O-])CCC(=O)[O-]
REMARK SMILES IDX 4 1 2 2 1 3 3 4 5 5 6 6 7 7 8 8
REMARK H PARENT
REMARK Flexibility Score: inf
ROOT
ATOM      1  C   UNL     1     -17.571  64.214  -0.290  1.00  0.00     0.059 C 
ENDROOT
BRANCH   1   2
ATOM      2  C   UNL     1     -18.423  64.451   0.919  1.00  0.00     0.042 C 
ATOM      3  O   UNL     1     -18.063  65.286   1.791  1.00  0.00    -0.550 OA
ATOM      4  O   UNL     1     -19.632  63.783   1.062  1.00  0.00    -0.550 OA
ENDBRANCH   1   2
BRANCH   1   5
ATOM      5  C   UNL     1     -17.480  62.723  -0.633  1.00  0.00     0.059 C 
BRANCH   5   6
ATOM      6  C   UNL     1     -16.349  62.059   0.092  1.00  0.00     0.042 C 
ATOM      7  O   UNL     1     -15.270  61.812  -0.508  1.00  0.00    -0.550 OA
ATOM      8  O   UNL     1     -16.501  61.679   1.420  1.00  0.00    -0.550 OA
ENDBRANCH   5   6
ENDBRANCH   1   5
TORSDOF 3
ENDMDL
MODEL 9
REMARK VINA RESULT:    -3.427      1.920      2.537
REMARK INTER + INTRA:          -4.197
REMARK INTER:                  -4.160
REMARK INTRA:                  -0.038
REMARK UNBOUND:                -0.170
REMARK SMILES O=C([O-])CCC(=O)[O-]
REMARK SMILES IDX 4 1 2 2 1 3 3 4 5 5 6 6 7 7 8 8
REMARK H PARENT
REMARK Flexibility Score: inf
ROOT
ATOM      1  C   UNL     1     -17.518  62.808   2.819  1.00  0.00     0.059 C 
ENDROOT
BRANCH   1   2
ATOM      2  C   UNL     1     -16.860  62.606   4.150  1.00  0.00     0.042 C 
ATOM      3  O   UNL     1     -16.858  61.467   4.688  1.00  0.00    -0.550 OA
ATOM      4  O   UNL     1     -16.214  63.664   4.776  1.00  0.00    -0.550 OA
ENDBRANCH   1   2
BRANCH   1   5
ATOM      5  C   UNL     1     -17.030  61.786   1.787  1.00  0.00     0.059 C 
BRANCH   5   6
ATOM      6  C   UNL     1     -16.661  62.444   0.492  1.00  0.00     0.042 C 
ATOM      7  O   UNL     1     -17.242  63.501   0.130  1.00  0.00    -0.550 OA
ATOM      8  O   UNL     1     -15.703  61.868  -0.333  1.00  0.00    -0.550 OA
ENDBRANCH   5   6
ENDBRANCH   1   5
TORSDOF 3
ENDMDL
