MODEL 1
REMARK VINA RESULT:    -3.134      0.000      0.000
REMARK INTER + INTRA:          -4.259
REMARK INTER:                  -4.050
REMARK INTRA:                  -0.209
REMARK UNBOUND:                -0.209
REMARK SMILES CCCCCCC(=O)[O-]
REMARK SMILES IDX 5 1 6 2 7 3 8 4 9 5 4 6 3 7 2 8 1 9
REMARK H PARENT
REMARK Flexibility Score: inf
ROOT
ATOM      1  C   UNL     1      58.336  29.103  50.935  1.00  0.00     0.006 C 
ENDROOT
BRANCH   1   2
ATOM      2  C   UNL     1      59.037  28.727  49.620  1.00  0.00     0.053 C 
BRANCH   2   3
ATOM      3  C   UNL     1      59.908  27.518  49.777  1.00  0.00     0.041 C 
ATOM      4  O   UNL     1      61.161  27.636  49.782  1.00  0.00    -0.550 OA
ATOM      5  O   UNL     1      59.335  26.256  49.882  1.00  0.00    -0.550 OA
ENDBRANCH   2   3
ENDBRANCH   1   2
BRANCH   1   6
ATOM      6  C   UNL     1      56.797  29.004  50.887  1.00  0.00     0.000 C 
BRANCH   6   7
ATOM      7  C   UNL     1      56.232  27.570  50.915  1.00  0.00    -0.000 C 
BRANCH   7   8
ATOM      8  C   UNL     1      54.795  27.427  50.383  1.00  0.00    -0.003 C 
ATOM      9  C   UNL     1      53.998  28.729  50.466  1.00  0.00     0.004 C 
ENDBRANCH   7   8
ENDBRANCH   6   7
ENDBRANCH   1   6
TORSDOF 5
ENDMDL
MODEL 2
REMARK VINA RESULT:    -3.085      2.178      4.305
REMARK INTER + INTRA:          -4.196
REMARK INTER:                  -3.950
REMARK INTRA:                  -0.246
REMARK UNBOUND:                -0.209
REMARK SMILES CCCCCCC(=O)[O-]
REMARK SMILES IDX 5 1 6 2 7 3 8 4 9 5 4 6 3 7 2 8 1 9
REMARK H PARENT
REMARK Flexibility Score: inf
ROOT
ATOM      1  C   UNL     1      57.109  28.174  51.330  1.00  0.00     0.006 C 
ENDROOT
BRANCH   1   2
ATOM      2  C   UNL     1      55.781  27.700  50.718  1.00  0.00     0.053 C 
BRANCH   2   3
ATOM      3  C   UNL     1      55.787  26.228  50.441  1.00  0.00     0.041 C 
ATOM      4  O   UNL     1      56.667  25.490  50.956  1.00  0.00    -0.550 OA
ATOM      5  O   UNL     1      54.840  25.676  49.586  1.00  0.00    -0.550 OA
ENDBRANCH   2   3
ENDBRANCH   1   2
BRANCH   1   6
ATOM      6  C   UNL     1      57.731  29.400  50.630  1.00  0.00     0.000 C 
BRANCH   6   7
ATOM      7  C   UNL     1      59.021  29.115  49.834  1.00  0.00    -0.000 C 
BRANCH   7   8
ATOM      8  C   UNL     1      59.487  27.649  49.856  1.00  0.00    -0.003 C 
ATOM      9  C   UNL     1      61.003  27.508  49.980  1.00  0.00     0.004 C 
ENDBRANCH   7   8
ENDBRANCH   6   7
ENDBRANCH   1   6
TORSDOF 5
ENDMDL
MODEL 3
REMARK VINA RESULT:    -3.070      2.331      4.337
REMARK INTER + INTRA:          -4.177
REMARK INTER:                  -3.931
REMARK INTRA:                  -0.246
REMARK UNBOUND:                -0.209
REMARK SMILES CCCCCCC(=O)[O-]
REMARK SMILES IDX 5 1 6 2 7 3 8 4 9 5 4 6 3 7 2 8 1 9
REMARK H PARENT
REMARK Flexibility Score: inf
ROOT
ATOM      1  C   UNL     1      55.221  28.250  51.314  1.00  0.00     0.006 C 
ENDROOT
BRANCH   1   2
ATOM      2  C   UNL     1      54.339  27.505  50.299  1.00  0.00     0.053 C 
BRANCH   2   3
ATOM      3  C   UNL     1      54.847  26.123  50.025  1.00  0.00     0.041 C 
ATOM      4  O   UNL     1      56.027  25.809  50.333  1.00  0.00    -0.550 OA
ATOM      5  O   UNL     1      54.028  25.191  49.399  1.00  0.00    -0.550 OA
ENDBRANCH   2   3
ENDBRANCH   1   2
BRANCH   1   6
ATOM      6  C   UNL     1      55.584  29.693  50.905  1.00  0.00     0.000 C 
BRANCH   6   7
ATOM      7  C   UNL     1      57.093  30.009  50.886  1.00  0.00    -0.000 C 
BRANCH   7   8
ATOM      8  C   UNL     1      58.012  28.779  50.779  1.00  0.00    -0.003 C 
ATOM      9  C   UNL     1      59.090  28.934  49.708  1.00  0.00     0.004 C 
ENDBRANCH   7   8
ENDBRANCH   6   7
ENDBRANCH   1   6
TORSDOF 5
ENDMDL
MODEL 4
REMARK VINA RESULT:    -3.068      1.232      2.025
REMARK INTER + INTRA:          -4.174
REMARK INTER:                  -4.031
REMARK INTRA:                  -0.143
REMARK UNBOUND:                -0.209
REMARK SMILES CCCCCCC(=O)[O-]
REMARK SMILES IDX 5 1 6 2 7 3 8 4 9 5 4 6 3 7 2 8 1 9
REMARK H PARENT
REMARK Flexibility Score: inf
ROOT
ATOM      1  C   UNL     1      57.045  27.814  50.797  1.00  0.00     0.006 C 
ENDROOT
BRANCH   1   2
ATOM      2  C   UNL     1      58.183  28.778  50.427  1.00  0.00     0.053 C 
BRANCH   2   3
ATOM      3  C   UNL     1      59.464  28.052  50.151  1.00  0.00     0.041 C 
ATOM      4  O   UNL     1      59.441  26.866  49.727  1.00  0.00    -0.550 OA
ATOM      5  O   UNL     1      60.683  28.673  50.393  1.00  0.00    -0.550 OA
ENDBRANCH   2   3
ENDBRANCH   1   2
BRANCH   1   6
ATOM      6  C   UNL     1      55.642  28.457  50.806  1.00  0.00     0.000 C 
BRANCH   6   7
ATOM      7  C   UNL     1      54.493  27.527  50.366  1.00  0.00    -0.000 C 
BRANCH   7   8
ATOM      8  C   UNL     1      54.914  26.085  50.039  1.00  0.00    -0.003 C 
ATOM      9  C   UNL     1      53.765  25.238  49.494  1.00  0.00     0.004 C 
ENDBRANCH   7   8
ENDBRANCH   6   7
ENDBRANCH   1   6
TORSDOF 5
ENDMDL
MODEL 5
REMARK VINA RESULT:    -3.038      1.941      4.226
REMARK INTER + INTRA:          -4.134
REMARK INTER:                  -3.818
REMARK INTRA:                  -0.317
REMARK UNBOUND:                -0.209
REMARK SMILES CCCCCCC(=O)[O-]
REMARK SMILES IDX 5 1 6 2 7 3 8 4 9 5 4 6 3 7 2 8 1 9
REMARK H PARENT
REMARK Flexibility Score: inf
ROOT
ATOM      1  C   UNL     1      56.083  28.374  51.599  1.00  0.00     0.006 C 
ENDROOT
BRANCH   1   2
ATOM      2  C   UNL     1      55.164  27.699  50.568  1.00  0.00     0.053 C 
BRANCH   2   3
ATOM      3  C   UNL     1      55.581  26.288  50.286  1.00  0.00     0.041 C 
ATOM      4  O   UNL     1      54.780  25.491  49.729  1.00  0.00    -0.550 OA
ATOM      5  O   UNL     1      56.840  25.843  50.669  1.00  0.00    -0.550 OA
ENDBRANCH   2   3
ENDBRANCH   1   2
BRANCH   1   6
ATOM      6  C   UNL     1      56.914  29.547  51.041  1.00  0.00     0.000 C 
BRANCH   6   7
ATOM      7  C   UNL     1      58.433  29.295  50.962  1.00  0.00    -0.000 C 
BRANCH   7   8
ATOM      8  C   UNL     1      58.931  28.739  49.617  1.00  0.00    -0.003 C 
ATOM      9  C   UNL     1      59.971  27.631  49.778  1.00  0.00     0.004 C 
ENDBRANCH   7   8
ENDBRANCH   6   7
ENDBRANCH   1   6
TORSDOF 5
ENDMDL
MODEL 6
REMARK VINA RESULT:    -2.939      1.515      2.020
REMARK INTER + INTRA:          -4.007
REMARK INTER:                  -3.845
REMARK INTRA:                  -0.162
REMARK UNBOUND:                -0.209
REMARK SMILES CCCCCCC(=O)[O-]
REMARK SMILES IDX 5 1 6 2 7 3 8 4 9 5 4 6 3 7 2 8 1 9
REMARK H PARENT
REMARK Flexibility Score: inf
ROOT
ATOM      1  C   UNL     1      57.397  25.940  50.653  1.00  0.00     0.006 C 
ENDROOT
BRANCH   1   2
ATOM      2  C   UNL     1      58.104  27.223  51.117  1.00  0.00     0.053 C 
BRANCH   2   3
ATOM      3  C   UNL     1      59.102  27.708  50.110  1.00  0.00     0.041 C 
ATOM      4  O   UNL     1      58.923  28.804  49.518  1.00  0.00    -0.550 OA
ATOM      5  O   UNL     1      60.214  26.933  49.802  1.00  0.00    -0.550 OA
ENDBRANCH   2   3
ENDBRANCH   1   2
BRANCH   1   6
ATOM      6  C   UNL     1      55.904  26.124  50.311  1.00  0.00     0.000 C 
BRANCH   6   7
ATOM      7  C   UNL     1      55.342  27.537  50.570  1.00  0.00    -0.000 C 
BRANCH   7   8
ATOM      8  C   UNL     1      53.851  27.714  50.234  1.00  0.00    -0.003 C 
ATOM      9  C   UNL     1      53.378  29.161  50.370  1.00  0.00     0.004 C 
ENDBRANCH   7   8
ENDBRANCH   6   7
ENDBRANCH   1   6
TORSDOF 5
ENDMDL
MODEL 7
REMARK VINA RESULT:    -2.903      2.665      4.625
REMARK INTER + INTRA:          -3.960
REMARK INTER:                  -3.617
REMARK INTRA:                  -0.343
REMARK UNBOUND:                -0.209
REMARK SMILES CCCCCCC(=O)[O-]
REMARK SMILES IDX 5 1 6 2 7 3 8 4 9 5 4 6 3 7 2 8 1 9
REMARK H PARENT
REMARK Flexibility Score: inf
ROOT
ATOM      1  C   UNL     1      56.840  25.845  51.238  1.00  0.00     0.006 C 
ENDROOT
BRANCH   1   2
ATOM      2  C   UNL     1      55.680  26.336  50.358  1.00  0.00     0.053 C 
BRANCH   2   3
ATOM      3  C   UNL     1      55.257  27.728  50.715  1.00  0.00     0.041 C 
ATOM      4  O   UNL     1      54.262  28.252  50.149  1.00  0.00    -0.550 OA
ATOM      5  O   UNL     1      55.982  28.459  51.649  1.00  0.00    -0.550 OA
ENDBRANCH   2   3
ENDBRANCH   1   2
BRANCH   1   6
ATOM      6  C   UNL     1      58.195  25.740  50.507  1.00  0.00     0.000 C 
BRANCH   6   7
ATOM      7  C   UNL     1      59.242  26.797  50.915  1.00  0.00    -0.000 C 
BRANCH   7   8
ATOM      8  C   UNL     1      59.709  27.721  49.777  1.00  0.00    -0.003 C 
ATOM      9  C   UNL     1      58.949  29.046  49.737  1.00  0.00     0.004 C 
ENDBRANCH   7   8
ENDBRANCH   6   7
ENDBRANCH   1   6
TORSDOF 5
ENDMDL
MODEL 8
REMARK VINA RESULT:    -2.802      9.970     11.115
REMARK INTER + INTRA:          -3.829
REMARK INTER:                  -3.609
REMARK INTRA:                  -0.220
REMARK UNBOUND:                -0.209
REMARK SMILES CCCCCCC(=O)[O-]
REMARK SMILES IDX 5 1 6 2 7 3 8 4 9 5 4 6 3 7 2 8 1 9
REMARK H PARENT
REMARK Flexibility Score: inf
ROOT
ATOM      1  C   UNL     1      58.239  18.391  51.805  1.00  0.00     0.006 C 
ENDROOT
BRANCH   1   2
ATOM      2  C   UNL     1      57.057  18.636  52.755  1.00  0.00     0.053 C 
BRANCH   2   3
ATOM      3  C   UNL     1      55.793  18.938  52.010  1.00  0.00     0.041 C 
ATOM      4  O   UNL     1      55.747  18.802  50.759  1.00  0.00    -0.550 OA
ATOM      5  O   UNL     1      54.675  19.402  52.693  1.00  0.00    -0.550 OA
ENDBRANCH   2   3
ENDBRANCH   1   2
BRANCH   1   6
ATOM      6  C   UNL     1      58.811  16.959  51.855  1.00  0.00     0.000 C 
BRANCH   6   7
ATOM      7  C   UNL     1      59.157  16.343  50.484  1.00  0.00    -0.000 C 
BRANCH   7   8
ATOM      8  C   UNL     1      58.172  16.683  49.353  1.00  0.00    -0.003 C 
ATOM      9  C   UNL     1      58.555  16.045  48.018  1.00  0.00     0.004 C 
ENDBRANCH   7   8
ENDBRANCH   6   7
ENDBRANCH   1   6
TORSDOF 5
ENDMDL
MODEL 9
REMARK VINA RESULT:    -2.736      1.412      2.092
REMARK INTER + INTRA:          -3.745
REMARK INTER:                  -3.473
REMARK INTRA:                  -0.271
REMARK UNBOUND:                -0.209
REMARK SMILES CCCCCCC(=O)[O-]
REMARK SMILES IDX 5 1 6 2 7 3 8 4 9 5 4 6 3 7 2 8 1 9
REMARK H PARENT
REMARK Flexibility Score: inf
ROOT
ATOM      1  C   UNL     1      60.042  28.547  50.376  1.00  0.00     0.006 C 
ENDROOT
BRANCH   1   2
ATOM      2  C   UNL     1      60.251  27.067  50.019  1.00  0.00     0.053 C 
BRANCH   2   3
ATOM      3  C   UNL     1      59.674  26.154  51.056  1.00  0.00     0.041 C 
ATOM      4  O   UNL     1      59.660  26.499  52.267  1.00  0.00    -0.550 OA
ATOM      5  O   UNL     1      59.182  24.907  50.691  1.00  0.00    -0.550 OA
ENDBRANCH   2   3
ENDBRANCH   1   2
BRANCH   1   6
ATOM      6  C   UNL     1      58.764  29.172  49.777  1.00  0.00     0.000 C 
BRANCH   6   7
ATOM      7  C   UNL     1      57.600  29.361  50.770  1.00  0.00    -0.000 C 
BRANCH   7   8
ATOM      8  C   UNL     1      56.604  28.191  50.833  1.00  0.00    -0.003 C 
ATOM      9  C   UNL     1      55.146  28.647  50.777  1.00  0.00     0.004 C 
ENDBRANCH   7   8
ENDBRANCH   6   7
ENDBRANCH   1   6
TORSDOF 5
ENDMDL
