MODEL 1
REMARK VINA RESULT:    16.347      0.000      0.000
REMARK INTER + INTRA:          36.505
REMARK INTER:                  37.372
REMARK INTRA:                  -0.866
REMARK UNBOUND:                -0.866
REMARK SMILES CCCCCCCCCCCCCCCCCCCCCCCC(=O)[O-]
REMARK SMILES IDX 13 1 14 2 15 3 16 4 17 5 18 6 19 7 20 8 21 9 22 10 23 11
REMARK SMILES IDX 24 12 25 13 26 14 12 15 11 16 10 17 9 18 8 19 7 20 6 21 5 22
REMARK SMILES IDX 4 23 3 24 2 25 1 26
REMARK H PARENT
REMARK Flexibility Score: inf
ROOT
ATOM      1  C   UNL     1      -7.168  14.428 -14.877  1.00  0.00     0.000 C 
ENDROOT
BRANCH   1   2
ATOM      2  C   UNL     1      -5.883  13.941 -15.581  1.00  0.00     0.000 C 
BRANCH   2   3
ATOM      3  C   UNL     1      -6.044  13.869 -17.110  1.00  0.00     0.000 C 
BRANCH   3   4
ATOM      4  C   UNL     1      -5.664  12.485 -17.682  1.00  0.00     0.000 C 
BRANCH   4   5
ATOM      5  C   UNL     1      -6.851  11.722 -18.298  1.00  0.00     0.000 C 
BRANCH   5   6
ATOM      6  C   UNL     1      -7.568  10.757 -17.335  1.00  0.00     0.000 C 
BRANCH   6   7
ATOM      7  C   UNL     1      -8.432   9.673 -18.016  1.00  0.00     0.000 C 
BRANCH   7   8
ATOM      8  C   UNL     1      -7.654   8.671 -18.889  1.00  0.00     0.000 C 
BRANCH   8   9
ATOM      9  C   UNL     1      -7.609   7.260 -18.283  1.00  0.00     0.000 C 
BRANCH   9  10
ATOM     10  C   UNL     1      -7.256   6.216 -19.349  1.00  0.00     0.006 C 
BRANCH  10  11
ATOM     11  C   UNL     1      -8.442   5.281 -19.615  1.00  0.00     0.053 C 
BRANCH  11  12
ATOM     12  C   UNL     1      -8.199   4.461 -20.842  1.00  0.00     0.041 C 
ATOM     13  O   UNL     1      -9.171   4.019 -21.510  1.00  0.00    -0.550 OA
ATOM     14  O   UNL     1      -6.900   4.150 -21.225  1.00  0.00    -0.550 OA
ENDBRANCH  11  12
ENDBRANCH  10  11
ENDBRANCH   9  10
ENDBRANCH   8   9
ENDBRANCH   7   8
ENDBRANCH   6   7
ENDBRANCH   5   6
ENDBRANCH   4   5
ENDBRANCH   3   4
ENDBRANCH   2   3
ENDBRANCH   1   2
BRANCH   1  15
ATOM     15  C   UNL     1      -7.460  15.926 -15.083  1.00  0.00     0.000 C 
BRANCH  15  16
ATOM     16  C   UNL     1      -8.205  16.611 -13.921  1.00  0.00     0.000 C 
BRANCH  16  17
ATOM     17  C   UNL     1      -8.974  17.888 -14.303  1.00  0.00     0.000 C 
BRANCH  17  18
ATOM     18  C   UNL     1     -10.359  17.975 -13.638  1.00  0.00    -0.000 C 
BRANCH  18  19
ATOM     19  C   UNL     1     -11.262  19.026 -14.304  1.00  0.00    -0.000 C 
BRANCH  19  20
ATOM     20  C   UNL     1     -12.220  19.698 -13.303  1.00  0.00    -0.000 C 
BRANCH  20  21
ATOM     21  C   UNL     1     -12.792  18.704 -12.278  1.00  0.00    -0.000 C 
BRANCH  21  22
ATOM     22  C   UNL     1     -13.419  19.409 -11.063  1.00  0.00    -0.000 C 
BRANCH  22  23
ATOM     23  C   UNL     1     -13.021  18.757  -9.730  1.00  0.00    -0.000 C 
BRANCH  23  24
ATOM     24  C   UNL     1     -13.664  19.451  -8.517  1.00  0.00    -0.000 C 
BRANCH  24  25
ATOM     25  C   UNL     1     -12.621  19.958  -7.508  1.00  0.00    -0.003 C 
ATOM     26  C   UNL     1     -12.062  21.333  -7.876  1.00  0.00     0.004 C 
ENDBRANCH  24  25
ENDBRANCH  23  24
ENDBRANCH  22  23
ENDBRANCH  21  22
ENDBRANCH  20  21
ENDBRANCH  19  20
ENDBRANCH  18  19
ENDBRANCH  17  18
ENDBRANCH  16  17
ENDBRANCH  15  16
ENDBRANCH   1  15
TORSDOF 22
ENDMDL
MODEL 2
REMARK VINA RESULT:    16.458      0.736      1.522
REMARK INTER + INTRA:          36.758
REMARK INTER:                  37.573
REMARK INTRA:                  -0.815
REMARK UNBOUND:                -0.866
REMARK SMILES CCCCCCCCCCCCCCCCCCCCCCCC(=O)[O-]
REMARK SMILES IDX 13 1 14 2 15 3 16 4 17 5 18 6 19 7 20 8 21 9 22 10 23 11
REMARK SMILES IDX 24 12 25 13 26 14 12 15 11 16 10 17 9 18 8 19 7 20 6 21 5 22
REMARK SMILES IDX 4 23 3 24 2 25 1 26
REMARK H PARENT
REMARK Flexibility Score: inf
ROOT
ATOM      1  C   UNL     1      -6.427  14.011 -15.570  1.00  0.00     0.000 C 
ENDROOT
BRANCH   1   2
ATOM      2  C   UNL     1      -5.423  13.870 -16.736  1.00  0.00     0.000 C 
BRANCH   2   3
ATOM      3  C   UNL     1      -5.673  12.604 -17.574  1.00  0.00     0.000 C 
BRANCH   3   4
ATOM      4  C   UNL     1      -6.852  11.761 -17.038  1.00  0.00     0.000 C 
BRANCH   4   5
ATOM      5  C   UNL     1      -7.656  11.048 -18.141  1.00  0.00     0.000 C 
BRANCH   5   6
ATOM      6  C   UNL     1      -8.114   9.621 -17.786  1.00  0.00     0.000 C 
BRANCH   6   7
ATOM      7  C   UNL     1      -7.657   8.522 -18.770  1.00  0.00     0.000 C 
BRANCH   7   8
ATOM      8  C   UNL     1      -7.593   7.102 -18.179  1.00  0.00     0.000 C 
BRANCH   8   9
ATOM      9  C   UNL     1      -7.125   6.052 -19.198  1.00  0.00     0.000 C 
BRANCH   9  10
ATOM     10  C   UNL     1      -8.321   5.368 -19.871  1.00  0.00     0.006 C 
BRANCH  10  11
ATOM     11  C   UNL     1      -7.869   4.155 -20.693  1.00  0.00     0.053 C 
BRANCH  11  12
ATOM     12  C   UNL     1      -8.105   4.390 -22.150  1.00  0.00     0.041 C 
ATOM     13  O   UNL     1      -7.136   4.398 -22.955  1.00  0.00    -0.550 OA
ATOM     14  O   UNL     1      -9.390   4.642 -22.615  1.00  0.00    -0.550 OA
ENDBRANCH  11  12
ENDBRANCH  10  11
ENDBRANCH   9  10
ENDBRANCH   8   9
ENDBRANCH   7   8
ENDBRANCH   6   7
ENDBRANCH   5   6
ENDBRANCH   4   5
ENDBRANCH   3   4
ENDBRANCH   2   3
ENDBRANCH   1   2
BRANCH   1  15
ATOM     15  C   UNL     1      -7.020  15.426 -15.427  1.00  0.00     0.000 C 
BRANCH  15  16
ATOM     16  C   UNL     1      -8.204  15.540 -14.448  1.00  0.00     0.000 C 
BRANCH  16  17
ATOM     17  C   UNL     1      -8.224  16.823 -13.598  1.00  0.00     0.000 C 
BRANCH  17  18
ATOM     18  C   UNL     1      -9.061  17.948 -14.232  1.00  0.00    -0.000 C 
BRANCH  18  19
ATOM     19  C   UNL     1     -10.525  17.921 -13.764  1.00  0.00    -0.000 C 
BRANCH  19  20
ATOM     20  C   UNL     1     -11.219  19.286 -13.924  1.00  0.00    -0.000 C 
BRANCH  20  21
ATOM     21  C   UNL     1     -12.703  19.243 -13.524  1.00  0.00    -0.000 C 
BRANCH  21  22
ATOM     22  C   UNL     1     -12.929  18.529 -12.180  1.00  0.00    -0.000 C 
BRANCH  22  23
ATOM     23  C   UNL     1     -12.788  19.473 -10.977  1.00  0.00    -0.000 C 
BRANCH  23  24
ATOM     24  C   UNL     1     -12.930  18.741  -9.631  1.00  0.00    -0.000 C 
BRANCH  24  25
ATOM     25  C   UNL     1     -13.504  19.644  -8.527  1.00  0.00    -0.003 C 
ATOM     26  C   UNL     1     -12.466  20.612  -7.957  1.00  0.00     0.004 C 
ENDBRANCH  24  25
ENDBRANCH  23  24
ENDBRANCH  22  23
ENDBRANCH  21  22
ENDBRANCH  20  21
ENDBRANCH  19  20
ENDBRANCH  18  19
ENDBRANCH  17  18
ENDBRANCH  16  17
ENDBRANCH  15  16
ENDBRANCH   1  15
TORSDOF 22
ENDMDL
MODEL 3
REMARK VINA RESULT:    16.769      6.003     14.365
REMARK INTER + INTRA:          37.470
REMARK INTER:                  37.905
REMARK INTRA:                  -0.435
REMARK UNBOUND:                -0.866
REMARK SMILES CCCCCCCCCCCCCCCCCCCCCCCC(=O)[O-]
REMARK SMILES IDX 13 1 14 2 15 3 16 4 17 5 18 6 19 7 20 8 21 9 22 10 23 11
REMARK SMILES IDX 24 12 25 13 26 14 12 15 11 16 10 17 9 18 8 19 7 20 6 21 5 22
REMARK SMILES IDX 4 23 3 24 2 25 1 26
REMARK H PARENT
REMARK Flexibility Score: inf
ROOT
ATOM      1  C   UNL     1      -5.875  14.332 -15.781  1.00  0.00     0.000 C 
ENDROOT
BRANCH   1   2
ATOM      2  C   UNL     1      -7.168  14.588 -14.975  1.00  0.00     0.000 C 
BRANCH   2   3
ATOM      3  C   UNL     1      -7.572  16.072 -14.972  1.00  0.00     0.000 C 
BRANCH   3   4
ATOM      4  C   UNL     1      -8.611  16.402 -13.878  1.00  0.00     0.000 C 
BRANCH   4   5
ATOM      5  C   UNL     1      -9.205  17.818 -13.993  1.00  0.00     0.000 C 
BRANCH   5   6
ATOM      6  C   UNL     1     -10.719  17.907 -13.730  1.00  0.00     0.000 C 
BRANCH   6   7
ATOM      7  C   UNL     1     -11.362  19.273 -14.055  1.00  0.00     0.000 C 
BRANCH   7   8
ATOM      8  C   UNL     1     -12.579  19.646 -13.188  1.00  0.00     0.000 C 
BRANCH   8   9
ATOM      9  C   UNL     1     -12.799  18.675 -12.019  1.00  0.00     0.000 C 
BRANCH   9  10
ATOM     10  C   UNL     1     -13.358  19.408 -10.793  1.00  0.00     0.006 C 
BRANCH  10  11
ATOM     11  C   UNL     1     -12.930  18.714  -9.495  1.00  0.00     0.053 C 
BRANCH  11  12
ATOM     12  C   UNL     1     -12.805  19.708  -8.385  1.00  0.00     0.041 C 
ATOM     13  O   UNL     1     -13.202  19.414  -7.226  1.00  0.00    -0.550 OA
ATOM     14  O   UNL     1     -12.289  20.973  -8.637  1.00  0.00    -0.550 OA
ENDBRANCH  11  12
ENDBRANCH  10  11
ENDBRANCH   9  10
ENDBRANCH   8   9
ENDBRANCH   7   8
ENDBRANCH   6   7
ENDBRANCH   5   6
ENDBRANCH   4   5
ENDBRANCH   3   4
ENDBRANCH   2   3
ENDBRANCH   1   2
BRANCH   1  15
ATOM     15  C   UNL     1      -6.110  13.609 -17.121  1.00  0.00     0.000 C 
BRANCH  15  16
ATOM     16  C   UNL     1      -6.241  12.077 -17.020  1.00  0.00     0.000 C 
BRANCH  16  17
ATOM     17  C   UNL     1      -7.424  11.472 -17.797  1.00  0.00     0.000 C 
BRANCH  17  18
ATOM     18  C   UNL     1      -7.821  10.075 -17.292  1.00  0.00    -0.000 C 
BRANCH  18  19
ATOM     19  C   UNL     1      -8.405   9.193 -18.408  1.00  0.00    -0.000 C 
BRANCH  19  20
ATOM     20  C   UNL     1      -7.395   8.154 -18.927  1.00  0.00    -0.000 C 
BRANCH  20  21
ATOM     21  C   UNL     1      -7.718   6.729 -18.450  1.00  0.00    -0.000 C 
BRANCH  21  22
ATOM     22  C   UNL     1      -7.357   5.661 -19.497  1.00  0.00    -0.000 C 
BRANCH  22  23
ATOM     23  C   UNL     1      -8.584   4.886 -20.000  1.00  0.00    -0.000 C 
BRANCH  23  24
ATOM     24  C   UNL     1      -8.606   4.744 -21.532  1.00  0.00    -0.000 C 
BRANCH  24  25
ATOM     25  C   UNL     1      -7.449   3.879 -22.059  1.00  0.00    -0.003 C 
ATOM     26  C   UNL     1      -6.875   2.947 -20.992  1.00  0.00     0.004 C 
ENDBRANCH  24  25
ENDBRANCH  23  24
ENDBRANCH  22  23
ENDBRANCH  21  22
ENDBRANCH  20  21
ENDBRANCH  19  20
ENDBRANCH  18  19
ENDBRANCH  17  18
ENDBRANCH  16  17
ENDBRANCH  15  16
ENDBRANCH   1  15
TORSDOF 22
ENDMDL
MODEL 4
REMARK VINA RESULT:    16.922      5.673     14.253
REMARK INTER + INTRA:          37.819
REMARK INTER:                  38.367
REMARK INTRA:                  -0.548
REMARK UNBOUND:                -0.866
REMARK SMILES CCCCCCCCCCCCCCCCCCCCCCCC(=O)[O-]
REMARK SMILES IDX 13 1 14 2 15 3 16 4 17 5 18 6 19 7 20 8 21 9 22 10 23 11
REMARK SMILES IDX 24 12 25 13 26 14 12 15 11 16 10 17 9 18 8 19 7 20 6 21 5 22
REMARK SMILES IDX 4 23 3 24 2 25 1 26
REMARK H PARENT
REMARK Flexibility Score: inf
ROOT
ATOM      1  C   UNL     1      -5.511  14.186 -16.075  1.00  0.00     0.000 C 
ENDROOT
BRANCH   1   2
ATOM      2  C   UNL     1      -6.785  14.300 -15.209  1.00  0.00     0.000 C 
BRANCH   2   3
ATOM      3  C   UNL     1      -7.464  15.675 -15.344  1.00  0.00     0.000 C 
BRANCH   3   4
ATOM      4  C   UNL     1      -7.985  16.214 -13.993  1.00  0.00     0.000 C 
BRANCH   4   5
ATOM      5  C   UNL     1      -8.610  17.618 -14.087  1.00  0.00     0.000 C 
BRANCH   5   6
ATOM      6  C   UNL     1     -10.113  17.679 -13.758  1.00  0.00     0.000 C 
BRANCH   6   7
ATOM      7  C   UNL     1     -10.822  18.987 -14.170  1.00  0.00     0.000 C 
BRANCH   7   8
ATOM      8  C   UNL     1     -12.332  19.035 -13.872  1.00  0.00     0.000 C 
BRANCH   8   9
ATOM      9  C   UNL     1     -12.660  19.762 -12.560  1.00  0.00     0.000 C 
BRANCH   9  10
ATOM     10  C   UNL     1     -13.084  18.768 -11.472  1.00  0.00     0.006 C 
BRANCH  10  11
ATOM     11  C   UNL     1     -13.644  19.500 -10.247  1.00  0.00     0.053 C 
BRANCH  11  12
ATOM     12  C   UNL     1     -12.923  19.077  -9.007  1.00  0.00     0.041 C 
ATOM     13  O   UNL     1     -12.447  17.915  -8.918  1.00  0.00    -0.550 OA
ATOM     14  O   UNL     1     -12.811  19.953  -7.935  1.00  0.00    -0.550 OA
ENDBRANCH  11  12
ENDBRANCH  10  11
ENDBRANCH   9  10
ENDBRANCH   8   9
ENDBRANCH   7   8
ENDBRANCH   6   7
ENDBRANCH   5   6
ENDBRANCH   4   5
ENDBRANCH   3   4
ENDBRANCH   2   3
ENDBRANCH   1   2
BRANCH   1  15
ATOM     15  C   UNL     1      -5.562  13.043 -17.107  1.00  0.00     0.000 C 
BRANCH  15  16
ATOM     16  C   UNL     1      -6.866  12.224 -17.108  1.00  0.00     0.000 C 
BRANCH  16  17
ATOM     17  C   UNL     1      -6.970  11.168 -18.223  1.00  0.00     0.000 C 
BRANCH  17  18
ATOM     18  C   UNL     1      -7.871   9.980 -17.842  1.00  0.00    -0.000 C 
BRANCH  18  19
ATOM     19  C   UNL     1      -7.826   8.853 -18.887  1.00  0.00    -0.000 C 
BRANCH  19  20
ATOM     20  C   UNL     1      -8.007   7.460 -18.257  1.00  0.00    -0.000 C 
BRANCH  20  21
ATOM     21  C   UNL     1      -7.332   6.350 -19.080  1.00  0.00    -0.000 C 
BRANCH  21  22
ATOM     22  C   UNL     1      -8.193   5.897 -20.273  1.00  0.00    -0.000 C 
BRANCH  22  23
ATOM     23  C   UNL     1      -8.110   4.383 -20.520  1.00  0.00    -0.000 C 
BRANCH  23  24
ATOM     24  C   UNL     1      -7.317   4.034 -21.791  1.00  0.00    -0.000 C 
BRANCH  24  25
ATOM     25  C   UNL     1      -7.947   4.631 -23.060  1.00  0.00    -0.003 C 
ATOM     26  C   UNL     1      -9.475   4.637 -23.014  1.00  0.00     0.004 C 
ENDBRANCH  24  25
ENDBRANCH  23  24
ENDBRANCH  22  23
ENDBRANCH  21  22
ENDBRANCH  20  21
ENDBRANCH  19  20
ENDBRANCH  18  19
ENDBRANCH  17  18
ENDBRANCH  16  17
ENDBRANCH  15  16
ENDBRANCH   1  15
TORSDOF 22
ENDMDL
MODEL 5
REMARK VINA RESULT:    17.791      8.430      9.584
REMARK INTER + INTRA:          39.807
REMARK INTER:                  40.758
REMARK INTRA:                  -0.951
REMARK UNBOUND:                -0.866
REMARK SMILES CCCCCCCCCCCCCCCCCCCCCCCC(=O)[O-]
REMARK SMILES IDX 13 1 14 2 15 3 16 4 17 5 18 6 19 7 20 8 21 9 22 10 23 11
REMARK SMILES IDX 24 12 25 13 26 14 12 15 11 16 10 17 9 18 8 19 7 20 6 21 5 22
REMARK SMILES IDX 4 23 3 24 2 25 1 26
REMARK H PARENT
REMARK Flexibility Score: inf
ROOT
ATOM      1  C   UNL     1     -11.194  19.399 -18.121  1.00  0.00     0.000 C 
ENDROOT
BRANCH   1   2
ATOM      2  C   UNL     1     -11.184  20.065 -19.515  1.00  0.00     0.000 C 
BRANCH   2   3
ATOM      3  C   UNL     1     -11.569  19.084 -20.636  1.00  0.00     0.000 C 
BRANCH   3   4
ATOM      4  C   UNL     1     -11.130  19.577 -22.032  1.00  0.00     0.000 C 
BRANCH   4   5
ATOM      5  C   UNL     1     -12.261  19.569 -23.077  1.00  0.00     0.000 C 
BRANCH   5   6
ATOM      6  C   UNL     1     -13.223  20.768 -22.996  1.00  0.00     0.000 C 
BRANCH   6   7
ATOM      7  C   UNL     1     -14.547  20.498 -22.248  1.00  0.00     0.000 C 
BRANCH   7   8
ATOM      8  C   UNL     1     -14.559  20.921 -20.767  1.00  0.00     0.000 C 
BRANCH   8   9
ATOM      9  C   UNL     1     -15.270  19.904 -19.861  1.00  0.00     0.000 C 
BRANCH   9  10
ATOM     10  C   UNL     1     -14.330  18.752 -19.485  1.00  0.00     0.006 C 
BRANCH  10  11
ATOM     11  C   UNL     1     -14.134  18.677 -17.967  1.00  0.00     0.053 C 
BRANCH  11  12
ATOM     12  C   UNL     1     -14.936  17.555 -17.388  1.00  0.00     0.041 C 
ATOM     13  O   UNL     1     -15.717  17.769 -16.423  1.00  0.00    -0.550 OA
ATOM     14  O   UNL     1     -14.793  16.267 -17.888  1.00  0.00    -0.550 OA
ENDBRANCH  11  12
ENDBRANCH  10  11
ENDBRANCH   9  10
ENDBRANCH   8   9
ENDBRANCH   7   8
ENDBRANCH   6   7
ENDBRANCH   5   6
ENDBRANCH   4   5
ENDBRANCH   3   4
ENDBRANCH   2   3
ENDBRANCH   1   2
BRANCH   1  15
ATOM     15  C   UNL     1     -10.436  20.199 -17.044  1.00  0.00     0.000 C 
BRANCH  15  16
ATOM     16  C   UNL     1     -10.375  19.529 -15.658  1.00  0.00     0.000 C 
BRANCH  16  17
ATOM     17  C   UNL     1     -11.743  19.217 -15.025  1.00  0.00     0.000 C 
BRANCH  17  18
ATOM     18  C   UNL     1     -11.716  19.261 -13.488  1.00  0.00    -0.000 C 
BRANCH  18  19
ATOM     19  C   UNL     1     -13.127  19.342 -12.881  1.00  0.00    -0.000 C 
BRANCH  19  20
ATOM     20  C   UNL     1     -13.103  19.407 -11.343  1.00  0.00    -0.000 C 
BRANCH  20  21
ATOM     21  C   UNL     1     -12.835  18.037 -10.699  1.00  0.00    -0.000 C 
BRANCH  21  22
ATOM     22  C   UNL     1     -12.762  18.113  -9.164  1.00  0.00    -0.000 C 
BRANCH  22  23
ATOM     23  C   UNL     1     -13.522  19.320  -8.594  1.00  0.00    -0.000 C 
BRANCH  23  24
ATOM     24  C   UNL     1     -13.120  19.641  -7.144  1.00  0.00    -0.000 C 
BRANCH  24  25
ATOM     25  C   UNL     1     -12.221  20.883  -7.043  1.00  0.00    -0.003 C 
ATOM     26  C   UNL     1     -12.021  21.578  -8.390  1.00  0.00     0.004 C 
ENDBRANCH  24  25
ENDBRANCH  23  24
ENDBRANCH  22  23
ENDBRANCH  21  22
ENDBRANCH  20  21
ENDBRANCH  19  20
ENDBRANCH  18  19
ENDBRANCH  17  18
ENDBRANCH  16  17
ENDBRANCH  15  16
ENDBRANCH   1  15
TORSDOF 22
ENDMDL
MODEL 6
REMARK VINA RESULT:    17.939      9.352     12.590
REMARK INTER + INTRA:          40.143
REMARK INTER:                  41.783
REMARK INTRA:                  -1.640
REMARK UNBOUND:                -0.866
REMARK SMILES CCCCCCCCCCCCCCCCCCCCCCCC(=O)[O-]
REMARK SMILES IDX 13 1 14 2 15 3 16 4 17 5 18 6 19 7 20 8 21 9 22 10 23 11
REMARK SMILES IDX 24 12 25 13 26 14 12 15 11 16 10 17 9 18 8 19 7 20 6 21 5 22
REMARK SMILES IDX 4 23 3 24 2 25 1 26
REMARK H PARENT
REMARK Flexibility Score: inf
ROOT
ATOM      1  C   UNL     1     -11.159  19.251 -17.912  1.00  0.00     0.000 C 
ENDROOT
BRANCH   1   2
ATOM      2  C   UNL     1     -10.509  20.070 -16.776  1.00  0.00     0.000 C 
BRANCH   2   3
ATOM      3  C   UNL     1     -10.868  19.525 -15.382  1.00  0.00     0.000 C 
BRANCH   3   4
ATOM      4  C   UNL     1     -12.027  18.504 -15.425  1.00  0.00     0.000 C 
BRANCH   4   5
ATOM      5  C   UNL     1     -13.216  18.879 -14.522  1.00  0.00     0.000 C 
BRANCH   5   6
ATOM      6  C   UNL     1     -12.891  19.898 -13.414  1.00  0.00     0.000 C 
BRANCH   6   7
ATOM      7  C   UNL     1     -12.258  19.300 -12.139  1.00  0.00     0.000 C 
BRANCH   7   8
ATOM      8  C   UNL     1     -13.250  18.641 -11.163  1.00  0.00     0.000 C 
BRANCH   8   9
ATOM      9  C   UNL     1     -12.555  17.818 -10.068  1.00  0.00     0.000 C 
BRANCH   9  10
ATOM     10  C   UNL     1     -12.956  18.311  -8.673  1.00  0.00     0.006 C 
BRANCH  10  11
ATOM     11  C   UNL     1     -13.408  19.775  -8.716  1.00  0.00     0.053 C 
BRANCH  11  12
ATOM     12  C   UNL     1     -12.590  20.605  -7.779  1.00  0.00     0.041 C 
ATOM     13  O   UNL     1     -11.722  21.399  -8.230  1.00  0.00    -0.550 OA
ATOM     14  O   UNL     1     -12.757  20.473  -6.406  1.00  0.00    -0.550 OA
ENDBRANCH  11  12
ENDBRANCH  10  11
ENDBRANCH   9  10
ENDBRANCH   8   9
ENDBRANCH   7   8
ENDBRANCH   6   7
ENDBRANCH   5   6
ENDBRANCH   4   5
ENDBRANCH   3   4
ENDBRANCH   2   3
ENDBRANCH   1   2
BRANCH   1  15
ATOM     15  C   UNL     1     -11.129  19.954 -19.282  1.00  0.00     0.000 C 
BRANCH  15  16
ATOM     16  C   UNL     1     -11.733  19.143 -20.445  1.00  0.00     0.000 C 
BRANCH  16  17
ATOM     17  C   UNL     1     -11.630  19.812 -21.827  1.00  0.00     0.000 C 
BRANCH  17  18
ATOM     18  C   UNL     1     -12.652  19.261 -22.836  1.00  0.00    -0.000 C 
BRANCH  18  19
ATOM     19  C   UNL     1     -14.031  19.927 -22.694  1.00  0.00    -0.000 C 
BRANCH  19  20
ATOM     20  C   UNL     1     -13.966  21.258 -21.924  1.00  0.00    -0.000 C 
BRANCH  20  21
ATOM     21  C   UNL     1     -14.513  21.137 -20.492  1.00  0.00    -0.000 C 
BRANCH  21  22
ATOM     22  C   UNL     1     -15.234  19.800 -20.249  1.00  0.00    -0.000 C 
BRANCH  22  23
ATOM     23  C   UNL     1     -14.553  18.949 -19.166  1.00  0.00    -0.000 C 
BRANCH  23  24
ATOM     24  C   UNL     1     -15.308  18.985 -17.825  1.00  0.00    -0.000 C 
BRANCH  24  25
ATOM     25  C   UNL     1     -15.142  17.685 -17.022  1.00  0.00    -0.003 C 
ATOM     26  C   UNL     1     -14.494  16.566 -17.837  1.00  0.00     0.004 C 
ENDBRANCH  24  25
ENDBRANCH  23  24
ENDBRANCH  22  23
ENDBRANCH  21  22
ENDBRANCH  20  21
ENDBRANCH  19  20
ENDBRANCH  18  19
ENDBRANCH  17  18
ENDBRANCH  16  17
ENDBRANCH  15  16
ENDBRANCH   1  15
TORSDOF 22
ENDMDL
MODEL 7
REMARK VINA RESULT:    18.001      8.918      9.880
REMARK INTER + INTRA:          40.287
REMARK INTER:                  40.149
REMARK INTRA:                   0.138
REMARK UNBOUND:                -0.866
REMARK SMILES CCCCCCCCCCCCCCCCCCCCCCCC(=O)[O-]
REMARK SMILES IDX 13 1 14 2 15 3 16 4 17 5 18 6 19 7 20 8 21 9 22 10 23 11
REMARK SMILES IDX 24 12 25 13 26 14 12 15 11 16 10 17 9 18 8 19 7 20 6 21 5 22
REMARK SMILES IDX 4 23 3 24 2 25 1 26
REMARK H PARENT
REMARK Flexibility Score: inf
ROOT
ATOM      1  C   UNL     1     -10.877  18.551 -14.302  1.00  0.00     0.000 C 
ENDROOT
BRANCH   1   2
ATOM      2  C   UNL     1     -10.076  19.754 -14.846  1.00  0.00     0.000 C 
BRANCH   2   3
ATOM      3  C   UNL     1      -9.770  19.623 -16.348  1.00  0.00     0.000 C 
BRANCH   3   4
ATOM      4  C   UNL     1     -10.896  20.197 -17.236  1.00  0.00     0.000 C 
BRANCH   4   5
ATOM      5  C   UNL     1     -11.477  19.180 -18.235  1.00  0.00     0.000 C 
BRANCH   5   6
ATOM      6  C   UNL     1     -11.986  19.789 -19.554  1.00  0.00     0.000 C 
BRANCH   6   7
ATOM      7  C   UNL     1     -11.267  19.292 -20.827  1.00  0.00     0.000 C 
BRANCH   7   8
ATOM      8  C   UNL     1     -11.506  20.144 -22.088  1.00  0.00     0.000 C 
BRANCH   8   9
ATOM      9  C   UNL     1     -12.393  19.440 -23.125  1.00  0.00     0.000 C 
BRANCH   9  10
ATOM     10  C   UNL     1     -13.816  19.244 -22.587  1.00  0.00     0.006 C 
BRANCH  10  11
ATOM     11  C   UNL     1     -14.637  20.531 -22.722  1.00  0.00     0.053 C 
BRANCH  11  12
ATOM     12  C   UNL     1     -14.977  21.081 -21.374  1.00  0.00     0.041 C 
ATOM     13  O   UNL     1     -16.180  21.283 -21.058  1.00  0.00    -0.550 OA
ATOM     14  O   UNL     1     -13.965  21.409 -20.480  1.00  0.00    -0.550 OA
ENDBRANCH  11  12
ENDBRANCH  10  11
ENDBRANCH   9  10
ENDBRANCH   8   9
ENDBRANCH   7   8
ENDBRANCH   6   7
ENDBRANCH   5   6
ENDBRANCH   4   5
ENDBRANCH   3   4
ENDBRANCH   2   3
ENDBRANCH   1   2
BRANCH   1  15
ATOM     15  C   UNL     1     -12.287  18.417 -14.909  1.00  0.00     0.000 C 
BRANCH  15  16
ATOM     16  C   UNL     1     -13.425  18.995 -14.046  1.00  0.00     0.000 C 
BRANCH  16  17
ATOM     17  C   UNL     1     -12.991  20.069 -13.032  1.00  0.00     0.000 C 
BRANCH  17  18
ATOM     18  C   UNL     1     -12.720  19.495 -11.631  1.00  0.00    -0.000 C 
BRANCH  18  19
ATOM     19  C   UNL     1     -13.474  18.178 -11.383  1.00  0.00    -0.000 C 
BRANCH  19  20
ATOM     20  C   UNL     1     -12.688  17.211 -10.479  1.00  0.00    -0.000 C 
BRANCH  20  21
ATOM     21  C   UNL     1     -11.975  17.933  -9.323  1.00  0.00    -0.000 C 
BRANCH  21  22
ATOM     22  C   UNL     1     -12.920  18.238  -8.148  1.00  0.00    -0.000 C 
BRANCH  22  23
ATOM     23  C   UNL     1     -13.750  19.512  -8.371  1.00  0.00    -0.000 C 
BRANCH  23  24
ATOM     24  C   UNL     1     -12.897  20.692  -8.868  1.00  0.00    -0.000 C 
BRANCH  24  25
ATOM     25  C   UNL     1     -11.915  21.200  -7.801  1.00  0.00    -0.003 C 
ATOM     26  C   UNL     1     -12.518  21.202  -6.396  1.00  0.00     0.004 C 
ENDBRANCH  24  25
ENDBRANCH  23  24
ENDBRANCH  22  23
ENDBRANCH  21  22
ENDBRANCH  20  21
ENDBRANCH  19  20
ENDBRANCH  18  19
ENDBRANCH  17  18
ENDBRANCH  16  17
ENDBRANCH  15  16
ENDBRANCH   1  15
TORSDOF 22
ENDMDL
MODEL 8
REMARK VINA RESULT:    18.293      2.691      4.238
REMARK INTER + INTRA:          40.953
REMARK INTER:                  42.577
REMARK INTRA:                  -1.625
REMARK UNBOUND:                -0.866
REMARK SMILES CCCCCCCCCCCCCCCCCCCCCCCC(=O)[O-]
REMARK SMILES IDX 13 1 14 2 15 3 16 4 17 5 18 6 19 7 20 8 21 9 22 10 23 11
REMARK SMILES IDX 24 12 25 13 26 14 12 15 11 16 10 17 9 18 8 19 7 20 6 21 5 22
REMARK SMILES IDX 4 23 3 24 2 25 1 26
REMARK H PARENT
REMARK Flexibility Score: inf
ROOT
ATOM      1  C   UNL     1      -8.265  17.866 -13.886  1.00  0.00     0.000 C 
ENDROOT
BRANCH   1   2
ATOM      2  C   UNL     1      -7.618  16.802 -14.799  1.00  0.00     0.000 C 
BRANCH   2   3
ATOM      3  C   UNL     1      -7.622  15.402 -14.159  1.00  0.00     0.000 C 
BRANCH   3   4
ATOM      4  C   UNL     1      -7.232  14.292 -15.160  1.00  0.00     0.000 C 
BRANCH   4   5
ATOM      5  C   UNL     1      -6.266  14.763 -16.263  1.00  0.00     0.000 C 
BRANCH   5   6
ATOM      6  C   UNL     1      -4.772  14.625 -15.916  1.00  0.00     0.000 C 
BRANCH   6   7
ATOM      7  C   UNL     1      -4.034  13.479 -16.640  1.00  0.00     0.000 C 
BRANCH   7   8
ATOM      8  C   UNL     1      -4.919  12.288 -17.052  1.00  0.00     0.000 C 
BRANCH   8   9
ATOM      9  C   UNL     1      -5.360  12.353 -18.522  1.00  0.00     0.000 C 
BRANCH   9  10
ATOM     10  C   UNL     1      -6.783  11.807 -18.692  1.00  0.00     0.006 C 
BRANCH  10  11
ATOM     11  C   UNL     1      -7.266  11.121 -17.409  1.00  0.00     0.053 C 
BRANCH  11  12
ATOM     12  C   UNL     1      -8.390  10.181 -17.706  1.00  0.00     0.041 C 
ATOM     13  O   UNL     1      -8.242   9.267 -18.560  1.00  0.00    -0.550 OA
ATOM     14  O   UNL     1      -9.615  10.339 -17.071  1.00  0.00    -0.550 OA
ENDBRANCH  11  12
ENDBRANCH  10  11
ENDBRANCH   9  10
ENDBRANCH   8   9
ENDBRANCH   7   8
ENDBRANCH   6   7
ENDBRANCH   5   6
ENDBRANCH   4   5
ENDBRANCH   3   4
ENDBRANCH   2   3
ENDBRANCH   1   2
BRANCH   1  15
ATOM     15  C   UNL     1      -9.451  18.604 -14.535  1.00  0.00     0.000 C 
BRANCH  15  16
ATOM     16  C   UNL     1     -10.828  18.292 -13.918  1.00  0.00     0.000 C 
BRANCH  16  17
ATOM     17  C   UNL     1     -12.018  19.004 -14.588  1.00  0.00     0.000 C 
BRANCH  17  18
ATOM     18  C   UNL     1     -12.884  19.792 -13.590  1.00  0.00    -0.000 C 
BRANCH  18  19
ATOM     19  C   UNL     1     -12.416  19.607 -12.137  1.00  0.00    -0.000 C 
BRANCH  19  20
ATOM     20  C   UNL     1     -13.415  18.791 -11.296  1.00  0.00    -0.000 C 
BRANCH  20  21
ATOM     21  C   UNL     1     -12.728  17.695 -10.465  1.00  0.00    -0.000 C 
BRANCH  21  22
ATOM     22  C   UNL     1     -12.637  18.058  -8.973  1.00  0.00    -0.000 C 
BRANCH  22  23
ATOM     23  C   UNL     1     -13.381  19.358  -8.635  1.00  0.00    -0.000 C 
BRANCH  23  24
ATOM     24  C   UNL     1     -13.127  19.826  -7.191  1.00  0.00    -0.000 C 
BRANCH  24  25
ATOM     25  C   UNL     1     -12.462  21.210  -7.130  1.00  0.00    -0.003 C 
ATOM     26  C   UNL     1     -11.531  21.471  -8.315  1.00  0.00     0.004 C 
ENDBRANCH  24  25
ENDBRANCH  23  24
ENDBRANCH  22  23
ENDBRANCH  21  22
ENDBRANCH  20  21
ENDBRANCH  19  20
ENDBRANCH  18  19
ENDBRANCH  17  18
ENDBRANCH  16  17
ENDBRANCH  15  16
ENDBRANCH   1  15
TORSDOF 22
ENDMDL
