MODEL 1
REMARK VINA RESULT:    -4.599      0.000      0.000
REMARK INTER + INTRA:         -18.349
REMARK INTER:                 -12.126
REMARK INTRA:                  -6.223
REMARK UNBOUND:                -6.223
REMARK SMILES CCCCCCCCCCCCCCCCCCCCCCCCCCCCCC(=O)[O-]
REMARK SMILES IDX 16 1 17 2 18 3 19 4 20 5 21 6 22 7 23 8 24 9 25 10 26 11
REMARK SMILES IDX 27 12 28 13 29 14 30 15 31 16 32 17 15 18 14 19 13 20 12 21
REMARK SMILES IDX 11 22 10 23 9 24 8 25 7 26 6 27 5 28 4 29 3 30 2 31 1 32
REMARK H PARENT
REMARK Flexibility Score: inf
ROOT
ATOM      1  C   UNL     1       7.446 -21.994  21.324  1.00  0.00     0.000 C 
ENDROOT
BRANCH   1   2
ATOM      2  C   UNL     1       8.502 -23.094  21.151  1.00  0.00     0.000 C 
BRANCH   2   3
ATOM      3  C   UNL     1       9.904 -22.492  21.007  1.00  0.00     0.000 C 
BRANCH   3   4
ATOM      4  C   UNL     1      10.838 -22.991  22.116  1.00  0.00     0.000 C 
BRANCH   4   5
ATOM      5  C   UNL     1      11.691 -21.843  22.671  1.00  0.00     0.000 C 
BRANCH   5   6
ATOM      6  C   UNL     1      11.074 -20.478  22.329  1.00  0.00     0.000 C 
BRANCH   6   7
ATOM      7  C   UNL     1      11.220 -19.454  23.469  1.00  0.00     0.000 C 
BRANCH   7   8
ATOM      8  C   UNL     1      10.966 -17.988  23.064  1.00  0.00     0.000 C 
BRANCH   8   9
ATOM      9  C   UNL     1      11.764 -16.941  23.867  1.00  0.00     0.000 C 
BRANCH   9  10
ATOM     10  C   UNL     1      12.078 -15.639  23.107  1.00  0.00     0.000 C 
BRANCH  10  11
ATOM     11  C   UNL     1      12.988 -15.870  21.889  1.00  0.00     0.000 C 
BRANCH  11  12
ATOM     12  C   UNL     1      14.272 -16.650  22.229  1.00  0.00     0.000 C 
BRANCH  12  13
ATOM     13  C   UNL     1      14.421 -18.015  21.528  1.00  0.00     0.006 C 
BRANCH  13  14
ATOM     14  C   UNL     1      15.586 -18.850  22.075  1.00  0.00     0.053 C 
BRANCH  14  15
ATOM     15  C   UNL     1      15.082 -19.969  22.932  1.00  0.00     0.041 C 
ATOM     16  O   UNL     1      14.570 -19.723  24.056  1.00  0.00    -0.550 OA
ATOM     17  O   UNL     1      15.160 -21.282  22.481  1.00  0.00    -0.550 OA
ENDBRANCH  14  15
ENDBRANCH  13  14
ENDBRANCH  12  13
ENDBRANCH  11  12
ENDBRANCH  10  11
ENDBRANCH   9  10
ENDBRANCH   8   9
ENDBRANCH   7   8
ENDBRANCH   6   7
ENDBRANCH   5   6
ENDBRANCH   4   5
ENDBRANCH   3   4
ENDBRANCH   2   3
ENDBRANCH   1   2
BRANCH   1  18
ATOM     18  C   UNL     1       7.537 -21.361  22.720  1.00  0.00     0.000 C 
BRANCH  18  19
ATOM     19  C   UNL     1       7.040 -19.907  22.743  1.00  0.00     0.000 C 
BRANCH  19  20
ATOM     20  C   UNL     1       7.602 -19.104  23.930  1.00  0.00     0.000 C 
BRANCH  20  21
ATOM     21  C   UNL     1       6.927 -17.729  24.054  1.00  0.00     0.000 C 
BRANCH  21  22
ATOM     22  C   UNL     1       7.930 -16.604  24.389  1.00  0.00     0.000 C 
BRANCH  22  23
ATOM     23  C   UNL     1       8.004 -15.532  23.291  1.00  0.00     0.000 C 
BRANCH  23  24
ATOM     24  C   UNL     1       6.769 -15.566  22.376  1.00  0.00    -0.000 C 
BRANCH  24  25
ATOM     25  C   UNL     1       7.177 -15.672  20.899  1.00  0.00    -0.000 C 
BRANCH  25  26
ATOM     26  C   UNL     1       7.303 -17.129  20.418  1.00  0.00    -0.000 C 
BRANCH  26  27
ATOM     27  C   UNL     1       8.746 -17.605  20.152  1.00  0.00    -0.000 C 
BRANCH  27  28
ATOM     28  C   UNL     1       8.871 -19.056  19.650  1.00  0.00    -0.000 C 
BRANCH  28  29
ATOM     29  C   UNL     1       9.913 -19.274  18.539  1.00  0.00    -0.000 C 
BRANCH  29  30
ATOM     30  C   UNL     1      11.354 -19.324  19.079  1.00  0.00    -0.000 C 
BRANCH  30  31
ATOM     31  C   UNL     1      12.073 -20.633  18.714  1.00  0.00    -0.003 C 
ATOM     32  C   UNL     1      13.442 -20.762  19.383  1.00  0.00     0.004 C 
ENDBRANCH  30  31
ENDBRANCH  29  30
ENDBRANCH  28  29
ENDBRANCH  27  28
ENDBRANCH  26  27
ENDBRANCH  25  26
ENDBRANCH  24  25
ENDBRANCH  23  24
ENDBRANCH  22  23
ENDBRANCH  21  22
ENDBRANCH  20  21
ENDBRANCH  19  20
ENDBRANCH  18  19
ENDBRANCH   1  18
TORSDOF 28
ENDMDL
MODEL 2
REMARK VINA RESULT:    -4.548      1.664      4.765
REMARK INTER + INTRA:         -18.216
REMARK INTER:                 -11.944
REMARK INTRA:                  -6.272
REMARK UNBOUND:                -6.223
REMARK SMILES CCCCCCCCCCCCCCCCCCCCCCCCCCCCCC(=O)[O-]
REMARK SMILES IDX 16 1 17 2 18 3 19 4 20 5 21 6 22 7 23 8 24 9 25 10 26 11
REMARK SMILES IDX 27 12 28 13 29 14 30 15 31 16 32 17 15 18 14 19 13 20 12 21
REMARK SMILES IDX 11 22 10 23 9 24 8 25 7 26 6 27 5 28 4 29 3 30 2 31 1 32
REMARK H PARENT
REMARK Flexibility Score: inf
ROOT
ATOM      1  C   UNL     1      10.785 -20.533  22.759  1.00  0.00     0.000 C 
ENDROOT
BRANCH   1   2
ATOM      2  C   UNL     1      10.754 -19.010  22.951  1.00  0.00     0.000 C 
BRANCH   2   3
ATOM      3  C   UNL     1      10.998 -18.636  24.416  1.00  0.00     0.000 C 
BRANCH   3   4
ATOM      4  C   UNL     1      11.764 -17.313  24.531  1.00  0.00     0.000 C 
BRANCH   4   5
ATOM      5  C   UNL     1      11.334 -16.335  23.429  1.00  0.00     0.000 C 
BRANCH   5   6
ATOM      6  C   UNL     1      12.525 -15.499  22.933  1.00  0.00     0.000 C 
BRANCH   6   7
ATOM      7  C   UNL     1      13.841 -16.297  22.895  1.00  0.00     0.000 C 
BRANCH   7   8
ATOM      8  C   UNL     1      14.184 -16.920  21.527  1.00  0.00     0.000 C 
BRANCH   8   9
ATOM      9  C   UNL     1      14.092 -18.458  21.468  1.00  0.00     0.000 C 
BRANCH   9  10
ATOM     10  C   UNL     1      15.316 -19.205  22.030  1.00  0.00     0.000 C 
BRANCH  10  11
ATOM     11  C   UNL     1      15.066 -20.714  22.192  1.00  0.00     0.000 C 
BRANCH  11  12
ATOM     12  C   UNL     1      14.353 -21.074  23.509  1.00  0.00     0.000 C 
BRANCH  12  13
ATOM     13  C   UNL     1      14.406 -19.992  24.606  1.00  0.00     0.006 C 
BRANCH  13  14
ATOM     14  C   UNL     1      15.184 -20.434  25.852  1.00  0.00     0.053 C 
BRANCH  14  15
ATOM     15  C   UNL     1      14.248 -20.800  26.961  1.00  0.00     0.041 C 
ATOM     16  O   UNL     1      13.219 -20.106  27.175  1.00  0.00    -0.550 OA
ATOM     17  O   UNL     1      14.503 -21.918  27.747  1.00  0.00    -0.550 OA
ENDBRANCH  14  15
ENDBRANCH  13  14
ENDBRANCH  12  13
ENDBRANCH  11  12
ENDBRANCH  10  11
ENDBRANCH   9  10
ENDBRANCH   8   9
ENDBRANCH   7   8
ENDBRANCH   6   7
ENDBRANCH   5   6
ENDBRANCH   4   5
ENDBRANCH   3   4
ENDBRANCH   2   3
ENDBRANCH   1   2
BRANCH   1  18
ATOM     18  C   UNL     1      11.239 -20.898  21.338  1.00  0.00     0.000 C 
BRANCH  18  19
ATOM     19  C   UNL     1      10.221 -21.784  20.602  1.00  0.00     0.000 C 
BRANCH  19  20
ATOM     20  C   UNL     1       9.726 -22.961  21.461  1.00  0.00     0.000 C 
BRANCH  20  21
ATOM     21  C   UNL     1       8.221 -22.856  21.753  1.00  0.00     0.000 C 
BRANCH  21  22
ATOM     22  C   UNL     1       7.552 -21.681  21.005  1.00  0.00     0.000 C 
BRANCH  22  23
ATOM     23  C   UNL     1       7.107 -20.556  21.951  1.00  0.00     0.000 C 
BRANCH  23  24
ATOM     24  C   UNL     1       6.990 -21.044  23.404  1.00  0.00    -0.000 C 
BRANCH  24  25
ATOM     25  C   UNL     1       7.450 -19.961  24.391  1.00  0.00    -0.000 C 
BRANCH  25  26
ATOM     26  C   UNL     1       6.617 -18.670  24.291  1.00  0.00    -0.000 C 
BRANCH  26  27
ATOM     27  C   UNL     1       7.439 -17.372  24.167  1.00  0.00    -0.000 C 
BRANCH  27  28
ATOM     28  C   UNL     1       7.156 -16.539  22.902  1.00  0.00    -0.000 C 
BRANCH  28  29
ATOM     29  C   UNL     1       8.258 -16.586  21.830  1.00  0.00    -0.000 C 
BRANCH  29  30
ATOM     30  C   UNL     1       7.786 -17.245  20.521  1.00  0.00    -0.000 C 
BRANCH  30  31
ATOM     31  C   UNL     1       8.871 -18.128  19.883  1.00  0.00    -0.003 C 
ATOM     32  C   UNL     1      10.210 -17.404  19.735  1.00  0.00     0.004 C 
ENDBRANCH  30  31
ENDBRANCH  29  30
ENDBRANCH  28  29
ENDBRANCH  27  28
ENDBRANCH  26  27
ENDBRANCH  25  26
ENDBRANCH  24  25
ENDBRANCH  23  24
ENDBRANCH  22  23
ENDBRANCH  21  22
ENDBRANCH  20  21
ENDBRANCH  19  20
ENDBRANCH  18  19
ENDBRANCH   1  18
TORSDOF 28
ENDMDL
MODEL 3
REMARK VINA RESULT:    -4.521      1.793      3.836
REMARK INTER + INTRA:         -18.144
REMARK INTER:                 -12.127
REMARK INTRA:                  -6.017
REMARK UNBOUND:                -6.223
REMARK SMILES CCCCCCCCCCCCCCCCCCCCCCCCCCCCCC(=O)[O-]
REMARK SMILES IDX 16 1 17 2 18 3 19 4 20 5 21 6 22 7 23 8 24 9 25 10 26 11
REMARK SMILES IDX 27 12 28 13 29 14 30 15 31 16 32 17 15 18 14 19 13 20 12 21
REMARK SMILES IDX 11 22 10 23 9 24 8 25 7 26 6 27 5 28 4 29 3 30 2 31 1 32
REMARK H PARENT
REMARK Flexibility Score: inf
ROOT
ATOM      1  C   UNL     1       7.872 -19.126  24.776  1.00  0.00     0.000 C 
ENDROOT
BRANCH   1   2
ATOM      2  C   UNL     1       6.733 -19.584  23.855  1.00  0.00     0.000 C 
BRANCH   2   3
ATOM      3  C   UNL     1       7.085 -20.904  23.161  1.00  0.00     0.000 C 
BRANCH   3   4
ATOM      4  C   UNL     1       7.180 -20.723  21.641  1.00  0.00     0.000 C 
BRANCH   4   5
ATOM      5  C   UNL     1       7.399 -22.071  20.942  1.00  0.00     0.000 C 
BRANCH   5   6
ATOM      6  C   UNL     1       8.327 -22.978  21.766  1.00  0.00     0.000 C 
BRANCH   6   7
ATOM      7  C   UNL     1       9.748 -23.070  21.180  1.00  0.00     0.000 C 
BRANCH   7   8
ATOM      8  C   UNL     1      10.885 -22.789  22.183  1.00  0.00     0.000 C 
BRANCH   8   9
ATOM      9  C   UNL     1      12.037 -21.922  21.638  1.00  0.00     0.000 C 
BRANCH   9  10
ATOM     10  C   UNL     1      12.228 -20.570  22.351  1.00  0.00     0.000 C 
BRANCH  10  11
ATOM     11  C   UNL     1      10.934 -20.060  23.007  1.00  0.00     0.000 C 
BRANCH  11  12
ATOM     12  C   UNL     1      10.250 -18.934  22.209  1.00  0.00     0.000 C 
BRANCH  12  13
ATOM     13  C   UNL     1      11.141 -18.229  21.167  1.00  0.00     0.006 C 
BRANCH  13  14
ATOM     14  C   UNL     1      11.398 -16.752  21.494  1.00  0.00     0.053 C 
BRANCH  14  15
ATOM     15  C   UNL     1      12.731 -16.577  22.150  1.00  0.00     0.041 C 
ATOM     16  O   UNL     1      12.899 -16.931  23.347  1.00  0.00    -0.550 OA
ATOM     17  O   UNL     1      13.796 -16.041  21.434  1.00  0.00    -0.550 OA
ENDBRANCH  14  15
ENDBRANCH  13  14
ENDBRANCH  12  13
ENDBRANCH  11  12
ENDBRANCH  10  11
ENDBRANCH   9  10
ENDBRANCH   8   9
ENDBRANCH   7   8
ENDBRANCH   6   7
ENDBRANCH   5   6
ENDBRANCH   4   5
ENDBRANCH   3   4
ENDBRANCH   2   3
ENDBRANCH   1   2
BRANCH   1  18
ATOM     18  C   UNL     1       7.390 -18.035  25.743  1.00  0.00     0.000 C 
BRANCH  18  19
ATOM     19  C   UNL     1       8.265 -16.772  25.692  1.00  0.00     0.000 C 
BRANCH  19  20
ATOM     20  C   UNL     1       8.698 -16.405  24.262  1.00  0.00     0.000 C 
BRANCH  20  21
ATOM     21  C   UNL     1       7.964 -15.155  23.751  1.00  0.00     0.000 C 
BRANCH  21  22
ATOM     22  C   UNL     1       7.044 -15.458  22.548  1.00  0.00     0.000 C 
BRANCH  22  23
ATOM     23  C   UNL     1       7.543 -16.641  21.705  1.00  0.00     0.000 C 
BRANCH  23  24
ATOM     24  C   UNL     1       7.232 -16.451  20.212  1.00  0.00    -0.000 C 
BRANCH  24  25
ATOM     25  C   UNL     1       7.275 -17.790  19.461  1.00  0.00    -0.000 C 
BRANCH  25  26
ATOM     26  C   UNL     1       8.090 -17.716  18.157  1.00  0.00    -0.000 C 
BRANCH  26  27
ATOM     27  C   UNL     1       9.463 -17.025  18.285  1.00  0.00    -0.000 C 
BRANCH  27  28
ATOM     28  C   UNL     1      10.387 -17.183  17.063  1.00  0.00    -0.000 C 
BRANCH  28  29
ATOM     29  C   UNL     1      10.590 -18.630  16.580  1.00  0.00    -0.000 C 
BRANCH  29  30
ATOM     30  C   UNL     1      11.866 -19.273  17.152  1.00  0.00    -0.000 C 
BRANCH  30  31
ATOM     31  C   UNL     1      11.570 -20.232  18.317  1.00  0.00    -0.003 C 
ATOM     32  C   UNL     1      10.143 -20.779  18.284  1.00  0.00     0.004 C 
ENDBRANCH  30  31
ENDBRANCH  29  30
ENDBRANCH  28  29
ENDBRANCH  27  28
ENDBRANCH  26  27
ENDBRANCH  25  26
ENDBRANCH  24  25
ENDBRANCH  23  24
ENDBRANCH  22  23
ENDBRANCH  21  22
ENDBRANCH  20  21
ENDBRANCH  19  20
ENDBRANCH  18  19
ENDBRANCH   1  18
TORSDOF 28
ENDMDL
MODEL 4
REMARK VINA RESULT:    -4.455      2.464      5.623
REMARK INTER + INTRA:         -17.970
REMARK INTER:                 -12.257
REMARK INTRA:                  -5.713
REMARK UNBOUND:                -6.223
REMARK SMILES CCCCCCCCCCCCCCCCCCCCCCCCCCCCCC(=O)[O-]
REMARK SMILES IDX 16 1 17 2 18 3 19 4 20 5 21 6 22 7 23 8 24 9 25 10 26 11
REMARK SMILES IDX 27 12 28 13 29 14 30 15 31 16 32 17 15 18 14 19 13 20 12 21
REMARK SMILES IDX 11 22 10 23 9 24 8 25 7 26 6 27 5 28 4 29 3 30 2 31 1 32
REMARK H PARENT
REMARK Flexibility Score: inf
ROOT
ATOM      1  C   UNL     1      11.002 -18.738  18.428  1.00  0.00     0.000 C 
ENDROOT
BRANCH   1   2
ATOM      2  C   UNL     1      11.778 -20.012  18.066  1.00  0.00     0.000 C 
BRANCH   2   3
ATOM      3  C   UNL     1      13.215 -19.949  18.596  1.00  0.00     0.000 C 
BRANCH   3   4
ATOM      4  C   UNL     1      13.431 -20.955  19.733  1.00  0.00     0.000 C 
BRANCH   4   5
ATOM      5  C   UNL     1      12.093 -21.530  20.216  1.00  0.00     0.000 C 
BRANCH   5   6
ATOM      6  C   UNL     1      11.752 -21.030  21.629  1.00  0.00     0.000 C 
BRANCH   6   7
ATOM      7  C   UNL     1      10.649 -21.863  22.307  1.00  0.00     0.000 C 
BRANCH   7   8
ATOM      8  C   UNL     1       9.990 -22.926  21.407  1.00  0.00     0.000 C 
BRANCH   8   9
ATOM      9  C   UNL     1       8.466 -23.079  21.585  1.00  0.00     0.000 C 
BRANCH   9  10
ATOM     10  C   UNL     1       7.611 -22.223  20.631  1.00  0.00     0.000 C 
BRANCH  10  11
ATOM     11  C   UNL     1       6.606 -21.331  21.378  1.00  0.00     0.000 C 
BRANCH  11  12
ATOM     12  C   UNL     1       6.996 -21.072  22.846  1.00  0.00     0.000 C 
BRANCH  12  13
ATOM     13  C   UNL     1       7.553 -19.666  23.143  1.00  0.00     0.006 C 
BRANCH  13  14
ATOM     14  C   UNL     1       8.137 -19.535  24.555  1.00  0.00     0.053 C 
BRANCH  14  15
ATOM     15  C   UNL     1       7.057 -19.258  25.554  1.00  0.00     0.041 C 
ATOM     16  O   UNL     1       6.477 -18.140  25.565  1.00  0.00    -0.550 OA
ATOM     17  O   UNL     1       6.677 -20.241  26.461  1.00  0.00    -0.550 OA
ENDBRANCH  14  15
ENDBRANCH  13  14
ENDBRANCH  12  13
ENDBRANCH  11  12
ENDBRANCH  10  11
ENDBRANCH   9  10
ENDBRANCH   8   9
ENDBRANCH   7   8
ENDBRANCH   6   7
ENDBRANCH   5   6
ENDBRANCH   4   5
ENDBRANCH   3   4
ENDBRANCH   2   3
ENDBRANCH   1   2
BRANCH   1  18
ATOM     18  C   UNL     1       9.602 -19.081  18.957  1.00  0.00     0.000 C 
BRANCH  18  19
ATOM     19  C   UNL     1       9.329 -18.474  20.343  1.00  0.00     0.000 C 
BRANCH  19  20
ATOM     20  C   UNL     1       8.948 -16.985  20.276  1.00  0.00     0.000 C 
BRANCH  20  21
ATOM     21  C   UNL     1       7.430 -16.795  20.127  1.00  0.00     0.000 C 
BRANCH  21  22
ATOM     22  C   UNL     1       6.852 -15.800  21.158  1.00  0.00     0.000 C 
BRANCH  22  23
ATOM     23  C   UNL     1       7.256 -16.142  22.600  1.00  0.00     0.000 C 
BRANCH  23  24
ATOM     24  C   UNL     1       7.819 -14.918  23.340  1.00  0.00    -0.000 C 
BRANCH  24  25
ATOM     25  C   UNL     1       8.976 -15.315  24.268  1.00  0.00    -0.000 C 
BRANCH  25  26
ATOM     26  C   UNL     1       9.823 -16.470  23.703  1.00  0.00    -0.000 C 
BRANCH  26  27
ATOM     27  C   UNL     1      11.220 -16.626  24.338  1.00  0.00    -0.000 C 
BRANCH  27  28
ATOM     28  C   UNL     1      12.399 -16.266  23.415  1.00  0.00    -0.000 C 
BRANCH  28  29
ATOM     29  C   UNL     1      12.197 -16.618  21.931  1.00  0.00    -0.000 C 
BRANCH  29  30
ATOM     30  C   UNL     1      13.361 -17.444  21.353  1.00  0.00    -0.000 C 
BRANCH  30  31
ATOM     31  C   UNL     1      14.043 -18.322  22.415  1.00  0.00    -0.003 C 
ATOM     32  C   UNL     1      15.475 -18.700  22.038  1.00  0.00     0.004 C 
ENDBRANCH  30  31
ENDBRANCH  29  30
ENDBRANCH  28  29
ENDBRANCH  27  28
ENDBRANCH  26  27
ENDBRANCH  25  26
ENDBRANCH  24  25
ENDBRANCH  23  24
ENDBRANCH  22  23
ENDBRANCH  21  22
ENDBRANCH  20  21
ENDBRANCH  19  20
ENDBRANCH  18  19
ENDBRANCH   1  18
TORSDOF 28
ENDMDL
MODEL 5
REMARK VINA RESULT:    -4.452      2.227      5.293
REMARK INTER + INTRA:         -17.963
REMARK INTER:                 -11.578
REMARK INTRA:                  -6.385
REMARK UNBOUND:                -6.223
REMARK SMILES CCCCCCCCCCCCCCCCCCCCCCCCCCCCCC(=O)[O-]
REMARK SMILES IDX 16 1 17 2 18 3 19 4 20 5 21 6 22 7 23 8 24 9 25 10 26 11
REMARK SMILES IDX 27 12 28 13 29 14 30 15 31 16 32 17 15 18 14 19 13 20 12 21
REMARK SMILES IDX 11 22 10 23 9 24 8 25 7 26 6 27 5 28 4 29 3 30 2 31 1 32
REMARK H PARENT
REMARK Flexibility Score: inf
ROOT
ATOM      1  C   UNL     1       7.842 -16.587  20.559  1.00  0.00     0.000 C 
ENDROOT
BRANCH   1   2
ATOM      2  C   UNL     1       7.189 -17.572  19.579  1.00  0.00     0.000 C 
BRANCH   2   3
ATOM      3  C   UNL     1       7.577 -19.016  19.912  1.00  0.00     0.000 C 
BRANCH   3   4
ATOM      4  C   UNL     1       8.252 -19.106  21.287  1.00  0.00     0.000 C 
BRANCH   4   5
ATOM      5  C   UNL     1       7.430 -19.980  22.243  1.00  0.00     0.000 C 
BRANCH   5   6
ATOM      6  C   UNL     1       8.234 -21.206  22.704  1.00  0.00     0.000 C 
BRANCH   6   7
ATOM      7  C   UNL     1       7.992 -22.446  21.824  1.00  0.00     0.000 C 
BRANCH   7   8
ATOM      8  C   UNL     1       9.249 -23.007  21.130  1.00  0.00     0.000 C 
BRANCH   8   9
ATOM      9  C   UNL     1      10.589 -22.576  21.759  1.00  0.00     0.000 C 
BRANCH   9  10
ATOM     10  C   UNL     1      11.480 -21.702  20.857  1.00  0.00     0.000 C 
BRANCH  10  11
ATOM     11  C   UNL     1      10.804 -21.349  19.522  1.00  0.00     0.000 C 
BRANCH  11  12
ATOM     12  C   UNL     1      11.070 -19.900  19.070  1.00  0.00     0.000 C 
BRANCH  12  13
ATOM     13  C   UNL     1      11.811 -19.016  20.092  1.00  0.00     0.006 C 
BRANCH  13  14
ATOM     14  C   UNL     1      11.352 -17.552  20.068  1.00  0.00     0.053 C 
BRANCH  14  15
ATOM     15  C   UNL     1      11.474 -16.979  18.690  1.00  0.00     0.041 C 
ATOM     16  O   UNL     1      12.608 -16.851  18.157  1.00  0.00    -0.550 OA
ATOM     17  O   UNL     1      10.334 -16.603  17.988  1.00  0.00    -0.550 OA
ENDBRANCH  14  15
ENDBRANCH  13  14
ENDBRANCH  12  13
ENDBRANCH  11  12
ENDBRANCH  10  11
ENDBRANCH   9  10
ENDBRANCH   8   9
ENDBRANCH   7   8
ENDBRANCH   6   7
ENDBRANCH   5   6
ENDBRANCH   4   5
ENDBRANCH   3   4
ENDBRANCH   2   3
ENDBRANCH   1   2
BRANCH   1  18
ATOM     18  C   UNL     1       6.792 -15.653  21.179  1.00  0.00     0.000 C 
BRANCH  18  19
ATOM     19  C   UNL     1       7.199 -15.150  22.573  1.00  0.00     0.000 C 
BRANCH  19  20
ATOM     20  C   UNL     1       7.493 -16.297  23.557  1.00  0.00     0.000 C 
BRANCH  20  21
ATOM     21  C   UNL     1       8.612 -15.925  24.542  1.00  0.00     0.000 C 
BRANCH  21  22
ATOM     22  C   UNL     1       9.778 -15.175  23.860  1.00  0.00     0.000 C 
BRANCH  22  23
ATOM     23  C   UNL     1      11.059 -16.019  23.783  1.00  0.00     0.000 C 
BRANCH  23  24
ATOM     24  C   UNL     1      10.922 -17.336  24.565  1.00  0.00    -0.000 C 
BRANCH  24  25
ATOM     25  C   UNL     1      10.720 -18.526  23.616  1.00  0.00    -0.000 C 
BRANCH  25  26
ATOM     26  C   UNL     1      11.700 -19.681  23.891  1.00  0.00    -0.000 C 
BRANCH  26  27
ATOM     27  C   UNL     1      12.970 -19.285  24.673  1.00  0.00    -0.000 C 
BRANCH  27  28
ATOM     28  C   UNL     1      14.298 -19.580  23.950  1.00  0.00    -0.000 C 
BRANCH  28  29
ATOM     29  C   UNL     1      14.402 -19.016  22.522  1.00  0.00    -0.000 C 
BRANCH  29  30
ATOM     30  C   UNL     1      14.398 -17.476  22.490  1.00  0.00    -0.000 C 
BRANCH  30  31
ATOM     31  C   UNL     1      14.751 -16.916  21.103  1.00  0.00    -0.003 C 
ATOM     32  C   UNL     1      15.613 -17.874  20.280  1.00  0.00     0.004 C 
ENDBRANCH  30  31
ENDBRANCH  29  30
ENDBRANCH  28  29
ENDBRANCH  27  28
ENDBRANCH  26  27
ENDBRANCH  25  26
ENDBRANCH  24  25
ENDBRANCH  23  24
ENDBRANCH  22  23
ENDBRANCH  21  22
ENDBRANCH  20  21
ENDBRANCH  19  20
ENDBRANCH  18  19
ENDBRANCH   1  18
TORSDOF 28
ENDMDL
MODEL 6
REMARK VINA RESULT:    -4.446      2.120      5.394
REMARK INTER + INTRA:         -17.946
REMARK INTER:                 -11.609
REMARK INTRA:                  -6.337
REMARK UNBOUND:                -6.223
REMARK SMILES CCCCCCCCCCCCCCCCCCCCCCCCCCCCCC(=O)[O-]
REMARK SMILES IDX 16 1 17 2 18 3 19 4 20 5 21 6 22 7 23 8 24 9 25 10 26 11
REMARK SMILES IDX 27 12 28 13 29 14 30 15 31 16 32 17 15 18 14 19 13 20 12 21
REMARK SMILES IDX 11 22 10 23 9 24 8 25 7 26 6 27 5 28 4 29 3 30 2 31 1 32
REMARK H PARENT
REMARK Flexibility Score: inf
ROOT
ATOM      1  C   UNL     1      12.158 -18.274  23.265  1.00  0.00     0.000 C 
ENDROOT
BRANCH   1   2
ATOM      2  C   UNL     1      11.766 -16.878  23.768  1.00  0.00     0.000 C 
BRANCH   2   3
ATOM      3  C   UNL     1      10.936 -16.970  25.053  1.00  0.00     0.000 C 
BRANCH   3   4
ATOM      4  C   UNL     1       9.775 -15.969  25.036  1.00  0.00     0.000 C 
BRANCH   4   5
ATOM      5  C   UNL     1       8.607 -16.472  25.895  1.00  0.00     0.000 C 
BRANCH   5   6
ATOM      6  C   UNL     1       8.536 -18.007  25.891  1.00  0.00     0.000 C 
BRANCH   6   7
ATOM      7  C   UNL     1       7.099 -18.538  25.738  1.00  0.00     0.000 C 
BRANCH   7   8
ATOM      8  C   UNL     1       6.501 -18.399  24.324  1.00  0.00     0.000 C 
BRANCH   8   9
ATOM      9  C   UNL     1       7.531 -18.410  23.176  1.00  0.00     0.000 C 
BRANCH   9  10
ATOM     10  C   UNL     1       7.534 -17.148  22.293  1.00  0.00     0.000 C 
BRANCH  10  11
ATOM     11  C   UNL     1       8.864 -16.953  21.545  1.00  0.00     0.000 C 
BRANCH  11  12
ATOM     12  C   UNL     1       8.681 -16.660  20.044  1.00  0.00     0.000 C 
BRANCH  12  13
ATOM     13  C   UNL     1       9.883 -17.021  19.150  1.00  0.00     0.006 C 
BRANCH  13  14
ATOM     14  C   UNL     1      11.137 -17.399  19.948  1.00  0.00     0.053 C 
BRANCH  14  15
ATOM     15  C   UNL     1      12.254 -16.443  19.666  1.00  0.00     0.041 C 
ATOM     16  O   UNL     1      12.611 -15.611  20.541  1.00  0.00    -0.550 OA
ATOM     17  O   UNL     1      12.913 -16.484  18.442  1.00  0.00    -0.550 OA
ENDBRANCH  14  15
ENDBRANCH  13  14
ENDBRANCH  12  13
ENDBRANCH  11  12
ENDBRANCH  10  11
ENDBRANCH   9  10
ENDBRANCH   8   9
ENDBRANCH   7   8
ENDBRANCH   6   7
ENDBRANCH   5   6
ENDBRANCH   4   5
ENDBRANCH   3   4
ENDBRANCH   2   3
ENDBRANCH   1   2
BRANCH   1  18
ATOM     18  C   UNL     1      11.071 -19.304  23.602  1.00  0.00     0.000 C 
BRANCH  18  19
ATOM     19  C   UNL     1      10.876 -20.344  22.487  1.00  0.00     0.000 C 
BRANCH  19  20
ATOM     20  C   UNL     1      11.854 -21.527  22.599  1.00  0.00     0.000 C 
BRANCH  20  21
ATOM     21  C   UNL     1      11.130 -22.876  22.464  1.00  0.00     0.000 C 
BRANCH  21  22
ATOM     22  C   UNL     1      10.175 -22.917  21.251  1.00  0.00     0.000 C 
BRANCH  22  23
ATOM     23  C   UNL     1       8.712 -23.146  21.658  1.00  0.00     0.000 C 
BRANCH  23  24
ATOM     24  C   UNL     1       7.733 -22.578  20.617  1.00  0.00    -0.000 C 
BRANCH  24  25
ATOM     25  C   UNL     1       7.515 -21.072  20.826  1.00  0.00    -0.000 C 
BRANCH  25  26
ATOM     26  C   UNL     1       8.287 -20.212  19.808  1.00  0.00    -0.000 C 
BRANCH  26  27
ATOM     27  C   UNL     1       8.715 -20.949  18.524  1.00  0.00    -0.000 C 
BRANCH  27  28
ATOM     28  C   UNL     1      10.110 -20.569  17.989  1.00  0.00    -0.000 C 
BRANCH  28  29
ATOM     29  C   UNL     1      11.292 -21.069  18.837  1.00  0.00    -0.000 C 
BRANCH  29  30
ATOM     30  C   UNL     1      12.598 -20.310  18.540  1.00  0.00    -0.000 C 
BRANCH  30  31
ATOM     31  C   UNL     1      13.735 -20.699  19.499  1.00  0.00    -0.003 C 
ATOM     32  C   UNL     1      14.240 -19.518  20.328  1.00  0.00     0.004 C 
ENDBRANCH  30  31
ENDBRANCH  29  30
ENDBRANCH  28  29
ENDBRANCH  27  28
ENDBRANCH  26  27
ENDBRANCH  25  26
ENDBRANCH  24  25
ENDBRANCH  23  24
ENDBRANCH  22  23
ENDBRANCH  21  22
ENDBRANCH  20  21
ENDBRANCH  19  20
ENDBRANCH  18  19
ENDBRANCH   1  18
TORSDOF 28
ENDMDL
MODEL 7
REMARK VINA RESULT:    -4.397      2.305      6.210
REMARK INTER + INTRA:         -17.817
REMARK INTER:                 -12.340
REMARK INTRA:                  -5.478
REMARK UNBOUND:                -6.223
REMARK SMILES CCCCCCCCCCCCCCCCCCCCCCCCCCCCCC(=O)[O-]
REMARK SMILES IDX 16 1 17 2 18 3 19 4 20 5 21 6 22 7 23 8 24 9 25 10 26 11
REMARK SMILES IDX 27 12 28 13 29 14 30 15 31 16 32 17 15 18 14 19 13 20 12 21
REMARK SMILES IDX 11 22 10 23 9 24 8 25 7 26 6 27 5 28 4 29 3 30 2 31 1 32
REMARK H PARENT
REMARK Flexibility Score: inf
ROOT
ATOM      1  C   UNL     1       7.342 -16.074  21.167  1.00  0.00     0.000 C 
ENDROOT
BRANCH   1   2
ATOM      2  C   UNL     1       7.817 -17.498  21.488  1.00  0.00     0.000 C 
BRANCH   2   3
ATOM      3  C   UNL     1       9.096 -17.837  20.716  1.00  0.00     0.000 C 
BRANCH   3   4
ATOM      4  C   UNL     1      10.045 -18.692  21.564  1.00  0.00     0.000 C 
BRANCH   4   5
ATOM      5  C   UNL     1      11.279 -19.109  20.753  1.00  0.00     0.000 C 
BRANCH   5   6
ATOM      6  C   UNL     1      11.936 -20.365  21.347  1.00  0.00     0.000 C 
BRANCH   6   7
ATOM      7  C   UNL     1      10.997 -21.144  22.286  1.00  0.00     0.000 C 
BRANCH   7   8
ATOM      8  C   UNL     1      10.808 -22.631  21.929  1.00  0.00     0.000 C 
BRANCH   8   9
ATOM      9  C   UNL     1       9.444 -22.984  21.302  1.00  0.00     0.000 C 
BRANCH   9  10
ATOM     10  C   UNL     1       8.888 -21.935  20.321  1.00  0.00     0.000 C 
BRANCH  10  11
ATOM     11  C   UNL     1       7.587 -21.287  20.823  1.00  0.00     0.000 C 
BRANCH  11  12
ATOM     12  C   UNL     1       7.238 -21.667  22.274  1.00  0.00     0.000 C 
BRANCH  12  13
ATOM     13  C   UNL     1       7.407 -20.540  23.311  1.00  0.00     0.006 C 
BRANCH  13  14
ATOM     14  C   UNL     1       6.420 -20.643  24.480  1.00  0.00     0.053 C 
BRANCH  14  15
ATOM     15  C   UNL     1       6.977 -19.986  25.705  1.00  0.00     0.041 C 
ATOM     16  O   UNL     1       6.669 -20.415  26.848  1.00  0.00    -0.550 OA
ATOM     17  O   UNL     1       7.850 -18.911  25.583  1.00  0.00    -0.550 OA
ENDBRANCH  14  15
ENDBRANCH  13  14
ENDBRANCH  12  13
ENDBRANCH  11  12
ENDBRANCH  10  11
ENDBRANCH   9  10
ENDBRANCH   8   9
ENDBRANCH   7   8
ENDBRANCH   6   7
ENDBRANCH   5   6
ENDBRANCH   4   5
ENDBRANCH   3   4
ENDBRANCH   2   3
ENDBRANCH   1   2
BRANCH   1  18
ATOM     18  C   UNL     1       7.165 -15.252  22.452  1.00  0.00     0.000 C 
BRANCH  18  19
ATOM     19  C   UNL     1       7.741 -15.958  23.689  1.00  0.00     0.000 C 
BRANCH  19  20
ATOM     20  C   UNL     1       8.934 -15.203  24.304  1.00  0.00     0.000 C 
BRANCH  20  21
ATOM     21  C   UNL     1       9.858 -16.147  25.090  1.00  0.00     0.000 C 
BRANCH  21  22
ATOM     22  C   UNL     1      11.022 -16.688  24.230  1.00  0.00     0.000 C 
BRANCH  22  23
ATOM     23  C   UNL     1      11.382 -15.752  23.067  1.00  0.00     0.000 C 
BRANCH  23  24
ATOM     24  C   UNL     1      12.901 -15.538  22.956  1.00  0.00    -0.000 C 
BRANCH  24  25
ATOM     25  C   UNL     1      13.442 -16.085  21.627  1.00  0.00    -0.000 C 
BRANCH  25  26
ATOM     26  C   UNL     1      14.648 -17.024  21.817  1.00  0.00    -0.000 C 
BRANCH  26  27
ATOM     27  C   UNL     1      14.758 -18.161  20.780  1.00  0.00    -0.000 C 
BRANCH  27  28
ATOM     28  C   UNL     1      15.603 -19.369  21.227  1.00  0.00    -0.000 C 
BRANCH  28  29
ATOM     29  C   UNL     1      16.092 -19.320  22.685  1.00  0.00    -0.000 C 
BRANCH  29  30
ATOM     30  C   UNL     1      15.776 -20.611  23.461  1.00  0.00    -0.000 C 
BRANCH  30  31
ATOM     31  C   UNL     1      14.314 -20.672  23.932  1.00  0.00    -0.003 C 
ATOM     32  C   UNL     1      13.829 -19.349  24.525  1.00  0.00     0.004 C 
ENDBRANCH  30  31
ENDBRANCH  29  30
ENDBRANCH  28  29
ENDBRANCH  27  28
ENDBRANCH  26  27
ENDBRANCH  25  26
ENDBRANCH  24  25
ENDBRANCH  23  24
ENDBRANCH  22  23
ENDBRANCH  21  22
ENDBRANCH  20  21
ENDBRANCH  19  20
ENDBRANCH  18  19
ENDBRANCH   1  18
TORSDOF 28
ENDMDL
MODEL 8
REMARK VINA RESULT:    -4.389      1.775      4.876
REMARK INTER + INTRA:         -17.797
REMARK INTER:                 -12.601
REMARK INTRA:                  -5.196
REMARK UNBOUND:                -6.223
REMARK SMILES CCCCCCCCCCCCCCCCCCCCCCCCCCCCCC(=O)[O-]
REMARK SMILES IDX 16 1 17 2 18 3 19 4 20 5 21 6 22 7 23 8 24 9 25 10 26 11
REMARK SMILES IDX 27 12 28 13 29 14 30 15 31 16 32 17 15 18 14 19 13 20 12 21
REMARK SMILES IDX 11 22 10 23 9 24 8 25 7 26 6 27 5 28 4 29 3 30 2 31 1 32
REMARK H PARENT
REMARK Flexibility Score: inf
ROOT
ATOM      1  C   UNL     1      10.798 -20.473  22.682  1.00  0.00     0.000 C 
ENDROOT
BRANCH   1   2
ATOM      2  C   UNL     1      10.820 -18.956  22.910  1.00  0.00     0.000 C 
BRANCH   2   3
ATOM      3  C   UNL     1      11.083 -18.625  24.383  1.00  0.00     0.000 C 
BRANCH   3   4
ATOM      4  C   UNL     1      11.841 -17.300  24.527  1.00  0.00     0.000 C 
BRANCH   4   5
ATOM      5  C   UNL     1      11.321 -16.260  23.526  1.00  0.00     0.000 C 
BRANCH   5   6
ATOM      6  C   UNL     1      12.478 -15.466  22.899  1.00  0.00     0.000 C 
BRANCH   6   7
ATOM      7  C   UNL     1      13.807 -16.243  22.900  1.00  0.00     0.000 C 
BRANCH   7   8
ATOM      8  C   UNL     1      14.222 -16.823  21.533  1.00  0.00     0.000 C 
BRANCH   8   9
ATOM      9  C   UNL     1      14.054 -18.349  21.394  1.00  0.00     0.000 C 
BRANCH   9  10
ATOM     10  C   UNL     1      15.205 -19.187  21.982  1.00  0.00     0.000 C 
BRANCH  10  11
ATOM     11  C   UNL     1      14.883 -20.691  22.018  1.00  0.00     0.000 C 
BRANCH  11  12
ATOM     12  C   UNL     1      15.715 -21.465  23.058  1.00  0.00     0.000 C 
BRANCH  12  13
ATOM     13  C   UNL     1      16.660 -20.606  23.921  1.00  0.00     0.006 C 
BRANCH  13  14
ATOM     14  C   UNL     1      18.128 -20.704  23.488  1.00  0.00     0.053 C 
BRANCH  14  15
ATOM     15  C   UNL     1      18.809 -21.847  24.174  1.00  0.00     0.041 C 
ATOM     16  O   UNL     1      19.702 -22.503  23.576  1.00  0.00    -0.550 OA
ATOM     17  O   UNL     1      18.470 -22.176  25.482  1.00  0.00    -0.550 OA
ENDBRANCH  14  15
ENDBRANCH  13  14
ENDBRANCH  12  13
ENDBRANCH  11  12
ENDBRANCH  10  11
ENDBRANCH   9  10
ENDBRANCH   8   9
ENDBRANCH   7   8
ENDBRANCH   6   7
ENDBRANCH   5   6
ENDBRANCH   4   5
ENDBRANCH   3   4
ENDBRANCH   2   3
ENDBRANCH   1   2
BRANCH   1  18
ATOM     18  C   UNL     1      11.202 -20.818  21.242  1.00  0.00     0.000 C 
BRANCH  18  19
ATOM     19  C   UNL     1      10.184 -21.735  20.546  1.00  0.00     0.000 C 
BRANCH  19  20
ATOM     20  C   UNL     1       9.754 -22.923  21.426  1.00  0.00     0.000 C 
BRANCH  20  21
ATOM     21  C   UNL     1       8.251 -22.878  21.743  1.00  0.00     0.000 C 
BRANCH  21  22
ATOM     22  C   UNL     1       7.520 -21.744  20.991  1.00  0.00     0.000 C 
BRANCH  22  23
ATOM     23  C   UNL     1       7.086 -20.602  21.921  1.00  0.00     0.000 C 
BRANCH  23  24
ATOM     24  C   UNL     1       7.008 -21.059  23.387  1.00  0.00    -0.000 C 
BRANCH  24  25
ATOM     25  C   UNL     1       7.542 -19.975  24.335  1.00  0.00    -0.000 C 
BRANCH  25  26
ATOM     26  C   UNL     1       6.670 -18.706  24.341  1.00  0.00    -0.000 C 
BRANCH  26  27
ATOM     27  C   UNL     1       7.451 -17.379  24.251  1.00  0.00    -0.000 C 
BRANCH  27  28
ATOM     28  C   UNL     1       7.120 -16.511  23.021  1.00  0.00    -0.000 C 
BRANCH  28  29
ATOM     29  C   UNL     1       8.140 -16.593  21.873  1.00  0.00    -0.000 C 
BRANCH  29  30
ATOM     30  C   UNL     1       7.488 -16.943  20.523  1.00  0.00    -0.000 C 
BRANCH  30  31
ATOM     31  C   UNL     1       8.261 -18.032  19.761  1.00  0.00    -0.003 C 
ATOM     32  C   UNL     1       9.742 -17.695  19.589  1.00  0.00     0.004 C 
ENDBRANCH  30  31
ENDBRANCH  29  30
ENDBRANCH  28  29
ENDBRANCH  27  28
ENDBRANCH  26  27
ENDBRANCH  25  26
ENDBRANCH  24  25
ENDBRANCH  23  24
ENDBRANCH  22  23
ENDBRANCH  21  22
ENDBRANCH  20  21
ENDBRANCH  19  20
ENDBRANCH  18  19
ENDBRANCH   1  18
TORSDOF 28
ENDMDL
MODEL 9
REMARK VINA RESULT:    -4.382      1.584      5.693
REMARK INTER + INTRA:         -17.778
REMARK INTER:                 -12.014
REMARK INTRA:                  -5.764
REMARK UNBOUND:                -6.223
REMARK SMILES CCCCCCCCCCCCCCCCCCCCCCCCCCCCCC(=O)[O-]
REMARK SMILES IDX 16 1 17 2 18 3 19 4 20 5 21 6 22 7 23 8 24 9 25 10 26 11
REMARK SMILES IDX 27 12 28 13 29 14 30 15 31 16 32 17 15 18 14 19 13 20 12 21
REMARK SMILES IDX 11 22 10 23 9 24 8 25 7 26 6 27 5 28 4 29 3 30 2 31 1 32
REMARK H PARENT
REMARK Flexibility Score: inf
ROOT
ATOM      1  C   UNL     1       7.336 -21.229  22.872  1.00  0.00     0.000 C 
ENDROOT
BRANCH   1   2
ATOM      2  C   UNL     1       6.677 -20.000  23.512  1.00  0.00     0.000 C 
BRANCH   2   3
ATOM      3  C   UNL     1       7.121 -19.833  24.969  1.00  0.00     0.000 C 
BRANCH   3   4
ATOM      4  C   UNL     1       7.457 -18.370  25.282  1.00  0.00     0.000 C 
BRANCH   4   5
ATOM      5  C   UNL     1       7.047 -17.454  24.123  1.00  0.00     0.000 C 
BRANCH   5   6
ATOM      6  C   UNL     1       7.953 -16.215  24.046  1.00  0.00     0.000 C 
BRANCH   6   7
ATOM      7  C   UNL     1       7.495 -15.204  22.979  1.00  0.00     0.000 C 
BRANCH   7   8
ATOM      8  C   UNL     1       6.748 -15.819  21.779  1.00  0.00     0.000 C 
BRANCH   8   9
ATOM      9  C   UNL     1       7.641 -16.209  20.584  1.00  0.00     0.000 C 
BRANCH   9  10
ATOM     10  C   UNL     1       8.120 -17.672  20.580  1.00  0.00     0.000 C 
BRANCH  10  11
ATOM     11  C   UNL     1       9.609 -17.809  20.937  1.00  0.00     0.000 C 
BRANCH  11  12
ATOM     12  C   UNL     1       9.860 -18.711  22.161  1.00  0.00     0.000 C 
BRANCH  12  13
ATOM     13  C   UNL     1      11.253 -18.575  22.806  1.00  0.00     0.006 C 
BRANCH  13  14
ATOM     14  C   UNL     1      11.406 -17.303  23.649  1.00  0.00     0.053 C 
BRANCH  14  15
ATOM     15  C   UNL     1      11.774 -17.640  25.060  1.00  0.00     0.041 C 
ATOM     16  O   UNL     1      10.944 -17.464  25.990  1.00  0.00    -0.550 OA
ATOM     17  O   UNL     1      13.029 -18.167  25.345  1.00  0.00    -0.550 OA
ENDBRANCH  14  15
ENDBRANCH  13  14
ENDBRANCH  12  13
ENDBRANCH  11  12
ENDBRANCH  10  11
ENDBRANCH   9  10
ENDBRANCH   8   9
ENDBRANCH   7   8
ENDBRANCH   6   7
ENDBRANCH   5   6
ENDBRANCH   4   5
ENDBRANCH   3   4
ENDBRANCH   2   3
ENDBRANCH   1   2
BRANCH   1  18
ATOM     18  C   UNL     1       7.164 -21.213  21.347  1.00  0.00     0.000 C 
BRANCH  18  19
ATOM     19  C   UNL     1       8.029 -22.272  20.644  1.00  0.00     0.000 C 
BRANCH  19  20
ATOM     20  C   UNL     1       9.265 -22.674  21.468  1.00  0.00     0.000 C 
BRANCH  20  21
ATOM     21  C   UNL     1      10.545 -22.020  20.926  1.00  0.00     0.000 C 
BRANCH  21  22
ATOM     22  C   UNL     1      10.388 -21.526  19.470  1.00  0.00     0.000 C 
BRANCH  22  23
ATOM     23  C   UNL     1      11.422 -20.453  19.096  1.00  0.00     0.000 C 
BRANCH  23  24
ATOM     24  C   UNL     1      12.716 -20.597  19.914  1.00  0.00    -0.000 C 
BRANCH  24  25
ATOM     25  C   UNL     1      13.465 -19.259  20.004  1.00  0.00    -0.000 C 
BRANCH  25  26
ATOM     26  C   UNL     1      14.895 -19.338  19.438  1.00  0.00    -0.000 C 
BRANCH  26  27
ATOM     27  C   UNL     1      15.956 -18.555  20.238  1.00  0.00    -0.000 C 
BRANCH  27  28
ATOM     28  C   UNL     1      15.778 -18.593  21.768  1.00  0.00    -0.000 C 
BRANCH  28  29
ATOM     29  C   UNL     1      16.585 -19.685  22.490  1.00  0.00    -0.000 C 
BRANCH  29  30
ATOM     30  C   UNL     1      15.769 -20.403  23.581  1.00  0.00    -0.000 C 
BRANCH  30  31
ATOM     31  C   UNL     1      14.929 -21.563  23.020  1.00  0.00    -0.003 C 
ATOM     32  C   UNL     1      13.455 -21.468  23.412  1.00  0.00     0.004 C 
ENDBRANCH  30  31
ENDBRANCH  29  30
ENDBRANCH  28  29
ENDBRANCH  27  28
ENDBRANCH  26  27
ENDBRANCH  25  26
ENDBRANCH  24  25
ENDBRANCH  23  24
ENDBRANCH  22  23
ENDBRANCH  21  22
ENDBRANCH  20  21
ENDBRANCH  19  20
ENDBRANCH  18  19
ENDBRANCH   1  18
TORSDOF 28
ENDMDL
