MODEL 1
REMARK VINA RESULT:    -4.496      0.000      0.000
REMARK INTER + INTRA:          -5.223
REMARK INTER:                  -5.153
REMARK INTRA:                  -0.070
REMARK UNBOUND:                -0.070
REMARK SMILES C=Cc1ccc(O)c(OC)c1
REMARK SMILES IDX 8 1 6 2 5 3 4 4 3 5 11 6 9 7 10 8 7 9 2 11 1 12
REMARK H PARENT 7 10
REMARK Flexibility Score: inf
ROOT
ATOM      1  C   UNL     1     149.801 149.133 145.736  1.00  0.00     0.161 A 
ATOM      2  C   UNL     1     150.858 148.249 145.457  1.00  0.00     0.157 A 
ATOM      3  C   UNL     1     152.161 148.737 145.324  1.00  0.00     0.051 A 
ATOM      4  C   UNL     1     152.427 150.099 145.469  1.00  0.00     0.012 A 
ATOM      5  C   UNL     1     151.385 151.001 145.760  1.00  0.00    -0.022 A 
ATOM      6  C   UNL     1     150.075 150.509 145.881  1.00  0.00     0.058 A 
ENDROOT
BRANCH   1   7
ATOM      7  O   UNL     1     148.502 148.616 145.860  1.00  0.00    -0.493 OA
ATOM      8  C   UNL     1     147.342 149.399 146.125  1.00  0.00     0.278 C 
ENDBRANCH   1   7
BRANCH   2   9
ATOM      9  O   UNL     1     150.633 146.881 145.307  1.00  0.00    -0.504 OA
ATOM     10  H   UNL     1     150.294 146.481 144.440  1.00  0.00     0.293 HD
ENDBRANCH   2   9
BRANCH   5  11
ATOM     11  C   UNL     1     151.612 152.460 145.915  1.00  0.00     0.000 C 
ATOM     12  C   UNL     1     150.666 153.387 145.760  1.00  0.00     0.009 C 
ENDBRANCH   5  11
TORSDOF 3
ENDMDL
MODEL 2
REMARK VINA RESULT:    -4.408      2.742      4.892
REMARK INTER + INTRA:          -5.122
REMARK INTER:                  -5.033
REMARK INTRA:                  -0.090
REMARK UNBOUND:                -0.070
REMARK SMILES C=Cc1ccc(O)c(OC)c1
REMARK SMILES IDX 8 1 6 2 5 3 4 4 3 5 11 6 9 7 10 8 7 9 2 11 1 12
REMARK H PARENT 7 10
REMARK Flexibility Score: inf
ROOT
ATOM      1  C   UNL     1     151.304 152.001 145.816  1.00  0.00     0.161 A 
ATOM      2  C   UNL     1     150.452 153.088 145.550  1.00  0.00     0.157 A 
ATOM      3  C   UNL     1     149.071 152.889 145.468  1.00  0.00     0.051 A 
ATOM      4  C   UNL     1     148.524 151.618 145.651  1.00  0.00     0.012 A 
ATOM      5  C   UNL     1     149.357 150.518 145.931  1.00  0.00    -0.022 A 
ATOM      6  C   UNL     1     150.746 150.719 146.000  1.00  0.00     0.058 A 
ENDROOT
BRANCH   1   7
ATOM      7  O   UNL     1     152.687 152.228 145.888  1.00  0.00    -0.493 OA
ATOM      8  C   UNL     1     153.679 151.209 145.809  1.00  0.00     0.278 C 
ENDBRANCH   1   7
BRANCH   2   9
ATOM      9  O   UNL     1     150.959 154.373 145.363  1.00  0.00    -0.504 OA
ATOM     10  H   UNL     1     150.359 155.173 145.203  1.00  0.00     0.293 HD
ENDBRANCH   2   9
BRANCH   5  11
ATOM     11  C   UNL     1     148.829 149.145 146.125  1.00  0.00     0.000 C 
ATOM     12  C   UNL     1     147.609 148.751 145.756  1.00  0.00     0.009 C 
ENDBRANCH   5  11
TORSDOF 3
ENDMDL
MODEL 3
REMARK VINA RESULT:    -4.354      1.848      3.683
REMARK INTER + INTRA:          -5.060
REMARK INTER:                  -4.990
REMARK INTRA:                  -0.070
REMARK UNBOUND:                -0.070
REMARK SMILES C=Cc1ccc(O)c(OC)c1
REMARK SMILES IDX 8 1 6 2 5 3 4 4 3 5 11 6 9 7 10 8 7 9 2 11 1 12
REMARK H PARENT 7 10
REMARK Flexibility Score: inf
ROOT
ATOM      1  C   UNL     1     149.175 151.464 145.784  1.00  0.00     0.161 A 
ATOM      2  C   UNL     1     149.447 152.842 145.721  1.00  0.00     0.157 A 
ATOM      3  C   UNL     1     150.769 153.293 145.702  1.00  0.00     0.051 A 
ATOM      4  C   UNL     1     151.829 152.386 145.743  1.00  0.00     0.012 A 
ATOM      5  C   UNL     1     151.580 151.001 145.794  1.00  0.00    -0.022 A 
ATOM      6  C   UNL     1     150.249 150.552 145.825  1.00  0.00     0.058 A 
ENDROOT
BRANCH   1   7
ATOM      7  O   UNL     1     147.837 151.039 145.806  1.00  0.00    -0.493 OA
ATOM      8  C   UNL     1     147.422 149.682 145.931  1.00  0.00     0.278 C 
ENDBRANCH   1   7
BRANCH   2   9
ATOM      9  O   UNL     1     148.415 153.779 145.677  1.00  0.00    -0.504 OA
ATOM     10  H   UNL     1     147.457 153.519 145.472  1.00  0.00     0.293 HD
ENDBRANCH   2   9
BRANCH   5  11
ATOM     11  C   UNL     1     152.670 149.995 145.848  1.00  0.00     0.000 C 
ATOM     12  C   UNL     1     152.525 148.713 145.511  1.00  0.00     0.009 C 
ENDBRANCH   5  11
TORSDOF 3
ENDMDL
MODEL 4
REMARK VINA RESULT:    -3.977      2.065      3.386
REMARK INTER + INTRA:          -4.629
REMARK INTER:                  -4.559
REMARK INTRA:                  -0.070
REMARK UNBOUND:                -0.070
REMARK SMILES C=Cc1ccc(O)c(OC)c1
REMARK SMILES IDX 8 1 6 2 5 3 4 4 3 5 11 6 9 7 10 8 7 9 2 11 1 12
REMARK H PARENT 7 10
REMARK Flexibility Score: inf
ROOT
ATOM      1  C   UNL     1     152.086 150.609 145.698  1.00  0.00     0.161 A 
ATOM      2  C   UNL     1     151.618 149.391 145.174  1.00  0.00     0.157 A 
ATOM      3  C   UNL     1     150.250 149.201 144.963  1.00  0.00     0.051 A 
ATOM      4  C   UNL     1     149.337 150.213 145.265  1.00  0.00     0.012 A 
ATOM      5  C   UNL     1     149.785 151.445 145.779  1.00  0.00    -0.022 A 
ATOM      6  C   UNL     1     151.160 151.628 146.002  1.00  0.00     0.058 A 
ENDROOT
BRANCH   1   7
ATOM      7  O   UNL     1     153.465 150.771 145.904  1.00  0.00    -0.493 OA
ATOM      8  C   UNL     1     154.108 152.022 146.125  1.00  0.00     0.278 C 
ENDBRANCH   1   7
BRANCH   2   9
ATOM      9  O   UNL     1     152.498 148.356 144.858  1.00  0.00    -0.504 OA
ATOM     10  H   UNL     1     153.118 147.945 145.547  1.00  0.00     0.293 HD
ENDBRANCH   2   9
BRANCH   5  11
ATOM     11  C   UNL     1     148.857 152.551 146.125  1.00  0.00     0.000 C 
ATOM     12  C   UNL     1     149.184 153.844 146.088  1.00  0.00     0.009 C 
ENDBRANCH   5  11
TORSDOF 3
ENDMDL
MODEL 5
REMARK VINA RESULT:    -3.495      1.648      2.593
REMARK INTER + INTRA:          -4.075
REMARK INTER:                  -4.178
REMARK INTRA:                   0.103
REMARK UNBOUND:                -0.070
REMARK SMILES C=Cc1ccc(O)c(OC)c1
REMARK SMILES IDX 8 1 6 2 5 3 4 4 3 5 11 6 9 7 10 8 7 9 2 11 1 12
REMARK H PARENT 7 10
REMARK Flexibility Score: inf
ROOT
ATOM      1  C   UNL     1     151.020 149.548 145.973  1.00  0.00     0.161 A 
ATOM      2  C   UNL     1     152.289 150.080 145.684  1.00  0.00     0.157 A 
ATOM      3  C   UNL     1     152.452 151.459 145.534  1.00  0.00     0.051 A 
ATOM      4  C   UNL     1     151.363 152.322 145.673  1.00  0.00     0.012 A 
ATOM      5  C   UNL     1     150.085 151.813 145.975  1.00  0.00    -0.022 A 
ATOM      6  C   UNL     1     149.923 150.424 146.112  1.00  0.00     0.058 A 
ENDROOT
BRANCH   1   7
ATOM      7  O   UNL     1     150.884 148.158 146.113  1.00  0.00    -0.493 OA
ATOM      8  C   UNL     1     151.081 147.217 145.063  1.00  0.00     0.278 C 
ENDBRANCH   1   7
BRANCH   2   9
ATOM      9  O   UNL     1     153.401 149.251 145.539  1.00  0.00    -0.504 OA
ATOM     10  H   UNL     1     153.429 148.312 145.919  1.00  0.00     0.293 HD
ENDBRANCH   2   9
BRANCH   5  11
ATOM     11  C   UNL     1     148.893 152.684 146.125  1.00  0.00     0.000 C 
ATOM     12  C   UNL     1     148.729 153.847 145.492  1.00  0.00     0.009 C 
ENDBRANCH   5  11
TORSDOF 3
ENDMDL
MODEL 6
REMARK VINA RESULT:    -3.187      8.403      9.636
REMARK INTER + INTRA:          -3.723
REMARK INTER:                  -3.620
REMARK INTRA:                  -0.103
REMARK UNBOUND:                -0.070
REMARK SMILES C=Cc1ccc(O)c(OC)c1
REMARK SMILES IDX 8 1 6 2 5 3 4 4 3 5 11 6 9 7 10 8 7 9 2 11 1 12
REMARK H PARENT 7 10
REMARK Flexibility Score: inf
ROOT
ATOM      1  C   UNL     1     153.264 142.977 139.226  1.00  0.00     0.161 A 
ATOM      2  C   UNL     1     152.088 143.648 139.603  1.00  0.00     0.157 A 
ATOM      3  C   UNL     1     151.989 145.032 139.437  1.00  0.00     0.051 A 
ATOM      4  C   UNL     1     153.050 145.760 138.894  1.00  0.00     0.012 A 
ATOM      5  C   UNL     1     154.233 145.107 138.499  1.00  0.00    -0.022 A 
ATOM      6  C   UNL     1     154.333 143.717 138.680  1.00  0.00     0.058 A 
ENDROOT
BRANCH   1   7
ATOM      7  O   UNL     1     153.338 141.587 139.409  1.00  0.00    -0.493 OA
ATOM      8  C   UNL     1     153.960 140.950 140.520  1.00  0.00     0.278 C 
ENDBRANCH   1   7
BRANCH   2   9
ATOM      9  O   UNL     1     151.006 142.957 140.146  1.00  0.00    -0.504 OA
ATOM     10  H   UNL     1     150.443 143.338 140.898  1.00  0.00     0.293 HD
ENDBRANCH   2   9
BRANCH   5  11
ATOM     11  C   UNL     1     155.393 145.833 137.926  1.00  0.00     0.000 C 
ATOM     12  C   UNL     1     156.067 146.792 138.562  1.00  0.00     0.009 C 
ENDBRANCH   5  11
TORSDOF 3
ENDMDL
MODEL 7
REMARK VINA RESULT:    -3.178      9.622     10.945
REMARK INTER + INTRA:          -3.712
REMARK INTER:                  -3.618
REMARK INTRA:                  -0.094
REMARK UNBOUND:                -0.070
REMARK SMILES C=Cc1ccc(O)c(OC)c1
REMARK SMILES IDX 8 1 6 2 5 3 4 4 3 5 11 6 9 7 10 8 7 9 2 11 1 12
REMARK H PARENT 7 10
REMARK Flexibility Score: inf
ROOT
ATOM      1  C   UNL     1     147.977 158.299 139.196  1.00  0.00     0.161 A 
ATOM      2  C   UNL     1     149.179 157.670 139.564  1.00  0.00     0.157 A 
ATOM      3  C   UNL     1     149.322 156.289 139.406  1.00  0.00     0.051 A 
ATOM      4  C   UNL     1     148.280 155.522 138.881  1.00  0.00     0.012 A 
ATOM      5  C   UNL     1     147.072 156.133 138.494  1.00  0.00    -0.022 A 
ATOM      6  C   UNL     1     146.927 157.520 138.666  1.00  0.00     0.058 A 
ENDROOT
BRANCH   1   7
ATOM      7  O   UNL     1     147.859 159.687 139.369  1.00  0.00    -0.493 OA
ATOM      8  C   UNL     1     147.319 160.314 140.528  1.00  0.00     0.278 C 
ENDBRANCH   1   7
BRANCH   2   9
ATOM      9  O   UNL     1     150.243 158.401 140.091  1.00  0.00    -0.504 OA
ATOM     10  H   UNL     1     150.623 159.215 139.623  1.00  0.00     0.293 HD
ENDBRANCH   2   9
BRANCH   5  11
ATOM     11  C   UNL     1     145.930 155.364 137.939  1.00  0.00     0.000 C 
ATOM     12  C   UNL     1     145.143 154.564 138.659  1.00  0.00     0.009 C 
ENDBRANCH   5  11
TORSDOF 3
ENDMDL
MODEL 8
REMARK VINA RESULT:    -3.162      8.859     10.025
REMARK INTER + INTRA:          -3.695
REMARK INTER:                  -3.602
REMARK INTRA:                  -0.093
REMARK UNBOUND:                -0.070
REMARK SMILES C=Cc1ccc(O)c(OC)c1
REMARK SMILES IDX 8 1 6 2 5 3 4 4 3 5 11 6 9 7 10 8 7 9 2 11 1 12
REMARK H PARENT 7 10
REMARK Flexibility Score: inf
ROOT
ATOM      1  C   UNL     1     142.973 147.998 139.202  1.00  0.00     0.161 A 
ATOM      2  C   UNL     1     143.580 149.212 139.571  1.00  0.00     0.157 A 
ATOM      3  C   UNL     1     144.958 149.380 139.413  1.00  0.00     0.051 A 
ATOM      4  C   UNL     1     145.744 148.353 138.888  1.00  0.00     0.012 A 
ATOM      5  C   UNL     1     145.155 147.134 138.501  1.00  0.00    -0.022 A 
ATOM      6  C   UNL     1     143.771 146.963 138.672  1.00  0.00     0.058 A 
ENDROOT
BRANCH   1   7
ATOM      7  O   UNL     1     141.587 147.855 139.375  1.00  0.00    -0.493 OA
ATOM      8  C   UNL     1     140.971 147.302 140.534  1.00  0.00     0.278 C 
ENDBRANCH   1   7
BRANCH   2   9
ATOM      9  O   UNL     1     142.830 150.263 140.097  1.00  0.00    -0.504 OA
ATOM     10  H   UNL     1     143.161 150.830 140.868  1.00  0.00     0.293 HD
ENDBRANCH   2   9
BRANCH   5  11
ATOM     11  C   UNL     1     145.945 146.006 137.946  1.00  0.00     0.000 C 
ATOM     12  C   UNL     1     146.650 145.148 138.685  1.00  0.00     0.009 C 
ENDBRANCH   5  11
TORSDOF 3
ENDMDL
MODEL 9
REMARK VINA RESULT:    -3.155      9.406     10.659
REMARK INTER + INTRA:          -3.686
REMARK INTER:                  -3.592
REMARK INTRA:                  -0.094
REMARK UNBOUND:                -0.070
REMARK SMILES C=Cc1ccc(O)c(OC)c1
REMARK SMILES IDX 8 1 6 2 5 3 4 4 3 5 11 6 9 7 10 8 7 9 2 11 1 12
REMARK H PARENT 7 10
REMARK Flexibility Score: inf
ROOT
ATOM      1  C   UNL     1     158.431 153.260 139.198  1.00  0.00     0.161 A 
ATOM      2  C   UNL     1     157.823 152.043 139.553  1.00  0.00     0.157 A 
ATOM      3  C   UNL     1     156.445 151.879 139.399  1.00  0.00     0.051 A 
ATOM      4  C   UNL     1     155.658 152.913 138.889  1.00  0.00     0.012 A 
ATOM      5  C   UNL     1     156.247 154.136 138.515  1.00  0.00    -0.022 A 
ATOM      6  C   UNL     1     157.632 154.303 138.683  1.00  0.00     0.058 A 
ENDROOT
BRANCH   1   7
ATOM      7  O   UNL     1     159.817 153.399 139.367  1.00  0.00    -0.493 OA
ATOM      8  C   UNL     1     160.438 153.952 140.524  1.00  0.00     0.278 C 
ENDBRANCH   1   7
BRANCH   2   9
ATOM      9  O   UNL     1     158.574 150.985 140.065  1.00  0.00    -0.504 OA
ATOM     10  H   UNL     1     158.684 150.832 141.060  1.00  0.00     0.293 HD
ENDBRANCH   2   9
BRANCH   5  11
ATOM     11  C   UNL     1     155.457 155.272 137.976  1.00  0.00     0.000 C 
ATOM     12  C   UNL     1     154.757 156.122 138.728  1.00  0.00     0.009 C 
ENDBRANCH   5  11
TORSDOF 3
ENDMDL
