MODEL 1
REMARK VINA RESULT:    -3.213      0.000      0.000
REMARK INTER + INTRA:          -4.133
REMARK INTER:                  -4.058
REMARK INTRA:                  -0.074
REMARK UNBOUND:                -0.074
REMARK SMILES CCCCCCO
REMARK SMILES IDX 4 1 3 2 2 3 1 4 5 5 6 6 7 7
REMARK H PARENT 7 8
REMARK Flexibility Score: inf
ROOT
ATOM      1  C   UNL     1       6.063  14.234  14.853  1.00  0.00     0.002 C 
ENDROOT
BRANCH   1   2
ATOM      2  C   UNL     1       5.648  13.803  13.431  1.00  0.00    -0.000 C 
BRANCH   2   3
ATOM      3  C   UNL     1       4.488  12.793  13.371  1.00  0.00    -0.003 C 
ATOM      4  C   UNL     1       3.780  12.779  12.017  1.00  0.00     0.004 C 
ENDBRANCH   2   3
ENDBRANCH   1   2
BRANCH   1   5
ATOM      5  C   UNL     1       5.057  13.874  15.963  1.00  0.00     0.028 C 
BRANCH   5   6
ATOM      6  C   UNL     1       5.486  14.376  17.343  1.00  0.00     0.156 C 
BRANCH   6   7
ATOM      7  O   UNL     1       4.625  15.402  17.752  1.00  0.00    -0.396 OA
ATOM      8  H   UNL     1       3.705  15.039  17.670  1.00  0.00     0.210 HD
ENDBRANCH   6   7
ENDBRANCH   5   6
ENDBRANCH   1   5
TORSDOF 5
ENDMDL
MODEL 2
REMARK VINA RESULT:    -3.128      3.472      4.954
REMARK INTER + INTRA:          -4.025
REMARK INTER:                  -3.933
REMARK INTRA:                  -0.093
REMARK UNBOUND:                -0.074
REMARK SMILES CCCCCCO
REMARK SMILES IDX 4 1 3 2 2 3 1 4 5 5 6 6 7 7
REMARK H PARENT 7 8
REMARK Flexibility Score: inf
ROOT
ATOM      1  C   UNL     1       3.704  12.217  13.589  1.00  0.00     0.002 C 
ENDROOT
BRANCH   1   2
ATOM      2  C   UNL     1       4.748  12.899  14.498  1.00  0.00    -0.000 C 
BRANCH   2   3
ATOM      3  C   UNL     1       5.574  14.007  13.820  1.00  0.00    -0.003 C 
ATOM      4  C   UNL     1       6.708  14.528  14.703  1.00  0.00     0.004 C 
ENDBRANCH   2   3
ENDBRANCH   1   2
BRANCH   1   5
ATOM      5  C   UNL     1       3.631  12.768  12.154  1.00  0.00     0.028 C 
BRANCH   5   6
ATOM      6  C   UNL     1       4.151  11.780  11.107  1.00  0.00     0.156 C 
BRANCH   6   7
ATOM      7  O   UNL     1       4.283  12.434   9.877  1.00  0.00    -0.396 OA
ATOM      8  H   UNL     1       3.572  12.066   9.290  1.00  0.00     0.210 HD
ENDBRANCH   6   7
ENDBRANCH   5   6
ENDBRANCH   1   5
TORSDOF 5
ENDMDL
MODEL 3
REMARK VINA RESULT:    -3.090      5.410      6.427
REMARK INTER + INTRA:          -3.978
REMARK INTER:                  -3.925
REMARK INTRA:                  -0.053
REMARK UNBOUND:                -0.074
REMARK SMILES CCCCCCO
REMARK SMILES IDX 4 1 3 2 2 3 1 4 5 5 6 6 7 7
REMARK H PARENT 7 8
REMARK Flexibility Score: inf
ROOT
ATOM      1  C   UNL     1       6.396  11.383  10.942  1.00  0.00     0.002 C 
ENDROOT
BRANCH   1   2
ATOM      2  C   UNL     1       5.002  11.738  10.384  1.00  0.00    -0.000 C 
BRANCH   2   3
ATOM      3  C   UNL     1       4.120  12.578  11.325  1.00  0.00    -0.003 C 
ATOM      4  C   UNL     1       3.433  11.741  12.404  1.00  0.00     0.004 C 
ENDBRANCH   2   3
ENDBRANCH   1   2
BRANCH   1   5
ATOM      5  C   UNL     1       7.093  10.198  10.249  1.00  0.00     0.028 C 
BRANCH   5   6
ATOM      6  C   UNL     1       8.614  10.354  10.186  1.00  0.00     0.156 C 
BRANCH   6   7
ATOM      7  O   UNL     1       9.210   9.087  10.166  1.00  0.00    -0.396 OA
ATOM      8  H   UNL     1       8.501   8.454   9.880  1.00  0.00     0.210 HD
ENDBRANCH   6   7
ENDBRANCH   5   6
ENDBRANCH   1   5
TORSDOF 5
ENDMDL
MODEL 4
REMARK VINA RESULT:    -3.067      5.154      6.098
REMARK INTER + INTRA:          -3.949
REMARK INTER:                  -3.881
REMARK INTRA:                  -0.068
REMARK UNBOUND:                -0.074
REMARK SMILES CCCCCCO
REMARK SMILES IDX 4 1 3 2 2 3 1 4 5 5 6 6 7 7
REMARK H PARENT 7 8
REMARK Flexibility Score: inf
ROOT
ATOM      1  C   UNL     1       7.688  11.857  11.936  1.00  0.00     0.002 C 
ENDROOT
BRANCH   1   2
ATOM      2  C   UNL     1       6.344  12.344  12.518  1.00  0.00    -0.000 C 
BRANCH   2   3
ATOM      3  C   UNL     1       5.111  12.037  11.650  1.00  0.00    -0.003 C 
ATOM      4  C   UNL     1       3.860  12.788  12.106  1.00  0.00     0.004 C 
ENDBRANCH   2   3
ENDBRANCH   1   2
BRANCH   1   5
ATOM      5  C   UNL     1       7.678  10.417  11.393  1.00  0.00     0.028 C 
BRANCH   5   6
ATOM      6  C   UNL     1       8.572  10.236  10.164  1.00  0.00     0.156 C 
BRANCH   6   7
ATOM      7  O   UNL     1       9.267   9.025  10.270  1.00  0.00    -0.396 OA
ATOM      8  H   UNL     1      10.191   9.209   9.957  1.00  0.00     0.210 HD
ENDBRANCH   6   7
ENDBRANCH   5   6
ENDBRANCH   1   5
TORSDOF 5
ENDMDL
MODEL 5
REMARK VINA RESULT:    -3.034      1.378      1.824
REMARK INTER + INTRA:          -3.906
REMARK INTER:                  -3.860
REMARK INTRA:                  -0.047
REMARK UNBOUND:                -0.074
REMARK SMILES CCCCCCO
REMARK SMILES IDX 4 1 3 2 2 3 1 4 5 5 6 6 7 7
REMARK H PARENT 7 8
REMARK Flexibility Score: inf
ROOT
ATOM      1  C   UNL     1       4.623  12.877  14.601  1.00  0.00     0.002 C 
ENDROOT
BRANCH   1   2
ATOM      2  C   UNL     1       4.904  13.266  13.135  1.00  0.00    -0.000 C 
BRANCH   2   3
ATOM      3  C   UNL     1       3.797  12.880  12.137  1.00  0.00    -0.003 C 
ATOM      4  C   UNL     1       4.334  12.151  10.906  1.00  0.00     0.004 C 
ENDBRANCH   2   3
ENDBRANCH   1   2
BRANCH   1   5
ATOM      5  C   UNL     1       5.342  13.740  15.654  1.00  0.00     0.028 C 
BRANCH   5   6
ATOM      6  C   UNL     1       6.371  14.694  15.043  1.00  0.00     0.156 C 
BRANCH   6   7
ATOM      7  O   UNL     1       6.892  15.519  16.047  1.00  0.00    -0.396 OA
ATOM      8  H   UNL     1       6.159  16.134  16.308  1.00  0.00     0.210 HD
ENDBRANCH   6   7
ENDBRANCH   5   6
ENDBRANCH   1   5
TORSDOF 5
ENDMDL
MODEL 6
REMARK VINA RESULT:    -3.014      2.832      3.523
REMARK INTER + INTRA:          -3.881
REMARK INTER:                  -3.747
REMARK INTRA:                  -0.134
REMARK UNBOUND:                -0.074
REMARK SMILES CCCCCCO
REMARK SMILES IDX 4 1 3 2 2 3 1 4 5 5 6 6 7 7
REMARK H PARENT 7 8
REMARK Flexibility Score: inf
ROOT
ATOM      1  C   UNL     1       4.677  12.521  12.981  1.00  0.00     0.002 C 
ENDROOT
BRANCH   1   2
ATOM      2  C   UNL     1       3.852  12.690  11.688  1.00  0.00    -0.000 C 
BRANCH   2   3
ATOM      3  C   UNL     1       4.446  12.003  10.445  1.00  0.00    -0.003 C 
ATOM      4  C   UNL     1       5.793  11.335  10.720  1.00  0.00     0.004 C 
ENDBRANCH   2   3
ENDBRANCH   1   2
BRANCH   1   5
ATOM      5  C   UNL     1       5.364  13.802  13.489  1.00  0.00     0.028 C 
BRANCH   5   6
ATOM      6  C   UNL     1       6.780  13.552  14.014  1.00  0.00     0.156 C 
BRANCH   6   7
ATOM      7  O   UNL     1       7.707  13.860  13.011  1.00  0.00    -0.396 OA
ATOM      8  H   UNL     1       8.323  14.533  13.402  1.00  0.00     0.210 HD
ENDBRANCH   6   7
ENDBRANCH   5   6
ENDBRANCH   1   5
TORSDOF 5
ENDMDL
MODEL 7
REMARK VINA RESULT:    -2.983      2.719      3.104
REMARK INTER + INTRA:          -3.842
REMARK INTER:                  -3.684
REMARK INTRA:                  -0.158
REMARK UNBOUND:                -0.074
REMARK SMILES CCCCCCO
REMARK SMILES IDX 4 1 3 2 2 3 1 4 5 5 6 6 7 7
REMARK H PARENT 7 8
REMARK Flexibility Score: inf
ROOT
ATOM      1  C   UNL     1       4.720  13.028  14.574  1.00  0.00     0.002 C 
ENDROOT
BRANCH   1   2
ATOM      2  C   UNL     1       4.107  12.157  13.457  1.00  0.00    -0.000 C 
BRANCH   2   3
ATOM      3  C   UNL     1       3.826  12.898  12.137  1.00  0.00    -0.003 C 
ATOM      4  C   UNL     1       4.329  12.139  10.910  1.00  0.00     0.004 C 
ENDBRANCH   2   3
ENDBRANCH   1   2
BRANCH   1   5
ATOM      5  C   UNL     1       5.751  14.067  14.098  1.00  0.00     0.028 C 
BRANCH   5   6
ATOM      6  C   UNL     1       7.186  13.535  14.113  1.00  0.00     0.156 C 
BRANCH   6   7
ATOM      7  O   UNL     1       7.723  13.612  12.822  1.00  0.00    -0.396 OA
ATOM      8  H   UNL     1       7.581  12.720  12.410  1.00  0.00     0.210 HD
ENDBRANCH   6   7
ENDBRANCH   5   6
ENDBRANCH   1   5
TORSDOF 5
ENDMDL
MODEL 8
REMARK VINA RESULT:    -2.970      5.323      6.538
REMARK INTER + INTRA:          -3.826
REMARK INTER:                  -3.720
REMARK INTRA:                  -0.106
REMARK UNBOUND:                -0.074
REMARK SMILES CCCCCCO
REMARK SMILES IDX 4 1 3 2 2 3 1 4 5 5 6 6 7 7
REMARK H PARENT 7 8
REMARK Flexibility Score: inf
ROOT
ATOM      1  C   UNL     1       6.755  11.282  11.299  1.00  0.00     0.002 C 
ENDROOT
BRANCH   1   2
ATOM      2  C   UNL     1       7.802  11.667  12.365  1.00  0.00    -0.000 C 
BRANCH   2   3
ATOM      3  C   UNL     1       7.708  13.118  12.872  1.00  0.00    -0.003 C 
ATOM      4  C   UNL     1       6.346  13.450  13.479  1.00  0.00     0.004 C 
ENDBRANCH   2   3
ENDBRANCH   1   2
BRANCH   1   5
ATOM      5  C   UNL     1       7.321  10.561  10.061  1.00  0.00     0.028 C 
BRANCH   5   6
ATOM      6  C   UNL     1       8.847  10.448  10.081  1.00  0.00     0.156 C 
BRANCH   6   7
ATOM      7  O   UNL     1       9.211   9.108  10.260  1.00  0.00    -0.396 OA
ATOM      8  H   UNL     1       9.093   8.670   9.377  1.00  0.00     0.210 HD
ENDBRANCH   6   7
ENDBRANCH   5   6
ENDBRANCH   1   5
TORSDOF 5
ENDMDL
MODEL 9
REMARK VINA RESULT:    -2.970      3.725      5.300
REMARK INTER + INTRA:          -3.826
REMARK INTER:                  -3.701
REMARK INTRA:                  -0.124
REMARK UNBOUND:                -0.074
REMARK SMILES CCCCCCO
REMARK SMILES IDX 4 1 3 2 2 3 1 4 5 5 6 6 7 7
REMARK H PARENT 7 8
REMARK Flexibility Score: inf
ROOT
ATOM      1  C   UNL     1       3.674  12.827  12.072  1.00  0.00     0.002 C 
ENDROOT
BRANCH   1   2
ATOM      2  C   UNL     1       3.768  12.197  13.477  1.00  0.00    -0.000 C 
BRANCH   2   3
ATOM      3  C   UNL     1       4.706  12.926  14.455  1.00  0.00    -0.003 C 
ATOM      4  C   UNL     1       5.592  13.965  13.767  1.00  0.00     0.004 C 
ENDBRANCH   2   3
ENDBRANCH   1   2
BRANCH   1   5
ATOM      5  C   UNL     1       4.285  11.985  10.938  1.00  0.00     0.028 C 
BRANCH   5   6
ATOM      6  C   UNL     1       4.009  10.487  11.090  1.00  0.00     0.156 C 
BRANCH   6   7
ATOM      7  O   UNL     1       2.689  10.218  10.708  1.00  0.00    -0.396 OA
ATOM      8  H   UNL     1       2.525  10.751   9.887  1.00  0.00     0.210 HD
ENDBRANCH   6   7
ENDBRANCH   5   6
ENDBRANCH   1   5
TORSDOF 5
ENDMDL
