MODEL 1
REMARK VINA RESULT:    -3.176      0.000      0.000
REMARK INTER + INTRA:          -3.790
REMARK INTER:                  -3.547
REMARK INTRA:                  -0.243
REMARK UNBOUND:                -0.243
REMARK SMILES CC=C(C)C=CC=C(C)C
REMARK SMILES IDX 5 1 6 2 3 3 1 4 2 5 4 6 7 7 8 8 9 9 10 10
REMARK H PARENT
REMARK Flexibility Score: inf
ROOT
ATOM      1  C   UNL     1     151.746 137.143 161.779  1.00  0.00     0.003 C 
ATOM      2  C   UNL     1     152.688 136.790 162.662  1.00  0.00     0.000 C 
ENDROOT
BRANCH   1   3
ATOM      3  C   UNL     1     151.463 136.378 160.536  1.00  0.00    -0.055 C 
ATOM      4  C   UNL     1     150.608 136.414 158.171  1.00  0.00     0.036 C 
ATOM      5  C   UNL     1     150.993 137.056 159.471  1.00  0.00    -0.027 C 
ATOM      6  C   UNL     1     151.637 134.876 160.505  1.00  0.00     0.044 C 
ENDBRANCH   1   3
BRANCH   2   7
ATOM      7  C   UNL     1     152.914 137.592 163.884  1.00  0.00    -0.001 C 
ATOM      8  C   UNL     1     153.946 138.440 164.046  1.00  0.00    -0.076 C 
ATOM      9  C   UNL     1     154.058 139.198 165.341  1.00  0.00     0.039 C 
ATOM     10  C   UNL     1     154.984 138.649 162.973  1.00  0.00     0.039 C 
ENDBRANCH   2   7
TORSDOF 2
ENDMDL
MODEL 2
REMARK VINA RESULT:    -2.508      1.093      5.358
REMARK INTER + INTRA:          -3.044
REMARK INTER:                  -2.795
REMARK INTRA:                  -0.249
REMARK UNBOUND:                -0.243
REMARK SMILES CC=C(C)C=CC=C(C)C
REMARK SMILES IDX 5 1 6 2 3 3 1 4 2 5 4 6 7 7 8 8 9 9 10 10
REMARK H PARENT
REMARK Flexibility Score: inf
ROOT
ATOM      1  C   UNL     1     153.349 137.022 161.733  1.00  0.00     0.003 C 
ATOM      2  C   UNL     1     152.267 136.278 161.474  1.00  0.00     0.000 C 
ENDROOT
BRANCH   1   3
ATOM      3  C   UNL     1     153.841 137.300 163.108  1.00  0.00    -0.055 C 
ATOM      4  C   UNL     1     153.947 138.907 165.039  1.00  0.00     0.036 C 
ATOM      5  C   UNL     1     153.482 138.464 163.683  1.00  0.00    -0.027 C 
ATOM      6  C   UNL     1     154.769 136.327 163.800  1.00  0.00     0.044 C 
ENDBRANCH   1   3
BRANCH   2   7
ATOM      7  C   UNL     1     151.836 136.033 160.081  1.00  0.00    -0.001 C 
ATOM      8  C   UNL     1     150.909 136.769 159.441  1.00  0.00    -0.076 C 
ATOM      9  C   UNL     1     150.563 136.414 158.020  1.00  0.00     0.039 C 
ATOM     10  C   UNL     1     150.216 137.932 160.105  1.00  0.00     0.039 C 
ENDBRANCH   2   7
TORSDOF 2
ENDMDL
MODEL 3
REMARK VINA RESULT:    -2.372     21.170     22.152
REMARK INTER + INTRA:          -2.893
REMARK INTER:                  -2.646
REMARK INTRA:                  -0.247
REMARK UNBOUND:                -0.243
REMARK SMILES CC=C(C)C=CC=C(C)C
REMARK SMILES IDX 5 1 6 2 3 3 1 4 2 5 4 6 7 7 8 8 9 9 10 10
REMARK H PARENT
REMARK Flexibility Score: inf
ROOT
ATOM      1  C   UNL     1     137.401 153.699 161.695  1.00  0.00     0.003 C 
ATOM      2  C   UNL     1     138.482 154.452 161.458  1.00  0.00     0.000 C 
ENDROOT
BRANCH   1   3
ATOM      3  C   UNL     1     136.890 153.410 163.061  1.00  0.00    -0.055 C 
ATOM      4  C   UNL     1     136.740 151.777 164.968  1.00  0.00     0.036 C 
ATOM      5  C   UNL     1     137.226 152.232 163.624  1.00  0.00    -0.027 C 
ATOM      6  C   UNL     1     135.969 154.387 163.756  1.00  0.00     0.044 C 
ENDBRANCH   1   3
BRANCH   2   7
ATOM      7  C   UNL     1     138.932 154.709 160.072  1.00  0.00    -0.001 C 
ATOM      8  C   UNL     1     139.866 153.976 159.439  1.00  0.00    -0.076 C 
ATOM      9  C   UNL     1     140.232 154.342 158.026  1.00  0.00     0.039 C 
ATOM     10  C   UNL     1     140.548 152.806 160.101  1.00  0.00     0.039 C 
ENDBRANCH   2   7
TORSDOF 2
ENDMDL
MODEL 4
REMARK VINA RESULT:    -2.155     20.940     21.800
REMARK INTER + INTRA:          -2.649
REMARK INTER:                  -2.374
REMARK INTRA:                  -0.275
REMARK UNBOUND:                -0.243
REMARK SMILES CC=C(C)C=CC=C(C)C
REMARK SMILES IDX 5 1 6 2 3 3 1 4 2 5 4 6 7 7 8 8 9 9 10 10
REMARK H PARENT
REMARK Flexibility Score: inf
ROOT
ATOM      1  C   UNL     1     138.663 154.145 160.382  1.00  0.00     0.003 C 
ATOM      2  C   UNL     1     138.774 154.190 161.715  1.00  0.00     0.000 C 
ENDROOT
BRANCH   1   3
ATOM      3  C   UNL     1     139.770 153.725 159.484  1.00  0.00    -0.055 C 
ATOM      4  C   UNL     1     141.963 152.516 159.240  1.00  0.00     0.036 C 
ATOM      5  C   UNL     1     140.755 152.968 160.007  1.00  0.00    -0.027 C 
ATOM      6  C   UNL     1     139.810 154.195 158.047  1.00  0.00     0.044 C 
ENDBRANCH   1   3
BRANCH   2   7
ATOM      7  C   UNL     1     137.629 154.610 162.553  1.00  0.00    -0.001 C 
ATOM      8  C   UNL     1     136.741 153.756 163.094  1.00  0.00    -0.076 C 
ATOM      9  C   UNL     1     135.621 154.315 163.929  1.00  0.00     0.039 C 
ATOM     10  C   UNL     1     136.840 152.265 162.889  1.00  0.00     0.039 C 
ENDBRANCH   2   7
TORSDOF 2
ENDMDL
MODEL 5
REMARK VINA RESULT:    -1.872      1.444      2.031
REMARK INTER + INTRA:          -2.333
REMARK INTER:                  -2.108
REMARK INTRA:                  -0.225
REMARK UNBOUND:                -0.243
REMARK SMILES CC=C(C)C=CC=C(C)C
REMARK SMILES IDX 5 1 6 2 3 3 1 4 2 5 4 6 7 7 8 8 9 9 10 10
REMARK H PARENT
REMARK Flexibility Score: inf
ROOT
ATOM      1  C   UNL     1     151.608 136.699 160.811  1.00  0.00     0.003 C 
ATOM      2  C   UNL     1     152.935 136.529 160.796  1.00  0.00     0.000 C 
ENDROOT
BRANCH   1   3
ATOM      3  C   UNL     1     150.806 136.985 159.592  1.00  0.00    -0.055 C 
ATOM      4  C   UNL     1     150.561 136.721 157.103  1.00  0.00     0.036 C 
ATOM      5  C   UNL     1     151.232 136.471 158.422  1.00  0.00    -0.027 C 
ATOM      6  C   UNL     1     149.592 137.883 159.669  1.00  0.00     0.044 C 
ENDBRANCH   1   3
BRANCH   2   7
ATOM      7  C   UNL     1     153.672 136.237 162.045  1.00  0.00    -0.001 C 
ATOM      8  C   UNL     1     154.151 137.184 162.873  1.00  0.00    -0.076 C 
ATOM      9  C   UNL     1     154.882 136.751 164.115  1.00  0.00     0.039 C 
ATOM     10  C   UNL     1     153.974 138.654 162.591  1.00  0.00     0.039 C 
ENDBRANCH   2   7
TORSDOF 2
ENDMDL
MODEL 6
REMARK VINA RESULT:    -1.834     20.541     21.404
REMARK INTER + INTRA:          -2.291
REMARK INTER:                  -2.032
REMARK INTRA:                  -0.259
REMARK UNBOUND:                -0.243
REMARK SMILES CC=C(C)C=CC=C(C)C
REMARK SMILES IDX 5 1 6 2 3 3 1 4 2 5 4 6 7 7 8 8 9 9 10 10
REMARK H PARENT
REMARK Flexibility Score: inf
ROOT
ATOM      1  C   UNL     1     139.533 153.550 160.852  1.00  0.00     0.003 C 
ATOM      2  C   UNL     1     138.221 153.739 161.039  1.00  0.00     0.000 C 
ENDROOT
BRANCH   1   3
ATOM      3  C   UNL     1     140.184 153.599 159.517  1.00  0.00    -0.055 C 
ATOM      4  C   UNL     1     140.010 154.252 157.094  1.00  0.00     0.036 C 
ATOM      5  C   UNL     1     139.507 154.179 158.506  1.00  0.00    -0.027 C 
ATOM      6  C   UNL     1     141.535 152.955 159.300  1.00  0.00     0.044 C 
ENDBRANCH   1   3
BRANCH   2   7
ATOM      7  C   UNL     1     137.638 153.685 162.398  1.00  0.00    -0.001 C 
ATOM      8  C   UNL     1     137.100 152.577 162.941  1.00  0.00    -0.076 C 
ATOM      9  C   UNL     1     136.542 152.658 164.336  1.00  0.00     0.039 C 
ATOM     10  C   UNL     1     137.045 151.268 162.195  1.00  0.00     0.039 C 
ENDBRANCH   2   7
TORSDOF 2
ENDMDL
MODEL 7
REMARK VINA RESULT:    -1.770      1.064      5.613
REMARK INTER + INTRA:          -2.220
REMARK INTER:                  -1.997
REMARK INTRA:                  -0.223
REMARK UNBOUND:                -0.243
REMARK SMILES CC=C(C)C=CC=C(C)C
REMARK SMILES IDX 5 1 6 2 3 3 1 4 2 5 4 6 7 7 8 8 9 9 10 10
REMARK H PARENT
REMARK Flexibility Score: inf
ROOT
ATOM      1  C   UNL     1     153.472 137.441 163.399  1.00  0.00     0.003 C 
ATOM      2  C   UNL     1     153.263 137.341 162.081  1.00  0.00     0.000 C 
ENDROOT
BRANCH   1   3
ATOM      3  C   UNL     1     154.104 138.625 164.040  1.00  0.00    -0.055 C 
ATOM      4  C   UNL     1     154.196 140.166 166.025  1.00  0.00     0.036 C 
ATOM      5  C   UNL     1     153.694 138.967 165.277  1.00  0.00    -0.027 C 
ATOM      6  C   UNL     1     155.125 139.448 163.287  1.00  0.00     0.044 C 
ENDBRANCH   1   3
BRANCH   2   7
ATOM      7  C   UNL     1     152.621 136.138 161.509  1.00  0.00    -0.001 C 
ATOM      8  C   UNL     1     151.563 136.175 160.678  1.00  0.00    -0.076 C 
ATOM      9  C   UNL     1     151.005 134.875 160.165  1.00  0.00     0.039 C 
ATOM     10  C   UNL     1     150.928 137.474 160.251  1.00  0.00     0.039 C 
ENDBRANCH   2   7
TORSDOF 2
ENDMDL
