MODEL 1
REMARK VINA RESULT:    -3.551      0.000      0.000
REMARK INTER + INTRA:          -5.071
REMARK INTER:                  -4.797
REMARK INTRA:                  -0.274
REMARK UNBOUND:                -0.274
REMARK SMILES CCCCCCCC(=O)[O-]
REMARK SMILES IDX 5 1 6 2 7 3 8 4 9 5 10 6 4 7 3 8 2 9 1 10
REMARK H PARENT
REMARK Flexibility Score: inf
ROOT
ATOM      1  C   UNL     1      59.452  22.597  22.456  1.00  0.00     0.000 C 
ENDROOT
BRANCH   1   2
ATOM      2  C   UNL     1      58.426  22.349  23.573  1.00  0.00     0.006 C 
BRANCH   2   3
ATOM      3  C   UNL     1      57.435  21.235  23.214  1.00  0.00     0.053 C 
BRANCH   3   4
ATOM      4  C   UNL     1      56.062  21.776  22.956  1.00  0.00     0.041 C 
ATOM      5  O   UNL     1      55.910  22.812  22.257  1.00  0.00    -0.550 OA
ATOM      6  O   UNL     1      54.954  21.152  23.513  1.00  0.00    -0.550 OA
ENDBRANCH   3   4
ENDBRANCH   2   3
ENDBRANCH   1   2
BRANCH   1   7
ATOM      7  C   UNL     1      59.741  21.307  21.679  1.00  0.00     0.000 C 
BRANCH   7   8
ATOM      8  C   UNL     1      61.178  21.297  21.144  1.00  0.00    -0.000 C 
BRANCH   8   9
ATOM      9  C   UNL     1      61.472  22.565  20.334  1.00  0.00    -0.003 C 
ATOM     10  C   UNL     1      61.873  22.223  18.902  1.00  0.00     0.004 C 
ENDBRANCH   8   9
ENDBRANCH   7   8
ENDBRANCH   1   7
TORSDOF 6
ENDMDL
MODEL 2
REMARK VINA RESULT:    -3.535      0.330      1.074
REMARK INTER + INTRA:          -5.048
REMARK INTER:                  -4.775
REMARK INTRA:                  -0.274
REMARK UNBOUND:                -0.274
REMARK SMILES CCCCCCCC(=O)[O-]
REMARK SMILES IDX 5 1 6 2 7 3 8 4 9 5 10 6 4 7 3 8 2 9 1 10
REMARK H PARENT
REMARK Flexibility Score: inf
ROOT
ATOM      1  C   UNL     1      59.445  22.404  21.922  1.00  0.00     0.000 C 
ENDROOT
BRANCH   1   2
ATOM      2  C   UNL     1      58.632  22.289  23.221  1.00  0.00     0.006 C 
BRANCH   2   3
ATOM      3  C   UNL     1      57.591  21.164  23.156  1.00  0.00     0.053 C 
BRANCH   3   4
ATOM      4  C   UNL     1      56.201  21.702  23.006  1.00  0.00     0.041 C 
ATOM      5  O   UNL     1      55.224  21.084  23.505  1.00  0.00    -0.550 OA
ATOM      6  O   UNL     1      55.982  22.870  22.288  1.00  0.00    -0.550 OA
ENDBRANCH   3   4
ENDBRANCH   2   3
ENDBRANCH   1   2
BRANCH   1   7
ATOM      7  C   UNL     1      60.043  21.049  21.526  1.00  0.00     0.000 C 
BRANCH   7   8
ATOM      8  C   UNL     1      61.532  21.183  21.186  1.00  0.00    -0.000 C 
BRANCH   8   9
ATOM      9  C   UNL     1      61.806  22.477  20.412  1.00  0.00    -0.003 C 
ATOM     10  C   UNL     1      61.841  22.224  18.908  1.00  0.00     0.004 C 
ENDBRANCH   8   9
ENDBRANCH   7   8
ENDBRANCH   1   7
TORSDOF 6
ENDMDL
MODEL 3
REMARK VINA RESULT:    -3.514      1.118      1.388
REMARK INTER + INTRA:          -5.021
REMARK INTER:                  -4.764
REMARK INTRA:                  -0.258
REMARK UNBOUND:                -0.274
REMARK SMILES CCCCCCCC(=O)[O-]
REMARK SMILES IDX 5 1 6 2 7 3 8 4 9 5 10 6 4 7 3 8 2 9 1 10
REMARK H PARENT
REMARK Flexibility Score: inf
ROOT
ATOM      1  C   UNL     1      59.588  22.360  21.896  1.00  0.00     0.000 C 
ENDROOT
BRANCH   1   2
ATOM      2  C   UNL     1      59.175  21.216  22.834  1.00  0.00     0.006 C 
BRANCH   2   3
ATOM      3  C   UNL     1      57.664  20.955  22.802  1.00  0.00     0.053 C 
BRANCH   3   4
ATOM      4  C   UNL     1      56.881  22.187  23.138  1.00  0.00     0.041 C 
ATOM      5  O   UNL     1      57.039  22.756  24.250  1.00  0.00    -0.550 OA
ATOM      6  O   UNL     1      55.953  22.689  22.234  1.00  0.00    -0.550 OA
ENDBRANCH   3   4
ENDBRANCH   2   3
ENDBRANCH   1   2
BRANCH   1   7
ATOM      7  C   UNL     1      60.388  21.830  20.701  1.00  0.00     0.000 C 
BRANCH   7   8
ATOM      8  C   UNL     1      61.842  21.546  21.094  1.00  0.00    -0.000 C 
BRANCH   8   9
ATOM      9  C   UNL     1      62.764  21.601  19.871  1.00  0.00    -0.003 C 
ATOM     10  C   UNL     1      62.083  22.297  18.697  1.00  0.00     0.004 C 
ENDBRANCH   8   9
ENDBRANCH   7   8
ENDBRANCH   1   7
TORSDOF 6
ENDMDL
MODEL 4
REMARK VINA RESULT:    -3.498      3.575      5.774
REMARK INTER + INTRA:          -4.999
REMARK INTER:                  -4.845
REMARK INTRA:                  -0.154
REMARK UNBOUND:                -0.274
REMARK SMILES CCCCCCCC(=O)[O-]
REMARK SMILES IDX 5 1 6 2 7 3 8 4 9 5 10 6 4 7 3 8 2 9 1 10
REMARK H PARENT
REMARK Flexibility Score: inf
ROOT
ATOM      1  C   UNL     1      58.927  22.365  22.084  1.00  0.00     0.000 C 
ENDROOT
BRANCH   1   2
ATOM      2  C   UNL     1      60.061  21.655  21.330  1.00  0.00     0.006 C 
BRANCH   2   3
ATOM      3  C   UNL     1      61.139  22.633  20.848  1.00  0.00     0.053 C 
BRANCH   3   4
ATOM      4  C   UNL     1      62.004  22.027  19.786  1.00  0.00     0.041 C 
ATOM      5  O   UNL     1      61.877  22.383  18.585  1.00  0.00    -0.550 OA
ATOM      6  O   UNL     1      62.929  21.046  20.118  1.00  0.00    -0.550 OA
ENDBRANCH   3   4
ENDBRANCH   2   3
ENDBRANCH   1   2
BRANCH   1   7
ATOM      7  C   UNL     1      58.429  21.512  23.257  1.00  0.00     0.000 C 
BRANCH   7   8
ATOM      8  C   UNL     1      56.980  21.064  23.036  1.00  0.00    -0.000 C 
BRANCH   8   9
ATOM      9  C   UNL     1      56.052  22.270  22.853  1.00  0.00    -0.003 C 
ATOM     10  C   UNL     1      54.654  21.976  23.388  1.00  0.00     0.004 C 
ENDBRANCH   8   9
ENDBRANCH   7   8
ENDBRANCH   1   7
TORSDOF 6
ENDMDL
MODEL 5
REMARK VINA RESULT:    -3.343      1.413      1.790
REMARK INTER + INTRA:          -4.790
REMARK INTER:                  -4.530
REMARK INTRA:                  -0.260
REMARK UNBOUND:                -0.274
REMARK SMILES CCCCCCCC(=O)[O-]
REMARK SMILES IDX 5 1 6 2 7 3 8 4 9 5 10 6 4 7 3 8 2 9 1 10
REMARK H PARENT
REMARK Flexibility Score: inf
ROOT
ATOM      1  C   UNL     1      59.932  22.453  21.691  1.00  0.00     0.000 C 
ENDROOT
BRANCH   1   2
ATOM      2  C   UNL     1      59.482  21.536  22.838  1.00  0.00     0.006 C 
BRANCH   2   3
ATOM      3  C   UNL     1      58.007  21.135  22.716  1.00  0.00     0.053 C 
BRANCH   3   4
ATOM      4  C   UNL     1      57.093  22.243  23.141  1.00  0.00     0.041 C 
ATOM      5  O   UNL     1      57.225  22.773  24.276  1.00  0.00    -0.550 OA
ATOM      6  O   UNL     1      56.078  22.669  22.296  1.00  0.00    -0.550 OA
ENDBRANCH   3   4
ENDBRANCH   2   3
ENDBRANCH   1   2
BRANCH   1   7
ATOM      7  C   UNL     1      60.440  21.635  20.498  1.00  0.00     0.000 C 
BRANCH   7   8
ATOM      8  C   UNL     1      61.600  22.348  19.795  1.00  0.00    -0.000 C 
BRANCH   8   9
ATOM      9  C   UNL     1      62.906  21.560  19.951  1.00  0.00    -0.003 C 
ATOM     10  C   UNL     1      63.908  22.320  20.814  1.00  0.00     0.004 C 
ENDBRANCH   8   9
ENDBRANCH   7   8
ENDBRANCH   1   7
TORSDOF 6
ENDMDL
MODEL 6
REMARK VINA RESULT:    -3.192      2.133      2.502
REMARK INTER + INTRA:          -4.586
REMARK INTER:                  -4.290
REMARK INTRA:                  -0.296
REMARK UNBOUND:                -0.274
REMARK SMILES CCCCCCCC(=O)[O-]
REMARK SMILES IDX 5 1 6 2 7 3 8 4 9 5 10 6 4 7 3 8 2 9 1 10
REMARK H PARENT
REMARK Flexibility Score: inf
ROOT
ATOM      1  C   UNL     1      60.349  23.150  22.576  1.00  0.00     0.000 C 
ENDROOT
BRANCH   1   2
ATOM      2  C   UNL     1      58.984  22.479  22.358  1.00  0.00     0.006 C 
BRANCH   2   3
ATOM      3  C   UNL     1      58.542  21.656  23.575  1.00  0.00     0.053 C 
BRANCH   3   4
ATOM      4  C   UNL     1      58.620  22.451  24.841  1.00  0.00     0.041 C 
ATOM      5  O   UNL     1      57.889  23.464  25.000  1.00  0.00    -0.550 OA
ATOM      6  O   UNL     1      59.522  22.091  25.833  1.00  0.00    -0.550 OA
ENDBRANCH   3   4
ENDBRANCH   2   3
ENDBRANCH   1   2
BRANCH   1   7
ATOM      7  C   UNL     1      61.347  22.734  21.489  1.00  0.00     0.000 C 
BRANCH   7   8
ATOM      8  C   UNL     1      60.682  21.822  20.452  1.00  0.00    -0.000 C 
BRANCH   8   9
ATOM      9  C   UNL     1      61.276  22.049  19.057  1.00  0.00    -0.003 C 
ATOM     10  C   UNL     1      62.795  21.904  19.075  1.00  0.00     0.004 C 
ENDBRANCH   8   9
ENDBRANCH   7   8
ENDBRANCH   1   7
TORSDOF 6
ENDMDL
MODEL 7
REMARK VINA RESULT:    -3.128      3.766      5.653
REMARK INTER + INTRA:          -4.499
REMARK INTER:                  -4.276
REMARK INTRA:                  -0.223
REMARK UNBOUND:                -0.274
REMARK SMILES CCCCCCCC(=O)[O-]
REMARK SMILES IDX 5 1 6 2 7 3 8 4 9 5 10 6 4 7 3 8 2 9 1 10
REMARK H PARENT
REMARK Flexibility Score: inf
ROOT
ATOM      1  C   UNL     1      59.975  23.158  22.551  1.00  0.00     0.000 C 
ENDROOT
BRANCH   1   2
ATOM      2  C   UNL     1      61.157  22.468  21.853  1.00  0.00     0.006 C 
BRANCH   2   3
ATOM      3  C   UNL     1      60.787  21.955  20.456  1.00  0.00     0.053 C 
BRANCH   3   4
ATOM      4  C   UNL     1      61.974  21.924  19.543  1.00  0.00     0.041 C 
ATOM      5  O   UNL     1      63.026  21.326  19.891  1.00  0.00    -0.550 OA
ATOM      6  O   UNL     1      61.929  22.583  18.322  1.00  0.00    -0.550 OA
ENDBRANCH   3   4
ENDBRANCH   2   3
ENDBRANCH   1   2
BRANCH   1   7
ATOM      7  C   UNL     1      58.694  22.328  22.414  1.00  0.00     0.000 C 
BRANCH   7   8
ATOM      8  C   UNL     1      58.148  21.927  23.789  1.00  0.00    -0.000 C 
BRANCH   8   9
ATOM      9  C   UNL     1      58.985  22.545  24.915  1.00  0.00    -0.003 C 
ATOM     10  C   UNL     1      58.244  23.698  25.584  1.00  0.00     0.004 C 
ENDBRANCH   8   9
ENDBRANCH   7   8
ENDBRANCH   1   7
TORSDOF 6
ENDMDL
MODEL 8
REMARK VINA RESULT:    -3.110      3.421      5.507
REMARK INTER + INTRA:          -4.475
REMARK INTER:                  -4.194
REMARK INTRA:                  -0.282
REMARK UNBOUND:                -0.274
REMARK SMILES CCCCCCCC(=O)[O-]
REMARK SMILES IDX 5 1 6 2 7 3 8 4 9 5 10 6 4 7 3 8 2 9 1 10
REMARK H PARENT
REMARK Flexibility Score: inf
ROOT
ATOM      1  C   UNL     1      59.414  22.087  21.785  1.00  0.00     0.000 C 
ENDROOT
BRANCH   1   2
ATOM      2  C   UNL     1      60.494  21.629  20.793  1.00  0.00     0.006 C 
BRANCH   2   3
ATOM      3  C   UNL     1      61.507  22.739  20.485  1.00  0.00     0.053 C 
BRANCH   3   4
ATOM      4  C   UNL     1      62.283  23.136  21.703  1.00  0.00     0.041 C 
ATOM      5  O   UNL     1      62.953  22.278  22.335  1.00  0.00    -0.550 OA
ATOM      6  O   UNL     1      62.240  24.447  22.158  1.00  0.00    -0.550 OA
ENDBRANCH   3   4
ENDBRANCH   2   3
ENDBRANCH   1   2
BRANCH   1   7
ATOM      7  C   UNL     1      59.034  20.954  22.745  1.00  0.00     0.000 C 
BRANCH   7   8
ATOM      8  C   UNL     1      57.521  20.923  22.990  1.00  0.00    -0.000 C 
BRANCH   8   9
ATOM      9  C   UNL     1      56.939  22.341  23.018  1.00  0.00    -0.003 C 
ATOM     10  C   UNL     1      55.417  22.311  23.113  1.00  0.00     0.004 C 
ENDBRANCH   8   9
ENDBRANCH   7   8
ENDBRANCH   1   7
TORSDOF 6
ENDMDL
MODEL 9
REMARK VINA RESULT:    -2.937      3.919      5.271
REMARK INTER + INTRA:          -4.241
REMARK INTER:                  -3.789
REMARK INTRA:                  -0.452
REMARK UNBOUND:                -0.274
REMARK SMILES CCCCCCCC(=O)[O-]
REMARK SMILES IDX 5 1 6 2 7 3 8 4 9 5 10 6 4 7 3 8 2 9 1 10
REMARK H PARENT
REMARK Flexibility Score: inf
ROOT
ATOM      1  C   UNL     1      59.895  22.626  21.767  1.00  0.00     0.000 C 
ENDROOT
BRANCH   1   2
ATOM      2  C   UNL     1      60.289  21.390  20.943  1.00  0.00     0.006 C 
BRANCH   2   3
ATOM      3  C   UNL     1      61.806  21.164  20.925  1.00  0.00     0.053 C 
BRANCH   3   4
ATOM      4  C   UNL     1      62.482  22.017  19.895  1.00  0.00     0.041 C 
ATOM      5  O   UNL     1      63.634  22.478  20.111  1.00  0.00    -0.550 OA
ATOM      6  O   UNL     1      61.827  22.327  18.711  1.00  0.00    -0.550 OA
ENDBRANCH   3   4
ENDBRANCH   2   3
ENDBRANCH   1   2
BRANCH   1   7
ATOM      7  C   UNL     1      60.208  22.417  23.253  1.00  0.00     0.000 C 
BRANCH   7   8
ATOM      8  C   UNL     1      60.902  23.648  23.848  1.00  0.00    -0.000 C 
BRANCH   8   9
ATOM      9  C   UNL     1      61.907  24.247  22.856  1.00  0.00    -0.003 C 
ATOM     10  C   UNL     1      61.888  25.771  22.904  1.00  0.00     0.004 C 
ENDBRANCH   8   9
ENDBRANCH   7   8
ENDBRANCH   1   7
TORSDOF 6
ENDMDL
