MODEL 1
REMARK VINA RESULT:    -4.766      0.000      0.000
REMARK INTER + INTRA:          -5.067
REMARK INTER:                  -5.045
REMARK INTRA:                  -0.022
REMARK UNBOUND:                -0.022
REMARK SMILES O=C([O-])c1cccnc1
REMARK SMILES IDX 4 1 5 2 9 3 6 4 8 5 7 6 2 7 1 8 3 9
REMARK H PARENT
REMARK Flexibility Score: inf
ROOT
ATOM      1  C   UNL     1      16.374  33.806  25.888  1.00  0.00     0.016 A 
ATOM      2  C   UNL     1      17.637  33.316  25.517  1.00  0.00     0.013 A 
ATOM      3  C   UNL     1      15.963  33.650  27.224  1.00  0.00     0.120 A 
ATOM      4  C   UNL     1      18.452  32.690  26.463  1.00  0.00     0.021 A 
ATOM      5  N   UNL     1      16.777  33.038  28.125  1.00  0.00    -0.264 NA
ATOM      6  C   UNL     1      18.000  32.560  27.776  1.00  0.00     0.111 A 
ENDROOT
BRANCH   1   7
ATOM      7  C   UNL     1      15.496  34.471  24.902  1.00  0.00     0.073 C 
ATOM      8  O   UNL     1      15.986  35.080  23.915  1.00  0.00    -0.545 OA
ATOM      9  O   UNL     1      14.114  34.433  25.052  1.00  0.00    -0.545 OA
ENDBRANCH   1   7
TORSDOF 1
ENDMDL
MODEL 2
REMARK VINA RESULT:    -4.763      2.566      3.633
REMARK INTER + INTRA:          -5.064
REMARK INTER:                  -5.040
REMARK INTRA:                  -0.023
REMARK UNBOUND:                -0.022
REMARK SMILES O=C([O-])c1cccnc1
REMARK SMILES IDX 4 1 5 2 9 3 6 4 8 5 7 6 2 7 1 8 3 9
REMARK H PARENT
REMARK Flexibility Score: inf
ROOT
ATOM      1  C   UNL     1      16.620  33.521  26.467  1.00  0.00     0.016 A 
ATOM      2  C   UNL     1      16.434  33.950  25.142  1.00  0.00     0.013 A 
ATOM      3  C   UNL     1      15.585  33.744  27.392  1.00  0.00     0.120 A 
ATOM      4  C   UNL     1      15.246  34.581  24.769  1.00  0.00     0.021 A 
ATOM      5  N   UNL     1      14.437  34.359  27.003  1.00  0.00    -0.264 NA
ATOM      6  C   UNL     1      14.248  34.779  25.724  1.00  0.00     0.111 A 
ENDROOT
BRANCH   1   7
ATOM      7  C   UNL     1      17.871  32.851  26.882  1.00  0.00     0.073 C 
ATOM      8  O   UNL     1      17.962  32.308  28.015  1.00  0.00    -0.545 OA
ATOM      9  O   UNL     1      18.966  32.811  26.025  1.00  0.00    -0.545 OA
ENDBRANCH   1   7
TORSDOF 1
ENDMDL
MODEL 3
REMARK VINA RESULT:    -4.760      2.785      4.001
REMARK INTER + INTRA:          -5.061
REMARK INTER:                  -5.037
REMARK INTRA:                  -0.024
REMARK UNBOUND:                -0.022
REMARK SMILES O=C([O-])c1cccnc1
REMARK SMILES IDX 4 1 5 2 9 3 6 4 8 5 7 6 2 7 1 8 3 9
REMARK H PARENT
REMARK Flexibility Score: inf
ROOT
ATOM      1  C   UNL     1      16.385  33.704  26.350  1.00  0.00     0.016 A 
ATOM      2  C   UNL     1      15.212  33.940  27.087  1.00  0.00     0.013 A 
ATOM      3  C   UNL     1      16.442  34.161  25.021  1.00  0.00     0.120 A 
ATOM      4  C   UNL     1      14.139  34.614  26.500  1.00  0.00     0.021 A 
ATOM      5  N   UNL     1      15.384  34.815  24.475  1.00  0.00    -0.264 NA
ATOM      6  C   UNL     1      14.245  35.048  25.178  1.00  0.00     0.111 A 
ENDROOT
BRANCH   1   7
ATOM      7  C   UNL     1      17.532  32.992  26.953  1.00  0.00     0.073 C 
ATOM      8  O   UNL     1      17.459  32.536  28.125  1.00  0.00    -0.545 OA
ATOM      9  O   UNL     1      18.708  32.816  26.232  1.00  0.00    -0.545 OA
ENDBRANCH   1   7
TORSDOF 1
ENDMDL
MODEL 4
REMARK VINA RESULT:    -4.754      2.781      3.625
REMARK INTER + INTRA:          -5.053
REMARK INTER:                  -5.030
REMARK INTRA:                  -0.023
REMARK UNBOUND:                -0.022
REMARK SMILES O=C([O-])c1cccnc1
REMARK SMILES IDX 4 1 5 2 9 3 6 4 8 5 7 6 2 7 1 8 3 9
REMARK H PARENT
REMARK Flexibility Score: inf
ROOT
ATOM      1  C   UNL     1      17.160  33.717  25.777  1.00  0.00     0.016 A 
ATOM      2  C   UNL     1      17.857  34.378  24.752  1.00  0.00     0.013 A 
ATOM      3  C   UNL     1      15.766  33.885  25.854  1.00  0.00     0.120 A 
ATOM      4  C   UNL     1      17.168  35.178  23.838  1.00  0.00     0.021 A 
ATOM      5  N   UNL     1      15.120  34.670  24.951  1.00  0.00    -0.264 NA
ATOM      6  C   UNL     1      15.784  35.313  23.955  1.00  0.00     0.111 A 
ENDROOT
BRANCH   1   7
ATOM      7  C   UNL     1      17.871  32.866  26.755  1.00  0.00     0.073 C 
ATOM      8  O   UNL     1      19.047  32.474  26.528  1.00  0.00    -0.545 OA
ATOM      9  O   UNL     1      17.250  32.485  27.939  1.00  0.00    -0.545 OA
ENDBRANCH   1   7
TORSDOF 1
ENDMDL
MODEL 5
REMARK VINA RESULT:    -4.592      1.564      2.706
REMARK INTER + INTRA:          -4.882
REMARK INTER:                  -4.859
REMARK INTRA:                  -0.023
REMARK UNBOUND:                -0.022
REMARK SMILES O=C([O-])c1cccnc1
REMARK SMILES IDX 4 1 5 2 9 3 6 4 8 5 7 6 2 7 1 8 3 9
REMARK H PARENT
REMARK Flexibility Score: inf
ROOT
ATOM      1  C   UNL     1      16.360  34.028  25.897  1.00  0.00     0.016 A 
ATOM      2  C   UNL     1      15.010  34.400  25.782  1.00  0.00     0.013 A 
ATOM      3  C   UNL     1      16.793  33.449  27.102  1.00  0.00     0.120 A 
ATOM      4  C   UNL     1      14.133  34.193  26.849  1.00  0.00     0.021 A 
ATOM      5  N   UNL     1      15.918  33.257  28.125  1.00  0.00    -0.264 NA
ATOM      6  C   UNL     1      14.610  33.614  28.025  1.00  0.00     0.111 A 
ENDROOT
BRANCH   1   7
ATOM      7  C   UNL     1      17.305  34.239  24.779  1.00  0.00     0.073 C 
ATOM      8  O   UNL     1      18.408  33.630  24.750  1.00  0.00    -0.545 OA
ATOM      9  O   UNL     1      16.988  35.113  23.745  1.00  0.00    -0.545 OA
ENDBRANCH   1   7
TORSDOF 1
ENDMDL
MODEL 6
REMARK VINA RESULT:    -4.560     13.411     14.654
REMARK INTER + INTRA:          -4.848
REMARK INTER:                  -4.830
REMARK INTRA:                  -0.019
REMARK UNBOUND:                -0.022
REMARK SMILES O=C([O-])c1cccnc1
REMARK SMILES IDX 4 1 5 2 9 3 6 4 8 5 7 6 2 7 1 8 3 9
REMARK H PARENT
REMARK Flexibility Score: inf
ROOT
ATOM      1  C   UNL     1      16.055  34.750  12.178  1.00  0.00     0.016 A 
ATOM      2  C   UNL     1      15.244  35.802  11.721  1.00  0.00     0.013 A 
ATOM      3  C   UNL     1      17.284  34.524  11.532  1.00  0.00     0.120 A 
ATOM      4  C   UNL     1      15.661  36.595  10.651  1.00  0.00     0.021 A 
ATOM      5  N   UNL     1      17.667  35.312  10.493  1.00  0.00    -0.264 NA
ATOM      6  C   UNL     1      16.889  36.332  10.042  1.00  0.00     0.111 A 
ENDROOT
BRANCH   1   7
ATOM      7  C   UNL     1      15.632  33.898  13.310  1.00  0.00     0.073 C 
ATOM      8  O   UNL     1      15.302  34.413  14.411  1.00  0.00    -0.545 OA
ATOM      9  O   UNL     1      15.591  32.515  13.173  1.00  0.00    -0.545 OA
ENDBRANCH   1   7
TORSDOF 1
ENDMDL
MODEL 7
REMARK VINA RESULT:    -4.441     15.244     16.410
REMARK INTER + INTRA:          -4.722
REMARK INTER:                  -4.703
REMARK INTRA:                  -0.020
REMARK UNBOUND:                -0.022
REMARK SMILES O=C([O-])c1cccnc1
REMARK SMILES IDX 4 1 5 2 9 3 6 4 8 5 7 6 2 7 1 8 3 9
REMARK H PARENT
REMARK Flexibility Score: inf
ROOT
ATOM      1  C   UNL     1      17.419  35.581   9.754  1.00  0.00     0.016 A 
ATOM      2  C   UNL     1      16.216  36.261  10.007  1.00  0.00     0.013 A 
ATOM      3  C   UNL     1      17.941  34.749  10.760  1.00  0.00     0.120 A 
ATOM      4  C   UNL     1      15.567  36.105  11.234  1.00  0.00     0.021 A 
ATOM      5  N   UNL     1      17.289  34.614  11.945  1.00  0.00    -0.264 NA
ATOM      6  C   UNL     1      16.125  35.268  12.201  1.00  0.00     0.111 A 
ENDROOT
BRANCH   1   7
ATOM      7  C   UNL     1      18.122  35.733   8.462  1.00  0.00     0.073 C 
ATOM      8  O   UNL     1      18.610  34.730   7.876  1.00  0.00    -0.545 OA
ATOM      9  O   UNL     1      18.253  36.986   7.875  1.00  0.00    -0.545 OA
ENDBRANCH   1   7
TORSDOF 1
ENDMDL
MODEL 8
REMARK VINA RESULT:    -4.438     14.998     16.145
REMARK INTER + INTRA:          -4.720
REMARK INTER:                  -4.696
REMARK INTRA:                  -0.023
REMARK UNBOUND:                -0.022
REMARK SMILES O=C([O-])c1cccnc1
REMARK SMILES IDX 4 1 5 2 9 3 6 4 8 5 7 6 2 7 1 8 3 9
REMARK H PARENT
REMARK Flexibility Score: inf
ROOT
ATOM      1  C   UNL     1      17.725  35.043  10.206  1.00  0.00     0.016 A 
ATOM      2  C   UNL     1      17.597  34.728  11.569  1.00  0.00     0.013 A 
ATOM      3  C   UNL     1      16.695  35.777   9.591  1.00  0.00     0.120 A 
ATOM      4  C   UNL     1      16.469  35.141  12.282  1.00  0.00     0.021 A 
ATOM      5  N   UNL     1      15.609  36.167  10.308  1.00  0.00    -0.264 NA
ATOM      6  C   UNL     1      15.475  35.868  11.627  1.00  0.00     0.111 A 
ENDROOT
BRANCH   1   7
ATOM      7  C   UNL     1      18.911  34.614   9.434  1.00  0.00     0.073 C 
ATOM      8  O   UNL     1      18.940  34.744   8.181  1.00  0.00    -0.545 OA
ATOM      9  O   UNL     1      20.011  34.063  10.081  1.00  0.00    -0.545 OA
ENDBRANCH   1   7
TORSDOF 1
ENDMDL
MODEL 9
REMARK VINA RESULT:    -4.267     15.248     16.308
REMARK INTER + INTRA:          -4.539
REMARK INTER:                  -4.516
REMARK INTRA:                  -0.022
REMARK UNBOUND:                -0.022
REMARK SMILES O=C([O-])c1cccnc1
REMARK SMILES IDX 4 1 5 2 9 3 6 4 8 5 7 6 2 7 1 8 3 9
REMARK H PARENT
REMARK Flexibility Score: inf
ROOT
ATOM      1  C   UNL     1      17.072  35.485  10.263  1.00  0.00     0.016 A 
ATOM      2  C   UNL     1      17.103  35.867   8.911  1.00  0.00     0.013 A 
ATOM      3  C   UNL     1      18.132  34.709  10.763  1.00  0.00     0.120 A 
ATOM      4  C   UNL     1      18.169  35.477   8.097  1.00  0.00     0.021 A 
ATOM      5  N   UNL     1      19.158  34.344   9.949  1.00  0.00    -0.264 NA
ATOM      6  C   UNL     1      19.198  34.707   8.640  1.00  0.00     0.111 A 
ENDROOT
BRANCH   1   7
ATOM      7  C   UNL     1      15.952  35.887  11.141  1.00  0.00     0.073 C 
ATOM      8  O   UNL     1      15.273  36.916  10.883  1.00  0.00    -0.545 OA
ATOM      9  O   UNL     1      15.634  35.133  12.266  1.00  0.00    -0.545 OA
ENDBRANCH   1   7
TORSDOF 1
ENDMDL
