MODEL 1
REMARK VINA RESULT:    -6.317      0.000      0.000
REMARK INTER + INTRA:         -10.572
REMARK INTER:                  -9.271
REMARK INTRA:                  -1.301
REMARK UNBOUND:                -1.301
REMARK SMILES O=c1c(O[C@H]2O[C@H](CO)[C@H](O)[C@@H](O)[C@@H]2O)c(-c2ccc(O)c(O)c2)oc2cc(O)cc(O)c12
REMARK SMILES IDX 4 1 3 2 16 3 25 4 2 5 26 6 1 7 33 8 27 9 31 10 28 11 30 12
REMARK SMILES IDX 17 13 18 14 19 15 20 16 24 17 22 18 21 19 23 21 32 23 29 25
REMARK SMILES IDX 5 27 14 28 6 29 12 30 7 31 10 32 15 33 13 35 8 37 9 38 11 40
REMARK H PARENT 21 20 23 22 32 24 29 26 15 34 13 36 9 39 11 41
REMARK Flexibility Score: inf
ROOT
ATOM      1  O   UNL     1      30.926 -56.282 -13.562  1.00  0.00    -0.454 OA
ENDROOT
BRANCH   1   2
ATOM      2  C   UNL     1      31.917 -55.585 -12.863  1.00  0.00     0.214 A 
ATOM      3  C   UNL     1      31.559 -54.744 -11.800  1.00  0.00     0.180 A 
ATOM      4  O   UNL     1      32.478 -54.012 -11.183  1.00  0.00    -0.452 OA
ATOM      5  C   UNL     1      33.265 -55.653 -13.245  1.00  0.00     0.239 A 
ATOM      6  C   UNL     1      33.765 -54.041 -11.512  1.00  0.00     0.146 A 
ATOM      7  O   UNL     1      33.598 -56.383 -14.214  1.00  0.00    -0.285 OA
ATOM      8  C   UNL     1      34.222 -54.877 -12.559  1.00  0.00     0.111 A 
ATOM      9  C   UNL     1      34.667 -53.232 -10.812  1.00  0.00     0.094 A 
ATOM     10  C   UNL     1      35.600 -54.890 -12.881  1.00  0.00     0.134 A 
ATOM     11  C   UNL     1      36.026 -53.238 -11.143  1.00  0.00     0.123 A 
ATOM     12  C   UNL     1      36.486 -54.061 -12.174  1.00  0.00     0.093 A 
BRANCH   3  13
ATOM     13  C   UNL     1      30.166 -54.659 -11.340  1.00  0.00     0.025 A 
ATOM     14  C   UNL     1      29.439 -53.476 -11.515  1.00  0.00     0.016 A 
ATOM     15  C   UNL     1      28.120 -53.388 -11.057  1.00  0.00     0.051 A 
ATOM     16  C   UNL     1      27.530 -54.473 -10.396  1.00  0.00     0.157 A 
ATOM     17  C   UNL     1      29.577 -55.744 -10.675  1.00  0.00     0.062 A 
ATOM     18  C   UNL     1      28.262 -55.649 -10.193  1.00  0.00     0.158 A 
BRANCH  16  19
ATOM     19  O   UNL     1      26.222 -54.384  -9.924  1.00  0.00    -0.504 OA
ATOM     20  H   UNL     1      25.800 -55.131  -9.388  1.00  0.00     0.293 HD
ENDBRANCH  16  19
BRANCH  18  21
ATOM     21  O   UNL     1      27.683 -56.718  -9.511  1.00  0.00    -0.504 OA
ATOM     22  H   UNL     1      27.268 -56.599  -8.597  1.00  0.00     0.293 HD
ENDBRANCH  18  21
ENDBRANCH   3  13
BRANCH  10  23
ATOM     23  O   UNL     1      36.095 -55.708 -13.898  1.00  0.00    -0.507 OA
ATOM     24  H   UNL     1      36.609 -56.558 -13.696  1.00  0.00     0.293 HD
ENDBRANCH  10  23
BRANCH  11  25
ATOM     25  O   UNL     1      36.930 -52.444 -10.443  1.00  0.00    -0.508 OA
ATOM     26  H   UNL     1      36.802 -51.444 -10.362  1.00  0.00     0.293 HD
ENDBRANCH  11  25
ENDBRANCH   1   2
BRANCH   1  27
ATOM     27  C   UNL     1      30.751 -57.704 -13.483  1.00  0.00     0.339 C 
ATOM     28  C   UNL     1      30.954 -58.369 -14.858  1.00  0.00     0.214 C 
ATOM     29  O   UNL     1      29.470 -58.018 -12.957  1.00  0.00    -0.332 OA
ATOM     30  C   UNL     1      29.835 -57.941 -15.832  1.00  0.00     0.180 C 
ATOM     31  C   UNL     1      28.428 -57.490 -13.769  1.00  0.00     0.179 C 
ATOM     32  C   UNL     1      28.449 -58.133 -15.181  1.00  0.00     0.177 C 
BRANCH  28  33
ATOM     33  O   UNL     1      30.941 -59.768 -14.687  1.00  0.00    -0.384 OA
ATOM     34  H   UNL     1      31.512 -59.972 -13.899  1.00  0.00     0.211 HD
ENDBRANCH  28  33
BRANCH  30  35
ATOM     35  O   UNL     1      29.993 -56.592 -16.198  1.00  0.00    -0.387 OA
ATOM     36  H   UNL     1      29.480 -56.051 -15.540  1.00  0.00     0.211 HD
ENDBRANCH  30  35
BRANCH  31  37
ATOM     37  C   UNL     1      27.086 -57.727 -13.052  1.00  0.00     0.191 C 
BRANCH  37  38
ATOM     38  O   UNL     1      26.048 -57.948 -13.969  1.00  0.00    -0.394 OA
ATOM     39  H   UNL     1      25.455 -58.644 -13.574  1.00  0.00     0.210 HD
ENDBRANCH  37  38
ENDBRANCH  31  37
BRANCH  32  40
ATOM     40  O   UNL     1      28.155 -59.507 -15.087  1.00  0.00    -0.387 OA
ATOM     41  H   UNL     1      27.210 -59.622 -15.366  1.00  0.00     0.211 HD
ENDBRANCH  32  40
ENDBRANCH   1  27
TORSDOF 12
ENDMDL
MODEL 2
REMARK VINA RESULT:    -6.181     11.219     12.490
REMARK INTER + INTRA:         -10.373
REMARK INTER:                  -8.681
REMARK INTRA:                  -1.692
REMARK UNBOUND:                -1.301
REMARK SMILES O=c1c(O[C@H]2O[C@H](CO)[C@H](O)[C@@H](O)[C@@H]2O)c(-c2ccc(O)c(O)c2)oc2cc(O)cc(O)c12
REMARK SMILES IDX 4 1 3 2 16 3 25 4 2 5 26 6 1 7 33 8 27 9 31 10 28 11 30 12
REMARK SMILES IDX 17 13 18 14 19 15 20 16 24 17 22 18 21 19 23 21 32 23 29 25
REMARK SMILES IDX 5 27 14 28 6 29 12 30 7 31 10 32 15 33 13 35 8 37 9 38 11 40
REMARK H PARENT 21 20 23 22 32 24 29 26 15 34 13 36 9 39 11 41
REMARK Flexibility Score: inf
ROOT
ATOM      1  O   UNL     1      32.990 -65.071  -6.230  1.00  0.00    -0.454 OA
ENDROOT
BRANCH   1   2
ATOM      2  C   UNL     1      33.905 -64.228  -6.868  1.00  0.00     0.214 A 
ATOM      3  C   UNL     1      35.253 -64.241  -6.482  1.00  0.00     0.180 A 
ATOM      4  O   UNL     1      36.115 -63.387  -7.020  1.00  0.00    -0.452 OA
ATOM      5  C   UNL     1      33.493 -63.312  -7.848  1.00  0.00     0.239 A 
ATOM      6  C   UNL     1      35.770 -62.500  -7.947  1.00  0.00     0.146 A 
ATOM      7  O   UNL     1      32.282 -63.270  -8.186  1.00  0.00    -0.285 OA
ATOM      8  C   UNL     1      34.436 -62.429  -8.414  1.00  0.00     0.111 A 
ATOM      9  C   UNL     1      36.742 -61.633  -8.457  1.00  0.00     0.094 A 
ATOM     10  C   UNL     1      34.102 -61.478  -9.408  1.00  0.00     0.134 A 
ATOM     11  C   UNL     1      36.405 -60.685  -9.429  1.00  0.00     0.123 A 
ATOM     12  C   UNL     1      35.091 -60.608  -9.897  1.00  0.00     0.093 A 
BRANCH   3  13
ATOM     13  C   UNL     1      35.743 -65.201  -5.483  1.00  0.00     0.025 A 
ATOM     14  C   UNL     1      36.419 -66.356  -5.893  1.00  0.00     0.016 A 
ATOM     15  C   UNL     1      36.867 -67.282  -4.944  1.00  0.00     0.051 A 
ATOM     16  C   UNL     1      36.614 -67.072  -3.581  1.00  0.00     0.157 A 
ATOM     17  C   UNL     1      35.487 -64.993  -4.121  1.00  0.00     0.062 A 
ATOM     18  C   UNL     1      35.912 -65.932  -3.169  1.00  0.00     0.158 A 
BRANCH  16  19
ATOM     19  O   UNL     1      37.043 -67.999  -2.633  1.00  0.00    -0.504 OA
ATOM     20  H   UNL     1      36.847 -67.879  -1.648  1.00  0.00     0.293 HD
ENDBRANCH  16  19
BRANCH  18  21
ATOM     21  O   UNL     1      35.639 -65.739  -1.816  1.00  0.00    -0.504 OA
ATOM     22  H   UNL     1      34.724 -65.452  -1.498  1.00  0.00     0.293 HD
ENDBRANCH  18  21
ENDBRANCH   3  13
BRANCH  10  23
ATOM     23  O   UNL     1      32.801 -61.382  -9.905  1.00  0.00    -0.507 OA
ATOM     24  H   UNL     1      32.616 -61.125 -10.868  1.00  0.00     0.293 HD
ENDBRANCH  10  23
BRANCH  11  25
ATOM     25  O   UNL     1      37.370 -59.827  -9.948  1.00  0.00    -0.508 OA
ATOM     26  H   UNL     1      37.155 -59.181 -10.696  1.00  0.00     0.293 HD
ENDBRANCH  11  25
ENDBRANCH   1   2
BRANCH   1  27
ATOM     27  C   UNL     1      32.710 -66.410  -6.663  1.00  0.00     0.339 C 
ATOM     28  C   UNL     1      31.219 -66.583  -7.016  1.00  0.00     0.214 C 
ATOM     29  O   UNL     1      33.102 -67.346  -5.670  1.00  0.00    -0.332 OA
ATOM     30  C   UNL     1      30.348 -66.444  -5.748  1.00  0.00     0.180 C 
ATOM     31  C   UNL     1      32.415 -67.127  -4.444  1.00  0.00     0.179 C 
ATOM     32  C   UNL     1      30.889 -67.346  -4.620  1.00  0.00     0.177 C 
BRANCH  28  33
ATOM     33  O   UNL     1      31.038 -67.855  -7.594  1.00  0.00    -0.384 OA
ATOM     34  H   UNL     1      30.224 -68.250  -7.181  1.00  0.00     0.211 HD
ENDBRANCH  28  33
BRANCH  30  35
ATOM     35  O   UNL     1      30.333 -65.108  -5.307  1.00  0.00    -0.387 OA
ATOM     36  H   UNL     1      31.048 -64.630  -5.806  1.00  0.00     0.211 HD
ENDBRANCH  30  35
BRANCH  31  37
ATOM     37  C   UNL     1      33.010 -68.066  -3.379  1.00  0.00     0.191 C 
BRANCH  37  38
ATOM     38  O   UNL     1      33.072 -67.443  -2.124  1.00  0.00    -0.394 OA
ATOM     39  H   UNL     1      33.777 -67.911  -1.601  1.00  0.00     0.210 HD
ENDBRANCH  37  38
ENDBRANCH  31  37
BRANCH  32  40
ATOM     40  O   UNL     1      30.631 -68.696  -4.927  1.00  0.00    -0.387 OA
ATOM     41  H   UNL     1      29.742 -68.730  -5.366  1.00  0.00     0.211 HD
ENDBRANCH  32  40
ENDBRANCH   1  27
TORSDOF 12
ENDMDL
MODEL 3
REMARK VINA RESULT:    -6.021     11.508     13.737
REMARK INTER + INTRA:         -10.138
REMARK INTER:                  -8.667
REMARK INTRA:                  -1.471
REMARK UNBOUND:                -1.301
REMARK SMILES O=c1c(O[C@H]2O[C@H](CO)[C@H](O)[C@@H](O)[C@@H]2O)c(-c2ccc(O)c(O)c2)oc2cc(O)cc(O)c12
REMARK SMILES IDX 4 1 3 2 16 3 25 4 2 5 26 6 1 7 33 8 27 9 31 10 28 11 30 12
REMARK SMILES IDX 17 13 18 14 19 15 20 16 24 17 22 18 21 19 23 21 32 23 29 25
REMARK SMILES IDX 5 27 14 28 6 29 12 30 7 31 10 32 15 33 13 35 8 37 9 38 11 40
REMARK H PARENT 21 20 23 22 32 24 29 26 15 34 13 36 9 39 11 41
REMARK Flexibility Score: inf
ROOT
ATOM      1  O   UNL     1      34.413 -64.358  -4.598  1.00  0.00    -0.454 OA
ENDROOT
BRANCH   1   2
ATOM      2  C   UNL     1      33.778 -65.534  -5.012  1.00  0.00     0.214 A 
ATOM      3  C   UNL     1      33.045 -65.547  -6.207  1.00  0.00     0.180 A 
ATOM      4  O   UNL     1      32.369 -66.629  -6.570  1.00  0.00    -0.452 OA
ATOM      5  C   UNL     1      33.800 -66.692  -4.221  1.00  0.00     0.239 A 
ATOM      6  C   UNL     1      32.357 -67.748  -5.852  1.00  0.00     0.146 A 
ATOM      7  O   UNL     1      34.431 -66.688  -3.133  1.00  0.00    -0.285 OA
ATOM      8  C   UNL     1      33.086 -67.834  -4.641  1.00  0.00     0.111 A 
ATOM      9  C   UNL     1      31.611 -68.841  -6.305  1.00  0.00     0.094 A 
ATOM     10  C   UNL     1      33.058 -69.041  -3.903  1.00  0.00     0.134 A 
ATOM     11  C   UNL     1      31.576 -70.028  -5.565  1.00  0.00     0.123 A 
ATOM     12  C   UNL     1      32.293 -70.123  -4.370  1.00  0.00     0.093 A 
BRANCH   3  13
ATOM     13  C   UNL     1      33.015 -64.370  -7.087  1.00  0.00     0.025 A 
ATOM     14  C   UNL     1      34.036 -64.168  -8.024  1.00  0.00     0.016 A 
ATOM     15  C   UNL     1      34.019 -63.037  -8.847  1.00  0.00     0.051 A 
ATOM     16  C   UNL     1      32.998 -62.086  -8.717  1.00  0.00     0.157 A 
ATOM     17  C   UNL     1      31.996 -63.417  -6.955  1.00  0.00     0.062 A 
ATOM     18  C   UNL     1      31.991 -62.269  -7.762  1.00  0.00     0.158 A 
BRANCH  16  19
ATOM     19  O   UNL     1      32.986 -60.949  -9.524  1.00  0.00    -0.504 OA
ATOM     20  H   UNL     1      33.290 -60.981 -10.488  1.00  0.00     0.293 HD
ENDBRANCH  16  19
BRANCH  18  21
ATOM     21  O   UNL     1      30.992 -61.308  -7.616  1.00  0.00    -0.504 OA
ATOM     22  H   UNL     1      30.844 -60.590  -8.310  1.00  0.00     0.293 HD
ENDBRANCH  18  21
ENDBRANCH   3  13
BRANCH  10  23
ATOM     23  O   UNL     1      33.772 -69.173  -2.711  1.00  0.00    -0.507 OA
ATOM     24  H   UNL     1      34.784 -69.206  -2.697  1.00  0.00     0.293 HD
ENDBRANCH  10  23
BRANCH  11  25
ATOM     25  O   UNL     1      30.846 -71.124  -6.017  1.00  0.00    -0.508 OA
ATOM     26  H   UNL     1      29.910 -71.308  -5.682  1.00  0.00     0.293 HD
ENDBRANCH  11  25
ENDBRANCH   1   2
BRANCH   1  27
ATOM     27  C   UNL     1      35.833 -64.239  -4.435  1.00  0.00     0.339 C 
ATOM     28  C   UNL     1      36.191 -63.678  -3.044  1.00  0.00     0.214 C 
ATOM     29  O   UNL     1      36.385 -63.427  -5.460  1.00  0.00    -0.332 OA
ATOM     30  C   UNL     1      35.708 -62.218  -2.914  1.00  0.00     0.180 C 
ATOM     31  C   UNL     1      35.828 -62.118  -5.446  1.00  0.00     0.179 C 
ATOM     32  C   UNL     1      36.177 -61.384  -4.124  1.00  0.00     0.177 C 
BRANCH  28  33
ATOM     33  O   UNL     1      37.588 -63.745  -2.878  1.00  0.00    -0.384 OA
ATOM     34  H   UNL     1      37.918 -62.812  -2.791  1.00  0.00     0.211 HD
ENDBRANCH  28  33
BRANCH  30  35
ATOM     35  O   UNL     1      34.305 -62.170  -2.833  1.00  0.00    -0.387 OA
ATOM     36  H   UNL     1      33.952 -62.646  -3.631  1.00  0.00     0.211 HD
ENDBRANCH  30  35
BRANCH  31  37
ATOM     37  C   UNL     1      36.348 -61.355  -6.679  1.00  0.00     0.191 C 
BRANCH  37  38
ATOM     38  O   UNL     1      36.293 -59.968  -6.483  1.00  0.00    -0.394 OA
ATOM     39  H   UNL     1      35.470 -59.781  -5.956  1.00  0.00     0.210 HD
ENDBRANCH  37  38
ENDBRANCH  31  37
BRANCH  32  40
ATOM     40  O   UNL     1      37.566 -61.172  -4.045  1.00  0.00    -0.387 OA
ATOM     41  H   UNL     1      37.902 -61.720  -3.289  1.00  0.00     0.211 HD
ENDBRANCH  32  40
ENDBRANCH   1  27
TORSDOF 12
ENDMDL
MODEL 4
REMARK VINA RESULT:    -5.990     11.869     14.139
REMARK INTER + INTRA:         -10.092
REMARK INTER:                  -8.782
REMARK INTRA:                  -1.309
REMARK UNBOUND:                -1.301
REMARK SMILES O=c1c(O[C@H]2O[C@H](CO)[C@H](O)[C@@H](O)[C@@H]2O)c(-c2ccc(O)c(O)c2)oc2cc(O)cc(O)c12
REMARK SMILES IDX 4 1 3 2 16 3 25 4 2 5 26 6 1 7 33 8 27 9 31 10 28 11 30 12
REMARK SMILES IDX 17 13 18 14 19 15 20 16 24 17 22 18 21 19 23 21 32 23 29 25
REMARK SMILES IDX 5 27 14 28 6 29 12 30 7 31 10 32 15 33 13 35 8 37 9 38 11 40
REMARK H PARENT 21 20 23 22 32 24 29 26 15 34 13 36 9 39 11 41
REMARK Flexibility Score: inf
ROOT
ATOM      1  O   UNL     1      34.145 -64.778  -4.600  1.00  0.00    -0.454 OA
ENDROOT
BRANCH   1   2
ATOM      2  C   UNL     1      33.468 -65.869  -5.155  1.00  0.00     0.214 A 
ATOM      3  C   UNL     1      32.862 -65.747  -6.414  1.00  0.00     0.180 A 
ATOM      4  O   UNL     1      32.146 -66.746  -6.914  1.00  0.00    -0.452 OA
ATOM      5  C   UNL     1      33.319 -67.071  -4.447  1.00  0.00     0.239 A 
ATOM      6  C   UNL     1      31.974 -67.901  -6.280  1.00  0.00     0.146 A 
ATOM      7  O   UNL     1      33.834 -67.186  -3.306  1.00  0.00    -0.285 OA
ATOM      8  C   UNL     1      32.567 -68.121  -5.013  1.00  0.00     0.111 A 
ATOM      9  C   UNL     1      31.197 -68.899  -6.877  1.00  0.00     0.094 A 
ATOM     10  C   UNL     1      32.370 -69.365  -4.366  1.00  0.00     0.134 A 
ATOM     11  C   UNL     1      30.995 -70.122  -6.229  1.00  0.00     0.123 A 
ATOM     12  C   UNL     1      31.576 -70.349  -4.979  1.00  0.00     0.093 A 
BRANCH   3  13
ATOM     13  C   UNL     1      33.014 -64.521  -7.209  1.00  0.00     0.025 A 
ATOM     14  C   UNL     1      34.158 -64.329  -7.993  1.00  0.00     0.016 A 
ATOM     15  C   UNL     1      34.312 -63.153  -8.733  1.00  0.00     0.051 A 
ATOM     16  C   UNL     1      33.337 -62.148  -8.670  1.00  0.00     0.157 A 
ATOM     17  C   UNL     1      32.040 -63.514  -7.143  1.00  0.00     0.062 A 
ATOM     18  C   UNL     1      32.204 -62.323  -7.865  1.00  0.00     0.158 A 
BRANCH  16  19
ATOM     19  O   UNL     1      33.494 -60.966  -9.393  1.00  0.00    -0.504 OA
ATOM     20  H   UNL     1      33.298 -60.922 -10.385  1.00  0.00     0.293 HD
ENDBRANCH  16  19
BRANCH  18  21
ATOM     21  O   UNL     1      31.249 -61.311  -7.784  1.00  0.00    -0.504 OA
ATOM     22  H   UNL     1      30.497 -61.239  -8.454  1.00  0.00     0.293 HD
ENDBRANCH  18  21
ENDBRANCH   3  13
BRANCH  10  23
ATOM     23  O   UNL     1      32.945 -69.629  -3.122  1.00  0.00    -0.507 OA
ATOM     24  H   UNL     1      32.519 -69.309  -2.259  1.00  0.00     0.293 HD
ENDBRANCH  10  23
BRANCH  11  25
ATOM     25  O   UNL     1      30.233 -71.123  -6.823  1.00  0.00    -0.508 OA
ATOM     26  H   UNL     1      29.242 -71.006  -6.986  1.00  0.00     0.293 HD
ENDBRANCH  11  25
ENDBRANCH   1   2
BRANCH   1  27
ATOM     27  C   UNL     1      35.434 -64.334  -5.047  1.00  0.00     0.339 C 
ATOM     28  C   UNL     1      36.567 -65.097  -4.331  1.00  0.00     0.214 C 
ATOM     29  O   UNL     1      35.572 -62.935  -4.855  1.00  0.00    -0.332 OA
ATOM     30  C   UNL     1      36.586 -64.743  -2.829  1.00  0.00     0.180 C 
ATOM     31  C   UNL     1      35.435 -62.579  -3.484  1.00  0.00     0.179 C 
ATOM     32  C   UNL     1      36.567 -63.213  -2.634  1.00  0.00     0.177 C 
BRANCH  28  33
ATOM     33  O   UNL     1      37.793 -64.746  -4.929  1.00  0.00    -0.384 OA
ATOM     34  H   UNL     1      38.441 -64.582  -4.193  1.00  0.00     0.211 HD
ENDBRANCH  28  33
BRANCH  30  35
ATOM     35  O   UNL     1      35.474 -65.308  -2.178  1.00  0.00    -0.387 OA
ATOM     36  H   UNL     1      35.652 -65.254  -1.201  1.00  0.00     0.211 HD
ENDBRANCH  30  35
BRANCH  31  37
ATOM     37  C   UNL     1      35.431 -61.043  -3.378  1.00  0.00     0.191 C 
BRANCH  37  38
ATOM     38  O   UNL     1      35.745 -60.618  -2.079  1.00  0.00    -0.394 OA
ATOM     39  H   UNL     1      35.802 -61.435  -1.513  1.00  0.00     0.210 HD
ENDBRANCH  37  38
ENDBRANCH  31  37
BRANCH  32  40
ATOM     40  O   UNL     1      37.810 -62.671  -3.010  1.00  0.00    -0.387 OA
ATOM     41  H   UNL     1      38.428 -62.800  -2.244  1.00  0.00     0.211 HD
ENDBRANCH  32  40
ENDBRANCH   1  27
TORSDOF 12
ENDMDL
MODEL 5
REMARK VINA RESULT:    -5.945     11.470     13.550
REMARK INTER + INTRA:         -10.025
REMARK INTER:                  -8.679
REMARK INTRA:                  -1.346
REMARK UNBOUND:                -1.301
REMARK SMILES O=c1c(O[C@H]2O[C@H](CO)[C@H](O)[C@@H](O)[C@@H]2O)c(-c2ccc(O)c(O)c2)oc2cc(O)cc(O)c12
REMARK SMILES IDX 4 1 3 2 16 3 25 4 2 5 26 6 1 7 33 8 27 9 31 10 28 11 30 12
REMARK SMILES IDX 17 13 18 14 19 15 20 16 24 17 22 18 21 19 23 21 32 23 29 25
REMARK SMILES IDX 5 27 14 28 6 29 12 30 7 31 10 32 15 33 13 35 8 37 9 38 11 40
REMARK H PARENT 21 20 23 22 32 24 29 26 15 34 13 36 9 39 11 41
REMARK Flexibility Score: inf
ROOT
ATOM      1  O   UNL     1      35.653 -63.757  -5.384  1.00  0.00    -0.454 OA
ENDROOT
BRANCH   1   2
ATOM      2  C   UNL     1      35.246 -65.039  -5.765  1.00  0.00     0.214 A 
ATOM      3  C   UNL     1      34.413 -65.203  -6.881  1.00  0.00     0.180 A 
ATOM      4  O   UNL     1      33.951 -66.404  -7.204  1.00  0.00    -0.452 OA
ATOM      5  C   UNL     1      35.597 -66.170  -5.013  1.00  0.00     0.239 A 
ATOM      6  C   UNL     1      34.253 -67.503  -6.521  1.00  0.00     0.146 A 
ATOM      7  O   UNL     1      36.323 -66.035  -3.994  1.00  0.00    -0.285 OA
ATOM      8  C   UNL     1      35.106 -67.436  -5.392  1.00  0.00     0.111 A 
ATOM      9  C   UNL     1      33.717 -68.729  -6.927  1.00  0.00     0.094 A 
ATOM     10  C   UNL     1      35.414 -68.626  -4.688  1.00  0.00     0.134 A 
ATOM     11  C   UNL     1      34.014 -69.900  -6.221  1.00  0.00     0.123 A 
ATOM     12  C   UNL     1      34.854 -69.844  -5.107  1.00  0.00     0.093 A 
BRANCH   3  13
ATOM     13  C   UNL     1      34.041 -64.056  -7.720  1.00  0.00     0.025 A 
ATOM     14  C   UNL     1      34.890 -63.633  -8.749  1.00  0.00     0.016 A 
ATOM     15  C   UNL     1      34.547 -62.528  -9.535  1.00  0.00     0.051 A 
ATOM     16  C   UNL     1      33.365 -61.820  -9.276  1.00  0.00     0.157 A 
ATOM     17  C   UNL     1      32.860 -63.345  -7.459  1.00  0.00     0.062 A 
ATOM     18  C   UNL     1      32.525 -62.221  -8.229  1.00  0.00     0.158 A 
BRANCH  16  19
ATOM     19  O   UNL     1      33.026 -60.708 -10.045  1.00  0.00    -0.504 OA
ATOM     20  H   UNL     1      32.932 -59.789  -9.635  1.00  0.00     0.293 HD
ENDBRANCH  16  19
BRANCH  18  21
ATOM     21  O   UNL     1      31.364 -61.500  -7.957  1.00  0.00    -0.504 OA
ATOM     22  H   UNL     1      31.379 -60.495  -7.853  1.00  0.00     0.293 HD
ENDBRANCH  18  21
ENDBRANCH   3  13
BRANCH  10  23
ATOM     23  O   UNL     1      36.259 -68.607  -3.578  1.00  0.00    -0.507 OA
ATOM     24  H   UNL     1      35.910 -68.415  -2.646  1.00  0.00     0.293 HD
ENDBRANCH  10  23
BRANCH  11  25
ATOM     25  O   UNL     1      33.492 -71.125  -6.628  1.00  0.00    -0.508 OA
ATOM     26  H   UNL     1      33.563 -71.437  -7.587  1.00  0.00     0.293 HD
ENDBRANCH  11  25
ENDBRANCH   1   2
BRANCH   1  27
ATOM     27  C   UNL     1      34.832 -62.855  -4.629  1.00  0.00     0.339 C 
ATOM     28  C   UNL     1      35.152 -61.386  -4.972  1.00  0.00     0.214 C 
ATOM     29  O   UNL     1      34.986 -63.089  -3.237  1.00  0.00    -0.332 OA
ATOM     30  C   UNL     1      36.577 -61.024  -4.504  1.00  0.00     0.180 C 
ATOM     31  C   UNL     1      36.335 -62.908  -2.822  1.00  0.00     0.179 C 
ATOM     32  C   UNL     1      36.784 -61.438  -3.032  1.00  0.00     0.177 C 
BRANCH  28  33
ATOM     33  O   UNL     1      34.205 -60.559  -4.336  1.00  0.00    -0.384 OA
ATOM     34  H   UNL     1      33.374 -61.094  -4.229  1.00  0.00     0.211 HD
ENDBRANCH  28  33
BRANCH  30  35
ATOM     35  O   UNL     1      37.536 -61.667  -5.306  1.00  0.00    -0.387 OA
ATOM     36  H   UNL     1      38.240 -60.995  -5.513  1.00  0.00     0.211 HD
ENDBRANCH  30  35
BRANCH  31  37
ATOM     37  C   UNL     1      36.452 -63.339  -1.348  1.00  0.00     0.191 C 
BRANCH  37  38
ATOM     38  O   UNL     1      36.024 -64.662  -1.166  1.00  0.00    -0.394 OA
ATOM     39  H   UNL     1      36.043 -64.840  -0.186  1.00  0.00     0.210 HD
ENDBRANCH  37  38
ENDBRANCH  31  37
BRANCH  32  40
ATOM     40  O   UNL     1      36.044 -60.586  -2.190  1.00  0.00    -0.387 OA
ATOM     41  H   UNL     1      36.594 -60.429  -1.379  1.00  0.00     0.211 HD
ENDBRANCH  32  40
ENDBRANCH   1  27
TORSDOF 12
ENDMDL
MODEL 6
REMARK VINA RESULT:    -5.930     12.783     14.081
REMARK INTER + INTRA:         -10.004
REMARK INTER:                  -8.313
REMARK INTRA:                  -1.691
REMARK UNBOUND:                -1.301
REMARK SMILES O=c1c(O[C@H]2O[C@H](CO)[C@H](O)[C@@H](O)[C@@H]2O)c(-c2ccc(O)c(O)c2)oc2cc(O)cc(O)c12
REMARK SMILES IDX 4 1 3 2 16 3 25 4 2 5 26 6 1 7 33 8 27 9 31 10 28 11 30 12
REMARK SMILES IDX 17 13 18 14 19 15 20 16 24 17 22 18 21 19 23 21 32 23 29 25
REMARK SMILES IDX 5 27 14 28 6 29 12 30 7 31 10 32 15 33 13 35 8 37 9 38 11 40
REMARK H PARENT 21 20 23 22 32 24 29 26 15 34 13 36 9 39 11 41
REMARK Flexibility Score: inf
ROOT
ATOM      1  O   UNL     1      34.598 -66.782  -4.261  1.00  0.00    -0.454 OA
ENDROOT
BRANCH   1   2
ATOM      2  C   UNL     1      34.507 -65.481  -4.768  1.00  0.00     0.214 A 
ATOM      3  C   UNL     1      33.663 -65.214  -5.855  1.00  0.00     0.180 A 
ATOM      4  O   UNL     1      33.630 -64.004  -6.399  1.00  0.00    -0.452 OA
ATOM      5  C   UNL     1      35.296 -64.441  -4.255  1.00  0.00     0.239 A 
ATOM      6  C   UNL     1      34.362 -62.990  -5.950  1.00  0.00     0.146 A 
ATOM      7  O   UNL     1      36.077 -64.672  -3.296  1.00  0.00    -0.285 OA
ATOM      8  C   UNL     1      35.226 -63.161  -4.842  1.00  0.00     0.111 A 
ATOM      9  C   UNL     1      34.271 -61.748  -6.587  1.00  0.00     0.094 A 
ATOM     10  C   UNL     1      35.988 -62.059  -4.383  1.00  0.00     0.134 A 
ATOM     11  C   UNL     1      35.035 -60.665  -6.139  1.00  0.00     0.123 A 
ATOM     12  C   UNL     1      35.890 -60.824  -5.045  1.00  0.00     0.093 A 
BRANCH   3  13
ATOM     13  C   UNL     1      32.793 -66.260  -6.410  1.00  0.00     0.025 A 
ATOM     14  C   UNL     1      31.429 -66.280  -6.094  1.00  0.00     0.016 A 
ATOM     15  C   UNL     1      30.605 -67.288  -6.604  1.00  0.00     0.051 A 
ATOM     16  C   UNL     1      31.145 -68.298  -7.411  1.00  0.00     0.157 A 
ATOM     17  C   UNL     1      33.334 -67.273  -7.215  1.00  0.00     0.062 A 
ATOM     18  C   UNL     1      32.513 -68.299  -7.708  1.00  0.00     0.158 A 
BRANCH  16  19
ATOM     19  O   UNL     1      30.330 -69.314  -7.909  1.00  0.00    -0.504 OA
ATOM     20  H   UNL     1      30.147 -70.155  -7.378  1.00  0.00     0.293 HD
ENDBRANCH  16  19
BRANCH  18  21
ATOM     21  O   UNL     1      33.053 -69.320  -8.488  1.00  0.00    -0.504 OA
ATOM     22  H   UNL     1      33.310 -69.168  -9.453  1.00  0.00     0.293 HD
ENDBRANCH  18  21
ENDBRANCH   3  13
BRANCH  10  23
ATOM     23  O   UNL     1      36.843 -62.181  -3.287  1.00  0.00    -0.507 OA
ATOM     24  H   UNL     1      37.342 -61.384  -2.909  1.00  0.00     0.293 HD
ENDBRANCH  10  23
BRANCH  11  25
ATOM     25  O   UNL     1      34.940 -59.424  -6.761  1.00  0.00    -0.508 OA
ATOM     26  H   UNL     1      35.693 -59.058  -7.327  1.00  0.00     0.293 HD
ENDBRANCH  11  25
ENDBRANCH   1   2
BRANCH   1  27
ATOM     27  C   UNL     1      33.726 -67.301  -3.246  1.00  0.00     0.339 C 
ATOM     28  C   UNL     1      34.514 -67.699  -1.983  1.00  0.00     0.214 C 
ATOM     29  O   UNL     1      32.986 -68.405  -3.744  1.00  0.00    -0.332 OA
ATOM     30  C   UNL     1      35.440 -68.897  -2.283  1.00  0.00     0.180 C 
ATOM     31  C   UNL     1      33.840 -69.458  -4.171  1.00  0.00     0.179 C 
ATOM     32  C   UNL     1      34.653 -70.027  -2.978  1.00  0.00     0.177 C 
BRANCH  28  33
ATOM     33  O   UNL     1      33.597 -68.036  -0.968  1.00  0.00    -0.384 OA
ATOM     34  H   UNL     1      33.044 -68.787  -1.311  1.00  0.00     0.211 HD
ENDBRANCH  28  33
BRANCH  30  35
ATOM     35  O   UNL     1      36.506 -68.499  -3.110  1.00  0.00    -0.387 OA
ATOM     36  H   UNL     1      36.531 -67.504  -3.092  1.00  0.00     0.211 HD
ENDBRANCH  30  35
BRANCH  31  37
ATOM     37  C   UNL     1      32.978 -70.541  -4.846  1.00  0.00     0.191 C 
BRANCH  37  38
ATOM     38  O   UNL     1      33.597 -71.043  -6.000  1.00  0.00    -0.394 OA
ATOM     39  H   UNL     1      32.985 -71.728  -6.383  1.00  0.00     0.210 HD
ENDBRANCH  37  38
ENDBRANCH  31  37
BRANCH  32  40
ATOM     40  O   UNL     1      33.784 -70.638  -2.054  1.00  0.00    -0.387 OA
ATOM     41  H   UNL     1      33.686 -71.586  -2.329  1.00  0.00     0.211 HD
ENDBRANCH  32  40
ENDBRANCH   1  27
TORSDOF 12
ENDMDL
MODEL 7
REMARK VINA RESULT:    -5.885     13.420     14.842
REMARK INTER + INTRA:          -9.938
REMARK INTER:                  -8.459
REMARK INTRA:                  -1.479
REMARK UNBOUND:                -1.301
REMARK SMILES O=c1c(O[C@H]2O[C@H](CO)[C@H](O)[C@@H](O)[C@@H]2O)c(-c2ccc(O)c(O)c2)oc2cc(O)cc(O)c12
REMARK SMILES IDX 4 1 3 2 16 3 25 4 2 5 26 6 1 7 33 8 27 9 31 10 28 11 30 12
REMARK SMILES IDX 17 13 18 14 19 15 20 16 24 17 22 18 21 19 23 21 32 23 29 25
REMARK SMILES IDX 5 27 14 28 6 29 12 30 7 31 10 32 15 33 13 35 8 37 9 38 11 40
REMARK H PARENT 21 20 23 22 32 24 29 26 15 34 13 36 9 39 11 41
REMARK Flexibility Score: inf
ROOT
ATOM      1  O   UNL     1      34.608 -65.894  -5.456  1.00  0.00    -0.454 OA
ENDROOT
BRANCH   1   2
ATOM      2  C   UNL     1      35.049 -66.867  -4.554  1.00  0.00     0.214 A 
ATOM      3  C   UNL     1      34.401 -68.109  -4.496  1.00  0.00     0.180 A 
ATOM      4  O   UNL     1      34.754 -69.010  -3.588  1.00  0.00    -0.452 OA
ATOM      5  C   UNL     1      36.090 -66.606  -3.650  1.00  0.00     0.239 A 
ATOM      6  C   UNL     1      35.730 -68.806  -2.709  1.00  0.00     0.146 A 
ATOM      7  O   UNL     1      36.664 -65.487  -3.673  1.00  0.00    -0.285 OA
ATOM      8  C   UNL     1      36.455 -67.590  -2.708  1.00  0.00     0.111 A 
ATOM      9  C   UNL     1      36.034 -69.808  -1.782  1.00  0.00     0.094 A 
ATOM     10  C   UNL     1      37.494 -67.406  -1.764  1.00  0.00     0.134 A 
ATOM     11  C   UNL     1      37.053 -69.617  -0.842  1.00  0.00     0.123 A 
ATOM     12  C   UNL     1      37.774 -68.421  -0.834  1.00  0.00     0.093 A 
BRANCH   3  13
ATOM     13  C   UNL     1      33.326 -68.445  -5.440  1.00  0.00     0.025 A 
ATOM     14  C   UNL     1      31.988 -68.250  -5.079  1.00  0.00     0.016 A 
ATOM     15  C   UNL     1      30.964 -68.589  -5.968  1.00  0.00     0.051 A 
ATOM     16  C   UNL     1      31.271 -69.155  -7.214  1.00  0.00     0.157 A 
ATOM     17  C   UNL     1      33.633 -69.014  -6.684  1.00  0.00     0.062 A 
ATOM     18  C   UNL     1      32.607 -69.379  -7.568  1.00  0.00     0.158 A 
BRANCH  16  19
ATOM     19  O   UNL     1      30.253 -69.510  -8.097  1.00  0.00    -0.504 OA
ATOM     20  H   UNL     1      30.212 -70.430  -8.516  1.00  0.00     0.293 HD
ENDBRANCH  16  19
BRANCH  18  21
ATOM     21  O   UNL     1      32.909 -69.965  -8.796  1.00  0.00    -0.504 OA
ATOM     22  H   UNL     1      33.637 -69.597  -9.393  1.00  0.00     0.293 HD
ENDBRANCH  18  21
ENDBRANCH   3  13
BRANCH  10  23
ATOM     23  O   UNL     1      38.241 -66.228  -1.735  1.00  0.00    -0.507 OA
ATOM     24  H   UNL     1      37.880 -65.358  -2.111  1.00  0.00     0.293 HD
ENDBRANCH  10  23
BRANCH  11  25
ATOM     25  O   UNL     1      37.367 -70.615   0.076  1.00  0.00    -0.508 OA
ATOM     26  H   UNL     1      38.032 -70.457   0.821  1.00  0.00     0.293 HD
ENDBRANCH  11  25
ENDBRANCH   1   2
BRANCH   1  27
ATOM     27  C   UNL     1      33.502 -65.016  -5.200  1.00  0.00     0.339 C 
ATOM     28  C   UNL     1      32.692 -64.749  -6.483  1.00  0.00     0.214 C 
ATOM     29  O   UNL     1      33.957 -63.798  -4.630  1.00  0.00    -0.332 OA
ATOM     30  C   UNL     1      33.537 -63.945  -7.494  1.00  0.00     0.180 C 
ATOM     31  C   UNL     1      34.863 -63.123  -5.493  1.00  0.00     0.179 C 
ATOM     32  C   UNL     1      34.162 -62.709  -6.814  1.00  0.00     0.177 C 
BRANCH  28  33
ATOM     33  O   UNL     1      31.530 -64.029  -6.139  1.00  0.00    -0.384 OA
ATOM     34  H   UNL     1      30.777 -64.427  -6.652  1.00  0.00     0.211 HD
ENDBRANCH  28  33
BRANCH  30  35
ATOM     35  O   UNL     1      34.561 -64.750  -8.026  1.00  0.00    -0.387 OA
ATOM     36  H   UNL     1      34.479 -65.644  -7.598  1.00  0.00     0.211 HD
ENDBRANCH  30  35
BRANCH  31  37
ATOM     37  C   UNL     1      35.435 -61.906  -4.743  1.00  0.00     0.191 C 
BRANCH  37  38
ATOM     38  O   UNL     1      34.460 -61.295  -3.940  1.00  0.00    -0.394 OA
ATOM     39  H   UNL     1      34.629 -61.588  -3.004  1.00  0.00     0.210 HD
ENDBRANCH  37  38
ENDBRANCH  31  37
BRANCH  32  40
ATOM     40  O   UNL     1      33.161 -61.757  -6.548  1.00  0.00    -0.387 OA
ATOM     41  H   UNL     1      32.291 -62.177  -6.776  1.00  0.00     0.211 HD
ENDBRANCH  32  40
ENDBRANCH   1  27
TORSDOF 12
ENDMDL
MODEL 8
REMARK VINA RESULT:    -5.757     12.543     13.700
REMARK INTER + INTRA:          -9.751
REMARK INTER:                  -8.133
REMARK INTRA:                  -1.618
REMARK UNBOUND:                -1.301
REMARK SMILES O=c1c(O[C@H]2O[C@H](CO)[C@H](O)[C@@H](O)[C@@H]2O)c(-c2ccc(O)c(O)c2)oc2cc(O)cc(O)c12
REMARK SMILES IDX 4 1 3 2 16 3 25 4 2 5 26 6 1 7 33 8 27 9 31 10 28 11 30 12
REMARK SMILES IDX 17 13 18 14 19 15 20 16 24 17 22 18 21 19 23 21 32 23 29 25
REMARK SMILES IDX 5 27 14 28 6 29 12 30 7 31 10 32 15 33 13 35 8 37 9 38 11 40
REMARK H PARENT 21 20 23 22 32 24 29 26 15 34 13 36 9 39 11 41
REMARK Flexibility Score: inf
ROOT
ATOM      1  O   UNL     1      32.875 -66.899  -6.011  1.00  0.00    -0.454 OA
ENDROOT
BRANCH   1   2
ATOM      2  C   UNL     1      33.531 -65.664  -5.987  1.00  0.00     0.214 A 
ATOM      3  C   UNL     1      34.578 -65.447  -5.079  1.00  0.00     0.180 A 
ATOM      4  O   UNL     1      35.153 -64.255  -4.988  1.00  0.00    -0.452 OA
ATOM      5  C   UNL     1      33.122 -64.604  -6.810  1.00  0.00     0.239 A 
ATOM      6  C   UNL     1      34.797 -63.221  -5.743  1.00  0.00     0.146 A 
ATOM      7  O   UNL     1      32.167 -64.775  -7.611  1.00  0.00    -0.285 OA
ATOM      8  C   UNL     1      33.764 -63.353  -6.703  1.00  0.00     0.111 A 
ATOM      9  C   UNL     1      35.452 -61.997  -5.577  1.00  0.00     0.094 A 
ATOM     10  C   UNL     1      33.412 -62.235  -7.496  1.00  0.00     0.134 A 
ATOM     11  C   UNL     1      35.092 -60.890  -6.355  1.00  0.00     0.123 A 
ATOM     12  C   UNL     1      34.075 -61.011  -7.305  1.00  0.00     0.093 A 
BRANCH   3  13
ATOM     13  C   UNL     1      35.066 -66.533  -4.217  1.00  0.00     0.025 A 
ATOM     14  C   UNL     1      36.304 -67.133  -4.477  1.00  0.00     0.016 A 
ATOM     15  C   UNL     1      36.759 -68.181  -3.670  1.00  0.00     0.051 A 
ATOM     16  C   UNL     1      35.966 -68.654  -2.616  1.00  0.00     0.157 A 
ATOM     17  C   UNL     1      34.271 -67.009  -3.165  1.00  0.00     0.062 A 
ATOM     18  C   UNL     1      34.714 -68.076  -2.370  1.00  0.00     0.158 A 
BRANCH  16  19
ATOM     19  O   UNL     1      36.408 -69.709  -1.819  1.00  0.00    -0.504 OA
ATOM     20  H   UNL     1      37.363 -70.040  -1.861  1.00  0.00     0.293 HD
ENDBRANCH  16  19
BRANCH  18  21
ATOM     21  O   UNL     1      33.916 -68.566  -1.338  1.00  0.00    -0.504 OA
ATOM     22  H   UNL     1      32.907 -68.546  -1.395  1.00  0.00     0.293 HD
ENDBRANCH  18  21
ENDBRANCH   3  13
BRANCH  10  23
ATOM     23  O   UNL     1      32.408 -62.324  -8.462  1.00  0.00    -0.507 OA
ATOM     24  H   UNL     1      32.117 -63.215  -8.847  1.00  0.00     0.293 HD
ENDBRANCH  10  23
BRANCH  11  25
ATOM     25  O   UNL     1      35.748 -59.673  -6.202  1.00  0.00    -0.508 OA
ATOM     26  H   UNL     1      35.336 -58.912  -5.679  1.00  0.00     0.293 HD
ENDBRANCH  11  25
ENDBRANCH   1   2
BRANCH   1  27
ATOM     27  C   UNL     1      33.336 -68.028  -6.765  1.00  0.00     0.339 C 
ATOM     28  C   UNL     1      32.386 -68.344  -7.937  1.00  0.00     0.214 C 
ATOM     29  O   UNL     1      33.487 -69.161  -5.922  1.00  0.00    -0.332 OA
ATOM     30  C   UNL     1      31.018 -68.824  -7.404  1.00  0.00     0.180 C 
ATOM     31  C   UNL     1      32.258 -69.518  -5.302  1.00  0.00     0.179 C 
ATOM     32  C   UNL     1      31.209 -69.946  -6.362  1.00  0.00     0.177 C 
BRANCH  28  33
ATOM     33  O   UNL     1      32.974 -69.343  -8.737  1.00  0.00    -0.384 OA
ATOM     34  H   UNL     1      33.367 -70.018  -8.121  1.00  0.00     0.211 HD
ENDBRANCH  28  33
BRANCH  30  35
ATOM     35  O   UNL     1      30.319 -67.756  -6.815  1.00  0.00    -0.387 OA
ATOM     36  H   UNL     1      30.735 -66.917  -7.149  1.00  0.00     0.211 HD
ENDBRANCH  30  35
BRANCH  31  37
ATOM     37  C   UNL     1      32.535 -70.641  -4.285  1.00  0.00     0.191 C 
BRANCH  37  38
ATOM     38  O   UNL     1      32.078 -70.296  -3.005  1.00  0.00    -0.394 OA
ATOM     39  H   UNL     1      31.404 -69.573  -3.122  1.00  0.00     0.210 HD
ENDBRANCH  37  38
ENDBRANCH  31  37
BRANCH  32  40
ATOM     40  O   UNL     1      31.629 -71.125  -7.004  1.00  0.00    -0.387 OA
ATOM     41  H   UNL     1      30.894 -71.785  -6.912  1.00  0.00     0.211 HD
ENDBRANCH  32  40
ENDBRANCH   1  27
TORSDOF 12
ENDMDL
MODEL 9
REMARK VINA RESULT:    -5.691     13.153     14.443
REMARK INTER + INTRA:          -9.654
REMARK INTER:                  -8.052
REMARK INTRA:                  -1.602
REMARK UNBOUND:                -1.301
REMARK SMILES O=c1c(O[C@H]2O[C@H](CO)[C@H](O)[C@@H](O)[C@@H]2O)c(-c2ccc(O)c(O)c2)oc2cc(O)cc(O)c12
REMARK SMILES IDX 4 1 3 2 16 3 25 4 2 5 26 6 1 7 33 8 27 9 31 10 28 11 30 12
REMARK SMILES IDX 17 13 18 14 19 15 20 16 24 17 22 18 21 19 23 21 32 23 29 25
REMARK SMILES IDX 5 27 14 28 6 29 12 30 7 31 10 32 15 33 13 35 8 37 9 38 11 40
REMARK H PARENT 21 20 23 22 32 24 29 26 15 34 13 36 9 39 11 41
REMARK Flexibility Score: inf
ROOT
ATOM      1  O   UNL     1      34.612 -65.585  -5.531  1.00  0.00    -0.454 OA
ENDROOT
BRANCH   1   2
ATOM      2  C   UNL     1      35.089 -66.545  -4.633  1.00  0.00     0.214 A 
ATOM      3  C   UNL     1      34.465 -67.798  -4.554  1.00  0.00     0.180 A 
ATOM      4  O   UNL     1      34.853 -68.687  -3.649  1.00  0.00    -0.452 OA
ATOM      5  C   UNL     1      36.144 -66.260  -3.753  1.00  0.00     0.239 A 
ATOM      6  C   UNL     1      35.844 -68.461  -2.793  1.00  0.00     0.146 A 
ATOM      7  O   UNL     1      36.697 -65.131  -3.794  1.00  0.00    -0.285 OA
ATOM      8  C   UNL     1      36.547 -67.232  -2.814  1.00  0.00     0.111 A 
ATOM      9  C   UNL     1      36.185 -69.452  -1.867  1.00  0.00     0.094 A 
ATOM     10  C   UNL     1      37.602 -67.025  -1.893  1.00  0.00     0.134 A 
ATOM     11  C   UNL     1      37.220 -69.238  -0.950  1.00  0.00     0.123 A 
ATOM     12  C   UNL     1      37.920 -68.029  -0.964  1.00  0.00     0.093 A 
BRANCH   3  13
ATOM     13  C   UNL     1      33.376 -68.158  -5.473  1.00  0.00     0.025 A 
ATOM     14  C   UNL     1      32.059 -67.780  -5.185  1.00  0.00     0.016 A 
ATOM     15  C   UNL     1      31.020 -68.141  -6.048  1.00  0.00     0.051 A 
ATOM     16  C   UNL     1      31.287 -68.908  -7.190  1.00  0.00     0.157 A 
ATOM     17  C   UNL     1      33.643 -68.928  -6.614  1.00  0.00     0.062 A 
ATOM     18  C   UNL     1      32.599 -69.313  -7.469  1.00  0.00     0.158 A 
BRANCH  16  19
ATOM     19  O   UNL     1      30.252 -69.284  -8.045  1.00  0.00    -0.504 OA
ATOM     20  H   UNL     1      29.576 -69.988  -7.780  1.00  0.00     0.293 HD
ENDBRANCH  16  19
BRANCH  18  21
ATOM     21  O   UNL     1      32.858 -70.098  -8.591  1.00  0.00    -0.504 OA
ATOM     22  H   UNL     1      32.179 -70.203  -9.331  1.00  0.00     0.293 HD
ENDBRANCH  18  21
ENDBRANCH   3  13
BRANCH  10  23
ATOM     23  O   UNL     1      38.328 -65.833  -1.887  1.00  0.00    -0.507 OA
ATOM     24  H   UNL     1      39.189 -65.731  -2.411  1.00  0.00     0.293 HD
ENDBRANCH  10  23
BRANCH  11  25
ATOM     25  O   UNL     1      37.571 -70.225  -0.034  1.00  0.00    -0.508 OA
ATOM     26  H   UNL     1      38.003 -69.994   0.851  1.00  0.00     0.293 HD
ENDBRANCH  11  25
ENDBRANCH   1   2
BRANCH   1  27
ATOM     27  C   UNL     1      34.880 -65.613  -6.940  1.00  0.00     0.339 C 
ATOM     28  C   UNL     1      36.157 -64.821  -7.282  1.00  0.00     0.214 C 
ATOM     29  O   UNL     1      33.768 -65.112  -7.667  1.00  0.00    -0.332 OA
ATOM     30  C   UNL     1      35.947 -63.317  -7.005  1.00  0.00     0.180 C 
ATOM     31  C   UNL     1      33.468 -63.770  -7.304  1.00  0.00     0.179 C 
ATOM     32  C   UNL     1      34.643 -62.824  -7.666  1.00  0.00     0.177 C 
BRANCH  28  33
ATOM     33  O   UNL     1      36.463 -65.027  -8.642  1.00  0.00    -0.384 OA
ATOM     34  H   UNL     1      36.128 -65.932  -8.884  1.00  0.00     0.211 HD
ENDBRANCH  28  33
BRANCH  30  35
ATOM     35  O   UNL     1      35.885 -63.077  -5.621  1.00  0.00    -0.387 OA
ATOM     36  H   UNL     1      36.565 -62.380  -5.417  1.00  0.00     0.211 HD
ENDBRANCH  30  35
BRANCH  31  37
ATOM     37  C   UNL     1      32.162 -63.356  -8.006  1.00  0.00     0.191 C 
BRANCH  37  38
ATOM     38  O   UNL     1      32.147 -61.984  -8.294  1.00  0.00    -0.394 OA
ATOM     39  H   UNL     1      31.516 -61.560  -7.652  1.00  0.00     0.210 HD
ENDBRANCH  37  38
ENDBRANCH  31  37
BRANCH  32  40
ATOM     40  O   UNL     1      34.807 -62.777  -9.063  1.00  0.00    -0.387 OA
ATOM     41  H   UNL     1      34.927 -63.712  -9.374  1.00  0.00     0.211 HD
ENDBRANCH  32  40
ENDBRANCH   1  27
TORSDOF 12
ENDMDL
