MODEL 1
REMARK VINA RESULT:    -3.766      0.000      0.000
REMARK INTER + INTRA:         -12.727
REMARK INTER:                  -8.609
REMARK INTRA:                  -4.118
REMARK UNBOUND:                -4.118
REMARK SMILES CCCCCCCCCCCCCCCCCCCCCCCC(=O)[O-]
REMARK SMILES IDX 13 1 14 2 15 3 16 4 17 5 18 6 19 7 20 8 21 9 22 10 23 11
REMARK SMILES IDX 24 12 25 13 26 14 12 15 11 16 10 17 9 18 8 19 7 20 6 21 5 22
REMARK SMILES IDX 4 23 3 24 2 25 1 26
REMARK H PARENT
REMARK Flexibility Score: inf
ROOT
ATOM      1  C   UNL     1      29.210   8.286  40.915  1.00  0.00     0.000 C 
ENDROOT
BRANCH   1   2
ATOM      2  C   UNL     1      28.652   6.919  41.349  1.00  0.00     0.000 C 
BRANCH   2   3
ATOM      3  C   UNL     1      29.325   6.377  42.625  1.00  0.00     0.000 C 
BRANCH   3   4
ATOM      4  C   UNL     1      29.336   4.842  42.752  1.00  0.00     0.000 C 
BRANCH   4   5
ATOM      5  C   UNL     1      30.076   4.354  44.009  1.00  0.00     0.000 C 
BRANCH   5   6
ATOM      6  C   UNL     1      30.135   5.420  45.118  1.00  0.00     0.000 C 
BRANCH   6   7
ATOM      7  C   UNL     1      31.264   5.229  46.151  1.00  0.00     0.000 C 
BRANCH   7   8
ATOM      8  C   UNL     1      31.188   6.153  47.383  1.00  0.00     0.000 C 
BRANCH   8   9
ATOM      9  C   UNL     1      31.123   5.425  48.738  1.00  0.00     0.000 C 
BRANCH   9  10
ATOM     10  C   UNL     1      29.702   4.962  49.098  1.00  0.00     0.006 C 
BRANCH  10  11
ATOM     11  C   UNL     1      28.668   6.033  48.737  1.00  0.00     0.053 C 
BRANCH  11  12
ATOM     12  C   UNL     1      27.452   5.404  48.135  1.00  0.00     0.041 C 
ATOM     13  O   UNL     1      26.307   5.854  48.403  1.00  0.00    -0.550 OA
ATOM     14  O   UNL     1      27.585   4.352  47.237  1.00  0.00    -0.550 OA
ENDBRANCH  11  12
ENDBRANCH  10  11
ENDBRANCH   9  10
ENDBRANCH   8   9
ENDBRANCH   7   8
ENDBRANCH   6   7
ENDBRANCH   5   6
ENDBRANCH   4   5
ENDBRANCH   3   4
ENDBRANCH   2   3
ENDBRANCH   1   2
BRANCH   1  15
ATOM     15  C   UNL     1      29.541   8.341  39.414  1.00  0.00     0.000 C 
BRANCH  15  16
ATOM     16  C   UNL     1      31.052   8.367  39.139  1.00  0.00     0.000 C 
BRANCH  16  17
ATOM     17  C   UNL     1      31.465   7.188  38.246  1.00  0.00     0.000 C 
BRANCH  17  18
ATOM     18  C   UNL     1      30.571   5.952  38.439  1.00  0.00    -0.000 C 
BRANCH  18  19
ATOM     19  C   UNL     1      31.152   4.955  39.456  1.00  0.00    -0.000 C 
BRANCH  19  20
ATOM     20  C   UNL     1      32.576   5.327  39.900  1.00  0.00    -0.000 C 
BRANCH  20  21
ATOM     21  C   UNL     1      32.702   5.447  41.429  1.00  0.00    -0.000 C 
BRANCH  21  22
ATOM     22  C   UNL     1      32.952   6.892  41.896  1.00  0.00    -0.000 C 
BRANCH  22  23
ATOM     23  C   UNL     1      32.933   7.097  43.425  1.00  0.00    -0.000 C 
BRANCH  23  24
ATOM     24  C   UNL     1      32.146   8.330  43.912  1.00  0.00    -0.000 C 
BRANCH  24  25
ATOM     25  C   UNL     1      32.614   8.904  45.261  1.00  0.00    -0.003 C 
ATOM     26  C   UNL     1      33.862   8.209  45.803  1.00  0.00     0.004 C 
ENDBRANCH  24  25
ENDBRANCH  23  24
ENDBRANCH  22  23
ENDBRANCH  21  22
ENDBRANCH  20  21
ENDBRANCH  19  20
ENDBRANCH  18  19
ENDBRANCH  17  18
ENDBRANCH  16  17
ENDBRANCH  15  16
ENDBRANCH   1  15
TORSDOF 22
ENDMDL
MODEL 2
REMARK VINA RESULT:    -3.695      2.440      5.712
REMARK INTER + INTRA:         -12.566
REMARK INTER:                  -8.425
REMARK INTRA:                  -4.141
REMARK UNBOUND:                -4.118
REMARK SMILES CCCCCCCCCCCCCCCCCCCCCCCC(=O)[O-]
REMARK SMILES IDX 13 1 14 2 15 3 16 4 17 5 18 6 19 7 20 8 21 9 22 10 23 11
REMARK SMILES IDX 24 12 25 13 26 14 12 15 11 16 10 17 9 18 8 19 7 20 6 21 5 22
REMARK SMILES IDX 4 23 3 24 2 25 1 26
REMARK H PARENT
REMARK Flexibility Score: inf
ROOT
ATOM      1  C   UNL     1      30.344   5.739  45.478  1.00  0.00     0.000 C 
ENDROOT
BRANCH   1   2
ATOM      2  C   UNL     1      31.471   5.352  46.452  1.00  0.00     0.000 C 
BRANCH   2   3
ATOM      3  C   UNL     1      31.280   5.956  47.857  1.00  0.00     0.000 C 
BRANCH   3   4
ATOM      4  C   UNL     1      31.389   4.949  49.018  1.00  0.00     0.000 C 
BRANCH   4   5
ATOM      5  C   UNL     1      30.020   4.558  49.599  1.00  0.00     0.000 C 
BRANCH   5   6
ATOM      6  C   UNL     1      28.857   5.346  48.968  1.00  0.00     0.000 C 
BRANCH   6   7
ATOM      7  C   UNL     1      27.612   4.507  48.617  1.00  0.00     0.000 C 
BRANCH   7   8
ATOM      8  C   UNL     1      26.843   4.969  47.364  1.00  0.00     0.000 C 
BRANCH   8   9
ATOM      9  C   UNL     1      27.086   4.121  46.103  1.00  0.00     0.000 C 
BRANCH   9  10
ATOM     10  C   UNL     1      26.790   4.886  44.804  1.00  0.00     0.006 C 
BRANCH  10  11
ATOM     11  C   UNL     1      25.997   4.015  43.824  1.00  0.00     0.053 C 
BRANCH  11  12
ATOM     12  C   UNL     1      25.279   4.870  42.827  1.00  0.00     0.041 C 
ATOM     13  O   UNL     1      25.875   5.277  41.795  1.00  0.00    -0.550 OA
ATOM     14  O   UNL     1      23.937   5.177  43.013  1.00  0.00    -0.550 OA
ENDBRANCH  11  12
ENDBRANCH  10  11
ENDBRANCH   9  10
ENDBRANCH   8   9
ENDBRANCH   7   8
ENDBRANCH   6   7
ENDBRANCH   5   6
ENDBRANCH   4   5
ENDBRANCH   3   4
ENDBRANCH   2   3
ENDBRANCH   1   2
BRANCH   1  15
ATOM     15  C   UNL     1      29.639   7.046  45.878  1.00  0.00     0.000 C 
BRANCH  15  16
ATOM     16  C   UNL     1      30.064   8.241  45.009  1.00  0.00     0.000 C 
BRANCH  16  17
ATOM     17  C   UNL     1      30.676   9.354  45.872  1.00  0.00     0.000 C 
BRANCH  17  18
ATOM     18  C   UNL     1      32.113   9.709  45.454  1.00  0.00    -0.000 C 
BRANCH  18  19
ATOM     19  C   UNL     1      33.172   8.968  46.288  1.00  0.00    -0.000 C 
BRANCH  19  20
ATOM     20  C   UNL     1      33.931   7.910  45.472  1.00  0.00    -0.000 C 
BRANCH  20  21
ATOM     21  C   UNL     1      33.598   7.975  43.971  1.00  0.00    -0.000 C 
BRANCH  21  22
ATOM     22  C   UNL     1      33.047   6.647  43.423  1.00  0.00    -0.000 C 
BRANCH  22  23
ATOM     23  C   UNL     1      32.428   6.728  42.013  1.00  0.00    -0.000 C 
BRANCH  23  24
ATOM     24  C   UNL     1      31.546   5.527  41.613  1.00  0.00    -0.000 C 
BRANCH  24  25
ATOM     25  C   UNL     1      30.048   5.697  41.918  1.00  0.00    -0.003 C 
ATOM     26  C   UNL     1      29.311   4.365  42.044  1.00  0.00     0.004 C 
ENDBRANCH  24  25
ENDBRANCH  23  24
ENDBRANCH  22  23
ENDBRANCH  21  22
ENDBRANCH  20  21
ENDBRANCH  19  20
ENDBRANCH  18  19
ENDBRANCH  17  18
ENDBRANCH  16  17
ENDBRANCH  15  16
ENDBRANCH   1  15
TORSDOF 22
ENDMDL
MODEL 3
REMARK VINA RESULT:    -3.627      2.478      6.465
REMARK INTER + INTRA:         -12.409
REMARK INTER:                  -8.338
REMARK INTRA:                  -4.070
REMARK UNBOUND:                -4.118
REMARK SMILES CCCCCCCCCCCCCCCCCCCCCCCC(=O)[O-]
REMARK SMILES IDX 13 1 14 2 15 3 16 4 17 5 18 6 19 7 20 8 21 9 22 10 23 11
REMARK SMILES IDX 24 12 25 13 26 14 12 15 11 16 10 17 9 18 8 19 7 20 6 21 5 22
REMARK SMILES IDX 4 23 3 24 2 25 1 26
REMARK H PARENT
REMARK Flexibility Score: inf
ROOT
ATOM      1  C   UNL     1      30.795   9.978  45.649  1.00  0.00     0.000 C 
ENDROOT
BRANCH   1   2
ATOM      2  C   UNL     1      29.985   9.159  44.629  1.00  0.00     0.000 C 
BRANCH   2   3
ATOM      3  C   UNL     1      29.298  10.039  43.566  1.00  0.00     0.000 C 
BRANCH   3   4
ATOM      4  C   UNL     1      29.823   9.853  42.130  1.00  0.00     0.000 C 
BRANCH   4   5
ATOM      5  C   UNL     1      31.028   8.900  42.054  1.00  0.00     0.000 C 
BRANCH   5   6
ATOM      6  C   UNL     1      31.874   9.108  40.785  1.00  0.00     0.000 C 
BRANCH   6   7
ATOM      7  C   UNL     1      32.861   7.969  40.461  1.00  0.00     0.000 C 
BRANCH   7   8
ATOM      8  C   UNL     1      32.251   6.553  40.466  1.00  0.00     0.000 C 
BRANCH   8   9
ATOM      9  C   UNL     1      31.547   6.145  39.159  1.00  0.00     0.000 C 
BRANCH   9  10
ATOM     10  C   UNL     1      30.016   6.214  39.260  1.00  0.00     0.006 C 
BRANCH  10  11
ATOM     11  C   UNL     1      29.540   5.815  40.660  1.00  0.00     0.053 C 
BRANCH  11  12
ATOM     12  C   UNL     1      28.849   4.488  40.621  1.00  0.00     0.041 C 
ATOM     13  O   UNL     1      28.506   3.920  41.690  1.00  0.00    -0.550 OA
ATOM     14  O   UNL     1      28.539   3.902  39.399  1.00  0.00    -0.550 OA
ENDBRANCH  11  12
ENDBRANCH  10  11
ENDBRANCH   9  10
ENDBRANCH   8   9
ENDBRANCH   7   8
ENDBRANCH   6   7
ENDBRANCH   5   6
ENDBRANCH   4   5
ENDBRANCH   3   4
ENDBRANCH   2   3
ENDBRANCH   1   2
BRANCH   1  15
ATOM     15  C   UNL     1      32.308   9.924  45.383  1.00  0.00     0.000 C 
BRANCH  15  16
ATOM     16  C   UNL     1      33.056   9.027  46.380  1.00  0.00     0.000 C 
BRANCH  16  17
ATOM     17  C   UNL     1      33.917   7.990  45.644  1.00  0.00     0.000 C 
BRANCH  17  18
ATOM     18  C   UNL     1      33.372   7.646  44.248  1.00  0.00    -0.000 C 
BRANCH  18  19
ATOM     19  C   UNL     1      33.012   6.158  44.103  1.00  0.00    -0.000 C 
BRANCH  19  20
ATOM     20  C   UNL     1      31.494   5.918  44.071  1.00  0.00    -0.000 C 
BRANCH  20  21
ATOM     21  C   UNL     1      31.015   5.034  45.236  1.00  0.00    -0.000 C 
BRANCH  21  22
ATOM     22  C   UNL     1      29.909   5.698  46.074  1.00  0.00    -0.000 C 
BRANCH  22  23
ATOM     23  C   UNL     1      30.406   6.508  47.288  1.00  0.00    -0.000 C 
BRANCH  23  24
ATOM     24  C   UNL     1      31.545   5.851  48.094  1.00  0.00    -0.000 C 
BRANCH  24  25
ATOM     25  C   UNL     1      31.085   5.032  49.313  1.00  0.00    -0.003 C 
ATOM     26  C   UNL     1      31.891   3.749  49.507  1.00  0.00     0.004 C 
ENDBRANCH  24  25
ENDBRANCH  23  24
ENDBRANCH  22  23
ENDBRANCH  21  22
ENDBRANCH  20  21
ENDBRANCH  19  20
ENDBRANCH  18  19
ENDBRANCH  17  18
ENDBRANCH  16  17
ENDBRANCH  15  16
ENDBRANCH   1  15
TORSDOF 22
ENDMDL
MODEL 4
REMARK VINA RESULT:    -3.601      3.096      7.147
REMARK INTER + INTRA:         -12.350
REMARK INTER:                  -8.550
REMARK INTRA:                  -3.800
REMARK UNBOUND:                -4.118
REMARK SMILES CCCCCCCCCCCCCCCCCCCCCCCC(=O)[O-]
REMARK SMILES IDX 13 1 14 2 15 3 16 4 17 5 18 6 19 7 20 8 21 9 22 10 23 11
REMARK SMILES IDX 24 12 25 13 26 14 12 15 11 16 10 17 9 18 8 19 7 20 6 21 5 22
REMARK SMILES IDX 4 23 3 24 2 25 1 26
REMARK H PARENT
REMARK Flexibility Score: inf
ROOT
ATOM      1  C   UNL     1      27.145   5.246  45.534  1.00  0.00     0.000 C 
ENDROOT
BRANCH   1   2
ATOM      2  C   UNL     1      28.083   4.033  45.401  1.00  0.00     0.000 C 
BRANCH   2   3
ATOM      3  C   UNL     1      28.827   3.998  44.051  1.00  0.00     0.000 C 
BRANCH   3   4
ATOM      4  C   UNL     1      30.335   4.303  44.132  1.00  0.00     0.000 C 
BRANCH   4   5
ATOM      5  C   UNL     1      30.862   5.035  42.886  1.00  0.00     0.000 C 
BRANCH   5   6
ATOM      6  C   UNL     1      30.042   6.291  42.540  1.00  0.00     0.000 C 
BRANCH   6   7
ATOM      7  C   UNL     1      29.335   6.255  41.170  1.00  0.00     0.000 C 
BRANCH   7   8
ATOM      8  C   UNL     1      29.476   4.930  40.395  1.00  0.00     0.000 C 
BRANCH   8   9
ATOM      9  C   UNL     1      28.150   4.209  40.093  1.00  0.00     0.000 C 
BRANCH   9  10
ATOM     10  C   UNL     1      27.181   4.220  41.286  1.00  0.00     0.006 C 
BRANCH  10  11
ATOM     11  C   UNL     1      25.777   4.647  40.848  1.00  0.00     0.053 C 
BRANCH  11  12
ATOM     12  C   UNL     1      24.939   3.447  40.534  1.00  0.00     0.041 C 
ATOM     13  O   UNL     1      24.985   2.923  39.390  1.00  0.00    -0.550 OA
ATOM     14  O   UNL     1      24.145   2.876  41.521  1.00  0.00    -0.550 OA
ENDBRANCH  11  12
ENDBRANCH  10  11
ENDBRANCH   9  10
ENDBRANCH   8   9
ENDBRANCH   7   8
ENDBRANCH   6   7
ENDBRANCH   5   6
ENDBRANCH   4   5
ENDBRANCH   3   4
ENDBRANCH   2   3
ENDBRANCH   1   2
BRANCH   1  15
ATOM     15  C   UNL     1      26.716   5.505  46.988  1.00  0.00     0.000 C 
BRANCH  15  16
ATOM     16  C   UNL     1      27.514   4.670  48.001  1.00  0.00     0.000 C 
BRANCH  16  17
ATOM     17  C   UNL     1      28.476   5.558  48.805  1.00  0.00     0.000 C 
BRANCH  17  18
ATOM     18  C   UNL     1      29.692   4.786  49.341  1.00  0.00    -0.000 C 
BRANCH  18  19
ATOM     19  C   UNL     1      31.027   5.362  48.837  1.00  0.00    -0.000 C 
BRANCH  19  20
ATOM     20  C   UNL     1      31.032   5.597  47.318  1.00  0.00    -0.000 C 
BRANCH  20  21
ATOM     21  C   UNL     1      31.911   6.793  46.912  1.00  0.00    -0.000 C 
BRANCH  21  22
ATOM     22  C   UNL     1      31.247   7.690  45.853  1.00  0.00    -0.000 C 
BRANCH  22  23
ATOM     23  C   UNL     1      29.707   7.747  45.917  1.00  0.00    -0.000 C 
BRANCH  23  24
ATOM     24  C   UNL     1      29.121   9.080  46.424  1.00  0.00    -0.000 C 
BRANCH  24  25
ATOM     25  C   UNL     1      28.114   8.945  47.579  1.00  0.00    -0.003 C 
ATOM     26  C   UNL     1      26.673   9.212  47.149  1.00  0.00     0.004 C 
ENDBRANCH  24  25
ENDBRANCH  23  24
ENDBRANCH  22  23
ENDBRANCH  21  22
ENDBRANCH  20  21
ENDBRANCH  19  20
ENDBRANCH  18  19
ENDBRANCH  17  18
ENDBRANCH  16  17
ENDBRANCH  15  16
ENDBRANCH   1  15
TORSDOF 22
ENDMDL
MODEL 5
REMARK VINA RESULT:    -3.476     10.905     14.129
REMARK INTER + INTRA:         -12.063
REMARK INTER:                  -7.756
REMARK INTRA:                  -4.308
REMARK UNBOUND:                -4.118
REMARK SMILES CCCCCCCCCCCCCCCCCCCCCCCC(=O)[O-]
REMARK SMILES IDX 13 1 14 2 15 3 16 4 17 5 18 6 19 7 20 8 21 9 22 10 23 11
REMARK SMILES IDX 24 12 25 13 26 14 12 15 11 16 10 17 9 18 8 19 7 20 6 21 5 22
REMARK SMILES IDX 4 23 3 24 2 25 1 26
REMARK H PARENT
REMARK Flexibility Score: inf
ROOT
ATOM      1  C   UNL     1      20.738   0.224  44.803  1.00  0.00     0.000 C 
ENDROOT
BRANCH   1   2
ATOM      2  C   UNL     1      21.709  -0.400  45.821  1.00  0.00     0.000 C 
BRANCH   2   3
ATOM      3  C   UNL     1      21.183  -0.332  47.267  1.00  0.00     0.000 C 
BRANCH   3   4
ATOM      4  C   UNL     1      21.836   0.751  48.147  1.00  0.00     0.000 C 
BRANCH   4   5
ATOM      5  C   UNL     1      22.978   0.202  49.019  1.00  0.00     0.000 C 
BRANCH   5   6
ATOM      6  C   UNL     1      24.326   0.154  48.276  1.00  0.00     0.000 C 
BRANCH   6   7
ATOM      7  C   UNL     1      25.154  -1.127  48.501  1.00  0.00     0.000 C 
BRANCH   7   8
ATOM      8  C   UNL     1      25.173  -2.112  47.316  1.00  0.00     0.000 C 
BRANCH   8   9
ATOM      9  C   UNL     1      23.845  -2.849  47.062  1.00  0.00     0.000 C 
BRANCH   9  10
ATOM     10  C   UNL     1      23.648  -4.058  47.990  1.00  0.00     0.006 C 
BRANCH  10  11
ATOM     11  C   UNL     1      22.687  -3.720  49.134  1.00  0.00     0.053 C 
BRANCH  11  12
ATOM     12  C   UNL     1      23.350  -3.940  50.457  1.00  0.00     0.041 C 
ATOM     13  O   UNL     1      23.705  -5.098  50.804  1.00  0.00    -0.550 OA
ATOM     14  O   UNL     1      23.622  -2.859  51.287  1.00  0.00    -0.550 OA
ENDBRANCH  11  12
ENDBRANCH  10  11
ENDBRANCH   9  10
ENDBRANCH   8   9
ENDBRANCH   7   8
ENDBRANCH   6   7
ENDBRANCH   5   6
ENDBRANCH   4   5
ENDBRANCH   3   4
ENDBRANCH   2   3
ENDBRANCH   1   2
BRANCH   1  15
ATOM     15  C   UNL     1      20.107  -0.823  43.869  1.00  0.00     0.000 C 
BRANCH  15  16
ATOM     16  C   UNL     1      18.587  -0.653  43.727  1.00  0.00     0.000 C 
BRANCH  16  17
ATOM     17  C   UNL     1      17.954  -0.249  45.066  1.00  0.00     0.000 C 
BRANCH  17  18
ATOM     18  C   UNL     1      17.199  -1.406  45.741  1.00  0.00    -0.000 C 
BRANCH  18  19
ATOM     19  C   UNL     1      18.056  -2.144  46.783  1.00  0.00    -0.000 C 
BRANCH  19  20
ATOM     20  C   UNL     1      18.546  -3.512  46.283  1.00  0.00    -0.000 C 
BRANCH  20  21
ATOM     21  C   UNL     1      20.060  -3.704  46.482  1.00  0.00    -0.000 C 
BRANCH  21  22
ATOM     22  C   UNL     1      20.775  -4.181  45.206  1.00  0.00    -0.000 C 
BRANCH  22  23
ATOM     23  C   UNL     1      21.503  -5.534  45.332  1.00  0.00    -0.000 C 
BRANCH  23  24
ATOM     24  C   UNL     1      20.609  -6.728  45.725  1.00  0.00    -0.000 C 
BRANCH  24  25
ATOM     25  C   UNL     1      21.124  -7.558  46.913  1.00  0.00    -0.003 C 
ATOM     26  C   UNL     1      20.872  -6.887  48.262  1.00  0.00     0.004 C 
ENDBRANCH  24  25
ENDBRANCH  23  24
ENDBRANCH  22  23
ENDBRANCH  21  22
ENDBRANCH  20  21
ENDBRANCH  19  20
ENDBRANCH  18  19
ENDBRANCH  17  18
ENDBRANCH  16  17
ENDBRANCH  15  16
ENDBRANCH   1  15
TORSDOF 22
ENDMDL
MODEL 6
REMARK VINA RESULT:    -3.468      2.465      5.843
REMARK INTER + INTRA:         -12.046
REMARK INTER:                  -8.104
REMARK INTRA:                  -3.941
REMARK UNBOUND:                -4.118
REMARK SMILES CCCCCCCCCCCCCCCCCCCCCCCC(=O)[O-]
REMARK SMILES IDX 13 1 14 2 15 3 16 4 17 5 18 6 19 7 20 8 21 9 22 10 23 11
REMARK SMILES IDX 24 12 25 13 26 14 12 15 11 16 10 17 9 18 8 19 7 20 6 21 5 22
REMARK SMILES IDX 4 23 3 24 2 25 1 26
REMARK H PARENT
REMARK Flexibility Score: inf
ROOT
ATOM      1  C   UNL     1      30.898   6.053  47.618  1.00  0.00     0.000 C 
ENDROOT
BRANCH   1   2
ATOM      2  C   UNL     1      30.704   5.158  48.855  1.00  0.00     0.000 C 
BRANCH   2   3
ATOM      3  C   UNL     1      29.226   5.025  49.271  1.00  0.00     0.000 C 
BRANCH   3   4
ATOM      4  C   UNL     1      28.208   5.310  48.151  1.00  0.00     0.000 C 
BRANCH   4   5
ATOM      5  C   UNL     1      27.363   6.567  48.420  1.00  0.00     0.000 C 
BRANCH   5   6
ATOM      6  C   UNL     1      27.604   7.680  47.383  1.00  0.00     0.000 C 
BRANCH   6   7
ATOM      7  C   UNL     1      27.686   7.204  45.918  1.00  0.00     0.000 C 
BRANCH   7   8
ATOM      8  C   UNL     1      28.460   8.138  44.969  1.00  0.00     0.000 C 
BRANCH   8   9
ATOM      9  C   UNL     1      29.800   8.659  45.520  1.00  0.00     0.000 C 
BRANCH   9  10
ATOM     10  C   UNL     1      30.827   8.950  44.415  1.00  0.00     0.006 C 
BRANCH  10  11
ATOM     11  C   UNL     1      32.104   9.563  45.000  1.00  0.00     0.053 C 
BRANCH  11  12
ATOM     12  C   UNL     1      33.081   8.490  45.362  1.00  0.00     0.041 C 
ATOM     13  O   UNL     1      33.547   8.424  46.530  1.00  0.00    -0.550 OA
ATOM     14  O   UNL     1      33.441   7.531  44.422  1.00  0.00    -0.550 OA
ENDBRANCH  11  12
ENDBRANCH  10  11
ENDBRANCH   9  10
ENDBRANCH   8   9
ENDBRANCH   7   8
ENDBRANCH   6   7
ENDBRANCH   5   6
ENDBRANCH   4   5
ENDBRANCH   3   4
ENDBRANCH   2   3
ENDBRANCH   1   2
BRANCH   1  15
ATOM     15  C   UNL     1      31.504   5.293  46.427  1.00  0.00     0.000 C 
BRANCH  15  16
ATOM     16  C   UNL     1      30.479   5.010  45.318  1.00  0.00     0.000 C 
BRANCH  16  17
ATOM     17  C   UNL     1      31.139   5.077  43.933  1.00  0.00     0.000 C 
BRANCH  17  18
ATOM     18  C   UNL     1      30.137   5.389  42.810  1.00  0.00    -0.000 C 
BRANCH  18  19
ATOM     19  C   UNL     1      30.671   5.009  41.418  1.00  0.00    -0.000 C 
BRANCH  19  20
ATOM     20  C   UNL     1      29.547   4.808  40.389  1.00  0.00    -0.000 C 
BRANCH  20  21
ATOM     21  C   UNL     1      30.050   4.925  38.939  1.00  0.00    -0.000 C 
BRANCH  21  22
ATOM     22  C   UNL     1      30.902   6.185  38.702  1.00  0.00    -0.000 C 
BRANCH  22  23
ATOM     23  C   UNL     1      30.106   7.449  38.319  1.00  0.00    -0.000 C 
BRANCH  23  24
ATOM     24  C   UNL     1      30.389   8.691  39.188  1.00  0.00    -0.000 C 
BRANCH  24  25
ATOM     25  C   UNL     1      30.098   8.509  40.688  1.00  0.00    -0.003 C 
ATOM     26  C   UNL     1      28.608   8.377  40.994  1.00  0.00     0.004 C 
ENDBRANCH  24  25
ENDBRANCH  23  24
ENDBRANCH  22  23
ENDBRANCH  21  22
ENDBRANCH  20  21
ENDBRANCH  19  20
ENDBRANCH  18  19
ENDBRANCH  17  18
ENDBRANCH  16  17
ENDBRANCH  15  16
ENDBRANCH   1  15
TORSDOF 22
ENDMDL
MODEL 7
REMARK VINA RESULT:    -3.463      2.521      6.425
REMARK INTER + INTRA:         -12.033
REMARK INTER:                  -7.862
REMARK INTRA:                  -4.171
REMARK UNBOUND:                -4.118
REMARK SMILES CCCCCCCCCCCCCCCCCCCCCCCC(=O)[O-]
REMARK SMILES IDX 13 1 14 2 15 3 16 4 17 5 18 6 19 7 20 8 21 9 22 10 23 11
REMARK SMILES IDX 24 12 25 13 26 14 12 15 11 16 10 17 9 18 8 19 7 20 6 21 5 22
REMARK SMILES IDX 4 23 3 24 2 25 1 26
REMARK H PARENT
REMARK Flexibility Score: inf
ROOT
ATOM      1  C   UNL     1      26.149   5.432  43.739  1.00  0.00     0.000 C 
ENDROOT
BRANCH   1   2
ATOM      2  C   UNL     1      26.732   6.685  43.062  1.00  0.00     0.000 C 
BRANCH   2   3
ATOM      3  C   UNL     1      27.176   6.427  41.609  1.00  0.00     0.000 C 
BRANCH   3   4
ATOM      4  C   UNL     1      28.692   6.545  41.361  1.00  0.00     0.000 C 
BRANCH   4   5
ATOM      5  C   UNL     1      29.315   5.238  40.843  1.00  0.00     0.000 C 
BRANCH   5   6
ATOM      6  C   UNL     1      30.231   5.456  39.624  1.00  0.00     0.000 C 
BRANCH   6   7
ATOM      7  C   UNL     1      31.730   5.196  39.876  1.00  0.00     0.000 C 
BRANCH   7   8
ATOM      8  C   UNL     1      32.150   5.167  41.358  1.00  0.00     0.000 C 
BRANCH   8   9
ATOM      9  C   UNL     1      33.177   6.240  41.763  1.00  0.00     0.000 C 
BRANCH   9  10
ATOM     10  C   UNL     1      32.613   7.256  42.768  1.00  0.00     0.006 C 
BRANCH  10  11
ATOM     11  C   UNL     1      33.238   7.062  44.153  1.00  0.00     0.053 C 
BRANCH  11  12
ATOM     12  C   UNL     1      33.105   8.310  44.968  1.00  0.00     0.041 C 
ATOM     13  O   UNL     1      33.624   8.378  46.113  1.00  0.00    -0.550 OA
ATOM     14  O   UNL     1      32.449   9.417  44.442  1.00  0.00    -0.550 OA
ENDBRANCH  11  12
ENDBRANCH  10  11
ENDBRANCH   9  10
ENDBRANCH   8   9
ENDBRANCH   7   8
ENDBRANCH   6   7
ENDBRANCH   5   6
ENDBRANCH   4   5
ENDBRANCH   3   4
ENDBRANCH   2   3
ENDBRANCH   1   2
BRANCH   1  15
ATOM     15  C   UNL     1      27.041   4.193  43.561  1.00  0.00     0.000 C 
BRANCH  15  16
ATOM     16  C   UNL     1      28.005   3.980  44.739  1.00  0.00     0.000 C 
BRANCH  16  17
ATOM     17  C   UNL     1      29.445   3.790  44.240  1.00  0.00     0.000 C 
BRANCH  17  18
ATOM     18  C   UNL     1      30.363   4.967  44.609  1.00  0.00    -0.000 C 
BRANCH  18  19
ATOM     19  C   UNL     1      29.616   6.091  45.348  1.00  0.00    -0.000 C 
BRANCH  19  20
ATOM     20  C   UNL     1      30.351   6.553  46.617  1.00  0.00    -0.000 C 
BRANCH  20  21
ATOM     21  C   UNL     1      31.189   5.430  47.253  1.00  0.00    -0.000 C 
BRANCH  21  22
ATOM     22  C   UNL     1      30.825   5.175  48.726  1.00  0.00    -0.000 C 
BRANCH  22  23
ATOM     23  C   UNL     1      29.387   5.567  49.122  1.00  0.00    -0.000 C 
BRANCH  23  24
ATOM     24  C   UNL     1      28.337   4.448  48.975  1.00  0.00    -0.000 C 
BRANCH  24  25
ATOM     25  C   UNL     1      27.089   4.836  48.163  1.00  0.00    -0.003 C 
ATOM     26  C   UNL     1      26.832   6.342  48.148  1.00  0.00     0.004 C 
ENDBRANCH  24  25
ENDBRANCH  23  24
ENDBRANCH  22  23
ENDBRANCH  21  22
ENDBRANCH  20  21
ENDBRANCH  19  20
ENDBRANCH  18  19
ENDBRANCH  17  18
ENDBRANCH  16  17
ENDBRANCH  15  16
ENDBRANCH   1  15
TORSDOF 22
ENDMDL
MODEL 8
REMARK VINA RESULT:    -3.459      2.856      6.385
REMARK INTER + INTRA:         -12.026
REMARK INTER:                  -7.962
REMARK INTRA:                  -4.064
REMARK UNBOUND:                -4.118
REMARK SMILES CCCCCCCCCCCCCCCCCCCCCCCC(=O)[O-]
REMARK SMILES IDX 13 1 14 2 15 3 16 4 17 5 18 6 19 7 20 8 21 9 22 10 23 11
REMARK SMILES IDX 24 12 25 13 26 14 12 15 11 16 10 17 9 18 8 19 7 20 6 21 5 22
REMARK SMILES IDX 4 23 3 24 2 25 1 26
REMARK H PARENT
REMARK Flexibility Score: inf
ROOT
ATOM      1  C   UNL     1      31.848   5.489  41.208  1.00  0.00     0.000 C 
ENDROOT
BRANCH   1   2
ATOM      2  C   UNL     1      30.643   5.053  40.356  1.00  0.00     0.000 C 
BRANCH   2   3
ATOM      3  C   UNL     1      29.927   6.240  39.683  1.00  0.00     0.000 C 
BRANCH   3   4
ATOM      4  C   UNL     1      29.857   7.524  40.532  1.00  0.00     0.000 C 
BRANCH   4   5
ATOM      5  C   UNL     1      28.473   7.744  41.167  1.00  0.00     0.000 C 
BRANCH   5   6
ATOM      6  C   UNL     1      28.545   7.981  42.686  1.00  0.00     0.000 C 
BRANCH   6   7
ATOM      7  C   UNL     1      28.551   6.702  43.548  1.00  0.00     0.000 C 
BRANCH   7   8
ATOM      8  C   UNL     1      27.314   5.796  43.385  1.00  0.00     0.000 C 
BRANCH   8   9
ATOM      9  C   UNL     1      27.617   4.363  42.912  1.00  0.00     0.000 C 
BRANCH   9  10
ATOM     10  C   UNL     1      27.334   4.156  41.416  1.00  0.00     0.006 C 
BRANCH  10  11
ATOM     11  C   UNL     1      25.980   4.757  41.027  1.00  0.00     0.053 C 
BRANCH  11  12
ATOM     12  C   UNL     1      25.024   3.678  40.625  1.00  0.00     0.041 C 
ATOM     13  O   UNL     1      24.355   3.067  41.499  1.00  0.00    -0.550 OA
ATOM     14  O   UNL     1      24.836   3.381  39.281  1.00  0.00    -0.550 OA
ENDBRANCH  11  12
ENDBRANCH  10  11
ENDBRANCH   9  10
ENDBRANCH   8   9
ENDBRANCH   7   8
ENDBRANCH   6   7
ENDBRANCH   5   6
ENDBRANCH   4   5
ENDBRANCH   3   4
ENDBRANCH   2   3
ENDBRANCH   1   2
BRANCH   1  15
ATOM     15  C   UNL     1      31.727   5.044  42.675  1.00  0.00     0.000 C 
BRANCH  15  16
ATOM     16  C   UNL     1      32.280   6.085  43.660  1.00  0.00     0.000 C 
BRANCH  16  17
ATOM     17  C   UNL     1      31.503   6.053  44.985  1.00  0.00     0.000 C 
BRANCH  17  18
ATOM     18  C   UNL     1      31.953   7.147  45.966  1.00  0.00    -0.000 C 
BRANCH  18  19
ATOM     19  C   UNL     1      31.823   6.713  47.436  1.00  0.00    -0.000 C 
BRANCH  19  20
ATOM     20  C   UNL     1      31.314   5.270  47.583  1.00  0.00    -0.000 C 
BRANCH  20  21
ATOM     21  C   UNL     1      30.666   5.012  48.954  1.00  0.00    -0.000 C 
BRANCH  21  22
ATOM     22  C   UNL     1      29.152   5.288  48.961  1.00  0.00    -0.000 C 
BRANCH  22  23
ATOM     23  C   UNL     1      28.452   5.131  47.596  1.00  0.00    -0.000 C 
BRANCH  23  24
ATOM     24  C   UNL     1      27.661   6.366  47.118  1.00  0.00    -0.000 C 
BRANCH  24  25
ATOM     25  C   UNL     1      28.415   7.702  47.237  1.00  0.00    -0.003 C 
ATOM     26  C   UNL     1      27.700   8.853  46.533  1.00  0.00     0.004 C 
ENDBRANCH  24  25
ENDBRANCH  23  24
ENDBRANCH  22  23
ENDBRANCH  21  22
ENDBRANCH  20  21
ENDBRANCH  19  20
ENDBRANCH  18  19
ENDBRANCH  17  18
ENDBRANCH  16  17
ENDBRANCH  15  16
ENDBRANCH   1  15
TORSDOF 22
ENDMDL
MODEL 9
REMARK VINA RESULT:    -3.449      2.768      6.192
REMARK INTER + INTRA:         -12.002
REMARK INTER:                  -7.667
REMARK INTRA:                  -4.335
REMARK UNBOUND:                -4.118
REMARK SMILES CCCCCCCCCCCCCCCCCCCCCCCC(=O)[O-]
REMARK SMILES IDX 13 1 14 2 15 3 16 4 17 5 18 6 19 7 20 8 21 9 22 10 23 11
REMARK SMILES IDX 24 12 25 13 26 14 12 15 11 16 10 17 9 18 8 19 7 20 6 21 5 22
REMARK SMILES IDX 4 23 3 24 2 25 1 26
REMARK H PARENT
REMARK Flexibility Score: inf
ROOT
ATOM      1  C   UNL     1      31.131   6.196  47.639  1.00  0.00     0.000 C 
ENDROOT
BRANCH   1   2
ATOM      2  C   UNL     1      31.446   5.018  48.578  1.00  0.00     0.000 C 
BRANCH   2   3
ATOM      3  C   UNL     1      30.268   4.660  49.505  1.00  0.00     0.000 C 
BRANCH   3   4
ATOM      4  C   UNL     1      28.941   5.367  49.172  1.00  0.00     0.000 C 
BRANCH   4   5
ATOM      5  C   UNL     1      27.809   4.382  48.834  1.00  0.00     0.000 C 
BRANCH   5   6
ATOM      6  C   UNL     1      27.221   4.608  47.429  1.00  0.00     0.000 C 
BRANCH   6   7
ATOM      7  C   UNL     1      26.290   5.831  47.298  1.00  0.00     0.000 C 
BRANCH   7   8
ATOM      8  C   UNL     1      25.707   6.062  45.890  1.00  0.00     0.000 C 
BRANCH   8   9
ATOM      9  C   UNL     1      26.106   5.008  44.841  1.00  0.00     0.000 C 
BRANCH   9  10
ATOM     10  C   UNL     1      26.849   5.613  43.640  1.00  0.00     0.006 C 
BRANCH  10  11
ATOM     11  C   UNL     1      27.886   4.631  43.085  1.00  0.00     0.053 C 
BRANCH  11  12
ATOM     12  C   UNL     1      28.380   5.091  41.750  1.00  0.00     0.041 C 
ATOM     13  O   UNL     1      28.072   6.233  41.319  1.00  0.00    -0.550 OA
ATOM     14  O   UNL     1      29.224   4.277  41.003  1.00  0.00    -0.550 OA
ENDBRANCH  11  12
ENDBRANCH  10  11
ENDBRANCH   9  10
ENDBRANCH   8   9
ENDBRANCH   7   8
ENDBRANCH   6   7
ENDBRANCH   5   6
ENDBRANCH   4   5
ENDBRANCH   3   4
ENDBRANCH   2   3
ENDBRANCH   1   2
BRANCH   1  15
ATOM     15  C   UNL     1      30.649   5.735  46.253  1.00  0.00     0.000 C 
BRANCH  15  16
ATOM     16  C   UNL     1      29.700   6.744  45.588  1.00  0.00     0.000 C 
BRANCH  16  17
ATOM     17  C   UNL     1      29.255   7.819  46.590  1.00  0.00     0.000 C 
BRANCH  17  18
ATOM     18  C   UNL     1      29.823   9.210  46.262  1.00  0.00    -0.000 C 
BRANCH  18  19
ATOM     19  C   UNL     1      30.496   9.264  44.880  1.00  0.00    -0.000 C 
BRANCH  19  20
ATOM     20  C   UNL     1      31.922   9.837  44.940  1.00  0.00    -0.000 C 
BRANCH  20  21
ATOM     21  C   UNL     1      32.782   9.161  46.022  1.00  0.00    -0.000 C 
BRANCH  21  22
ATOM     22  C   UNL     1      33.695   8.059  45.458  1.00  0.00    -0.000 C 
BRANCH  22  23
ATOM     23  C   UNL     1      33.396   7.643  44.004  1.00  0.00    -0.000 C 
BRANCH  23  24
ATOM     24  C   UNL     1      32.972   6.172  43.815  1.00  0.00    -0.000 C 
BRANCH  24  25
ATOM     25  C   UNL     1      32.001   5.924  42.648  1.00  0.00    -0.003 C 
ATOM     26  C   UNL     1      31.463   7.216  42.036  1.00  0.00     0.004 C 
ENDBRANCH  24  25
ENDBRANCH  23  24
ENDBRANCH  22  23
ENDBRANCH  21  22
ENDBRANCH  20  21
ENDBRANCH  19  20
ENDBRANCH  18  19
ENDBRANCH  17  18
ENDBRANCH  16  17
ENDBRANCH  15  16
ENDBRANCH   1  15
TORSDOF 22
ENDMDL
