MODEL 1
REMARK VINA RESULT:    -2.956      0.000      0.000
REMARK INTER + INTRA:          -3.826
REMARK INTER:                  -3.648
REMARK INTRA:                  -0.179
REMARK UNBOUND:                -0.179
REMARK SMILES CCCCCC(=O)[O-]
REMARK SMILES IDX 4 1 5 2 6 3 7 4 8 5 3 6 2 7 1 8
REMARK H PARENT
REMARK Flexibility Score: inf
ROOT
ATOM      1  C   UNL     1      33.895  11.945  22.394  1.00  0.00     0.006 C 
ENDROOT
BRANCH   1   2
ATOM      2  C   UNL     1      34.733  11.206  23.446  1.00  0.00     0.053 C 
BRANCH   2   3
ATOM      3  C   UNL     1      35.804  10.397  22.787  1.00  0.00     0.041 C 
ATOM      4  O   UNL     1      37.002  10.503  23.164  1.00  0.00    -0.550 OA
ATOM      5  O   UNL     1      35.475   9.489  21.789  1.00  0.00    -0.550 OA
ENDBRANCH   2   3
ENDBRANCH   1   2
BRANCH   1   6
ATOM      6  C   UNL     1      32.388  11.690  22.553  1.00  0.00     0.000 C 
BRANCH   6   7
ATOM      7  C   UNL     1      32.084  10.501  23.477  1.00  0.00    -0.003 C 
ATOM      8  C   UNL     1      31.325   9.407  22.732  1.00  0.00     0.004 C 
ENDBRANCH   6   7
ENDBRANCH   1   6
TORSDOF 4
ENDMDL
MODEL 2
REMARK VINA RESULT:    -2.914      2.039      3.873
REMARK INTER + INTRA:          -3.774
REMARK INTER:                  -3.662
REMARK INTRA:                  -0.112
REMARK UNBOUND:                -0.179
REMARK SMILES CCCCCC(=O)[O-]
REMARK SMILES IDX 4 1 5 2 6 3 7 4 8 5 3 6 2 7 1 8
REMARK H PARENT
REMARK Flexibility Score: inf
ROOT
ATOM      1  C   UNL     1      33.520  11.683  22.639  1.00  0.00     0.006 C 
ENDROOT
BRANCH   1   2
ATOM      2  C   UNL     1      32.303  10.979  23.253  1.00  0.00     0.053 C 
BRANCH   2   3
ATOM      3  C   UNL     1      31.999   9.718  22.509  1.00  0.00     0.041 C 
ATOM      4  O   UNL     1      32.784   9.306  21.614  1.00  0.00    -0.550 OA
ATOM      5  O   UNL     1      30.875   8.970  22.836  1.00  0.00    -0.550 OA
ENDBRANCH   2   3
ENDBRANCH   1   2
BRANCH   1   6
ATOM      6  C   UNL     1      34.792  11.514  23.486  1.00  0.00     0.000 C 
BRANCH   6   7
ATOM      7  C   UNL     1      36.045  11.287  22.629  1.00  0.00    -0.003 C 
ATOM      8  C   UNL     1      36.825  10.067  23.111  1.00  0.00     0.004 C 
ENDBRANCH   6   7
ENDBRANCH   1   6
TORSDOF 4
ENDMDL
MODEL 3
REMARK VINA RESULT:    -2.869      2.075      3.863
REMARK INTER + INTRA:          -3.719
REMARK INTER:                  -3.537
REMARK INTRA:                  -0.182
REMARK UNBOUND:                -0.179
REMARK SMILES CCCCCC(=O)[O-]
REMARK SMILES IDX 4 1 5 2 6 3 7 4 8 5 3 6 2 7 1 8
REMARK H PARENT
REMARK Flexibility Score: inf
ROOT
ATOM      1  C   UNL     1      32.128  10.232  23.367  1.00  0.00     0.006 C 
ENDROOT
BRANCH   1   2
ATOM      2  C   UNL     1      31.099   9.360  22.635  1.00  0.00     0.053 C 
BRANCH   2   3
ATOM      3  C   UNL     1      31.789   8.357  21.767  1.00  0.00     0.041 C 
ATOM      4  O   UNL     1      31.319   7.194  21.647  1.00  0.00    -0.550 OA
ATOM      5  O   UNL     1      32.923   8.719  21.050  1.00  0.00    -0.550 OA
ENDBRANCH   2   3
ENDBRANCH   1   2
BRANCH   1   6
ATOM      6  C   UNL     1      32.254  11.638  22.759  1.00  0.00     0.000 C 
BRANCH   6   7
ATOM      7  C   UNL     1      33.715  12.064  22.557  1.00  0.00    -0.003 C 
ATOM      8  C   UNL     1      34.663  11.162  23.341  1.00  0.00     0.004 C 
ENDBRANCH   6   7
ENDBRANCH   1   6
TORSDOF 4
ENDMDL
MODEL 4
REMARK VINA RESULT:    -2.806      1.180      1.702
REMARK INTER + INTRA:          -3.641
REMARK INTER:                  -3.569
REMARK INTRA:                  -0.072
REMARK UNBOUND:                -0.179
REMARK SMILES CCCCCC(=O)[O-]
REMARK SMILES IDX 4 1 5 2 6 3 7 4 8 5 3 6 2 7 1 8
REMARK H PARENT
REMARK Flexibility Score: inf
ROOT
ATOM      1  C   UNL     1      34.550  11.237  23.486  1.00  0.00     0.006 C 
ENDROOT
BRANCH   1   2
ATOM      2  C   UNL     1      35.677  11.848  22.642  1.00  0.00     0.053 C 
BRANCH   2   3
ATOM      3  C   UNL     1      36.978  11.175  22.943  1.00  0.00     0.041 C 
ATOM      4  O   UNL     1      37.005   9.949  23.231  1.00  0.00    -0.550 OA
ATOM      5  O   UNL     1      38.166  11.889  22.858  1.00  0.00    -0.550 OA
ENDBRANCH   2   3
ENDBRANCH   1   2
BRANCH   1   6
ATOM      6  C   UNL     1      33.491  10.522  22.631  1.00  0.00     0.000 C 
BRANCH   6   7
ATOM      7  C   UNL     1      32.103  10.525  23.287  1.00  0.00    -0.003 C 
ATOM      8  C   UNL     1      31.245   9.378  22.762  1.00  0.00     0.004 C 
ENDBRANCH   6   7
ENDBRANCH   1   6
TORSDOF 4
ENDMDL
MODEL 5
REMARK VINA RESULT:    -2.801      2.657      4.149
REMARK INTER + INTRA:          -3.635
REMARK INTER:                  -3.530
REMARK INTRA:                  -0.105
REMARK UNBOUND:                -0.179
REMARK SMILES CCCCCC(=O)[O-]
REMARK SMILES IDX 4 1 5 2 6 3 7 4 8 5 3 6 2 7 1 8
REMARK H PARENT
REMARK Flexibility Score: inf
ROOT
ATOM      1  C   UNL     1      34.358  11.090  23.308  1.00  0.00     0.006 C 
ENDROOT
BRANCH   1   2
ATOM      2  C   UNL     1      33.422  10.226  22.453  1.00  0.00     0.053 C 
BRANCH   2   3
ATOM      3  C   UNL     1      32.007  10.376  22.912  1.00  0.00     0.041 C 
ATOM      4  O   UNL     1      31.573  11.505  23.266  1.00  0.00    -0.550 OA
ATOM      5  O   UNL     1      31.152   9.281  22.903  1.00  0.00    -0.550 OA
ENDBRANCH   2   3
ENDBRANCH   1   2
BRANCH   1   6
ATOM      6  C   UNL     1      35.836  10.932  22.913  1.00  0.00     0.000 C 
BRANCH   6   7
ATOM      7  C   UNL     1      36.105   9.629  22.146  1.00  0.00    -0.003 C 
ATOM      8  C   UNL     1      37.312   8.893  22.722  1.00  0.00     0.004 C 
ENDBRANCH   6   7
ENDBRANCH   1   6
TORSDOF 4
ENDMDL
MODEL 6
REMARK VINA RESULT:    -2.625      2.985      4.513
REMARK INTER + INTRA:          -3.417
REMARK INTER:                  -3.339
REMARK INTRA:                  -0.078
REMARK UNBOUND:                -0.179
REMARK SMILES CCCCCC(=O)[O-]
REMARK SMILES IDX 4 1 5 2 6 3 7 4 8 5 3 6 2 7 1 8
REMARK H PARENT
REMARK Flexibility Score: inf
ROOT
ATOM      1  C   UNL     1      31.981   8.685  21.810  1.00  0.00     0.006 C 
ENDROOT
BRANCH   1   2
ATOM      2  C   UNL     1      31.205   7.414  21.441  1.00  0.00     0.053 C 
BRANCH   2   3
ATOM      3  C   UNL     1      32.149   6.292  21.149  1.00  0.00     0.041 C 
ATOM      4  O   UNL     1      32.104   5.233  21.830  1.00  0.00    -0.550 OA
ATOM      5  O   UNL     1      33.046   6.394  20.093  1.00  0.00    -0.550 OA
ENDBRANCH   2   3
ENDBRANCH   1   2
BRANCH   1   6
ATOM      6  C   UNL     1      31.281   9.511  22.901  1.00  0.00     0.000 C 
BRANCH   6   7
ATOM      7  C   UNL     1      32.069  10.773  23.282  1.00  0.00    -0.003 C 
ATOM      8  C   UNL     1      33.542  10.634  22.908  1.00  0.00     0.004 C 
ENDBRANCH   6   7
ENDBRANCH   1   6
TORSDOF 4
ENDMDL
MODEL 7
REMARK VINA RESULT:    -2.590      2.185      3.342
REMARK INTER + INTRA:          -3.374
REMARK INTER:                  -3.284
REMARK INTRA:                  -0.090
REMARK UNBOUND:                -0.179
REMARK SMILES CCCCCC(=O)[O-]
REMARK SMILES IDX 4 1 5 2 6 3 7 4 8 5 3 6 2 7 1 8
REMARK H PARENT
REMARK Flexibility Score: inf
ROOT
ATOM      1  C   UNL     1      31.248   9.667  22.789  1.00  0.00     0.006 C 
ENDROOT
BRANCH   1   2
ATOM      2  C   UNL     1      32.241  10.595  23.499  1.00  0.00     0.053 C 
BRANCH   2   3
ATOM      3  C   UNL     1      33.188  11.202  22.513  1.00  0.00     0.041 C 
ATOM      4  O   UNL     1      32.775  12.051  21.678  1.00  0.00    -0.550 OA
ATOM      5  O   UNL     1      34.536  10.868  22.546  1.00  0.00    -0.550 OA
ENDBRANCH   2   3
ENDBRANCH   1   2
BRANCH   1   6
ATOM      6  C   UNL     1      31.944   8.641  21.879  1.00  0.00     0.000 C 
BRANCH   6   7
ATOM      7  C   UNL     1      31.061   7.420  21.584  1.00  0.00    -0.003 C 
ATOM      8  C   UNL     1      31.907   6.216  21.180  1.00  0.00     0.004 C 
ENDBRANCH   6   7
ENDBRANCH   1   6
TORSDOF 4
ENDMDL
MODEL 8
REMARK VINA RESULT:    -2.520      1.949      2.468
REMARK INTER + INTRA:          -3.288
REMARK INTER:                  -3.115
REMARK INTRA:                  -0.173
REMARK UNBOUND:                -0.179
REMARK SMILES CCCCCC(=O)[O-]
REMARK SMILES IDX 4 1 5 2 6 3 7 4 8 5 3 6 2 7 1 8
REMARK H PARENT
REMARK Flexibility Score: inf
ROOT
ATOM      1  C   UNL     1      34.005  10.479  21.753  1.00  0.00     0.006 C 
ENDROOT
BRANCH   1   2
ATOM      2  C   UNL     1      35.222   9.545  21.733  1.00  0.00     0.053 C 
BRANCH   2   3
ATOM      3  C   UNL     1      34.955   8.356  20.867  1.00  0.00     0.041 C 
ATOM      4  O   UNL     1      33.772   7.966  20.674  1.00  0.00    -0.550 OA
ATOM      5  O   UNL     1      36.006   7.707  20.231  1.00  0.00    -0.550 OA
ENDBRANCH   2   3
ENDBRANCH   1   2
BRANCH   1   6
ATOM      6  C   UNL     1      33.599  10.893  23.176  1.00  0.00     0.000 C 
BRANCH   6   7
ATOM      7  C   UNL     1      32.078  10.870  23.386  1.00  0.00    -0.003 C 
ATOM      8  C   UNL     1      31.462   9.604  22.798  1.00  0.00     0.004 C 
ENDBRANCH   6   7
ENDBRANCH   1   6
TORSDOF 4
ENDMDL
