MODEL 1
REMARK VINA RESULT:    -5.418      0.000      0.000
REMARK INTER + INTRA:          -5.901
REMARK INTER:                  -5.893
REMARK INTRA:                  -0.008
REMARK UNBOUND:                -0.008
REMARK SMILES C=C(C)[C@@H]1CC[C@@H](C)C[C@H]1O
REMARK SMILES IDX 8 1 7 2 6 3 5 4 4 5 10 6 9 7 11 8 2 10 1 11 3 12
REMARK H PARENT 11 9
REMARK Flexibility Score: inf
ROOT
ATOM      1  C   UNL     1       5.088 -15.524  21.181  1.00  0.00     0.008 C 
ATOM      2  C   UNL     1       6.027 -16.707  20.919  1.00  0.00    -0.012 C 
ATOM      3  C   UNL     1       5.302 -17.805  20.119  1.00  0.00     0.004 C 
ATOM      4  C   UNL     1       6.226 -19.002  19.865  1.00  0.00     0.011 C 
ATOM      5  C   UNL     1       6.770 -19.568  21.192  1.00  0.00     0.043 C 
ATOM      6  C   UNL     1       7.501 -18.473  22.003  1.00  0.00     0.121 C 
ATOM      7  C   UNL     1       6.567 -17.273  22.247  1.00  0.00     0.035 C 
ENDROOT
BRANCH   6   8
ATOM      8  O   UNL     1       7.913 -19.004  23.236  1.00  0.00    -0.392 OA
ATOM      9  H   UNL     1       8.787 -19.448  23.080  1.00  0.00     0.210 HD
ENDBRANCH   6   8
BRANCH   5  10
ATOM     10  C   UNL     1       7.673 -20.769  20.936  1.00  0.00    -0.075 C 
ATOM     11  C   UNL     1       7.142 -21.997  20.813  1.00  0.00     0.008 C 
ATOM     12  C   UNL     1       9.169 -20.618  20.814  1.00  0.00     0.039 C 
ENDBRANCH   5  10
TORSDOF 2
ENDMDL
MODEL 2
REMARK VINA RESULT:    -5.415     10.880     12.380
REMARK INTER + INTRA:          -5.898
REMARK INTER:                  -5.809
REMARK INTRA:                  -0.089
REMARK UNBOUND:                -0.008
REMARK SMILES C=C(C)[C@@H]1CC[C@@H](C)C[C@H]1O
REMARK SMILES IDX 8 1 7 2 6 3 5 4 4 5 10 6 9 7 11 8 2 10 1 11 3 12
REMARK H PARENT 11 9
REMARK Flexibility Score: inf
ROOT
ATOM      1  C   UNL     1       9.004 -23.530  32.967  1.00  0.00     0.008 C 
ATOM      2  C   UNL     1       9.748 -22.201  32.795  1.00  0.00    -0.012 C 
ATOM      3  C   UNL     1       9.456 -21.261  33.979  1.00  0.00     0.004 C 
ATOM      4  C   UNL     1      10.181 -19.920  33.810  1.00  0.00     0.011 C 
ATOM      5  C   UNL     1       9.794 -19.249  32.477  1.00  0.00     0.043 C 
ATOM      6  C   UNL     1      10.085 -20.185  31.281  1.00  0.00     0.121 C 
ATOM      7  C   UNL     1       9.357 -21.530  31.463  1.00  0.00     0.035 C 
ENDROOT
BRANCH   6   8
ATOM      8  O   UNL     1       9.648 -19.573  30.094  1.00  0.00    -0.392 OA
ATOM      9  H   UNL     1       8.764 -19.968  29.877  1.00  0.00     0.210 HD
ENDBRANCH   6   8
BRANCH   5  10
ATOM     10  C   UNL     1      10.503 -17.909  32.322  1.00  0.00    -0.075 C 
ATOM     11  C   UNL     1       9.897 -16.777  32.718  1.00  0.00     0.008 C 
ATOM     12  C   UNL     1      11.886 -17.814  31.728  1.00  0.00     0.039 C 
ENDBRANCH   5  10
TORSDOF 2
ENDMDL
MODEL 3
REMARK VINA RESULT:    -5.111     11.046     11.774
REMARK INTER + INTRA:          -5.567
REMARK INTER:                  -5.771
REMARK INTRA:                   0.204
REMARK UNBOUND:                -0.008
REMARK SMILES C=C(C)[C@@H]1CC[C@@H](C)C[C@H]1O
REMARK SMILES IDX 8 1 7 2 6 3 5 4 4 5 10 6 9 7 11 8 2 10 1 11 3 12
REMARK H PARENT 11 9
REMARK Flexibility Score: inf
ROOT
ATOM      1  C   UNL     1      14.724 -14.431  28.189  1.00  0.00     0.008 C 
ATOM      2  C   UNL     1      13.607 -15.199  28.903  1.00  0.00    -0.012 C 
ATOM      3  C   UNL     1      12.508 -14.234  29.383  1.00  0.00     0.004 C 
ATOM      4  C   UNL     1      11.392 -14.990  30.115  1.00  0.00     0.011 C 
ATOM      5  C   UNL     1      11.959 -15.797  31.299  1.00  0.00     0.043 C 
ATOM      6  C   UNL     1      13.063 -16.771  30.827  1.00  0.00     0.121 C 
ATOM      7  C   UNL     1      14.175 -16.004  30.088  1.00  0.00     0.035 C 
ENDROOT
BRANCH   6   8
ATOM      8  O   UNL     1      13.609 -17.431  31.941  1.00  0.00    -0.392 OA
ATOM      9  H   UNL     1      14.551 -17.128  32.020  1.00  0.00     0.210 HD
ENDBRANCH   6   8
BRANCH   5  10
ATOM     10  C   UNL     1      10.844 -16.531  32.035  1.00  0.00    -0.075 C 
ATOM     11  C   UNL     1       9.945 -15.841  32.757  1.00  0.00     0.008 C 
ATOM     12  C   UNL     1      10.717 -18.033  31.974  1.00  0.00     0.039 C 
ENDBRANCH   5  10
TORSDOF 2
ENDMDL
MODEL 4
REMARK VINA RESULT:    -5.094     10.721     11.797
REMARK INTER + INTRA:          -5.549
REMARK INTER:                  -5.422
REMARK INTRA:                  -0.127
REMARK UNBOUND:                -0.008
REMARK SMILES C=C(C)[C@@H]1CC[C@@H](C)C[C@H]1O
REMARK SMILES IDX 8 1 7 2 6 3 5 4 4 5 10 6 9 7 11 8 2 10 1 11 3 12
REMARK H PARENT 11 9
REMARK Flexibility Score: inf
ROOT
ATOM      1  C   UNL     1      10.406 -16.723  32.698  1.00  0.00     0.008 C 
ATOM      2  C   UNL     1      11.335 -16.474  31.504  1.00  0.00    -0.012 C 
ATOM      3  C   UNL     1      12.801 -16.393  31.967  1.00  0.00     0.004 C 
ATOM      4  C   UNL     1      13.738 -16.127  30.783  1.00  0.00     0.011 C 
ATOM      5  C   UNL     1      13.333 -14.838  30.039  1.00  0.00     0.043 C 
ATOM      6  C   UNL     1      11.861 -14.910  29.569  1.00  0.00     0.121 C 
ATOM      7  C   UNL     1      10.929 -15.184  30.764  1.00  0.00     0.035 C 
ENDROOT
BRANCH   6   8
ATOM      8  O   UNL     1      11.505 -13.692  28.967  1.00  0.00    -0.392 OA
ATOM      9  H   UNL     1      11.429 -13.023  29.696  1.00  0.00     0.210 HD
ENDBRANCH   6   8
BRANCH   5  10
ATOM     10  C   UNL     1      14.278 -14.567  28.874  1.00  0.00    -0.075 C 
ATOM     11  C   UNL     1      14.689 -15.579  28.091  1.00  0.00     0.008 C 
ATOM     12  C   UNL     1      14.772 -13.175  28.569  1.00  0.00     0.039 C 
ENDBRANCH   5  10
TORSDOF 2
ENDMDL
MODEL 5
REMARK VINA RESULT:    -5.079      9.115     10.468
REMARK INTER + INTRA:          -5.531
REMARK INTER:                  -5.340
REMARK INTRA:                  -0.192
REMARK UNBOUND:                -0.008
REMARK SMILES C=C(C)[C@@H]1CC[C@@H](C)C[C@H]1O
REMARK SMILES IDX 8 1 7 2 6 3 5 4 4 5 10 6 9 7 11 8 2 10 1 11 3 12
REMARK H PARENT 11 9
REMARK Flexibility Score: inf
ROOT
ATOM      1  C   UNL     1      12.121 -12.211  25.213  1.00  0.00     0.008 C 
ATOM      2  C   UNL     1      11.929 -12.991  26.518  1.00  0.00    -0.012 C 
ATOM      3  C   UNL     1      12.663 -12.294  27.678  1.00  0.00     0.004 C 
ATOM      4  C   UNL     1      12.491 -13.075  28.986  1.00  0.00     0.011 C 
ATOM      5  C   UNL     1      12.983 -14.528  28.829  1.00  0.00     0.043 C 
ATOM      6  C   UNL     1      12.251 -15.238  27.666  1.00  0.00     0.121 C 
ATOM      7  C   UNL     1      12.423 -14.443  26.359  1.00  0.00     0.035 C 
ENDROOT
BRANCH   6   8
ATOM      8  O   UNL     1      12.779 -16.529  27.503  1.00  0.00    -0.392 OA
ATOM      9  H   UNL     1      13.665 -16.535  27.949  1.00  0.00     0.210 HD
ENDBRANCH   6   8
BRANCH   5  10
ATOM     10  C   UNL     1      12.828 -15.295  30.137  1.00  0.00    -0.075 C 
ATOM     11  C   UNL     1      13.917 -15.686  30.821  1.00  0.00     0.008 C 
ATOM     12  C   UNL     1      11.468 -15.632  30.695  1.00  0.00     0.039 C 
ENDBRANCH   5  10
TORSDOF 2
ENDMDL
MODEL 6
REMARK VINA RESULT:    -5.046     10.877     11.802
REMARK INTER + INTRA:          -5.497
REMARK INTER:                  -5.305
REMARK INTRA:                  -0.191
REMARK UNBOUND:                -0.008
REMARK SMILES C=C(C)[C@@H]1CC[C@@H](C)C[C@H]1O
REMARK SMILES IDX 8 1 7 2 6 3 5 4 4 5 10 6 9 7 11 8 2 10 1 11 3 12
REMARK H PARENT 11 9
REMARK Flexibility Score: inf
ROOT
ATOM      1  C   UNL     1      10.103 -17.745  32.733  1.00  0.00     0.008 C 
ATOM      2  C   UNL     1       9.542 -19.168  32.643  1.00  0.00    -0.012 C 
ATOM      3  C   UNL     1      10.186 -20.073  33.709  1.00  0.00     0.004 C 
ATOM      4  C   UNL     1       9.644 -21.505  33.617  1.00  0.00     0.011 C 
ATOM      5  C   UNL     1       9.866 -22.088  32.207  1.00  0.00     0.043 C 
ATOM      6  C   UNL     1       9.221 -21.187  31.128  1.00  0.00     0.121 C 
ATOM      7  C   UNL     1       9.767 -19.750  31.233  1.00  0.00     0.035 C 
ENDROOT
BRANCH   6   8
ATOM      8  O   UNL     1       9.510 -21.706  29.855  1.00  0.00    -0.392 OA
ATOM      9  H   UNL     1      10.425 -22.087  29.901  1.00  0.00     0.210 HD
ENDBRANCH   6   8
BRANCH   5  10
ATOM     10  C   UNL     1       9.343 -23.517  32.126  1.00  0.00    -0.075 C 
ATOM     11  C   UNL     1       8.083 -23.795  32.498  1.00  0.00     0.008 C 
ATOM     12  C   UNL     1      10.213 -24.646  31.630  1.00  0.00     0.039 C 
ENDBRANCH   5  10
TORSDOF 2
ENDMDL
MODEL 7
REMARK VINA RESULT:    -4.960      9.492     11.056
REMARK INTER + INTRA:          -5.403
REMARK INTER:                  -5.211
REMARK INTRA:                  -0.192
REMARK UNBOUND:                -0.008
REMARK SMILES C=C(C)[C@@H]1CC[C@@H](C)C[C@H]1O
REMARK SMILES IDX 8 1 7 2 6 3 5 4 4 5 10 6 9 7 11 8 2 10 1 11 3 12
REMARK H PARENT 11 9
REMARK Flexibility Score: inf
ROOT
ATOM      1  C   UNL     1      13.668 -16.325  32.138  1.00  0.00     0.008 C 
ATOM      2  C   UNL     1      13.365 -15.418  30.940  1.00  0.00    -0.012 C 
ATOM      3  C   UNL     1      11.856 -15.413  30.633  1.00  0.00     0.004 C 
ATOM      4  C   UNL     1      11.543 -14.522  29.425  1.00  0.00     0.011 C 
ATOM      5  C   UNL     1      12.346 -14.970  28.188  1.00  0.00     0.043 C 
ATOM      6  C   UNL     1      13.863 -14.978  28.485  1.00  0.00     0.121 C 
ATOM      7  C   UNL     1      14.167 -15.870  29.703  1.00  0.00     0.035 C 
ENDROOT
BRANCH   6   8
ATOM      8  O   UNL     1      14.555 -15.465  27.364  1.00  0.00    -0.392 OA
ATOM      9  H   UNL     1      14.623 -14.713  26.720  1.00  0.00     0.210 HD
ENDBRANCH   6   8
BRANCH   5  10
ATOM     10  C   UNL     1      12.018 -14.094  26.985  1.00  0.00    -0.075 C 
ATOM     11  C   UNL     1      11.393 -14.620  25.918  1.00  0.00     0.008 C 
ATOM     12  C   UNL     1      12.378 -12.629  26.956  1.00  0.00     0.039 C 
ENDBRANCH   5  10
TORSDOF 2
ENDMDL
MODEL 8
REMARK VINA RESULT:    -4.949     10.096     11.118
REMARK INTER + INTRA:          -5.390
REMARK INTER:                  -5.238
REMARK INTRA:                  -0.152
REMARK UNBOUND:                -0.008
REMARK SMILES C=C(C)[C@@H]1CC[C@@H](C)C[C@H]1O
REMARK SMILES IDX 8 1 7 2 6 3 5 4 4 5 10 6 9 7 11 8 2 10 1 11 3 12
REMARK H PARENT 11 9
REMARK Flexibility Score: inf
ROOT
ATOM      1  C   UNL     1      12.946 -13.141  26.403  1.00  0.00     0.008 C 
ATOM      2  C   UNL     1      13.120 -13.738  27.804  1.00  0.00    -0.012 C 
ATOM      3  C   UNL     1      13.968 -15.021  27.744  1.00  0.00     0.004 C 
ATOM      4  C   UNL     1      14.135 -15.637  29.138  1.00  0.00     0.011 C 
ATOM      5  C   UNL     1      12.763 -15.924  29.781  1.00  0.00     0.043 C 
ATOM      6  C   UNL     1      11.904 -14.640  29.847  1.00  0.00     0.121 C 
ATOM      7  C   UNL     1      11.748 -14.026  28.444  1.00  0.00     0.035 C 
ENDROOT
BRANCH   6   8
ATOM      8  O   UNL     1      10.636 -14.954  30.365  1.00  0.00    -0.392 OA
ATOM      9  H   UNL     1       9.974 -14.437  29.836  1.00  0.00     0.210 HD
ENDBRANCH   6   8
BRANCH   5  10
ATOM     10  C   UNL     1      12.933 -16.553  31.159  1.00  0.00    -0.075 C 
ATOM     11  C   UNL     1      13.828 -16.048  32.024  1.00  0.00     0.008 C 
ATOM     12  C   UNL     1      12.112 -17.744  31.586  1.00  0.00     0.039 C 
ENDBRANCH   5  10
TORSDOF 2
ENDMDL
MODEL 9
REMARK VINA RESULT:    -4.945      1.176      4.410
REMARK INTER + INTRA:          -5.386
REMARK INTER:                  -5.245
REMARK INTRA:                  -0.141
REMARK UNBOUND:                -0.008
REMARK SMILES C=C(C)[C@@H]1CC[C@@H](C)C[C@H]1O
REMARK SMILES IDX 8 1 7 2 6 3 5 4 4 5 10 6 9 7 11 8 2 10 1 11 3 12
REMARK H PARENT 11 9
REMARK Flexibility Score: inf
ROOT
ATOM      1  C   UNL     1       7.345 -20.957  20.822  1.00  0.00     0.008 C 
ATOM      2  C   UNL     1       6.680 -19.639  21.231  1.00  0.00    -0.012 C 
ATOM      3  C   UNL     1       6.539 -18.704  20.016  1.00  0.00     0.004 C 
ATOM      4  C   UNL     1       5.890 -17.374  20.417  1.00  0.00     0.011 C 
ATOM      5  C   UNL     1       6.692 -16.686  21.540  1.00  0.00     0.043 C 
ATOM      6  C   UNL     1       6.838 -17.617  22.766  1.00  0.00     0.121 C 
ATOM      7  C   UNL     1       7.485 -18.952  22.352  1.00  0.00     0.035 C 
ENDROOT
BRANCH   6   8
ATOM      8  O   UNL     1       7.639 -16.989  23.735  1.00  0.00    -0.392 OA
ATOM      9  H   UNL     1       7.362 -16.036  23.762  1.00  0.00     0.210 HD
ENDBRANCH   6   8
BRANCH   5  10
ATOM     10  C   UNL     1       6.054 -15.355  21.922  1.00  0.00    -0.075 C 
ATOM     11  C   UNL     1       6.799 -14.238  21.962  1.00  0.00     0.008 C 
ATOM     12  C   UNL     1       4.588 -15.255  22.262  1.00  0.00     0.039 C 
ENDBRANCH   5  10
TORSDOF 2
ENDMDL
