MODEL 1
REMARK VINA RESULT:    -4.054      0.000      0.000
REMARK INTER + INTRA:          -9.092
REMARK INTER:                  -7.134
REMARK INTRA:                  -1.958
REMARK UNBOUND:                -1.958
REMARK SMILES CCCCCCC=CCCCCCCCC(=O)[O-]
REMARK SMILES IDX 10 1 11 2 12 3 13 4 14 5 15 6 16 7 17 8 18 9 9 10 8 11 7 12
REMARK SMILES IDX 6 13 5 14 4 15 3 16 2 17 1 18
REMARK H PARENT
REMARK Flexibility Score: inf
ROOT
ATOM      1  C   UNL     1      35.204  27.236  33.217  1.00  0.00     0.004 C 
ENDROOT
BRANCH   1   2
ATOM      2  C   UNL     1      35.849  27.079  31.829  1.00  0.00     0.000 C 
BRANCH   2   3
ATOM      3  C   UNL     1      35.348  25.843  31.052  1.00  0.00     0.000 C 
BRANCH   3   4
ATOM      4  C   UNL     1      33.931  25.423  31.480  1.00  0.00     0.000 C 
BRANCH   4   5
ATOM      5  C   UNL     1      33.855  23.954  31.932  1.00  0.00     0.006 C 
BRANCH   5   6
ATOM      6  C   UNL     1      32.428  23.390  32.006  1.00  0.00     0.053 C 
BRANCH   6   7
ATOM      7  C   UNL     1      31.894  23.398  33.405  1.00  0.00     0.041 C 
ATOM      8  O   UNL     1      32.411  24.146  34.276  1.00  0.00    -0.550 OA
ATOM      9  O   UNL     1      30.847  22.554  33.756  1.00  0.00    -0.550 OA
ENDBRANCH   6   7
ENDBRANCH   5   6
ENDBRANCH   4   5
ENDBRANCH   3   4
ENDBRANCH   2   3
ENDBRANCH   1   2
BRANCH   1  10
ATOM     10  C   UNL     1      36.229  27.206  34.359  1.00  0.00     0.027 C 
BRANCH  10  11
ATOM     11  C   UNL     1      36.708  25.804  34.615  1.00  0.00    -0.031 C 
ATOM     12  C   UNL     1      35.858  24.767  34.642  1.00  0.00    -0.031 C 
BRANCH  12  13
ATOM     13  C   UNL     1      36.324  23.371  34.954  1.00  0.00     0.027 C 
BRANCH  13  14
ATOM     14  C   UNL     1      35.161  22.477  35.414  1.00  0.00     0.004 C 
BRANCH  14  15
ATOM     15  C   UNL     1      35.094  21.111  34.703  1.00  0.00     0.000 C 
BRANCH  15  16
ATOM     16  C   UNL     1      33.717  20.424  34.744  1.00  0.00    -0.000 C 
BRANCH  16  17
ATOM     17  C   UNL     1      33.228  19.927  33.367  1.00  0.00    -0.003 C 
ATOM     18  C   UNL     1      34.313  20.014  32.294  1.00  0.00     0.004 C 
ENDBRANCH  16  17
ENDBRANCH  15  16
ENDBRANCH  14  15
ENDBRANCH  13  14
ENDBRANCH  12  13
ENDBRANCH  10  11
ENDBRANCH   1  10
TORSDOF 13
ENDMDL
MODEL 2
REMARK VINA RESULT:    -3.965      3.967      7.612
REMARK INTER + INTRA:          -8.937
REMARK INTER:                  -7.289
REMARK INTRA:                  -1.648
REMARK UNBOUND:                -1.958
REMARK SMILES CCCCCCC=CCCCCCCCC(=O)[O-]
REMARK SMILES IDX 10 1 11 2 12 3 13 4 14 5 15 6 16 7 17 8 18 9 9 10 8 11 7 12
REMARK SMILES IDX 6 13 5 14 4 15 3 16 2 17 1 18
REMARK H PARENT
REMARK Flexibility Score: inf
ROOT
ATOM      1  C   UNL     1      31.052  19.158  34.318  1.00  0.00     0.004 C 
ENDROOT
BRANCH   1   2
ATOM      2  C   UNL     1      31.718  19.103  35.704  1.00  0.00     0.000 C 
BRANCH   2   3
ATOM      3  C   UNL     1      33.225  18.772  35.653  1.00  0.00     0.000 C 
BRANCH   3   4
ATOM      4  C   UNL     1      33.607  17.656  36.641  1.00  0.00     0.000 C 
BRANCH   4   5
ATOM      5  C   UNL     1      32.683  17.606  37.872  1.00  0.00     0.006 C 
BRANCH   5   6
ATOM      6  C   UNL     1      32.439  16.191  38.420  1.00  0.00     0.053 C 
BRANCH   6   7
ATOM      7  C   UNL     1      30.994  15.805  38.351  1.00  0.00     0.041 C 
ATOM      8  O   UNL     1      30.242  16.317  37.480  1.00  0.00    -0.550 OA
ATOM      9  O   UNL     1      30.469  14.905  39.269  1.00  0.00    -0.550 OA
ENDBRANCH   6   7
ENDBRANCH   5   6
ENDBRANCH   4   5
ENDBRANCH   3   4
ENDBRANCH   2   3
ENDBRANCH   1   2
BRANCH   1  10
ATOM     10  C   UNL     1      32.043  19.486  33.193  1.00  0.00     0.027 C 
BRANCH  10  11
ATOM     11  C   UNL     1      31.693  20.788  32.529  1.00  0.00    -0.031 C 
ATOM     12  C   UNL     1      31.164  21.807  33.223  1.00  0.00    -0.031 C 
BRANCH  12  13
ATOM     13  C   UNL     1      30.757  23.092  32.553  1.00  0.00     0.027 C 
BRANCH  13  14
ATOM     14  C   UNL     1      31.616  24.274  33.031  1.00  0.00     0.004 C 
BRANCH  14  15
ATOM     15  C   UNL     1      33.028  24.320  32.415  1.00  0.00     0.000 C 
BRANCH  15  16
ATOM     16  C   UNL     1      34.183  24.218  33.429  1.00  0.00    -0.000 C 
BRANCH  16  17
ATOM     17  C   UNL     1      34.759  22.794  33.575  1.00  0.00    -0.003 C 
ATOM     18  C   UNL     1      34.461  22.179  34.943  1.00  0.00     0.004 C 
ENDBRANCH  16  17
ENDBRANCH  15  16
ENDBRANCH  14  15
ENDBRANCH  13  14
ENDBRANCH  12  13
ENDBRANCH  10  11
ENDBRANCH   1  10
TORSDOF 13
ENDMDL
MODEL 3
REMARK VINA RESULT:    -3.919      1.214      4.179
REMARK INTER + INTRA:          -8.855
REMARK INTER:                  -6.963
REMARK INTRA:                  -1.892
REMARK UNBOUND:                -1.958
REMARK SMILES CCCCCCC=CCCCCCCCC(=O)[O-]
REMARK SMILES IDX 10 1 11 2 12 3 13 4 14 5 15 6 16 7 17 8 18 9 9 10 8 11 7 12
REMARK SMILES IDX 6 13 5 14 4 15 3 16 2 17 1 18
REMARK H PARENT
REMARK Flexibility Score: inf
ROOT
ATOM      1  C   UNL     1      35.926  23.000  35.436  1.00  0.00     0.004 C 
ENDROOT
BRANCH   1   2
ATOM      2  C   UNL     1      34.657  22.707  34.616  1.00  0.00     0.000 C 
BRANCH   2   3
ATOM      3  C   UNL     1      34.808  21.509  33.654  1.00  0.00     0.000 C 
BRANCH   3   4
ATOM      4  C   UNL     1      33.980  21.690  32.369  1.00  0.00     0.000 C 
BRANCH   4   5
ATOM      5  C   UNL     1      32.474  21.846  32.647  1.00  0.00     0.006 C 
BRANCH   5   6
ATOM      6  C   UNL     1      31.848  23.110  32.038  1.00  0.00     0.053 C 
BRANCH   6   7
ATOM      7  C   UNL     1      31.481  24.114  33.087  1.00  0.00     0.041 C 
ATOM      8  O   UNL     1      31.844  23.945  34.281  1.00  0.00    -0.550 OA
ATOM      9  O   UNL     1      30.708  25.219  32.753  1.00  0.00    -0.550 OA
ENDBRANCH   6   7
ENDBRANCH   5   6
ENDBRANCH   4   5
ENDBRANCH   3   4
ENDBRANCH   2   3
ENDBRANCH   1   2
BRANCH   1  10
ATOM     10  C   UNL     1      37.162  23.243  34.559  1.00  0.00     0.027 C 
BRANCH  10  11
ATOM     11  C   UNL     1      37.297  24.699  34.212  1.00  0.00    -0.031 C 
ATOM     12  C   UNL     1      36.457  25.619  34.710  1.00  0.00    -0.031 C 
BRANCH  12  13
ATOM     13  C   UNL     1      36.552  27.069  34.321  1.00  0.00     0.027 C 
BRANCH  13  14
ATOM     14  C   UNL     1      35.379  27.490  33.420  1.00  0.00     0.004 C 
BRANCH  14  15
ATOM     15  C   UNL     1      34.315  26.394  33.214  1.00  0.00     0.000 C 
BRANCH  15  16
ATOM     16  C   UNL     1      34.178  25.886  31.766  1.00  0.00    -0.000 C 
BRANCH  16  17
ATOM     17  C   UNL     1      35.494  25.934  30.963  1.00  0.00    -0.003 C 
ATOM     18  C   UNL     1      36.128  24.553  30.794  1.00  0.00     0.004 C 
ENDBRANCH  16  17
ENDBRANCH  15  16
ENDBRANCH  14  15
ENDBRANCH  13  14
ENDBRANCH  12  13
ENDBRANCH  10  11
ENDBRANCH   1  10
TORSDOF 13
ENDMDL
MODEL 4
REMARK VINA RESULT:    -3.904      4.040      6.760
REMARK INTER + INTRA:          -8.829
REMARK INTER:                  -7.282
REMARK INTRA:                  -1.547
REMARK UNBOUND:                -1.958
REMARK SMILES CCCCCCC=CCCCCCCCC(=O)[O-]
REMARK SMILES IDX 10 1 11 2 12 3 13 4 14 5 15 6 16 7 17 8 18 9 9 10 8 11 7 12
REMARK SMILES IDX 6 13 5 14 4 15 3 16 2 17 1 18
REMARK H PARENT
REMARK Flexibility Score: inf
ROOT
ATOM      1  C   UNL     1      31.733  19.255  35.656  1.00  0.00     0.004 C 
ENDROOT
BRANCH   1   2
ATOM      2  C   UNL     1      31.329  20.227  34.533  1.00  0.00     0.000 C 
BRANCH   2   3
ATOM      3  C   UNL     1      30.919  19.521  33.223  1.00  0.00     0.000 C 
BRANCH   3   4
ATOM      4  C   UNL     1      31.094  20.430  31.995  1.00  0.00     0.000 C 
BRANCH   4   5
ATOM      5  C   UNL     1      32.010  21.637  32.270  1.00  0.00     0.006 C 
BRANCH   5   6
ATOM      6  C   UNL     1      31.290  22.994  32.245  1.00  0.00     0.053 C 
BRANCH   6   7
ATOM      7  C   UNL     1      32.057  24.048  32.983  1.00  0.00     0.041 C 
ATOM      8  O   UNL     1      32.779  24.865  32.352  1.00  0.00    -0.550 OA
ATOM      9  O   UNL     1      32.002  24.106  34.370  1.00  0.00    -0.550 OA
ENDBRANCH   6   7
ENDBRANCH   5   6
ENDBRANCH   4   5
ENDBRANCH   3   4
ENDBRANCH   2   3
ENDBRANCH   1   2
BRANCH   1  10
ATOM     10  C   UNL     1      33.200  18.815  35.566  1.00  0.00     0.027 C 
BRANCH  10  11
ATOM     11  C   UNL     1      33.517  17.783  36.611  1.00  0.00    -0.031 C 
ATOM     12  C   UNL     1      32.863  17.747  37.781  1.00  0.00    -0.031 C 
BRANCH  12  13
ATOM     13  C   UNL     1      33.215  16.753  38.854  1.00  0.00     0.027 C 
BRANCH  13  14
ATOM     14  C   UNL     1      32.529  15.398  38.616  1.00  0.00     0.004 C 
BRANCH  14  15
ATOM     15  C   UNL     1      30.989  15.457  38.632  1.00  0.00     0.000 C 
BRANCH  15  16
ATOM     16  C   UNL     1      30.304  14.890  37.375  1.00  0.00    -0.000 C 
BRANCH  16  17
ATOM     17  C   UNL     1      30.100  15.930  36.254  1.00  0.00    -0.003 C 
ATOM     18  C   UNL     1      30.937  15.627  35.012  1.00  0.00     0.004 C 
ENDBRANCH  16  17
ENDBRANCH  15  16
ENDBRANCH  14  15
ENDBRANCH  13  14
ENDBRANCH  12  13
ENDBRANCH  10  11
ENDBRANCH   1  10
TORSDOF 13
ENDMDL
MODEL 5
REMARK VINA RESULT:    -3.850      2.037      4.748
REMARK INTER + INTRA:          -8.733
REMARK INTER:                  -6.869
REMARK INTRA:                  -1.865
REMARK UNBOUND:                -1.958
REMARK SMILES CCCCCCC=CCCCCCCCC(=O)[O-]
REMARK SMILES IDX 10 1 11 2 12 3 13 4 14 5 15 6 16 7 17 8 18 9 9 10 8 11 7 12
REMARK SMILES IDX 6 13 5 14 4 15 3 16 2 17 1 18
REMARK H PARENT
REMARK Flexibility Score: inf
ROOT
ATOM      1  C   UNL     1      34.406  22.383  34.357  1.00  0.00     0.004 C 
ENDROOT
BRANCH   1   2
ATOM      2  C   UNL     1      33.454  23.592  34.367  1.00  0.00     0.000 C 
BRANCH   2   3
ATOM      3  C   UNL     1      32.288  23.467  33.363  1.00  0.00     0.000 C 
BRANCH   3   4
ATOM      4  C   UNL     1      32.063  22.013  32.912  1.00  0.00     0.000 C 
BRANCH   4   5
ATOM      5  C   UNL     1      31.018  21.277  33.771  1.00  0.00     0.006 C 
BRANCH   5   6
ATOM      6  C   UNL     1      31.273  19.770  33.919  1.00  0.00     0.053 C 
BRANCH   6   7
ATOM      7  C   UNL     1      31.824  19.425  35.268  1.00  0.00     0.041 C 
ATOM      8  O   UNL     1      31.051  19.289  36.253  1.00  0.00    -0.550 OA
ATOM      9  O   UNL     1      33.195  19.286  35.445  1.00  0.00    -0.550 OA
ENDBRANCH   6   7
ENDBRANCH   5   6
ENDBRANCH   4   5
ENDBRANCH   3   4
ENDBRANCH   2   3
ENDBRANCH   1   2
BRANCH   1  10
ATOM     10  C   UNL     1      35.810  22.725  34.873  1.00  0.00     0.027 C 
BRANCH  10  11
ATOM     11  C   UNL     1      36.074  24.202  34.779  1.00  0.00    -0.031 C 
ATOM     12  C   UNL     1      37.207  24.678  34.243  1.00  0.00    -0.031 C 
BRANCH  12  13
ATOM     13  C   UNL     1      37.501  26.153  34.199  1.00  0.00     0.027 C 
BRANCH  13  14
ATOM     14  C   UNL     1      36.233  26.989  34.434  1.00  0.00     0.004 C 
BRANCH  14  15
ATOM     15  C   UNL     1      35.509  27.418  33.143  1.00  0.00     0.000 C 
BRANCH  15  16
ATOM     16  C   UNL     1      34.128  26.772  32.928  1.00  0.00    -0.000 C 
BRANCH  16  17
ATOM     17  C   UNL     1      34.010  25.979  31.610  1.00  0.00    -0.003 C 
ATOM     18  C   UNL     1      35.315  25.281  31.227  1.00  0.00     0.004 C 
ENDBRANCH  16  17
ENDBRANCH  15  16
ENDBRANCH  14  15
ENDBRANCH  13  14
ENDBRANCH  12  13
ENDBRANCH  10  11
ENDBRANCH   1  10
TORSDOF 13
ENDMDL
MODEL 6
REMARK VINA RESULT:    -3.848      1.409      1.991
REMARK INTER + INTRA:          -8.730
REMARK INTER:                  -6.593
REMARK INTRA:                  -2.137
REMARK UNBOUND:                -1.958
REMARK SMILES CCCCCCC=CCCCCCCCC(=O)[O-]
REMARK SMILES IDX 10 1 11 2 12 3 13 4 14 5 15 6 16 7 17 8 18 9 9 10 8 11 7 12
REMARK SMILES IDX 6 13 5 14 4 15 3 16 2 17 1 18
REMARK H PARENT
REMARK Flexibility Score: inf
ROOT
ATOM      1  C   UNL     1      35.037  26.762  32.500  1.00  0.00     0.004 C 
ENDROOT
BRANCH   1   2
ATOM      2  C   UNL     1      33.539  26.413  32.554  1.00  0.00     0.000 C 
BRANCH   2   3
ATOM      3  C   UNL     1      33.238  24.935  32.228  1.00  0.00     0.000 C 
BRANCH   3   4
ATOM      4  C   UNL     1      32.715  24.166  33.454  1.00  0.00     0.000 C 
BRANCH   4   5
ATOM      5  C   UNL     1      31.335  23.526  33.213  1.00  0.00     0.006 C 
BRANCH   5   6
ATOM      6  C   UNL     1      31.382  22.200  32.439  1.00  0.00     0.053 C 
BRANCH   6   7
ATOM      7  C   UNL     1      31.011  21.034  33.302  1.00  0.00     0.041 C 
ATOM      8  O   UNL     1      31.085  21.125  34.557  1.00  0.00    -0.550 OA
ATOM      9  O   UNL     1      30.615  19.835  32.722  1.00  0.00    -0.550 OA
ENDBRANCH   6   7
ENDBRANCH   5   6
ENDBRANCH   4   5
ENDBRANCH   3   4
ENDBRANCH   2   3
ENDBRANCH   1   2
BRANCH   1  10
ATOM     10  C   UNL     1      35.623  27.094  33.880  1.00  0.00     0.027 C 
BRANCH  10  11
ATOM     11  C   UNL     1      36.199  25.867  34.528  1.00  0.00    -0.031 C 
ATOM     12  C   UNL     1      36.581  24.805  33.803  1.00  0.00    -0.031 C 
BRANCH  12  13
ATOM     13  C   UNL     1      37.105  23.552  34.452  1.00  0.00     0.027 C 
BRANCH  13  14
ATOM     14  C   UNL     1      36.069  22.935  35.406  1.00  0.00     0.004 C 
BRANCH  14  15
ATOM     15  C   UNL     1      35.759  21.451  35.127  1.00  0.00     0.000 C 
BRANCH  15  16
ATOM     16  C   UNL     1      34.541  21.202  34.218  1.00  0.00    -0.000 C 
BRANCH  16  17
ATOM     17  C   UNL     1      34.908  20.650  32.824  1.00  0.00    -0.003 C 
ATOM     18  C   UNL     1      35.131  21.757  31.794  1.00  0.00     0.004 C 
ENDBRANCH  16  17
ENDBRANCH  15  16
ENDBRANCH  14  15
ENDBRANCH  13  14
ENDBRANCH  12  13
ENDBRANCH  10  11
ENDBRANCH   1  10
TORSDOF 13
ENDMDL
MODEL 7
REMARK VINA RESULT:    -3.845      3.505      7.156
REMARK INTER + INTRA:          -8.725
REMARK INTER:                  -7.814
REMARK INTRA:                  -0.911
REMARK UNBOUND:                -1.958
REMARK SMILES CCCCCCC=CCCCCCCCC(=O)[O-]
REMARK SMILES IDX 10 1 11 2 12 3 13 4 14 5 15 6 16 7 17 8 18 9 9 10 8 11 7 12
REMARK SMILES IDX 6 13 5 14 4 15 3 16 2 17 1 18
REMARK H PARENT
REMARK Flexibility Score: inf
ROOT
ATOM      1  C   UNL     1      31.119  21.128  32.402  1.00  0.00     0.004 C 
ENDROOT
BRANCH   1   2
ATOM      2  C   UNL     1      30.835  19.858  33.222  1.00  0.00     0.000 C 
BRANCH   2   3
ATOM      3  C   UNL     1      31.967  19.492  34.206  1.00  0.00     0.000 C 
BRANCH   3   4
ATOM      4  C   UNL     1      31.457  19.353  35.651  1.00  0.00     0.000 C 
BRANCH   4   5
ATOM      5  C   UNL     1      31.666  17.939  36.223  1.00  0.00     0.006 C 
BRANCH   5   6
ATOM      6  C   UNL     1      30.746  16.870  35.614  1.00  0.00     0.053 C 
BRANCH   6   7
ATOM      7  C   UNL     1      30.200  15.942  36.654  1.00  0.00     0.041 C 
ATOM      8  O   UNL     1      29.620  14.877  36.314  1.00  0.00    -0.550 OA
ATOM      9  O   UNL     1      30.299  16.270  38.001  1.00  0.00    -0.550 OA
ENDBRANCH   6   7
ENDBRANCH   5   6
ENDBRANCH   4   5
ENDBRANCH   3   4
ENDBRANCH   2   3
ENDBRANCH   1   2
BRANCH   1  10
ATOM     10  C   UNL     1      30.958  22.416  33.220  1.00  0.00     0.027 C 
BRANCH  10  11
ATOM     11  C   UNL     1      32.014  23.421  32.855  1.00  0.00    -0.031 C 
ATOM     12  C   UNL     1      32.897  23.184  31.873  1.00  0.00    -0.031 C 
BRANCH  12  13
ATOM     13  C   UNL     1      33.993  24.161  31.542  1.00  0.00     0.027 C 
BRANCH  13  14
ATOM     14  C   UNL     1      33.621  25.591  31.968  1.00  0.00     0.004 C 
BRANCH  14  15
ATOM     15  C   UNL     1      34.830  26.526  32.167  1.00  0.00     0.000 C 
BRANCH  15  16
ATOM     16  C   UNL     1      34.904  27.207  33.545  1.00  0.00    -0.000 C 
BRANCH  16  17
ATOM     17  C   UNL     1      36.170  26.846  34.351  1.00  0.00    -0.003 C 
ATOM     18  C   UNL     1      36.300  25.343  34.596  1.00  0.00     0.004 C 
ENDBRANCH  16  17
ENDBRANCH  15  16
ENDBRANCH  14  15
ENDBRANCH  13  14
ENDBRANCH  12  13
ENDBRANCH  10  11
ENDBRANCH   1  10
TORSDOF 13
ENDMDL
MODEL 8
REMARK VINA RESULT:    -3.839      1.736      4.414
REMARK INTER + INTRA:          -8.714
REMARK INTER:                  -6.768
REMARK INTRA:                  -1.947
REMARK UNBOUND:                -1.958
REMARK SMILES CCCCCCC=CCCCCCCCC(=O)[O-]
REMARK SMILES IDX 10 1 11 2 12 3 13 4 14 5 15 6 16 7 17 8 18 9 9 10 8 11 7 12
REMARK SMILES IDX 6 13 5 14 4 15 3 16 2 17 1 18
REMARK H PARENT
REMARK Flexibility Score: inf
ROOT
ATOM      1  C   UNL     1      37.120  22.403  33.328  1.00  0.00     0.004 C 
ENDROOT
BRANCH   1   2
ATOM      2  C   UNL     1      35.759  21.765  33.002  1.00  0.00     0.000 C 
BRANCH   2   3
ATOM      3  C   UNL     1      34.556  22.555  33.560  1.00  0.00     0.000 C 
BRANCH   3   4
ATOM      4  C   UNL     1      33.362  22.557  32.589  1.00  0.00     0.000 C 
BRANCH   4   5
ATOM      5  C   UNL     1      32.068  23.082  33.237  1.00  0.00     0.006 C 
BRANCH   5   6
ATOM      6  C   UNL     1      30.829  22.216  32.962  1.00  0.00     0.053 C 
BRANCH   6   7
ATOM      7  C   UNL     1      30.926  20.875  33.620  1.00  0.00     0.041 C 
ATOM      8  O   UNL     1      30.552  19.839  33.009  1.00  0.00    -0.550 OA
ATOM      9  O   UNL     1      31.397  20.771  34.923  1.00  0.00    -0.550 OA
ENDBRANCH   6   7
ENDBRANCH   5   6
ENDBRANCH   4   5
ENDBRANCH   3   4
ENDBRANCH   2   3
ENDBRANCH   1   2
BRANCH   1  10
ATOM     10  C   UNL     1      37.102  23.214  34.632  1.00  0.00     0.027 C 
BRANCH  10  11
ATOM     11  C   UNL     1      37.244  24.684  34.353  1.00  0.00    -0.031 C 
ATOM     12  C   UNL     1      36.253  25.546  34.623  1.00  0.00    -0.031 C 
BRANCH  12  13
ATOM     13  C   UNL     1      36.367  27.010  34.293  1.00  0.00     0.027 C 
BRANCH  13  14
ATOM     14  C   UNL     1      35.157  27.502  33.482  1.00  0.00     0.004 C 
BRANCH  14  15
ATOM     15  C   UNL     1      34.114  26.409  33.176  1.00  0.00     0.000 C 
BRANCH  15  16
ATOM     16  C   UNL     1      34.013  26.006  31.693  1.00  0.00    -0.000 C 
BRANCH  16  17
ATOM     17  C   UNL     1      35.314  25.406  31.121  1.00  0.00    -0.003 C 
ATOM     18  C   UNL     1      35.943  26.291  30.045  1.00  0.00     0.004 C 
ENDBRANCH  16  17
ENDBRANCH  15  16
ENDBRANCH  14  15
ENDBRANCH  13  14
ENDBRANCH  12  13
ENDBRANCH  10  11
ENDBRANCH   1  10
TORSDOF 13
ENDMDL
MODEL 9
REMARK VINA RESULT:    -3.812      2.376      5.292
REMARK INTER + INTRA:          -8.667
REMARK INTER:                  -7.130
REMARK INTRA:                  -1.537
REMARK UNBOUND:                -1.958
REMARK SMILES CCCCCCC=CCCCCCCCC(=O)[O-]
REMARK SMILES IDX 10 1 11 2 12 3 13 4 14 5 15 6 16 7 17 8 18 9 9 10 8 11 7 12
REMARK SMILES IDX 6 13 5 14 4 15 3 16 2 17 1 18
REMARK H PARENT
REMARK Flexibility Score: inf
ROOT
ATOM      1  C   UNL     1      35.223  22.551  35.151  1.00  0.00     0.004 C 
ENDROOT
BRANCH   1   2
ATOM      2  C   UNL     1      35.147  21.126  34.577  1.00  0.00     0.000 C 
BRANCH   2   3
ATOM      3  C   UNL     1      33.859  20.370  34.968  1.00  0.00     0.000 C 
BRANCH   3   4
ATOM      4  C   UNL     1      32.772  20.476  33.884  1.00  0.00     0.000 C 
BRANCH   4   5
ATOM      5  C   UNL     1      31.397  19.979  34.367  1.00  0.00     0.006 C 
BRANCH   5   6
ATOM      6  C   UNL     1      31.425  19.273  35.731  1.00  0.00     0.053 C 
BRANCH   6   7
ATOM      7  C   UNL     1      30.993  17.843  35.631  1.00  0.00     0.041 C 
ATOM      8  O   UNL     1      31.676  17.019  34.967  1.00  0.00    -0.550 OA
ATOM      9  O   UNL     1      29.816  17.427  36.241  1.00  0.00    -0.550 OA
ENDBRANCH   6   7
ENDBRANCH   5   6
ENDBRANCH   4   5
ENDBRANCH   3   4
ENDBRANCH   2   3
ENDBRANCH   1   2
BRANCH   1  10
ATOM     10  C   UNL     1      36.648  23.120  35.152  1.00  0.00     0.027 C 
BRANCH  10  11
ATOM     11  C   UNL     1      36.758  24.300  34.228  1.00  0.00    -0.031 C 
ATOM     12  C   UNL     1      36.142  25.461  34.498  1.00  0.00    -0.031 C 
BRANCH  12  13
ATOM     13  C   UNL     1      36.200  26.626  33.548  1.00  0.00     0.027 C 
BRANCH  13  14
ATOM     14  C   UNL     1      34.874  27.404  33.526  1.00  0.00     0.004 C 
BRANCH  14  15
ATOM     15  C   UNL     1      33.701  26.636  32.886  1.00  0.00     0.000 C 
BRANCH  15  16
ATOM     16  C   UNL     1      34.097  25.677  31.748  1.00  0.00    -0.000 C 
BRANCH  16  17
ATOM     17  C   UNL     1      33.627  24.223  31.968  1.00  0.00    -0.003 C 
ATOM     18  C   UNL     1      32.622  24.099  33.112  1.00  0.00     0.004 C 
ENDBRANCH  16  17
ENDBRANCH  15  16
ENDBRANCH  14  15
ENDBRANCH  13  14
ENDBRANCH  12  13
ENDBRANCH  10  11
ENDBRANCH   1  10
TORSDOF 13
ENDMDL
