MODEL 1
REMARK VINA RESULT:    14.152      0.000      0.000
REMARK INTER + INTRA:          25.807
REMARK INTER:                  26.562
REMARK INTRA:                  -0.755
REMARK UNBOUND:                -0.755
REMARK SMILES O=C([O-])CCCCCCCCCCCCCCC(=O)[O-]
REMARK SMILES IDX 10 1 9 2 8 3 7 4 6 5 5 6 4 7 2 8 1 9 3 10 11 11 12 12 13 13
REMARK SMILES IDX 14 14 15 15 16 16 17 17 18 18 19 19 20 20
REMARK H PARENT
REMARK Flexibility Score: inf
ROOT
ATOM      1  C   UNL     1      -6.093 -11.028  23.710  1.00  0.00     0.000 C 
ENDROOT
BRANCH   1   2
ATOM      2  C   UNL     1      -5.801 -10.211  24.981  1.00  0.00     0.000 C 
BRANCH   2   3
ATOM      3  C   UNL     1      -5.084  -8.881  24.666  1.00  0.00     0.000 C 
BRANCH   3   4
ATOM      4  C   UNL     1      -3.572  -8.916  24.946  1.00  0.00     0.000 C 
BRANCH   4   5
ATOM      5  C   UNL     1      -2.755  -8.123  23.912  1.00  0.00     0.000 C 
BRANCH   5   6
ATOM      6  C   UNL     1      -1.239  -8.301  24.096  1.00  0.00     0.006 C 
BRANCH   6   7
ATOM      7  C   UNL     1      -0.888  -9.180  25.305  1.00  0.00     0.053 C 
BRANCH   7   8
ATOM      8  C   UNL     1       0.159  -8.519  26.142  1.00  0.00     0.041 C 
ATOM      9  O   UNL     1       0.661  -9.126  27.125  1.00  0.00    -0.550 OA
ATOM     10  O   UNL     1       0.618  -7.251  25.809  1.00  0.00    -0.550 OA
ENDBRANCH   7   8
ENDBRANCH   6   7
ENDBRANCH   5   6
ENDBRANCH   4   5
ENDBRANCH   3   4
ENDBRANCH   2   3
ENDBRANCH   1   2
BRANCH   1  11
ATOM     11  C   UNL     1      -6.604 -12.448  24.012  1.00  0.00     0.000 C 
BRANCH  11  12
ATOM     12  C   UNL     1      -6.252 -12.983  25.414  1.00  0.00     0.000 C 
BRANCH  12  13
ATOM     13  C   UNL     1      -5.163 -14.070  25.383  1.00  0.00     0.000 C 
BRANCH  13  14
ATOM     14  C   UNL     1      -4.945 -14.722  26.758  1.00  0.00     0.000 C 
BRANCH  14  15
ATOM     15  C   UNL     1      -5.542 -16.138  26.845  1.00  0.00     0.000 C 
BRANCH  15  16
ATOM     16  C   UNL     1      -4.685 -17.184  26.114  1.00  0.00     0.006 C 
BRANCH  16  17
ATOM     17  C   UNL     1      -5.521 -18.335  25.540  1.00  0.00     0.053 C 
BRANCH  17  18
ATOM     18  C   UNL     1      -5.584 -18.241  24.048  1.00  0.00     0.041 C 
ATOM     19  O   UNL     1      -4.624 -17.742  23.403  1.00  0.00    -0.550 OA
ATOM     20  O   UNL     1      -6.683 -18.747  23.365  1.00  0.00    -0.550 OA
ENDBRANCH  17  18
ENDBRANCH  16  17
ENDBRANCH  15  16
ENDBRANCH  14  15
ENDBRANCH  13  14
ENDBRANCH  12  13
ENDBRANCH  11  12
ENDBRANCH   1  11
TORSDOF 15
ENDMDL
MODEL 2
REMARK VINA RESULT:    14.640      0.221      8.914
REMARK INTER + INTRA:          26.724
REMARK INTER:                  27.468
REMARK INTRA:                  -0.744
REMARK UNBOUND:                -0.755
REMARK SMILES O=C([O-])CCCCCCCCCCCCCCC(=O)[O-]
REMARK SMILES IDX 10 1 9 2 8 3 7 4 6 5 5 6 4 7 2 8 1 9 3 10 11 11 12 12 13 13
REMARK SMILES IDX 14 14 15 15 16 16 17 17 18 18 19 19 20 20
REMARK H PARENT
REMARK Flexibility Score: inf
ROOT
ATOM      1  C   UNL     1      -6.531 -12.434  23.874  1.00  0.00     0.000 C 
ENDROOT
BRANCH   1   2
ATOM      2  C   UNL     1      -6.255 -12.928  25.305  1.00  0.00     0.000 C 
BRANCH   2   3
ATOM      3  C   UNL     1      -5.209 -14.063  25.338  1.00  0.00     0.000 C 
BRANCH   3   4
ATOM      4  C   UNL     1      -5.062 -14.725  26.718  1.00  0.00     0.000 C 
BRANCH   4   5
ATOM      5  C   UNL     1      -5.612 -16.161  26.752  1.00  0.00     0.000 C 
BRANCH   5   6
ATOM      6  C   UNL     1      -4.691 -17.163  26.037  1.00  0.00     0.006 C 
BRANCH   6   7
ATOM      7  C   UNL     1      -5.439 -18.415  25.556  1.00  0.00     0.053 C 
BRANCH   7   8
ATOM      8  C   UNL     1      -5.617 -18.376  24.072  1.00  0.00     0.041 C 
ATOM      9  O   UNL     1      -6.647 -18.873  23.544  1.00  0.00    -0.550 OA
ATOM     10  O   UNL     1      -4.669 -17.748  23.274  1.00  0.00    -0.550 OA
ENDBRANCH   7   8
ENDBRANCH   6   7
ENDBRANCH   5   6
ENDBRANCH   4   5
ENDBRANCH   3   4
ENDBRANCH   2   3
ENDBRANCH   1   2
BRANCH   1  11
ATOM     11  C   UNL     1      -6.101 -10.973  23.649  1.00  0.00     0.000 C 
BRANCH  11  12
ATOM     12  C   UNL     1      -5.666 -10.219  24.920  1.00  0.00     0.000 C 
BRANCH  12  13
ATOM     13  C   UNL     1      -5.099  -8.820  24.621  1.00  0.00     0.000 C 
BRANCH  13  14
ATOM     14  C   UNL     1      -3.623  -8.686  25.026  1.00  0.00     0.000 C 
BRANCH  14  15
ATOM     15  C   UNL     1      -2.681  -8.582  23.813  1.00  0.00     0.000 C 
BRANCH  15  16
ATOM     16  C   UNL     1      -1.201  -8.728  24.202  1.00  0.00     0.006 C 
BRANCH  16  17
ATOM     17  C   UNL     1      -1.015  -9.122  25.673  1.00  0.00     0.053 C 
BRANCH  17  18
ATOM     18  C   UNL     1       0.220  -8.488  26.231  1.00  0.00     0.041 C 
ATOM     19  O   UNL     1       0.965  -9.133  27.016  1.00  0.00    -0.550 OA
ATOM     20  O   UNL     1       0.576  -7.201  25.847  1.00  0.00    -0.550 OA
ENDBRANCH  17  18
ENDBRANCH  16  17
ENDBRANCH  15  16
ENDBRANCH  14  15
ENDBRANCH  13  14
ENDBRANCH  12  13
ENDBRANCH  11  12
ENDBRANCH   1  11
TORSDOF 15
ENDMDL
MODEL 3
REMARK VINA RESULT:    17.015      2.431      8.996
REMARK INTER + INTRA:          31.180
REMARK INTER:                  31.858
REMARK INTRA:                  -0.678
REMARK UNBOUND:                -0.755
REMARK SMILES O=C([O-])CCCCCCCCCCCCCCC(=O)[O-]
REMARK SMILES IDX 10 1 9 2 8 3 7 4 6 5 5 6 4 7 2 8 1 9 3 10 11 11 12 12 13 13
REMARK SMILES IDX 14 14 15 15 16 16 17 17 18 18 19 19 20 20
REMARK H PARENT
REMARK Flexibility Score: inf
ROOT
ATOM      1  C   UNL     1      -6.756 -12.134  24.013  1.00  0.00     0.000 C 
ENDROOT
BRANCH   1   2
ATOM      2  C   UNL     1      -6.499 -12.826  25.363  1.00  0.00     0.000 C 
BRANCH   2   3
ATOM      3  C   UNL     1      -5.456 -13.958  25.248  1.00  0.00     0.000 C 
BRANCH   3   4
ATOM      4  C   UNL     1      -4.955 -14.474  26.608  1.00  0.00     0.000 C 
BRANCH   4   5
ATOM      5  C   UNL     1      -5.379 -15.925  26.888  1.00  0.00     0.000 C 
BRANCH   5   6
ATOM      6  C   UNL     1      -4.663 -16.936  25.977  1.00  0.00     0.006 C 
BRANCH   6   7
ATOM      7  C   UNL     1      -5.511 -18.185  25.699  1.00  0.00     0.053 C 
BRANCH   7   8
ATOM      8  C   UNL     1      -5.620 -18.423  24.227  1.00  0.00     0.041 C 
ATOM      9  O   UNL     1      -6.491 -19.212  23.775  1.00  0.00    -0.550 OA
ATOM     10  O   UNL     1      -4.791 -17.736  23.348  1.00  0.00    -0.550 OA
ENDBRANCH   7   8
ENDBRANCH   6   7
ENDBRANCH   5   6
ENDBRANCH   4   5
ENDBRANCH   3   4
ENDBRANCH   2   3
ENDBRANCH   1   2
BRANCH   1  11
ATOM     11  C   UNL     1      -5.912 -10.862  23.819  1.00  0.00     0.000 C 
BRANCH  11  12
ATOM     12  C   UNL     1      -5.731 -10.001  25.084  1.00  0.00     0.000 C 
BRANCH  12  13
ATOM     13  C   UNL     1      -4.992  -8.680  24.808  1.00  0.00     0.000 C 
BRANCH  13  14
ATOM     14  C   UNL     1      -3.464  -8.848  24.820  1.00  0.00     0.000 C 
BRANCH  14  15
ATOM     15  C   UNL     1      -2.818  -8.497  23.467  1.00  0.00     0.000 C 
BRANCH  15  16
ATOM     16  C   UNL     1      -3.039  -7.028  23.073  1.00  0.00     0.006 C 
BRANCH  16  17
ATOM     17  C   UNL     1      -3.965  -6.877  21.859  1.00  0.00     0.053 C 
BRANCH  17  18
ATOM     18  C   UNL     1      -3.233  -7.218  20.599  1.00  0.00     0.041 C 
ATOM     19  O   UNL     1      -1.974  -7.210  20.576  1.00  0.00    -0.550 OA
ATOM     20  O   UNL     1      -3.940  -7.589  19.463  1.00  0.00    -0.550 OA
ENDBRANCH  17  18
ENDBRANCH  16  17
ENDBRANCH  15  16
ENDBRANCH  14  15
ENDBRANCH  13  14
ENDBRANCH  12  13
ENDBRANCH  11  12
ENDBRANCH   1  11
TORSDOF 15
ENDMDL
