MODEL 1
REMARK VINA RESULT:    -6.255      0.000      0.000
REMARK INTER + INTRA:          -7.475
REMARK INTER:                  -7.351
REMARK INTRA:                  -0.124
REMARK UNBOUND:                -0.124
REMARK SMILES O=C([O-])C=Cc1ccc(O)c(O)c1
REMARK SMILES IDX 6 1 13 2 7 3 11 4 8 5 9 6 5 7 4 8 2 9 1 10 3 11 12 12 10 14
REMARK H PARENT 12 13 10 15
REMARK Flexibility Score: inf
ROOT
ATOM      1  C   UNL     1      12.895 -13.021  28.489  1.00  0.00    -0.022 A 
ATOM      2  C   UNL     1      13.256 -12.263  29.622  1.00  0.00     0.058 A 
ATOM      3  C   UNL     1      11.673 -12.749  27.854  1.00  0.00     0.012 A 
ATOM      4  C   UNL     1      12.400 -11.274  30.121  1.00  0.00     0.157 A 
ATOM      5  C   UNL     1      10.815 -11.764  28.352  1.00  0.00     0.051 A 
ATOM      6  C   UNL     1      11.172 -11.025  29.486  1.00  0.00     0.157 A 
ENDROOT
BRANCH   1   7
ATOM      7  C   UNL     1      13.775 -14.071  27.917  1.00  0.00     0.010 C 
ATOM      8  C   UNL     1      14.519 -14.903  28.657  1.00  0.00     0.025 C 
BRANCH   8   9
ATOM      9  C   UNL     1      15.369 -15.937  28.047  1.00  0.00     0.064 C 
ATOM     10  O   UNL     1      15.769 -15.794  26.863  1.00  0.00    -0.545 OA
ATOM     11  O   UNL     1      15.735 -17.075  28.757  1.00  0.00    -0.545 OA
ENDBRANCH   8   9
ENDBRANCH   1   7
BRANCH   4  12
ATOM     12  O   UNL     1      12.789 -10.547  31.245  1.00  0.00    -0.504 OA
ATOM     13  H   UNL     1      13.459  -9.789  31.191  1.00  0.00     0.293 HD
ENDBRANCH   4  12
BRANCH   6  14
ATOM     14  O   UNL     1      10.314 -10.044  29.982  1.00  0.00    -0.504 OA
ATOM     15  H   UNL     1      10.084  -9.989  30.967  1.00  0.00     0.293 HD
ENDBRANCH   6  14
TORSDOF 4
ENDMDL
MODEL 2
REMARK VINA RESULT:    -6.124     12.026     14.153
REMARK INTER + INTRA:          -7.322
REMARK INTER:                  -7.195
REMARK INTRA:                  -0.127
REMARK UNBOUND:                -0.124
REMARK SMILES O=C([O-])C=Cc1ccc(O)c(O)c1
REMARK SMILES IDX 6 1 13 2 7 3 11 4 8 5 9 6 5 7 4 8 2 9 1 10 3 11 12 12 10 14
REMARK H PARENT 12 13 10 15
REMARK Flexibility Score: inf
ROOT
ATOM      1  C   UNL     1      17.409  -1.048  26.856  1.00  0.00    -0.022 A 
ATOM      2  C   UNL     1      17.055  -1.617  28.097  1.00  0.00     0.058 A 
ATOM      3  C   UNL     1      18.681  -1.317  26.326  1.00  0.00     0.012 A 
ATOM      4  C   UNL     1      17.964  -2.416  28.801  1.00  0.00     0.157 A 
ATOM      5  C   UNL     1      19.591  -2.112  27.029  1.00  0.00     0.051 A 
ATOM      6  C   UNL     1      19.239  -2.662  28.268  1.00  0.00     0.157 A 
ENDROOT
BRANCH   1   7
ATOM      7  C   UNL     1      16.476  -0.205  26.069  1.00  0.00     0.010 C 
ATOM      8  C   UNL     1      15.878   0.893  26.549  1.00  0.00     0.025 C 
BRANCH   8   9
ATOM      9  C   UNL     1      14.968   1.706  25.728  1.00  0.00     0.064 C 
ATOM     10  O   UNL     1      14.552   1.254  24.629  1.00  0.00    -0.545 OA
ATOM     11  O   UNL     1      14.561   2.969  26.143  1.00  0.00    -0.545 OA
ENDBRANCH   8   9
ENDBRANCH   1   7
BRANCH   4  12
ATOM     12  O   UNL     1      17.579  -2.959  30.026  1.00  0.00    -0.504 OA
ATOM     13  H   UNL     1      17.739  -3.932  30.258  1.00  0.00     0.293 HD
ENDBRANCH   4  12
BRANCH   6  14
ATOM     14  O   UNL     1      20.149  -3.454  28.967  1.00  0.00    -0.504 OA
ATOM     15  H   UNL     1      20.813  -3.050  29.617  1.00  0.00     0.293 HD
ENDBRANCH   6  14
TORSDOF 4
ENDMDL
MODEL 3
REMARK VINA RESULT:    -5.858      1.255      5.866
REMARK INTER + INTRA:          -7.009
REMARK INTER:                  -6.883
REMARK INTRA:                  -0.126
REMARK UNBOUND:                -0.124
REMARK SMILES O=C([O-])C=Cc1ccc(O)c(O)c1
REMARK SMILES IDX 6 1 13 2 7 3 11 4 8 5 9 6 5 7 4 8 2 9 1 10 3 11 12 12 10 14
REMARK H PARENT 12 13 10 15
REMARK Flexibility Score: inf
ROOT
ATOM      1  C   UNL     1      14.244 -13.440  28.825  1.00  0.00    -0.022 A 
ATOM      2  C   UNL     1      14.354 -14.490  29.760  1.00  0.00     0.058 A 
ATOM      3  C   UNL     1      14.693 -13.653  27.512  1.00  0.00     0.012 A 
ATOM      4  C   UNL     1      14.925 -15.714  29.394  1.00  0.00     0.157 A 
ATOM      5  C   UNL     1      15.265 -14.874  27.145  1.00  0.00     0.051 A 
ATOM      6  C   UNL     1      15.386 -15.908  28.082  1.00  0.00     0.157 A 
ENDROOT
BRANCH   1   7
ATOM      7  C   UNL     1      13.636 -12.129  29.164  1.00  0.00     0.010 C 
ATOM      8  C   UNL     1      12.440 -11.992  29.752  1.00  0.00     0.025 C 
BRANCH   8   9
ATOM      9  C   UNL     1      11.882 -10.672  30.080  1.00  0.00     0.064 C 
ATOM     10  O   UNL     1      12.579  -9.844  30.723  1.00  0.00    -0.545 OA
ATOM     11  O   UNL     1      10.593 -10.321  29.694  1.00  0.00    -0.545 OA
ENDBRANCH   8   9
ENDBRANCH   1   7
BRANCH   4  12
ATOM     12  O   UNL     1      15.019 -16.728  30.347  1.00  0.00    -0.504 OA
ATOM     13  H   UNL     1      15.905 -17.152  30.595  1.00  0.00     0.293 HD
ENDBRANCH   4  12
BRANCH   6  14
ATOM     14  O   UNL     1      15.958 -17.125  27.713  1.00  0.00    -0.504 OA
ATOM     15  H   UNL     1      15.536 -17.716  27.008  1.00  0.00     0.293 HD
ENDBRANCH   6  14
TORSDOF 4
ENDMDL
MODEL 4
REMARK VINA RESULT:    -5.647      0.926      2.185
REMARK INTER + INTRA:          -6.761
REMARK INTER:                  -6.612
REMARK INTRA:                  -0.149
REMARK UNBOUND:                -0.124
REMARK SMILES O=C([O-])C=Cc1ccc(O)c(O)c1
REMARK SMILES IDX 6 1 13 2 7 3 11 4 8 5 9 6 5 7 4 8 2 9 1 10 3 11 12 12 10 14
REMARK H PARENT 12 13 10 15
REMARK Flexibility Score: inf
ROOT
ATOM      1  C   UNL     1      13.523 -12.782  29.133  1.00  0.00    -0.022 A 
ATOM      2  C   UNL     1      12.250 -12.202  28.956  1.00  0.00     0.058 A 
ATOM      3  C   UNL     1      14.416 -12.192  30.041  1.00  0.00     0.012 A 
ATOM      4  C   UNL     1      11.891 -11.044  29.656  1.00  0.00     0.157 A 
ATOM      5  C   UNL     1      14.061 -11.035  30.739  1.00  0.00     0.051 A 
ATOM      6  C   UNL     1      12.800 -10.454  30.549  1.00  0.00     0.157 A 
ENDROOT
BRANCH   1   7
ATOM      7  C   UNL     1      13.944 -14.015  28.422  1.00  0.00     0.010 C 
ATOM      8  C   UNL     1      14.953 -14.799  28.825  1.00  0.00     0.025 C 
BRANCH   8   9
ATOM      9  C   UNL     1      15.328 -16.020  28.095  1.00  0.00     0.064 C 
ATOM     10  O   UNL     1      15.347 -17.124  28.699  1.00  0.00    -0.545 OA
ATOM     11  O   UNL     1      15.667 -15.975  26.747  1.00  0.00    -0.545 OA
ENDBRANCH   8   9
ENDBRANCH   1   7
BRANCH   4  12
ATOM     12  O   UNL     1      10.624 -10.497  29.454  1.00  0.00    -0.504 OA
ATOM     13  H   UNL     1      10.335 -10.125  28.557  1.00  0.00     0.293 HD
ENDBRANCH   4  12
BRANCH   6  14
ATOM     14  O   UNL     1      12.449  -9.298  31.245  1.00  0.00    -0.504 OA
ATOM     15  H   UNL     1      13.114  -8.551  31.401  1.00  0.00     0.293 HD
ENDBRANCH   6  14
TORSDOF 4
ENDMDL
MODEL 5
REMARK VINA RESULT:    -5.641     12.335     13.584
REMARK INTER + INTRA:          -6.755
REMARK INTER:                  -6.627
REMARK INTRA:                  -0.127
REMARK UNBOUND:                -0.124
REMARK SMILES O=C([O-])C=Cc1ccc(O)c(O)c1
REMARK SMILES IDX 6 1 13 2 7 3 11 4 8 5 9 6 5 7 4 8 2 9 1 10 3 11 12 12 10 14
REMARK H PARENT 12 13 10 15
REMARK Flexibility Score: inf
ROOT
ATOM      1  C   UNL     1      16.516  -0.551  27.018  1.00  0.00    -0.022 A 
ATOM      2  C   UNL     1      16.109   0.572  27.767  1.00  0.00     0.058 A 
ATOM      3  C   UNL     1      16.179  -0.615  25.656  1.00  0.00     0.012 A 
ATOM      4  C   UNL     1      15.360   1.593  27.172  1.00  0.00     0.157 A 
ATOM      5  C   UNL     1      15.429   0.403  25.061  1.00  0.00     0.051 A 
ATOM      6  C   UNL     1      15.014   1.509  25.814  1.00  0.00     0.157 A 
ENDROOT
BRANCH   1   7
ATOM      7  C   UNL     1      17.320  -1.653  27.602  1.00  0.00     0.010 C 
ATOM      8  C   UNL     1      18.653  -1.614  27.732  1.00  0.00     0.025 C 
BRANCH   8   9
ATOM      9  C   UNL     1      19.409  -2.726  28.329  1.00  0.00     0.064 C 
ATOM     10  O   UNL     1      18.835  -3.509  29.129  1.00  0.00    -0.545 OA
ATOM     11  O   UNL     1      20.751  -2.926  28.026  1.00  0.00    -0.545 OA
ENDBRANCH   8   9
ENDBRANCH   1   7
BRANCH   4  12
ATOM     12  O   UNL     1      14.973   2.687  27.946  1.00  0.00    -0.504 OA
ATOM     13  H   UNL     1      15.205   2.760  28.930  1.00  0.00     0.293 HD
ENDBRANCH   4  12
BRANCH   6  14
ATOM     14  O   UNL     1      14.265   2.522  25.217  1.00  0.00    -0.504 OA
ATOM     15  H   UNL     1      13.323   2.358  24.883  1.00  0.00     0.293 HD
ENDBRANCH   6  14
TORSDOF 4
ENDMDL
MODEL 6
REMARK VINA RESULT:    -5.488      1.138      5.983
REMARK INTER + INTRA:          -6.575
REMARK INTER:                  -6.438
REMARK INTRA:                  -0.137
REMARK UNBOUND:                -0.124
REMARK SMILES O=C([O-])C=Cc1ccc(O)c(O)c1
REMARK SMILES IDX 6 1 13 2 7 3 11 4 8 5 9 6 5 7 4 8 2 9 1 10 3 11 12 12 10 14
REMARK H PARENT 12 13 10 15
REMARK Flexibility Score: inf
ROOT
ATOM      1  C   UNL     1      13.815 -13.240  28.882  1.00  0.00    -0.022 A 
ATOM      2  C   UNL     1      14.422 -13.593  27.660  1.00  0.00     0.058 A 
ATOM      3  C   UNL     1      14.023 -14.060  30.003  1.00  0.00     0.012 A 
ATOM      4  C   UNL     1      15.198 -14.753  27.557  1.00  0.00     0.157 A 
ATOM      5  C   UNL     1      14.795 -15.220  29.902  1.00  0.00     0.051 A 
ATOM      6  C   UNL     1      15.383 -15.574  28.681  1.00  0.00     0.157 A 
ENDROOT
BRANCH   1   7
ATOM      7  C   UNL     1      12.994 -12.014  29.042  1.00  0.00     0.010 C 
ATOM      8  C   UNL     1      11.727 -12.018  29.478  1.00  0.00     0.025 C 
BRANCH   8   9
ATOM      9  C   UNL     1      10.954 -10.776  29.632  1.00  0.00     0.064 C 
ATOM     10  O   UNL     1      11.479  -9.784  30.203  1.00  0.00    -0.545 OA
ATOM     11  O   UNL     1       9.650 -10.678  29.160  1.00  0.00    -0.545 OA
ENDBRANCH   8   9
ENDBRANCH   1   7
BRANCH   4  12
ATOM     12  O   UNL     1      15.781 -15.071  26.331  1.00  0.00    -0.504 OA
ATOM     13  H   UNL     1      16.329 -14.401  25.805  1.00  0.00     0.293 HD
ENDBRANCH   4  12
BRANCH   6  14
ATOM     14  O   UNL     1      16.152 -16.733  28.583  1.00  0.00    -0.504 OA
ATOM     15  H   UNL     1      16.878 -16.830  27.883  1.00  0.00     0.293 HD
ENDBRANCH   6  14
TORSDOF 4
ENDMDL
MODEL 7
REMARK VINA RESULT:    -5.436     12.125     13.480
REMARK INTER + INTRA:          -6.513
REMARK INTER:                  -6.381
REMARK INTRA:                  -0.133
REMARK UNBOUND:                -0.124
REMARK SMILES O=C([O-])C=Cc1ccc(O)c(O)c1
REMARK SMILES IDX 6 1 13 2 7 3 11 4 8 5 9 6 5 7 4 8 2 9 1 10 3 11 12 12 10 14
REMARK H PARENT 12 13 10 15
REMARK Flexibility Score: inf
ROOT
ATOM      1  C   UNL     1      16.466  -0.583  27.424  1.00  0.00    -0.022 A 
ATOM      2  C   UNL     1      15.890  -0.545  26.137  1.00  0.00     0.058 A 
ATOM      3  C   UNL     1      16.187   0.459  28.322  1.00  0.00     0.012 A 
ATOM      4  C   UNL     1      15.076   0.526  25.752  1.00  0.00     0.157 A 
ATOM      5  C   UNL     1      15.377   1.531  27.938  1.00  0.00     0.051 A 
ATOM      6  C   UNL     1      14.820   1.571  26.653  1.00  0.00     0.157 A 
ENDROOT
BRANCH   1   7
ATOM      7  C   UNL     1      17.326  -1.704  27.881  1.00  0.00     0.010 C 
ATOM      8  C   UNL     1      18.664  -1.650  27.913  1.00  0.00     0.025 C 
BRANCH   8   9
ATOM      9  C   UNL     1      19.477  -2.782  28.385  1.00  0.00     0.064 C 
ATOM     10  O   UNL     1      18.977  -3.614  29.186  1.00  0.00    -0.545 OA
ATOM     11  O   UNL     1      20.791  -2.947  27.964  1.00  0.00    -0.545 OA
ENDBRANCH   8   9
ENDBRANCH   1   7
BRANCH   4  12
ATOM     12  O   UNL     1      14.526   0.531  24.470  1.00  0.00    -0.504 OA
ATOM     13  H   UNL     1      15.065   0.273  23.652  1.00  0.00     0.293 HD
ENDBRANCH   4  12
BRANCH   6  14
ATOM     14  O   UNL     1      14.013   2.643  26.273  1.00  0.00    -0.504 OA
ATOM     15  H   UNL     1      14.301   3.602  26.421  1.00  0.00     0.293 HD
ENDBRANCH   6  14
TORSDOF 4
ENDMDL
MODEL 8
REMARK VINA RESULT:    -5.406     12.057     14.201
REMARK INTER + INTRA:          -6.478
REMARK INTER:                  -6.328
REMARK INTRA:                  -0.149
REMARK UNBOUND:                -0.124
REMARK SMILES O=C([O-])C=Cc1ccc(O)c(O)c1
REMARK SMILES IDX 6 1 13 2 7 3 11 4 8 5 9 6 5 7 4 8 2 9 1 10 3 11 12 12 10 14
REMARK H PARENT 12 13 10 15
REMARK Flexibility Score: inf
ROOT
ATOM      1  C   UNL     1      17.168  -1.055  26.902  1.00  0.00    -0.022 A 
ATOM      2  C   UNL     1      18.293  -1.731  26.384  1.00  0.00     0.058 A 
ATOM      3  C   UNL     1      16.830  -1.239  28.252  1.00  0.00     0.012 A 
ATOM      4  C   UNL     1      19.044  -2.590  27.194  1.00  0.00     0.157 A 
ATOM      5  C   UNL     1      17.577  -2.098  29.062  1.00  0.00     0.051 A 
ATOM      6  C   UNL     1      18.684  -2.778  28.538  1.00  0.00     0.157 A 
ENDROOT
BRANCH   1   7
ATOM      7  C   UNL     1      16.348  -0.126  26.084  1.00  0.00     0.010 C 
ATOM      8  C   UNL     1      15.741   0.962  26.577  1.00  0.00     0.025 C 
BRANCH   8   9
ATOM      9  C   UNL     1      14.947   1.862  25.727  1.00  0.00     0.064 C 
ATOM     10  O   UNL     1      14.602   1.485  24.577  1.00  0.00    -0.545 OA
ATOM     11  O   UNL     1      14.574   3.125  26.171  1.00  0.00    -0.545 OA
ENDBRANCH   8   9
ENDBRANCH   1   7
BRANCH   4  12
ATOM     12  O   UNL     1      20.148  -3.242  26.647  1.00  0.00    -0.504 OA
ATOM     13  H   UNL     1      20.116  -3.683  25.735  1.00  0.00     0.293 HD
ENDBRANCH   4  12
BRANCH   6  14
ATOM     14  O   UNL     1      19.427  -3.636  29.349  1.00  0.00    -0.504 OA
ATOM     15  H   UNL     1      19.830  -3.322  30.223  1.00  0.00     0.293 HD
ENDBRANCH   6  14
TORSDOF 4
ENDMDL
MODEL 9
REMARK VINA RESULT:    -3.863      9.826     10.795
REMARK INTER + INTRA:          -4.664
REMARK INTER:                  -4.523
REMARK INTRA:                  -0.141
REMARK UNBOUND:                -0.124
REMARK SMILES O=C([O-])C=Cc1ccc(O)c(O)c1
REMARK SMILES IDX 6 1 13 2 7 3 11 4 8 5 9 6 5 7 4 8 2 9 1 10 3 11 12 12 10 14
REMARK H PARENT 12 13 10 15
REMARK Flexibility Score: inf
ROOT
ATOM      1  C   UNL     1      16.498  -2.981  27.378  1.00  0.00    -0.022 A 
ATOM      2  C   UNL     1      17.034  -2.603  28.626  1.00  0.00     0.058 A 
ATOM      3  C   UNL     1      15.677  -2.073  26.690  1.00  0.00     0.012 A 
ATOM      4  C   UNL     1      16.733  -1.354  29.183  1.00  0.00     0.157 A 
ATOM      5  C   UNL     1      15.374  -0.827  27.245  1.00  0.00     0.051 A 
ATOM      6  C   UNL     1      15.896  -0.462  28.493  1.00  0.00     0.157 A 
ENDROOT
BRANCH   1   7
ATOM      7  C   UNL     1      16.798  -4.289  26.744  1.00  0.00     0.010 C 
ATOM      8  C   UNL     1      15.861  -5.108  26.248  1.00  0.00     0.025 C 
BRANCH   8   9
ATOM      9  C   UNL     1      16.206  -6.391  25.616  1.00  0.00     0.064 C 
ATOM     10  O   UNL     1      17.248  -6.999  25.973  1.00  0.00    -0.545 OA
ATOM     11  O   UNL     1      15.400  -6.943  24.627  1.00  0.00    -0.545 OA
ENDBRANCH   8   9
ENDBRANCH   1   7
BRANCH   4  12
ATOM     12  O   UNL     1      17.279  -1.016  30.421  1.00  0.00    -0.504 OA
ATOM     13  H   UNL     1      16.801  -0.404  31.071  1.00  0.00     0.293 HD
ENDBRANCH   4  12
BRANCH   6  14
ATOM     14  O   UNL     1      15.591   0.781  29.045  1.00  0.00    -0.504 OA
ATOM     15  H   UNL     1      15.168   0.864  29.962  1.00  0.00     0.293 HD
ENDBRANCH   6  14
TORSDOF 4
ENDMDL
