MODEL 1
REMARK VINA RESULT:    -7.526      0.000      0.000
REMARK INTER + INTRA:         -12.046
REMARK INTER:                 -11.265
REMARK INTRA:                  -0.781
REMARK UNBOUND:                -0.781
REMARK SMILES C[C@@]12C[C@@]3(O)O[C@@H](O1)[C@]1(COC(=O)c4ccccc4)[C@H]3C[C@@]12O[C@H]1O[C@@H](CO)[C@H](O)[C@@H](O)[C@@H]1O
REMARK SMILES IDX 1 1 2 2 3 3 4 4 20 5 21 6 22 7 9 8 7 9 8 10 6 11 23 12 24 13
REMARK SMILES IDX 33 14 25 15 31 16 26 17 29 18 34 19 32 21 27 23 28 24 30 26
REMARK SMILES IDX 5 28 10 30 11 31 12 32 13 33 14 34 15 35 19 36 16 37 18 38
REMARK SMILES IDX 17 39
REMARK H PARENT 34 20 32 22 28 25 30 27 5 29
REMARK Flexibility Score: inf
ROOT
ATOM      1  C   UNL     1     138.126 138.911 139.202  1.00  0.00     0.046 C 
ATOM      2  C   UNL     1     138.667 138.263 140.478  1.00  0.00     0.104 C 
ATOM      3  C   UNL     1     137.613 138.357 141.643  1.00  0.00     0.104 C 
ATOM      4  C   UNL     1     138.341 137.680 142.861  1.00  0.00     0.175 C 
ATOM      5  C   UNL     1     139.783 138.255 143.039  1.00  0.00     0.070 C 
ATOM      6  C   UNL     1     139.975 139.602 142.329  1.00  0.00     0.050 C 
ATOM      7  C   UNL     1     140.060 138.801 141.007  1.00  0.00     0.115 C 
ATOM      8  C   UNL     1     140.434 137.574 141.847  1.00  0.00     0.096 C 
ATOM      9  C   UNL     1     139.510 136.441 141.443  1.00  0.00     0.267 C 
ATOM     10  O   UNL     1     138.872 136.880 140.257  1.00  0.00    -0.342 OA
ATOM     11  O   UNL     1     138.548 136.336 142.482  1.00  0.00    -0.320 OA
ENDROOT
BRANCH   7  12
ATOM     12  O   UNL     1     141.079 139.126 140.067  1.00  0.00    -0.339 OA
BRANCH  12  13
ATOM     13  C   UNL     1     141.789 140.306 140.411  1.00  0.00     0.282 C 
ATOM     14  C   UNL     1     141.677 141.312 139.239  1.00  0.00     0.202 C 
ATOM     15  O   UNL     1     143.120 139.996 140.823  1.00  0.00    -0.341 OA
ATOM     16  C   UNL     1     142.741 142.404 139.388  1.00  0.00     0.179 C 
ATOM     17  C   UNL     1     144.145 140.287 139.887  1.00  0.00     0.178 C 
ATOM     18  C   UNL     1     144.162 141.791 139.483  1.00  0.00     0.177 C 
BRANCH  14  19
ATOM     19  O   UNL     1     140.402 141.900 139.235  1.00  0.00    -0.385 OA
ATOM     20  H   UNL     1     140.338 142.452 140.057  1.00  0.00     0.211 HD
ENDBRANCH  14  19
BRANCH  16  21
ATOM     21  O   UNL     1     142.689 143.285 138.294  1.00  0.00    -0.387 OA
ATOM     22  H   UNL     1     141.756 143.266 137.945  1.00  0.00     0.211 HD
ENDBRANCH  16  21
BRANCH  17  23
ATOM     23  C   UNL     1     144.129 139.312 138.684  1.00  0.00     0.191 C 
BRANCH  23  24
ATOM     24  O   UNL     1     143.713 138.031 139.085  1.00  0.00    -0.394 OA
ATOM     25  H   UNL     1     142.826 138.141 139.515  1.00  0.00     0.210 HD
ENDBRANCH  23  24
ENDBRANCH  17  23
BRANCH  18  26
ATOM     26  O   UNL     1     144.941 142.536 140.388  1.00  0.00    -0.387 OA
ATOM     27  H   UNL     1     145.636 141.927 140.756  1.00  0.00     0.211 HD
ENDBRANCH  18  26
ENDBRANCH  12  13
ENDBRANCH   7  12
BRANCH   4  28
ATOM     28  O   UNL     1     137.583 137.748 144.040  1.00  0.00    -0.365 OA
ATOM     29  H   UNL     1     137.353 136.816 144.287  1.00  0.00     0.214 HD
ENDBRANCH   4  28
BRANCH   8  30
ATOM     30  C   UNL     1     141.922 137.214 141.997  1.00  0.00     0.249 C 
BRANCH  30  31
ATOM     31  O   UNL     1     142.261 136.053 141.059  1.00  0.00    -0.461 OA
BRANCH  31  32
ATOM     32  C   UNL     1     143.575 135.457 141.076  1.00  0.00     0.338 C 
ATOM     33  O   UNL     1     142.780 136.317 141.547  1.00  0.00    -0.246 OA
BRANCH  32  34
ATOM     34  C   UNL     1     144.077 134.412 141.983  1.00  0.00     0.060 A 
ATOM     35  C   UNL     1     145.264 134.579 142.718  1.00  0.00     0.015 A 
ATOM     36  C   UNL     1     143.368 133.210 142.088  1.00  0.00     0.015 A 
ATOM     37  C   UNL     1     145.732 133.550 143.544  1.00  0.00     0.001 A 
ATOM     38  C   UNL     1     143.861 132.168 142.882  1.00  0.00     0.001 A 
ATOM     39  C   UNL     1     145.031 132.343 143.624  1.00  0.00     0.000 A 
ENDBRANCH  32  34
ENDBRANCH  31  32
ENDBRANCH  30  31
ENDBRANCH   8  30
TORSDOF 12
ENDMDL
MODEL 2
REMARK VINA RESULT:    -7.401      7.950     11.884
REMARK INTER + INTRA:         -11.860
REMARK INTER:                 -10.920
REMARK INTRA:                  -0.940
REMARK UNBOUND:                -0.781
REMARK SMILES C[C@@]12C[C@@]3(O)O[C@@H](O1)[C@]1(COC(=O)c4ccccc4)[C@H]3C[C@@]12O[C@H]1O[C@@H](CO)[C@H](O)[C@@H](O)[C@@H]1O
REMARK SMILES IDX 1 1 2 2 3 3 4 4 20 5 21 6 22 7 9 8 7 9 8 10 6 11 23 12 24 13
REMARK SMILES IDX 33 14 25 15 31 16 26 17 29 18 34 19 32 21 27 23 28 24 30 26
REMARK SMILES IDX 5 28 10 30 11 31 12 32 13 33 14 34 15 35 19 36 16 37 18 38
REMARK SMILES IDX 17 39
REMARK H PARENT 34 20 32 22 28 25 30 27 5 29
REMARK Flexibility Score: inf
ROOT
ATOM      1  C   UNL     1     130.759 135.414 142.016  1.00  0.00     0.046 C 
ATOM      2  C   UNL     1     132.208 135.874 141.850  1.00  0.00     0.104 C 
ATOM      3  C   UNL     1     133.200 134.660 141.995  1.00  0.00     0.104 C 
ATOM      4  C   UNL     1     134.619 135.316 141.829  1.00  0.00     0.175 C 
ATOM      5  C   UNL     1     134.760 136.577 142.740  1.00  0.00     0.070 C 
ATOM      6  C   UNL     1     133.724 136.610 143.872  1.00  0.00     0.050 C 
ATOM      7  C   UNL     1     132.691 137.042 142.803  1.00  0.00     0.115 C 
ATOM      8  C   UNL     1     133.870 137.517 141.945  1.00  0.00     0.096 C 
ATOM      9  C   UNL     1     133.714 136.899 140.569  1.00  0.00     0.267 C 
ATOM     10  O   UNL     1     132.401 136.371 140.539  1.00  0.00    -0.342 OA
ATOM     11  O   UNL     1     134.650 135.831 140.516  1.00  0.00    -0.320 OA
ENDROOT
BRANCH   7  12
ATOM     12  O   UNL     1     131.794 138.108 143.101  1.00  0.00    -0.339 OA
BRANCH  12  13
ATOM     13  C   UNL     1     130.450 137.809 142.756  1.00  0.00     0.282 C 
ATOM     14  C   UNL     1     129.947 138.873 141.750  1.00  0.00     0.202 C 
ATOM     15  O   UNL     1     129.648 137.651 143.926  1.00  0.00    -0.341 OA
ATOM     16  C   UNL     1     128.418 138.831 141.670  1.00  0.00     0.179 C 
ATOM     17  C   UNL     1     128.774 138.724 144.231  1.00  0.00     0.178 C 
ATOM     18  C   UNL     1     127.780 139.021 143.069  1.00  0.00     0.177 C 
BRANCH  14  19
ATOM     19  O   UNL     1     130.488 138.621 140.479  1.00  0.00    -0.385 OA
ATOM     20  H   UNL     1     129.769 138.800 139.820  1.00  0.00     0.211 HD
ENDBRANCH  14  19
BRANCH  16  21
ATOM     21  O   UNL     1     127.950 139.838 140.806  1.00  0.00    -0.387 OA
ATOM     22  H   UNL     1     127.210 139.443 140.268  1.00  0.00     0.211 HD
ENDBRANCH  16  21
BRANCH  17  23
ATOM     23  C   UNL     1     129.537 139.972 144.740  1.00  0.00     0.191 C 
BRANCH  23  24
ATOM     24  O   UNL     1     130.378 139.637 145.816  1.00  0.00    -0.394 OA
ATOM     25  H   UNL     1     129.805 139.213 146.505  1.00  0.00     0.210 HD
ENDBRANCH  23  24
ENDBRANCH  17  23
BRANCH  18  26
ATOM     26  O   UNL     1     126.633 138.212 143.182  1.00  0.00    -0.387 OA
ATOM     27  H   UNL     1     126.699 137.503 142.489  1.00  0.00     0.211 HD
ENDBRANCH  18  26
ENDBRANCH  12  13
ENDBRANCH   7  12
BRANCH   4  28
ATOM     28  O   UNL     1     135.658 134.393 142.021  1.00  0.00    -0.365 OA
ATOM     29  H   UNL     1     135.838 133.976 141.139  1.00  0.00     0.214 HD
ENDBRANCH   4  28
BRANCH   8  30
ATOM     30  C   UNL     1     134.248 139.007 141.979  1.00  0.00     0.249 C 
BRANCH  30  31
ATOM     31  O   UNL     1     133.415 139.768 140.945  1.00  0.00    -0.461 OA
BRANCH  31  32
ATOM     32  C   UNL     1     133.997 140.847 140.185  1.00  0.00     0.338 C 
ATOM     33  O   UNL     1     132.997 140.109 140.410  1.00  0.00    -0.246 OA
BRANCH  32  34
ATOM     34  C   UNL     1     133.853 142.293 140.420  1.00  0.00     0.060 A 
ATOM     35  C   UNL     1     132.857 143.051 139.778  1.00  0.00     0.015 A 
ATOM     36  C   UNL     1     134.754 142.931 141.281  1.00  0.00     0.015 A 
ATOM     37  C   UNL     1     132.771 144.431 139.997  1.00  0.00     0.001 A 
ATOM     38  C   UNL     1     134.690 144.318 141.464  1.00  0.00     0.001 A 
ATOM     39  C   UNL     1     133.691 145.065 140.839  1.00  0.00     0.000 A 
ENDBRANCH  32  34
ENDBRANCH  31  32
ENDBRANCH  30  31
ENDBRANCH   8  30
TORSDOF 12
ENDMDL
MODEL 3
REMARK VINA RESULT:    -7.360      5.386      8.174
REMARK INTER + INTRA:         -11.798
REMARK INTER:                 -11.138
REMARK INTRA:                  -0.661
REMARK UNBOUND:                -0.781
REMARK SMILES C[C@@]12C[C@@]3(O)O[C@@H](O1)[C@]1(COC(=O)c4ccccc4)[C@H]3C[C@@]12O[C@H]1O[C@@H](CO)[C@H](O)[C@@H](O)[C@@H]1O
REMARK SMILES IDX 1 1 2 2 3 3 4 4 20 5 21 6 22 7 9 8 7 9 8 10 6 11 23 12 24 13
REMARK SMILES IDX 33 14 25 15 31 16 26 17 29 18 34 19 32 21 27 23 28 24 30 26
REMARK SMILES IDX 5 28 10 30 11 31 12 32 13 33 14 34 15 35 19 36 16 37 18 38
REMARK SMILES IDX 17 39
REMARK H PARENT 34 20 32 22 28 25 30 27 5 29
REMARK Flexibility Score: inf
ROOT
ATOM      1  C   UNL     1     131.313 135.557 139.682  1.00  0.00     0.046 C 
ATOM      2  C   UNL     1     131.986 135.420 141.049  1.00  0.00     0.104 C 
ATOM      3  C   UNL     1     131.036 134.690 142.070  1.00  0.00     0.104 C 
ATOM      4  C   UNL     1     131.867 134.667 143.403  1.00  0.00     0.175 C 
ATOM      5  C   UNL     1     132.448 136.082 143.723  1.00  0.00     0.070 C 
ATOM      6  C   UNL     1     131.724 137.205 142.966  1.00  0.00     0.050 C 
ATOM      7  C   UNL     1     132.514 136.757 141.712  1.00  0.00     0.115 C 
ATOM      8  C   UNL     1     133.534 136.113 142.660  1.00  0.00     0.096 C 
ATOM      9  C   UNL     1     133.736 134.679 142.211  1.00  0.00     0.267 C 
ATOM     10  O   UNL     1     133.130 134.595 140.934  1.00  0.00    -0.342 OA
ATOM     11  O   UNL     1     133.005 133.879 143.130  1.00  0.00    -0.320 OA
ENDROOT
BRANCH   7  12
ATOM     12  O   UNL     1     133.117 137.749 140.886  1.00  0.00    -0.339 OA
BRANCH  12  13
ATOM     13  C   UNL     1     132.569 139.043 141.089  1.00  0.00     0.282 C 
ATOM     14  C   UNL     1     131.815 139.470 139.806  1.00  0.00     0.202 C 
ATOM     15  O   UNL     1     133.571 139.954 141.539  1.00  0.00    -0.341 OA
ATOM     16  C   UNL     1     131.568 140.981 139.828  1.00  0.00     0.179 C 
ATOM     17  C   UNL     1     134.043 140.884 140.579  1.00  0.00     0.178 C 
ATOM     18  C   UNL     1     132.895 141.763 139.999  1.00  0.00     0.177 C 
BRANCH  14  19
ATOM     19  O   UNL     1     130.586 138.796 139.729  1.00  0.00    -0.385 OA
ATOM     20  H   UNL     1     130.742 137.975 139.194  1.00  0.00     0.211 HD
ENDBRANCH  14  19
BRANCH  16  21
ATOM     21  O   UNL     1     130.941 141.387 138.636  1.00  0.00    -0.387 OA
ATOM     22  H   UNL     1     131.289 142.294 138.415  1.00  0.00     0.211 HD
ENDBRANCH  16  21
BRANCH  17  23
ATOM     23  C   UNL     1     134.926 140.210 139.500  1.00  0.00     0.191 C 
BRANCH  23  24
ATOM     24  O   UNL     1     135.760 139.237 140.075  1.00  0.00    -0.394 OA
ATOM     25  H   UNL     1     136.557 139.713 140.424  1.00  0.00     0.210 HD
ENDBRANCH  23  24
ENDBRANCH  17  23
BRANCH  18  26
ATOM     26  O   UNL     1     132.680 142.892 140.811  1.00  0.00    -0.387 OA
ATOM     27  H   UNL     1     133.122 143.666 140.370  1.00  0.00     0.211 HD
ENDBRANCH  18  26
ENDBRANCH  12  13
ENDBRANCH   7  12
BRANCH   4  28
ATOM     28  O   UNL     1     131.140 134.128 144.475  1.00  0.00    -0.365 OA
ATOM     29  H   UNL     1     130.207 134.453 144.381  1.00  0.00     0.214 HD
ENDBRANCH   4  28
BRANCH   8  30
ATOM     30  C   UNL     1     134.808 136.900 143.010  1.00  0.00     0.249 C 
BRANCH  30  31
ATOM     31  O   UNL     1     136.035 136.026 142.739  1.00  0.00    -0.461 OA
BRANCH  31  32
ATOM     32  C   UNL     1     136.960 136.367 141.687  1.00  0.00     0.338 C 
ATOM     33  O   UNL     1     136.435 136.669 142.795  1.00  0.00    -0.246 OA
BRANCH  32  34
ATOM     34  C   UNL     1     138.413 136.132 141.655  1.00  0.00     0.060 A 
ATOM     35  C   UNL     1     139.012 135.097 142.396  1.00  0.00     0.015 A 
ATOM     36  C   UNL     1     139.219 136.984 140.889  1.00  0.00     0.015 A 
ATOM     37  C   UNL     1     140.401 134.925 142.370  1.00  0.00     0.001 A 
ATOM     38  C   UNL     1     140.611 136.833 140.900  1.00  0.00     0.001 A 
ATOM     39  C   UNL     1     141.201 135.795 141.624  1.00  0.00     0.000 A 
ENDBRANCH  32  34
ENDBRANCH  31  32
ENDBRANCH  30  31
ENDBRANCH   8  30
TORSDOF 12
ENDMDL
MODEL 4
REMARK VINA RESULT:    -7.269      1.419      5.280
REMARK INTER + INTRA:         -11.662
REMARK INTER:                 -11.049
REMARK INTRA:                  -0.613
REMARK UNBOUND:                -0.781
REMARK SMILES C[C@@]12C[C@@]3(O)O[C@@H](O1)[C@]1(COC(=O)c4ccccc4)[C@H]3C[C@@]12O[C@H]1O[C@@H](CO)[C@H](O)[C@@H](O)[C@@H]1O
REMARK SMILES IDX 1 1 2 2 3 3 4 4 20 5 21 6 22 7 9 8 7 9 8 10 6 11 23 12 24 13
REMARK SMILES IDX 33 14 25 15 31 16 26 17 29 18 34 19 32 21 27 23 28 24 30 26
REMARK SMILES IDX 5 28 10 30 11 31 12 32 13 33 14 34 15 35 19 36 16 37 18 38
REMARK SMILES IDX 17 39
REMARK H PARENT 34 20 32 22 28 25 30 27 5 29
REMARK Flexibility Score: inf
ROOT
ATOM      1  C   UNL     1     140.618 141.400 140.871  1.00  0.00     0.046 C 
ATOM      2  C   UNL     1     141.828 140.700 140.250  1.00  0.00     0.104 C 
ATOM      3  C   UNL     1     142.653 141.699 139.355  1.00  0.00     0.104 C 
ATOM      4  C   UNL     1     143.819 140.813 138.784  1.00  0.00     0.175 C 
ATOM      5  C   UNL     1     143.265 139.478 138.190  1.00  0.00     0.070 C 
ATOM      6  C   UNL     1     141.762 139.543 137.886  1.00  0.00     0.050 C 
ATOM      7  C   UNL     1     141.531 139.391 139.409  1.00  0.00     0.115 C 
ATOM      8  C   UNL     1     142.935 138.781 139.499  1.00  0.00     0.096 C 
ATOM      9  C   UNL     1     143.690 139.525 140.584  1.00  0.00     0.267 C 
ATOM     10  O   UNL     1     142.712 140.282 141.273  1.00  0.00    -0.342 OA
ATOM     11  O   UNL     1     144.573 140.407 139.906  1.00  0.00    -0.320 OA
ENDROOT
BRANCH   7  12
ATOM     12  O   UNL     1     140.533 138.484 139.869  1.00  0.00    -0.339 OA
BRANCH  12  13
ATOM     13  C   UNL     1     139.789 138.994 140.965  1.00  0.00     0.282 C 
ATOM     14  C   UNL     1     140.011 138.071 142.188  1.00  0.00     0.202 C 
ATOM     15  O   UNL     1     138.425 139.204 140.600  1.00  0.00    -0.341 OA
ATOM     16  C   UNL     1     138.934 138.340 143.244  1.00  0.00     0.179 C 
ATOM     17  C   UNL     1     137.496 138.254 141.094  1.00  0.00     0.178 C 
ATOM     18  C   UNL     1     137.513 138.169 142.649  1.00  0.00     0.177 C 
BRANCH  14  19
ATOM     19  O   UNL     1     141.279 138.311 142.742  1.00  0.00    -0.385 OA
ATOM     20  H   UNL     1     141.735 138.959 142.145  1.00  0.00     0.211 HD
ENDBRANCH  14  19
BRANCH  16  21
ATOM     21  O   UNL     1     139.091 137.461 144.331  1.00  0.00    -0.387 OA
ATOM     22  H   UNL     1     139.710 136.737 144.037  1.00  0.00     0.211 HD
ENDBRANCH  16  21
BRANCH  17  23
ATOM     23  C   UNL     1     137.631 136.883 140.387  1.00  0.00     0.191 C 
BRANCH  23  24
ATOM     24  O   UNL     1     137.502 135.831 141.311  1.00  0.00    -0.394 OA
ATOM     25  H   UNL     1     138.390 135.714 141.736  1.00  0.00     0.210 HD
ENDBRANCH  23  24
ENDBRANCH  17  23
BRANCH  18  26
ATOM     26  O   UNL     1     136.647 139.129 143.206  1.00  0.00    -0.387 OA
ATOM     27  H   UNL     1     135.904 139.271 142.561  1.00  0.00     0.211 HD
ENDBRANCH  18  26
ENDBRANCH  12  13
ENDBRANCH   7  12
BRANCH   4  28
ATOM     28  O   UNL     1     144.625 141.515 137.875  1.00  0.00    -0.365 OA
ATOM     29  H   UNL     1     145.047 140.838 137.285  1.00  0.00     0.214 HD
ENDBRANCH   4  28
BRANCH   8  30
ATOM     30  C   UNL     1     143.070 137.249 139.509  1.00  0.00     0.249 C 
BRANCH  30  31
ATOM     31  O   UNL     1     143.255 136.764 140.949  1.00  0.00    -0.461 OA
BRANCH  31  32
ATOM     32  C   UNL     1     142.862 135.429 141.329  1.00  0.00     0.338 C 
ATOM     33  O   UNL     1     143.412 136.186 140.481  1.00  0.00    -0.246 OA
BRANCH  32  34
ATOM     34  C   UNL     1     143.692 134.395 141.969  1.00  0.00     0.060 A 
ATOM     35  C   UNL     1     145.025 134.642 142.341  1.00  0.00     0.015 A 
ATOM     36  C   UNL     1     143.144 133.124 142.180  1.00  0.00     0.015 A 
ATOM     37  C   UNL     1     145.797 133.624 142.915  1.00  0.00     0.001 A 
ATOM     38  C   UNL     1     143.932 132.098 142.714  1.00  0.00     0.001 A 
ATOM     39  C   UNL     1     145.250 132.351 143.099  1.00  0.00     0.000 A 
ENDBRANCH  32  34
ENDBRANCH  31  32
ENDBRANCH  30  31
ENDBRANCH   8  30
TORSDOF 12
ENDMDL
MODEL 5
REMARK VINA RESULT:    -7.226      7.214     10.743
REMARK INTER + INTRA:         -11.597
REMARK INTER:                 -10.766
REMARK INTRA:                  -0.831
REMARK UNBOUND:                -0.781
REMARK SMILES C[C@@]12C[C@@]3(O)O[C@@H](O1)[C@]1(COC(=O)c4ccccc4)[C@H]3C[C@@]12O[C@H]1O[C@@H](CO)[C@H](O)[C@@H](O)[C@@H]1O
REMARK SMILES IDX 1 1 2 2 3 3 4 4 20 5 21 6 22 7 9 8 7 9 8 10 6 11 23 12 24 13
REMARK SMILES IDX 33 14 25 15 31 16 26 17 29 18 34 19 32 21 27 23 28 24 30 26
REMARK SMILES IDX 5 28 10 30 11 31 12 32 13 33 14 34 15 35 19 36 16 37 18 38
REMARK SMILES IDX 17 39
REMARK H PARENT 34 20 32 22 28 25 30 27 5 29
REMARK Flexibility Score: inf
ROOT
ATOM      1  C   UNL     1     135.354 137.062 143.299  1.00  0.00     0.046 C 
ATOM      2  C   UNL     1     134.423 136.524 142.212  1.00  0.00     0.104 C 
ATOM      3  C   UNL     1     135.039 135.247 141.529  1.00  0.00     0.104 C 
ATOM      4  C   UNL     1     133.979 134.858 140.437  1.00  0.00     0.175 C 
ATOM      5  C   UNL     1     133.574 136.103 139.584  1.00  0.00     0.070 C 
ATOM      6  C   UNL     1     134.592 137.247 139.686  1.00  0.00     0.050 C 
ATOM      7  C   UNL     1     133.993 137.547 141.082  1.00  0.00     0.115 C 
ATOM      8  C   UNL     1     132.726 136.811 140.628  1.00  0.00     0.096 C 
ATOM      9  C   UNL     1     132.393 135.776 141.684  1.00  0.00     0.267 C 
ATOM     10  O   UNL     1     133.207 136.096 142.797  1.00  0.00    -0.342 OA
ATOM     11  O   UNL     1     132.804 134.527 141.146  1.00  0.00    -0.320 OA
ENDROOT
BRANCH   7  12
ATOM     12  O   UNL     1     133.718 138.898 141.439  1.00  0.00    -0.339 OA
BRANCH  12  13
ATOM     13  C   UNL     1     134.658 139.813 140.897  1.00  0.00     0.282 C 
ATOM     14  C   UNL     1     135.035 140.843 141.990  1.00  0.00     0.202 C 
ATOM     15  O   UNL     1     134.176 140.371 139.675  1.00  0.00    -0.341 OA
ATOM     16  C   UNL     1     135.709 142.059 141.347  1.00  0.00     0.179 C 
ATOM     17  C   UNL     1     133.710 141.708 139.742  1.00  0.00     0.178 C 
ATOM     18  C   UNL     1     134.806 142.688 140.256  1.00  0.00     0.177 C 
BRANCH  14  19
ATOM     19  O   UNL     1     135.913 140.256 142.915  1.00  0.00    -0.385 OA
ATOM     20  H   UNL     1     136.773 140.747 142.846  1.00  0.00     0.211 HD
ENDBRANCH  14  19
BRANCH  16  21
ATOM     21  O   UNL     1     135.997 143.027 142.326  1.00  0.00    -0.387 OA
ATOM     22  H   UNL     1     135.990 142.565 143.208  1.00  0.00     0.211 HD
ENDBRANCH  16  21
BRANCH  17  23
ATOM     23  C   UNL     1     132.363 141.819 140.498  1.00  0.00     0.191 C 
BRANCH  23  24
ATOM     24  O   UNL     1     131.355 141.103 139.829  1.00  0.00    -0.394 OA
ATOM     25  H   UNL     1     131.002 141.701 139.121  1.00  0.00     0.210 HD
ENDBRANCH  23  24
ENDBRANCH  17  23
BRANCH  18  26
ATOM     26  O   UNL     1     135.600 143.145 139.188  1.00  0.00    -0.387 OA
ATOM     27  H   UNL     1     135.429 142.547 138.412  1.00  0.00     0.211 HD
ENDBRANCH  18  26
ENDBRANCH  12  13
ENDBRANCH   7  12
BRANCH   4  28
ATOM     28  O   UNL     1     134.398 133.777 139.647  1.00  0.00    -0.365 OA
ATOM     29  H   UNL     1     133.584 133.394 139.230  1.00  0.00     0.214 HD
ENDBRANCH   4  28
BRANCH   8  30
ATOM     30  C   UNL     1     131.546 137.643 140.097  1.00  0.00     0.249 C 
BRANCH  30  31
ATOM     31  O   UNL     1     130.357 137.504 141.051  1.00  0.00    -0.461 OA
BRANCH  31  32
ATOM     32  C   UNL     1     129.987 138.592 141.923  1.00  0.00     0.338 C 
ATOM     33  O   UNL     1     129.745 137.920 140.881  1.00  0.00    -0.246 OA
BRANCH  32  34
ATOM     34  C   UNL     1     128.982 138.580 142.999  1.00  0.00     0.060 A 
ATOM     35  C   UNL     1     127.605 138.660 142.727  1.00  0.00     0.015 A 
ATOM     36  C   UNL     1     129.417 138.520 144.329  1.00  0.00     0.015 A 
ATOM     37  C   UNL     1     126.679 138.683 143.776  1.00  0.00     0.001 A 
ATOM     38  C   UNL     1     128.490 138.585 145.376  1.00  0.00     0.001 A 
ATOM     39  C   UNL     1     127.123 138.648 145.102  1.00  0.00     0.000 A 
ENDBRANCH  32  34
ENDBRANCH  31  32
ENDBRANCH  30  31
ENDBRANCH   8  30
TORSDOF 12
ENDMDL
MODEL 6
REMARK VINA RESULT:    -7.210      4.361      8.747
REMARK INTER + INTRA:         -11.573
REMARK INTER:                 -10.658
REMARK INTRA:                  -0.916
REMARK UNBOUND:                -0.781
REMARK SMILES C[C@@]12C[C@@]3(O)O[C@@H](O1)[C@]1(COC(=O)c4ccccc4)[C@H]3C[C@@]12O[C@H]1O[C@@H](CO)[C@H](O)[C@@H](O)[C@@H]1O
REMARK SMILES IDX 1 1 2 2 3 3 4 4 20 5 21 6 22 7 9 8 7 9 8 10 6 11 23 12 24 13
REMARK SMILES IDX 33 14 25 15 31 16 26 17 29 18 34 19 32 21 27 23 28 24 30 26
REMARK SMILES IDX 5 28 10 30 11 31 12 32 13 33 14 34 15 35 19 36 16 37 18 38
REMARK SMILES IDX 17 39
REMARK H PARENT 34 20 32 22 28 25 30 27 5 29
REMARK Flexibility Score: inf
ROOT
ATOM      1  C   UNL     1     133.368 138.329 138.593  1.00  0.00     0.046 C 
ATOM      2  C   UNL     1     134.724 138.185 139.285  1.00  0.00     0.104 C 
ATOM      3  C   UNL     1     135.847 137.820 138.244  1.00  0.00     0.104 C 
ATOM      4  C   UNL     1     137.142 137.684 139.124  1.00  0.00     0.175 C 
ATOM      5  C   UNL     1     136.879 136.775 140.367  1.00  0.00     0.070 C 
ATOM      6  C   UNL     1     135.634 135.891 140.203  1.00  0.00     0.050 C 
ATOM      7  C   UNL     1     134.796 137.161 140.491  1.00  0.00     0.115 C 
ATOM      8  C   UNL     1     136.037 137.751 141.172  1.00  0.00     0.096 C 
ATOM      9  C   UNL     1     136.281 139.123 140.573  1.00  0.00     0.267 C 
ATOM     10  O   UNL     1     135.107 139.429 139.841  1.00  0.00    -0.342 OA
ATOM     11  O   UNL     1     137.367 138.965 139.672  1.00  0.00    -0.320 OA
ENDROOT
BRANCH   7  12
ATOM     12  O   UNL     1     133.694 137.071 141.390  1.00  0.00    -0.339 OA
BRANCH  12  13
ATOM     13  C   UNL     1     133.317 135.731 141.667  1.00  0.00     0.282 C 
ATOM     14  C   UNL     1     131.844 135.531 141.235  1.00  0.00     0.202 C 
ATOM     15  O   UNL     1     133.606 135.392 143.022  1.00  0.00    -0.341 OA
ATOM     16  C   UNL     1     131.284 134.258 141.876  1.00  0.00     0.179 C 
ATOM     17  C   UNL     1     132.493 135.327 143.898  1.00  0.00     0.178 C 
ATOM     18  C   UNL     1     131.427 134.299 143.418  1.00  0.00     0.177 C 
BRANCH  14  19
ATOM     19  O   UNL     1     131.768 135.422 139.837  1.00  0.00    -0.385 OA
ATOM     20  H   UNL     1     132.410 136.079 139.462  1.00  0.00     0.211 HD
ENDBRANCH  14  19
BRANCH  16  21
ATOM     21  O   UNL     1     129.927 134.102 141.540  1.00  0.00    -0.387 OA
ATOM     22  H   UNL     1     129.423 133.999 142.393  1.00  0.00     0.211 HD
ENDBRANCH  16  21
BRANCH  17  23
ATOM     23  C   UNL     1     131.917 136.730 144.214  1.00  0.00     0.191 C 
BRANCH  23  24
ATOM     24  O   UNL     1     132.918 137.712 144.122  1.00  0.00    -0.394 OA
ATOM     25  H   UNL     1     133.205 137.914 145.050  1.00  0.00     0.210 HD
ENDBRANCH  23  24
ENDBRANCH  17  23
BRANCH  18  26
ATOM     26  O   UNL     1     131.730 133.011 143.902  1.00  0.00    -0.387 OA
ATOM     27  H   UNL     1     131.877 132.424 143.113  1.00  0.00     0.211 HD
ENDBRANCH  18  26
ENDBRANCH  12  13
ENDBRANCH   7  12
BRANCH   4  28
ATOM     28  O   UNL     1     138.253 137.265 138.376  1.00  0.00    -0.365 OA
ATOM     29  H   UNL     1     139.058 137.618 138.836  1.00  0.00     0.214 HD
ENDBRANCH   4  28
BRANCH   8  30
ATOM     30  C   UNL     1     136.151 137.650 142.702  1.00  0.00     0.249 C 
BRANCH  30  31
ATOM     31  O   UNL     1     137.233 138.613 143.196  1.00  0.00    -0.461 OA
BRANCH  31  32
ATOM     32  C   UNL     1     138.510 138.113 143.645  1.00  0.00     0.338 C 
ATOM     33  O   UNL     1     137.273 137.914 143.492  1.00  0.00    -0.246 OA
BRANCH  32  34
ATOM     34  C   UNL     1     139.444 137.242 142.912  1.00  0.00     0.060 A 
ATOM     35  C   UNL     1     139.330 135.840 142.948  1.00  0.00     0.015 A 
ATOM     36  C   UNL     1     140.489 137.829 142.188  1.00  0.00     0.015 A 
ATOM     37  C   UNL     1     140.257 135.041 142.268  1.00  0.00     0.001 A 
ATOM     38  C   UNL     1     141.437 137.025 141.545  1.00  0.00     0.001 A 
ATOM     39  C   UNL     1     141.313 135.634 141.569  1.00  0.00     0.000 A 
ENDBRANCH  32  34
ENDBRANCH  31  32
ENDBRANCH  30  31
ENDBRANCH   8  30
TORSDOF 12
ENDMDL
MODEL 7
REMARK VINA RESULT:    -7.175      4.606      8.741
REMARK INTER + INTRA:         -11.521
REMARK INTER:                 -11.111
REMARK INTRA:                  -0.410
REMARK UNBOUND:                -0.781
REMARK SMILES C[C@@]12C[C@@]3(O)O[C@@H](O1)[C@]1(COC(=O)c4ccccc4)[C@H]3C[C@@]12O[C@H]1O[C@@H](CO)[C@H](O)[C@@H](O)[C@@H]1O
REMARK SMILES IDX 1 1 2 2 3 3 4 4 20 5 21 6 22 7 9 8 7 9 8 10 6 11 23 12 24 13
REMARK SMILES IDX 33 14 25 15 31 16 26 17 29 18 34 19 32 21 27 23 28 24 30 26
REMARK SMILES IDX 5 28 10 30 11 31 12 32 13 33 14 34 15 35 19 36 16 37 18 38
REMARK SMILES IDX 17 39
REMARK H PARENT 34 20 32 22 28 25 30 27 5 29
REMARK Flexibility Score: inf
ROOT
ATOM      1  C   UNL     1     133.290 138.500 138.971  1.00  0.00     0.046 C 
ATOM      2  C   UNL     1     134.676 138.136 139.507  1.00  0.00     0.104 C 
ATOM      3  C   UNL     1     135.761 138.248 138.373  1.00  0.00     0.104 C 
ATOM      4  C   UNL     1     137.093 137.814 139.086  1.00  0.00     0.175 C 
ATOM      5  C   UNL     1     136.894 136.479 139.873  1.00  0.00     0.070 C 
ATOM      6  C   UNL     1     135.659 135.695 139.410  1.00  0.00     0.050 C 
ATOM      7  C   UNL     1     134.812 136.720 140.204  1.00  0.00     0.115 C 
ATOM      8  C   UNL     1     136.070 137.030 141.025  1.00  0.00     0.096 C 
ATOM      9  C   UNL     1     136.267 138.534 141.013  1.00  0.00     0.267 C 
ATOM     10  O   UNL     1     135.061 139.069 140.499  1.00  0.00    -0.342 OA
ATOM     11  O   UNL     1     137.319 138.780 140.090  1.00  0.00    -0.320 OA
ENDROOT
BRANCH   7  12
ATOM     12  O   UNL     1     133.749 136.248 141.027  1.00  0.00    -0.339 OA
BRANCH  12  13
ATOM     13  C   UNL     1     132.620 137.108 141.014  1.00  0.00     0.282 C 
ATOM     14  C   UNL     1     132.370 137.619 142.454  1.00  0.00     0.202 C 
ATOM     15  O   UNL     1     131.505 136.472 140.391  1.00  0.00    -0.341 OA
ATOM     16  C   UNL     1     130.958 138.202 142.561  1.00  0.00     0.179 C 
ATOM     17  C   UNL     1     130.483 136.014 141.262  1.00  0.00     0.178 C 
ATOM     18  C   UNL     1     129.890 137.164 142.129  1.00  0.00     0.177 C 
BRANCH  14  19
ATOM     19  O   UNL     1     133.310 138.611 142.778  1.00  0.00    -0.385 OA
ATOM     20  H   UNL     1     133.716 138.349 143.645  1.00  0.00     0.211 HD
ENDBRANCH  14  19
BRANCH  16  21
ATOM     21  O   UNL     1     130.700 138.610 143.882  1.00  0.00    -0.387 OA
ATOM     22  H   UNL     1     130.358 137.814 144.374  1.00  0.00     0.211 HD
ENDBRANCH  16  21
BRANCH  17  23
ATOM     23  C   UNL     1     130.925 134.775 142.078  1.00  0.00     0.191 C 
BRANCH  23  24
ATOM     24  O   UNL     1     129.989 133.734 141.950  1.00  0.00    -0.394 OA
ATOM     25  H   UNL     1     130.346 133.112 141.265  1.00  0.00     0.210 HD
ENDBRANCH  23  24
ENDBRANCH  17  23
BRANCH  18  26
ATOM     26  O   UNL     1     128.848 137.814 141.441  1.00  0.00    -0.387 OA
ATOM     27  H   UNL     1     129.213 138.665 141.080  1.00  0.00     0.211 HD
ENDBRANCH  18  26
ENDBRANCH  12  13
ENDBRANCH   7  12
BRANCH   4  28
ATOM     28  O   UNL     1     138.179 137.761 138.199  1.00  0.00    -0.365 OA
ATOM     29  H   UNL     1     138.773 137.034 138.518  1.00  0.00     0.214 HD
ENDBRANCH   4  28
BRANCH   8  30
ATOM     30  C   UNL     1     136.248 136.335 142.385  1.00  0.00     0.249 C 
BRANCH  30  31
ATOM     31  O   UNL     1     136.906 137.304 143.370  1.00  0.00    -0.461 OA
BRANCH  31  32
ATOM     32  C   UNL     1     138.274 137.112 143.783  1.00  0.00     0.338 C 
ATOM     33  O   UNL     1     137.172 136.596 143.446  1.00  0.00    -0.246 OA
BRANCH  32  34
ATOM     34  C   UNL     1     139.445 136.855 142.929  1.00  0.00     0.060 A 
ATOM     35  C   UNL     1     139.786 135.556 142.512  1.00  0.00     0.015 A 
ATOM     36  C   UNL     1     140.255 137.933 142.551  1.00  0.00     0.015 A 
ATOM     37  C   UNL     1     140.928 135.344 141.730  1.00  0.00     0.001 A 
ATOM     38  C   UNL     1     141.418 137.711 141.804  1.00  0.00     0.001 A 
ATOM     39  C   UNL     1     141.745 136.422 141.378  1.00  0.00     0.000 A 
ENDBRANCH  32  34
ENDBRANCH  31  32
ENDBRANCH  30  31
ENDBRANCH   8  30
TORSDOF 12
ENDMDL
MODEL 8
REMARK VINA RESULT:    -7.174      6.214     10.381
REMARK INTER + INTRA:         -11.519
REMARK INTER:                 -10.823
REMARK INTRA:                  -0.697
REMARK UNBOUND:                -0.781
REMARK SMILES C[C@@]12C[C@@]3(O)O[C@@H](O1)[C@]1(COC(=O)c4ccccc4)[C@H]3C[C@@]12O[C@H]1O[C@@H](CO)[C@H](O)[C@@H](O)[C@@H]1O
REMARK SMILES IDX 1 1 2 2 3 3 4 4 20 5 21 6 22 7 9 8 7 9 8 10 6 11 23 12 24 13
REMARK SMILES IDX 33 14 25 15 31 16 26 17 29 18 34 19 32 21 27 23 28 24 30 26
REMARK SMILES IDX 5 28 10 30 11 31 12 32 13 33 14 34 15 35 19 36 16 37 18 38
REMARK SMILES IDX 17 39
REMARK H PARENT 34 20 32 22 28 25 30 27 5 29
REMARK Flexibility Score: inf
ROOT
ATOM      1  C   UNL     1     130.895 136.212 140.140  1.00  0.00     0.046 C 
ATOM      2  C   UNL     1     132.303 136.376 140.717  1.00  0.00     0.104 C 
ATOM      3  C   UNL     1     132.960 134.972 140.993  1.00  0.00     0.104 C 
ATOM      4  C   UNL     1     134.364 135.330 141.602  1.00  0.00     0.175 C 
ATOM      5  C   UNL     1     134.223 136.385 142.746  1.00  0.00     0.070 C 
ATOM      6  C   UNL     1     132.795 136.470 143.302  1.00  0.00     0.050 C 
ATOM      7  C   UNL     1     132.431 137.263 142.023  1.00  0.00     0.115 C 
ATOM      8  C   UNL     1     133.921 137.599 141.882  1.00  0.00     0.096 C 
ATOM      9  C   UNL     1     134.342 137.236 140.471  1.00  0.00     0.267 C 
ATOM     10  O   UNL     1     133.136 137.008 139.764  1.00  0.00    -0.342 OA
ATOM     11  O   UNL     1     135.058 136.015 140.582  1.00  0.00    -0.320 OA
ENDROOT
BRANCH   7  12
ATOM     12  O   UNL     1     131.635 138.438 142.143  1.00  0.00    -0.339 OA
BRANCH  12  13
ATOM     13  C   UNL     1     130.252 138.188 141.947  1.00  0.00     0.282 C 
ATOM     14  C   UNL     1     129.572 139.497 141.476  1.00  0.00     0.202 C 
ATOM     15  O   UNL     1     129.676 137.586 143.106  1.00  0.00    -0.341 OA
ATOM     16  C   UNL     1     128.055 139.385 141.646  1.00  0.00     0.179 C 
ATOM     17  C   UNL     1     128.868 138.430 143.910  1.00  0.00     0.178 C 
ATOM     18  C   UNL     1     127.680 139.042 143.110  1.00  0.00     0.177 C 
BRANCH  14  19
ATOM     19  O   UNL     1     129.875 139.732 140.125  1.00  0.00    -0.385 OA
ATOM     20  H   UNL     1     130.236 138.882 139.760  1.00  0.00     0.211 HD
ENDBRANCH  14  19
BRANCH  16  21
ATOM     21  O   UNL     1     127.435 140.594 141.281  1.00  0.00    -0.387 OA
ATOM     22  H   UNL     1     127.843 140.885 140.420  1.00  0.00     0.211 HD
ENDBRANCH  16  21
BRANCH  17  23
ATOM     23  C   UNL     1     129.709 139.475 144.685  1.00  0.00     0.191 C 
BRANCH  23  24
ATOM     24  O   UNL     1     130.844 138.876 145.258  1.00  0.00    -0.394 OA
ATOM     25  H   UNL     1     131.159 139.487 145.973  1.00  0.00     0.210 HD
ENDBRANCH  23  24
ENDBRANCH  17  23
BRANCH  18  26
ATOM     26  O   UNL     1     126.574 138.170 143.126  1.00  0.00    -0.387 OA
ATOM     27  H   UNL     1     125.753 138.729 143.091  1.00  0.00     0.211 HD
ENDBRANCH  18  26
ENDBRANCH  12  13
ENDBRANCH   7  12
BRANCH   4  28
ATOM     28  O   UNL     1     135.077 134.191 142.004  1.00  0.00    -0.365 OA
ATOM     29  H   UNL     1     134.814 134.005 142.943  1.00  0.00     0.214 HD
ENDBRANCH   4  28
BRANCH   8  30
ATOM     30  C   UNL     1     134.420 138.954 142.411  1.00  0.00     0.249 C 
BRANCH  30  31
ATOM     31  O   UNL     1     135.841 139.205 141.903  1.00  0.00    -0.461 OA
BRANCH  31  32
ATOM     32  C   UNL     1     136.841 139.774 142.774  1.00  0.00     0.338 C 
ATOM     33  O   UNL     1     135.638 139.432 142.599  1.00  0.00    -0.246 OA
BRANCH  32  34
ATOM     34  C   UNL     1     137.604 139.093 143.833  1.00  0.00     0.060 A 
ATOM     35  C   UNL     1     137.033 138.802 145.085  1.00  0.00     0.015 A 
ATOM     36  C   UNL     1     138.942 138.757 143.593  1.00  0.00     0.015 A 
ATOM     37  C   UNL     1     137.799 138.186 146.082  1.00  0.00     0.001 A 
ATOM     38  C   UNL     1     139.716 138.180 144.607  1.00  0.00     0.001 A 
ATOM     39  C   UNL     1     139.142 137.877 145.843  1.00  0.00     0.000 A 
ENDBRANCH  32  34
ENDBRANCH  31  32
ENDBRANCH  30  31
ENDBRANCH   8  30
TORSDOF 12
ENDMDL
MODEL 9
REMARK VINA RESULT:    -7.132      3.865      7.650
REMARK INTER + INTRA:         -11.457
REMARK INTER:                 -10.339
REMARK INTRA:                  -1.118
REMARK UNBOUND:                -0.781
REMARK SMILES C[C@@]12C[C@@]3(O)O[C@@H](O1)[C@]1(COC(=O)c4ccccc4)[C@H]3C[C@@]12O[C@H]1O[C@@H](CO)[C@H](O)[C@@H](O)[C@@H]1O
REMARK SMILES IDX 1 1 2 2 3 3 4 4 20 5 21 6 22 7 9 8 7 9 8 10 6 11 23 12 24 13
REMARK SMILES IDX 33 14 25 15 31 16 26 17 29 18 34 19 32 21 27 23 28 24 30 26
REMARK SMILES IDX 5 28 10 30 11 31 12 32 13 33 14 34 15 35 19 36 16 37 18 38
REMARK SMILES IDX 17 39
REMARK H PARENT 34 20 32 22 28 25 30 27 5 29
REMARK Flexibility Score: inf
ROOT
ATOM      1  C   UNL     1     137.392 139.812 144.597  1.00  0.00     0.046 C 
ATOM      2  C   UNL     1     137.704 140.610 143.329  1.00  0.00     0.104 C 
ATOM      3  C   UNL     1     137.910 142.134 143.665  1.00  0.00     0.104 C 
ATOM      4  C   UNL     1     138.185 142.790 142.264  1.00  0.00     0.175 C 
ATOM      5  C   UNL     1     137.116 142.339 141.217  1.00  0.00     0.070 C 
ATOM      6  C   UNL     1     135.848 141.774 141.870  1.00  0.00     0.050 C 
ATOM      7  C   UNL     1     136.661 140.486 142.144  1.00  0.00     0.115 C 
ATOM      8  C   UNL     1     137.604 140.914 141.013  1.00  0.00     0.096 C 
ATOM      9  C   UNL     1     139.020 140.865 141.552  1.00  0.00     0.267 C 
ATOM     10  O   UNL     1     138.932 140.168 142.782  1.00  0.00    -0.342 OA
ATOM     11  O   UNL     1     139.388 142.213 141.802  1.00  0.00    -0.320 OA
ENDROOT
BRANCH   7  12
ATOM     12  O   UNL     1     136.061 139.221 141.879  1.00  0.00    -0.339 OA
BRANCH  12  13
ATOM     13  C   UNL     1     134.860 139.018 142.608  1.00  0.00     0.282 C 
ATOM     14  C   UNL     1     134.763 137.523 142.999  1.00  0.00     0.202 C 
ATOM     15  O   UNL     1     133.738 139.534 141.892  1.00  0.00    -0.341 OA
ATOM     16  C   UNL     1     133.328 137.187 143.414  1.00  0.00     0.179 C 
ATOM     17  C   UNL     1     132.901 138.574 141.271  1.00  0.00     0.178 C 
ATOM     18  C   UNL     1     132.322 137.551 142.293  1.00  0.00     0.177 C 
BRANCH  14  19
ATOM     19  O   UNL     1     135.634 137.253 144.066  1.00  0.00    -0.385 OA
ATOM     20  H   UNL     1     136.254 138.025 144.134  1.00  0.00     0.211 HD
ENDBRANCH  14  19
BRANCH  16  21
ATOM     21  O   UNL     1     133.217 135.816 143.709  1.00  0.00    -0.387 OA
ATOM     22  H   UNL     1     132.655 135.736 144.528  1.00  0.00     0.211 HD
ENDBRANCH  16  21
BRANCH  17  23
ATOM     23  C   UNL     1     133.576 137.919 140.040  1.00  0.00     0.191 C 
BRANCH  23  24
ATOM     24  O   UNL     1     134.268 138.879 139.283  1.00  0.00    -0.394 OA
ATOM     25  H   UNL     1     133.664 139.152 138.545  1.00  0.00     0.210 HD
ENDBRANCH  23  24
ENDBRANCH  17  23
BRANCH  18  26
ATOM     26  O   UNL     1     131.132 138.043 142.864  1.00  0.00    -0.387 OA
ATOM     27  H   UNL     1     131.360 138.878 143.354  1.00  0.00     0.211 HD
ENDBRANCH  18  26
ENDBRANCH  12  13
ENDBRANCH   7  12
BRANCH   4  28
ATOM     28  O   UNL     1     138.306 144.186 142.344  1.00  0.00    -0.365 OA
ATOM     29  H   UNL     1     138.522 144.507 141.430  1.00  0.00     0.214 HD
ENDBRANCH   4  28
BRANCH   8  30
ATOM     30  C   UNL     1     137.390 140.315 139.613  1.00  0.00     0.249 C 
BRANCH  30  31
ATOM     31  O   UNL     1     138.459 139.253 139.346  1.00  0.00    -0.461 OA
BRANCH  31  32
ATOM     32  C   UNL     1     138.172 137.855 139.555  1.00  0.00     0.338 C 
ATOM     33  O   UNL     1     138.938 138.733 139.068  1.00  0.00    -0.246 OA
BRANCH  32  34
ATOM     34  C   UNL     1     138.715 136.972 140.601  1.00  0.00     0.060 A 
ATOM     35  C   UNL     1     140.099 136.804 140.782  1.00  0.00     0.015 A 
ATOM     36  C   UNL     1     137.824 136.258 141.412  1.00  0.00     0.015 A 
ATOM     37  C   UNL     1     140.580 135.928 141.763  1.00  0.00     0.001 A 
ATOM     38  C   UNL     1     138.309 135.353 142.363  1.00  0.00     0.001 A 
ATOM     39  C   UNL     1     139.684 135.200 142.552  1.00  0.00     0.000 A 
ENDBRANCH  32  34
ENDBRANCH  31  32
ENDBRANCH  30  31
ENDBRANCH   8  30
TORSDOF 12
ENDMDL
