MODEL 1
REMARK VINA RESULT:    -5.017      0.000      0.000
REMARK INTER + INTRA:         -11.020
REMARK INTER:                  -9.123
REMARK INTRA:                  -1.896
REMARK UNBOUND:                -1.896
REMARK SMILES CCCCCCCCCCCCCCCC(=O)[O-]
REMARK SMILES IDX 9 1 10 2 11 3 12 4 13 5 14 6 15 7 16 8 17 9 18 10 8 11 7 12
REMARK SMILES IDX 6 13 5 14 4 15 3 16 2 17 1 18
REMARK H PARENT
REMARK Flexibility Score: inf
ROOT
ATOM      1  C   UNL     1      23.548  11.335  34.570  1.00  0.00     0.000 C 
ENDROOT
BRANCH   1   2
ATOM      2  C   UNL     1      23.788  12.079  35.896  1.00  0.00     0.000 C 
BRANCH   2   3
ATOM      3  C   UNL     1      25.072  12.921  35.885  1.00  0.00     0.000 C 
BRANCH   3   4
ATOM      4  C   UNL     1      26.271  12.085  35.413  1.00  0.00     0.000 C 
BRANCH   4   5
ATOM      5  C   UNL     1      27.497  12.948  35.071  1.00  0.00     0.000 C 
BRANCH   5   6
ATOM      6  C   UNL     1      27.608  13.250  33.569  1.00  0.00     0.006 C 
BRANCH   6   7
ATOM      7  C   UNL     1      27.018  12.108  32.737  1.00  0.00     0.053 C 
BRANCH   7   8
ATOM      8  C   UNL     1      27.880  11.828  31.545  1.00  0.00     0.041 C 
ATOM      9  O   UNL     1      27.740  10.756  30.901  1.00  0.00    -0.550 OA
ATOM     10  O   UNL     1      28.802  12.774  31.117  1.00  0.00    -0.550 OA
ENDBRANCH   7   8
ENDBRANCH   6   7
ENDBRANCH   5   6
ENDBRANCH   4   5
ENDBRANCH   3   4
ENDBRANCH   2   3
ENDBRANCH   1   2
BRANCH   1  11
ATOM     11  C   UNL     1      23.235  12.239  33.359  1.00  0.00     0.000 C 
BRANCH  11  12
ATOM     12  C   UNL     1      21.836  12.044  32.747  1.00  0.00    -0.000 C 
BRANCH  12  13
ATOM     13  C   UNL     1      20.971  13.314  32.823  1.00  0.00    -0.000 C 
BRANCH  13  14
ATOM     14  C   UNL     1      20.932  13.916  34.235  1.00  0.00    -0.000 C 
BRANCH  14  15
ATOM     15  C   UNL     1      19.746  13.396  35.066  1.00  0.00    -0.000 C 
BRANCH  15  16
ATOM     16  C   UNL     1      20.124  12.199  35.952  1.00  0.00    -0.000 C 
BRANCH  16  17
ATOM     17  C   UNL     1      19.501  10.883  35.464  1.00  0.00    -0.003 C 
ATOM     18  C   UNL     1      20.439   9.706  35.712  1.00  0.00     0.004 C 
ENDBRANCH  16  17
ENDBRANCH  15  16
ENDBRANCH  14  15
ENDBRANCH  13  14
ENDBRANCH  12  13
ENDBRANCH  11  12
ENDBRANCH   1  11
TORSDOF 14
ENDMDL
MODEL 2
REMARK VINA RESULT:    -4.934      0.897      2.351
REMARK INTER + INTRA:         -10.869
REMARK INTER:                  -9.282
REMARK INTRA:                  -1.587
REMARK UNBOUND:                -1.896
REMARK SMILES CCCCCCCCCCCCCCCC(=O)[O-]
REMARK SMILES IDX 9 1 10 2 11 3 12 4 13 5 14 6 15 7 16 8 17 9 18 10 8 11 7 12
REMARK SMILES IDX 6 13 5 14 4 15 3 16 2 17 1 18
REMARK H PARENT
REMARK Flexibility Score: inf
ROOT
ATOM      1  C   UNL     1      22.740  11.460  35.847  1.00  0.00     0.000 C 
ENDROOT
BRANCH   1   2
ATOM      2  C   UNL     1      23.953  11.529  34.901  1.00  0.00     0.000 C 
BRANCH   2   3
ATOM      3  C   UNL     1      25.295  11.514  35.648  1.00  0.00     0.000 C 
BRANCH   3   4
ATOM      4  C   UNL     1      26.445  11.143  34.700  1.00  0.00     0.000 C 
BRANCH   4   5
ATOM      5  C   UNL     1      27.623  12.127  34.783  1.00  0.00     0.000 C 
BRANCH   5   6
ATOM      6  C   UNL     1      27.641  13.130  33.620  1.00  0.00     0.006 C 
BRANCH   6   7
ATOM      7  C   UNL     1      26.898  12.569  32.403  1.00  0.00     0.053 C 
BRANCH   7   8
ATOM      8  C   UNL     1      27.869  12.048  31.390  1.00  0.00     0.041 C 
ATOM      9  O   UNL     1      27.767  10.868  30.964  1.00  0.00    -0.550 OA
ATOM     10  O   UNL     1      28.856  12.882  30.880  1.00  0.00    -0.550 OA
ENDBRANCH   7   8
ENDBRANCH   6   7
ENDBRANCH   5   6
ENDBRANCH   4   5
ENDBRANCH   3   4
ENDBRANCH   2   3
ENDBRANCH   1   2
BRANCH   1  11
ATOM     11  C   UNL     1      21.618  10.498  35.405  1.00  0.00     0.000 C 
BRANCH  11  12
ATOM     12  C   UNL     1      20.197  11.087  35.459  1.00  0.00    -0.000 C 
BRANCH  12  13
ATOM     13  C   UNL     1      20.171  12.531  35.987  1.00  0.00    -0.000 C 
BRANCH  13  14
ATOM     14  C   UNL     1      19.535  13.511  34.990  1.00  0.00    -0.000 C 
BRANCH  14  15
ATOM     15  C   UNL     1      20.585  14.280  34.168  1.00  0.00    -0.000 C 
BRANCH  15  16
ATOM     16  C   UNL     1      20.368  14.141  32.653  1.00  0.00    -0.000 C 
BRANCH  16  17
ATOM     17  C   UNL     1      20.573  12.703  32.158  1.00  0.00    -0.003 C 
ATOM     18  C   UNL     1      22.055  12.398  31.957  1.00  0.00     0.004 C 
ENDBRANCH  16  17
ENDBRANCH  15  16
ENDBRANCH  14  15
ENDBRANCH  13  14
ENDBRANCH  12  13
ENDBRANCH  11  12
ENDBRANCH   1  11
TORSDOF 14
ENDMDL
MODEL 3
REMARK VINA RESULT:    -4.881      1.028      2.389
REMARK INTER + INTRA:         -10.772
REMARK INTER:                  -9.268
REMARK INTRA:                  -1.504
REMARK UNBOUND:                -1.896
REMARK SMILES CCCCCCCCCCCCCCCC(=O)[O-]
REMARK SMILES IDX 9 1 10 2 11 3 12 4 13 5 14 6 15 7 16 8 17 9 18 10 8 11 7 12
REMARK SMILES IDX 6 13 5 14 4 15 3 16 2 17 1 18
REMARK H PARENT
REMARK Flexibility Score: inf
ROOT
ATOM      1  C   UNL     1      23.142  11.582  34.083  1.00  0.00     0.000 C 
ENDROOT
BRANCH   1   2
ATOM      2  C   UNL     1      23.695  11.982  35.463  1.00  0.00     0.000 C 
BRANCH   2   3
ATOM      3  C   UNL     1      24.903  11.136  35.891  1.00  0.00     0.000 C 
BRANCH   3   4
ATOM      4  C   UNL     1      26.140  11.483  35.048  1.00  0.00     0.000 C 
BRANCH   4   5
ATOM      5  C   UNL     1      26.483  12.981  35.089  1.00  0.00     0.000 C 
BRANCH   5   6
ATOM      6  C   UNL     1      27.349  13.423  33.900  1.00  0.00     0.006 C 
BRANCH   6   7
ATOM      7  C   UNL     1      28.174  12.251  33.359  1.00  0.00     0.053 C 
BRANCH   7   8
ATOM      8  C   UNL     1      28.049  12.166  31.870  1.00  0.00     0.041 C 
ATOM      9  O   UNL     1      28.811  12.842  31.130  1.00  0.00    -0.550 OA
ATOM     10  O   UNL     1      27.125  11.299  31.298  1.00  0.00    -0.550 OA
ENDBRANCH   7   8
ENDBRANCH   6   7
ENDBRANCH   5   6
ENDBRANCH   4   5
ENDBRANCH   3   4
ENDBRANCH   2   3
ENDBRANCH   1   2
BRANCH   1  11
ATOM     11  C   UNL     1      21.851  10.738  34.114  1.00  0.00     0.000 C 
BRANCH  11  12
ATOM     12  C   UNL     1      21.491  10.150  35.490  1.00  0.00    -0.000 C 
BRANCH  12  13
ATOM     13  C   UNL     1      19.983  10.209  35.787  1.00  0.00    -0.000 C 
BRANCH  13  14
ATOM     14  C   UNL     1      19.171  10.755  34.603  1.00  0.00    -0.000 C 
BRANCH  14  15
ATOM     15  C   UNL     1      18.527  12.119  34.909  1.00  0.00    -0.000 C 
BRANCH  15  16
ATOM     16  C   UNL     1      19.264  12.884  36.019  1.00  0.00    -0.000 C 
BRANCH  16  17
ATOM     17  C   UNL     1      20.407  13.755  35.478  1.00  0.00    -0.003 C 
ATOM     18  C   UNL     1      20.168  14.129  34.018  1.00  0.00     0.004 C 
ENDBRANCH  16  17
ENDBRANCH  15  16
ENDBRANCH  14  15
ENDBRANCH  13  14
ENDBRANCH  12  13
ENDBRANCH  11  12
ENDBRANCH   1  11
TORSDOF 14
ENDMDL
MODEL 4
REMARK VINA RESULT:    -4.831      1.275      2.779
REMARK INTER + INTRA:         -10.682
REMARK INTER:                  -8.590
REMARK INTRA:                  -2.092
REMARK UNBOUND:                -1.896
REMARK SMILES CCCCCCCCCCCCCCCC(=O)[O-]
REMARK SMILES IDX 9 1 10 2 11 3 12 4 13 5 14 6 15 7 16 8 17 9 18 10 8 11 7 12
REMARK SMILES IDX 6 13 5 14 4 15 3 16 2 17 1 18
REMARK H PARENT
REMARK Flexibility Score: inf
ROOT
ATOM      1  C   UNL     1      21.976  10.610  35.759  1.00  0.00     0.000 C 
ENDROOT
BRANCH   1   2
ATOM      2  C   UNL     1      23.035  11.278  34.863  1.00  0.00     0.000 C 
BRANCH   2   3
ATOM      3  C   UNL     1      23.618  12.559  35.478  1.00  0.00     0.000 C 
BRANCH   3   4
ATOM      4  C   UNL     1      25.075  12.344  35.913  1.00  0.00     0.000 C 
BRANCH   4   5
ATOM      5  C   UNL     1      25.654  11.013  35.405  1.00  0.00     0.000 C 
BRANCH   5   6
ATOM      6  C   UNL     1      27.043  11.175  34.770  1.00  0.00     0.006 C 
BRANCH   6   7
ATOM      7  C   UNL     1      27.295  12.632  34.370  1.00  0.00     0.053 C 
BRANCH   7   8
ATOM      8  C   UNL     1      27.174  12.798  32.888  1.00  0.00     0.041 C 
ATOM      9  O   UNL     1      28.207  12.866  32.172  1.00  0.00    -0.550 OA
ATOM     10  O   UNL     1      25.920  12.825  32.291  1.00  0.00    -0.550 OA
ENDBRANCH   7   8
ENDBRANCH   6   7
ENDBRANCH   5   6
ENDBRANCH   4   5
ENDBRANCH   3   4
ENDBRANCH   2   3
ENDBRANCH   1   2
BRANCH   1  11
ATOM     11  C   UNL     1      20.561  10.525  35.149  1.00  0.00     0.000 C 
BRANCH  11  12
ATOM     12  C   UNL     1      19.483  11.334  35.892  1.00  0.00    -0.000 C 
BRANCH  12  13
ATOM     13  C   UNL     1      19.808  12.835  35.962  1.00  0.00    -0.000 C 
BRANCH  13  14
ATOM     14  C   UNL     1      19.393  13.588  34.689  1.00  0.00    -0.000 C 
BRANCH  14  15
ATOM     15  C   UNL     1      20.595  14.195  33.945  1.00  0.00    -0.000 C 
BRANCH  15  16
ATOM     16  C   UNL     1      20.966  13.406  32.679  1.00  0.00    -0.000 C 
BRANCH  16  17
ATOM     17  C   UNL     1      19.786  12.601  32.118  1.00  0.00    -0.003 C 
ATOM     18  C   UNL     1      20.249  11.253  31.575  1.00  0.00     0.004 C 
ENDBRANCH  16  17
ENDBRANCH  15  16
ENDBRANCH  14  15
ENDBRANCH  13  14
ENDBRANCH  12  13
ENDBRANCH  11  12
ENDBRANCH   1  11
TORSDOF 14
ENDMDL
MODEL 5
REMARK VINA RESULT:    -4.811      1.566      2.909
REMARK INTER + INTRA:         -10.645
REMARK INTER:                  -8.881
REMARK INTRA:                  -1.764
REMARK UNBOUND:                -1.896
REMARK SMILES CCCCCCCCCCCCCCCC(=O)[O-]
REMARK SMILES IDX 9 1 10 2 11 3 12 4 13 5 14 6 15 7 16 8 17 9 18 10 8 11 7 12
REMARK SMILES IDX 6 13 5 14 4 15 3 16 2 17 1 18
REMARK H PARENT
REMARK Flexibility Score: inf
ROOT
ATOM      1  C   UNL     1      21.504  12.685  32.961  1.00  0.00     0.000 C 
ENDROOT
BRANCH   1   2
ATOM      2  C   UNL     1      22.413  11.658  33.660  1.00  0.00     0.000 C 
BRANCH   2   3
ATOM      3  C   UNL     1      22.788  12.067  35.092  1.00  0.00     0.000 C 
BRANCH   3   4
ATOM      4  C   UNL     1      23.744  11.042  35.722  1.00  0.00     0.000 C 
BRANCH   4   5
ATOM      5  C   UNL     1      25.196  11.546  35.780  1.00  0.00     0.000 C 
BRANCH   5   6
ATOM      6  C   UNL     1      26.028  11.097  34.569  1.00  0.00     0.006 C 
BRANCH   6   7
ATOM      7  C   UNL     1      27.515  11.392  34.787  1.00  0.00     0.053 C 
BRANCH   7   8
ATOM      8  C   UNL     1      27.846  12.781  34.338  1.00  0.00     0.041 C 
ATOM      9  O   UNL     1      27.935  13.045  33.111  1.00  0.00    -0.550 OA
ATOM     10  O   UNL     1      28.004  13.795  35.275  1.00  0.00    -0.550 OA
ENDBRANCH   7   8
ENDBRANCH   6   7
ENDBRANCH   5   6
ENDBRANCH   4   5
ENDBRANCH   3   4
ENDBRANCH   2   3
ENDBRANCH   1   2
BRANCH   1  11
ATOM     11  C   UNL     1      20.971  13.813  33.869  1.00  0.00     0.000 C 
BRANCH  11  12
ATOM     12  C   UNL     1      19.533  13.611  34.380  1.00  0.00    -0.000 C 
BRANCH  12  13
ATOM     13  C   UNL     1      19.474  13.305  35.887  1.00  0.00    -0.000 C 
BRANCH  13  14
ATOM     14  C   UNL     1      19.302  11.807  36.176  1.00  0.00    -0.000 C 
BRANCH  14  15
ATOM     15  C   UNL     1      18.863  11.012  34.933  1.00  0.00    -0.000 C 
BRANCH  15  16
ATOM     16  C   UNL     1      19.530   9.631  34.849  1.00  0.00    -0.000 C 
BRANCH  16  17
ATOM     17  C   UNL     1      20.250   9.243  36.148  1.00  0.00    -0.003 C 
ATOM     18  C   UNL     1      19.500   8.135  36.882  1.00  0.00     0.004 C 
ENDBRANCH  16  17
ENDBRANCH  15  16
ENDBRANCH  14  15
ENDBRANCH  13  14
ENDBRANCH  12  13
ENDBRANCH  11  12
ENDBRANCH   1  11
TORSDOF 14
ENDMDL
MODEL 6
REMARK VINA RESULT:    -4.810      1.255      2.105
REMARK INTER + INTRA:         -10.644
REMARK INTER:                  -9.066
REMARK INTRA:                  -1.578
REMARK UNBOUND:                -1.896
REMARK SMILES CCCCCCCCCCCCCCCC(=O)[O-]
REMARK SMILES IDX 9 1 10 2 11 3 12 4 13 5 14 6 15 7 16 8 17 9 18 10 8 11 7 12
REMARK SMILES IDX 6 13 5 14 4 15 3 16 2 17 1 18
REMARK H PARENT
REMARK Flexibility Score: inf
ROOT
ATOM      1  C   UNL     1      23.850  11.001  35.333  1.00  0.00     0.000 C 
ENDROOT
BRANCH   1   2
ATOM      2  C   UNL     1      24.331  12.393  35.780  1.00  0.00     0.000 C 
BRANCH   2   3
ATOM      3  C   UNL     1      25.815  12.640  35.474  1.00  0.00     0.000 C 
BRANCH   3   4
ATOM      4  C   UNL     1      26.517  11.333  35.076  1.00  0.00     0.000 C 
BRANCH   4   5
ATOM      5  C   UNL     1      27.873  11.573  34.393  1.00  0.00     0.000 C 
BRANCH   5   6
ATOM      6  C   UNL     1      27.910  12.885  33.594  1.00  0.00     0.006 C 
BRANCH   6   7
ATOM      7  C   UNL     1      28.348  12.632  32.148  1.00  0.00     0.053 C 
BRANCH   7   8
ATOM      8  C   UNL     1      27.342  11.784  31.435  1.00  0.00     0.041 C 
ATOM      9  O   UNL     1      26.145  12.165  31.342  1.00  0.00    -0.550 OA
ATOM     10  O   UNL     1      27.737  10.598  30.829  1.00  0.00    -0.550 OA
ENDBRANCH   7   8
ENDBRANCH   6   7
ENDBRANCH   5   6
ENDBRANCH   4   5
ENDBRANCH   3   4
ENDBRANCH   2   3
ENDBRANCH   1   2
BRANCH   1  11
ATOM     11  C   UNL     1      22.502  10.549  35.933  1.00  0.00     0.000 C 
BRANCH  11  12
ATOM     12  C   UNL     1      21.346  10.438  34.923  1.00  0.00    -0.000 C 
BRANCH  12  13
ATOM     13  C   UNL     1      21.725  10.951  33.523  1.00  0.00    -0.000 C 
BRANCH  13  14
ATOM     14  C   UNL     1      20.812  12.090  33.047  1.00  0.00    -0.000 C 
BRANCH  14  15
ATOM     15  C   UNL     1      21.252  13.463  33.584  1.00  0.00    -0.000 C 
BRANCH  15  16
ATOM     16  C   UNL     1      20.099  14.239  34.239  1.00  0.00    -0.000 C 
BRANCH  16  17
ATOM     17  C   UNL     1      18.979  13.317  34.742  1.00  0.00    -0.003 C 
ATOM     18  C   UNL     1      19.082  13.100  36.249  1.00  0.00     0.004 C 
ENDBRANCH  16  17
ENDBRANCH  15  16
ENDBRANCH  14  15
ENDBRANCH  13  14
ENDBRANCH  12  13
ENDBRANCH  11  12
ENDBRANCH   1  11
TORSDOF 14
ENDMDL
MODEL 7
REMARK VINA RESULT:    -4.794      2.843      6.814
REMARK INTER + INTRA:         -10.614
REMARK INTER:                  -9.072
REMARK INTRA:                  -1.542
REMARK UNBOUND:                -1.896
REMARK SMILES CCCCCCCCCCCCCCCC(=O)[O-]
REMARK SMILES IDX 9 1 10 2 11 3 12 4 13 5 14 6 15 7 16 8 17 9 18 10 8 11 7 12
REMARK SMILES IDX 6 13 5 14 4 15 3 16 2 17 1 18
REMARK H PARENT
REMARK Flexibility Score: inf
ROOT
ATOM      1  C   UNL     1      22.983  11.290  34.817  1.00  0.00     0.000 C 
ENDROOT
BRANCH   1   2
ATOM      2  C   UNL     1      21.906  10.574  35.652  1.00  0.00     0.000 C 
BRANCH   2   3
ATOM      3  C   UNL     1      20.631  10.272  34.851  1.00  0.00     0.000 C 
BRANCH   3   4
ATOM      4  C   UNL     1      19.430  11.042  35.422  1.00  0.00     0.000 C 
BRANCH   4   5
ATOM      5  C   UNL     1      19.830  12.398  36.027  1.00  0.00     0.000 C 
BRANCH   5   6
ATOM      6  C   UNL     1      19.387  13.586  35.160  1.00  0.00     0.006 C 
BRANCH   6   7
ATOM      7  C   UNL     1      20.564  14.144  34.355  1.00  0.00     0.053 C 
BRANCH   7   8
ATOM      8  C   UNL     1      20.387  13.853  32.897  1.00  0.00     0.041 C 
ATOM      9  O   UNL     1      19.430  14.365  32.261  1.00  0.00    -0.550 OA
ATOM     10  O   UNL     1      21.311  13.056  32.230  1.00  0.00    -0.550 OA
ENDBRANCH   7   8
ENDBRANCH   6   7
ENDBRANCH   5   6
ENDBRANCH   4   5
ENDBRANCH   3   4
ENDBRANCH   2   3
ENDBRANCH   1   2
BRANCH   1  11
ATOM     11  C   UNL     1      23.634  12.513  35.496  1.00  0.00     0.000 C 
BRANCH  11  12
ATOM     12  C   UNL     1      25.049  12.273  36.050  1.00  0.00    -0.000 C 
BRANCH  12  13
ATOM     13  C   UNL     1      25.711  11.013  35.469  1.00  0.00    -0.000 C 
BRANCH  13  14
ATOM     14  C   UNL     1      27.061  11.312  34.799  1.00  0.00    -0.000 C 
BRANCH  14  15
ATOM     15  C   UNL     1      27.505  12.772  34.994  1.00  0.00    -0.000 C 
BRANCH  15  16
ATOM     16  C   UNL     1      27.373  13.606  33.710  1.00  0.00    -0.000 C 
BRANCH  16  17
ATOM     17  C   UNL     1      27.711  12.801  32.447  1.00  0.00    -0.003 C 
ATOM     18  C   UNL     1      26.569  12.860  31.436  1.00  0.00     0.004 C 
ENDBRANCH  16  17
ENDBRANCH  15  16
ENDBRANCH  14  15
ENDBRANCH  13  14
ENDBRANCH  12  13
ENDBRANCH  11  12
ENDBRANCH   1  11
TORSDOF 14
ENDMDL
MODEL 8
REMARK VINA RESULT:    -4.764      2.395      3.548
REMARK INTER + INTRA:         -10.559
REMARK INTER:                  -9.023
REMARK INTRA:                  -1.536
REMARK UNBOUND:                -1.896
REMARK SMILES CCCCCCCCCCCCCCCC(=O)[O-]
REMARK SMILES IDX 9 1 10 2 11 3 12 4 13 5 14 6 15 7 16 8 17 9 18 10 8 11 7 12
REMARK SMILES IDX 6 13 5 14 4 15 3 16 2 17 1 18
REMARK H PARENT
REMARK Flexibility Score: inf
ROOT
ATOM      1  C   UNL     1      25.156  12.642  31.602  1.00  0.00     0.000 C 
ENDROOT
BRANCH   1   2
ATOM      2  C   UNL     1      26.313  13.036  30.665  1.00  0.00     0.000 C 
BRANCH   2   3
ATOM      3  C   UNL     1      27.678  12.528  31.153  1.00  0.00     0.000 C 
BRANCH   3   4
ATOM      4  C   UNL     1      27.506  11.485  32.268  1.00  0.00     0.000 C 
BRANCH   4   5
ATOM      5  C   UNL     1      28.362  11.796  33.507  1.00  0.00     0.000 C 
BRANCH   5   6
ATOM      6  C   UNL     1      27.721  11.298  34.811  1.00  0.00     0.006 C 
BRANCH   6   7
ATOM      7  C   UNL     1      26.214  11.571  34.818  1.00  0.00     0.053 C 
BRANCH   7   8
ATOM      8  C   UNL     1      25.915  12.839  35.555  1.00  0.00     0.041 C 
ATOM      9  O   UNL     1      24.988  12.873  36.407  1.00  0.00    -0.550 OA
ATOM     10  O   UNL     1      26.693  13.970  35.338  1.00  0.00    -0.550 OA
ENDBRANCH   7   8
ENDBRANCH   6   7
ENDBRANCH   5   6
ENDBRANCH   4   5
ENDBRANCH   3   4
ENDBRANCH   2   3
ENDBRANCH   1   2
BRANCH   1  11
ATOM     11  C   UNL     1      23.821  12.326  30.897  1.00  0.00     0.000 C 
BRANCH  11  12
ATOM     12  C   UNL     1      22.591  12.285  31.821  1.00  0.00    -0.000 C 
BRANCH  12  13
ATOM     13  C   UNL     1      22.968  12.169  33.308  1.00  0.00    -0.000 C 
BRANCH  13  14
ATOM     14  C   UNL     1      21.940  12.843  34.229  1.00  0.00    -0.000 C 
BRANCH  14  15
ATOM     15  C   UNL     1      21.772  12.102  35.568  1.00  0.00    -0.000 C 
BRANCH  15  16
ATOM     16  C   UNL     1      22.240  10.640  35.496  1.00  0.00    -0.000 C 
BRANCH  16  17
ATOM     17  C   UNL     1      21.071   9.645  35.498  1.00  0.00    -0.003 C 
ATOM     18  C   UNL     1      20.550   9.408  34.083  1.00  0.00     0.004 C 
ENDBRANCH  16  17
ENDBRANCH  15  16
ENDBRANCH  14  15
ENDBRANCH  13  14
ENDBRANCH  12  13
ENDBRANCH  11  12
ENDBRANCH   1  11
TORSDOF 14
ENDMDL
MODEL 9
REMARK VINA RESULT:    -4.709      3.201      7.085
REMARK INTER + INTRA:         -10.459
REMARK INTER:                  -8.917
REMARK INTRA:                  -1.541
REMARK UNBOUND:                -1.896
REMARK SMILES CCCCCCCCCCCCCCCC(=O)[O-]
REMARK SMILES IDX 9 1 10 2 11 3 12 4 13 5 14 6 15 7 16 8 17 9 18 10 8 11 7 12
REMARK SMILES IDX 6 13 5 14 4 15 3 16 2 17 1 18
REMARK H PARENT
REMARK Flexibility Score: inf
ROOT
ATOM      1  C   UNL     1      23.489  11.126  35.466  1.00  0.00     0.000 C 
ENDROOT
BRANCH   1   2
ATOM      2  C   UNL     1      22.665  12.426  35.496  1.00  0.00     0.000 C 
BRANCH   2   3
ATOM      3  C   UNL     1      22.067  12.786  34.128  1.00  0.00     0.000 C 
BRANCH   3   4
ATOM      4  C   UNL     1      20.923  13.801  34.281  1.00  0.00     0.000 C 
BRANCH   4   5
ATOM      5  C   UNL     1      19.977  13.456  35.442  1.00  0.00     0.000 C 
BRANCH   5   6
ATOM      6  C   UNL     1      18.992  12.331  35.090  1.00  0.00     0.006 C 
BRANCH   6   7
ATOM      7  C   UNL     1      19.329  11.049  35.855  1.00  0.00     0.053 C 
BRANCH   7   8
ATOM      8  C   UNL     1      19.719   9.959  34.907  1.00  0.00     0.041 C 
ATOM      9  O   UNL     1      19.152   9.861  33.787  1.00  0.00    -0.550 OA
ATOM     10  O   UNL     1      20.744   9.081  35.239  1.00  0.00    -0.550 OA
ENDBRANCH   7   8
ENDBRANCH   6   7
ENDBRANCH   5   6
ENDBRANCH   4   5
ENDBRANCH   3   4
ENDBRANCH   2   3
ENDBRANCH   1   2
BRANCH   1  11
ATOM     11  C   UNL     1      24.997  11.299  35.745  1.00  0.00     0.000 C 
BRANCH  11  12
ATOM     12  C   UNL     1      25.443  12.743  36.034  1.00  0.00    -0.000 C 
BRANCH  12  13
ATOM     13  C   UNL     1      26.637  13.182  35.169  1.00  0.00    -0.000 C 
BRANCH  13  14
ATOM     14  C   UNL     1      27.752  12.126  35.126  1.00  0.00    -0.000 C 
BRANCH  14  15
ATOM     15  C   UNL     1      28.185  11.784  33.689  1.00  0.00    -0.000 C 
BRANCH  15  16
ATOM     16  C   UNL     1      27.830  12.893  32.686  1.00  0.00    -0.000 C 
BRANCH  16  17
ATOM     17  C   UNL     1      26.978  12.380  31.516  1.00  0.00    -0.003 C 
ATOM     18  C   UNL     1      25.496  12.655  31.755  1.00  0.00     0.004 C 
ENDBRANCH  16  17
ENDBRANCH  15  16
ENDBRANCH  14  15
ENDBRANCH  13  14
ENDBRANCH  12  13
ENDBRANCH  11  12
ENDBRANCH   1  11
TORSDOF 14
ENDMDL
