MODEL 1
REMARK VINA RESULT:    12.545      0.000      0.000
REMARK INTER + INTRA:          14.963
REMARK INTER:                  15.112
REMARK INTRA:                  -0.149
REMARK UNBOUND:                -0.149
REMARK SMILES O=c1c(O)c(-c2ccc(O)c(O)c2)oc2cc(O)cc(O)c12
REMARK SMILES IDX 5 1 3 2 2 3 1 4 22 5 20 6 19 7 17 8 16 9 15 10 14 11 6 12
REMARK SMILES IDX 7 13 8 14 9 15 13 16 11 17 10 18 12 20 4 22 21 24 18 26
REMARK H PARENT 10 19 12 21 4 23 21 25 18 27
REMARK Flexibility Score: inf
ROOT
ATOM      1  C   UNL     1       4.445   8.310  13.616  1.00  0.00     0.180 A 
ATOM      2  C   UNL     1       4.256   8.746  14.939  1.00  0.00     0.208 A 
ATOM      3  C   UNL     1       3.175   9.595  15.228  1.00  0.00     0.238 A 
ATOM      4  O   UNL     1       3.043  10.026  16.403  1.00  0.00    -0.285 OA
ATOM      5  C   UNL     1       2.287   9.982  14.194  1.00  0.00     0.111 A 
ATOM      6  C   UNL     1       1.136  10.806  14.382  1.00  0.00     0.134 A 
ATOM      7  C   UNL     1       0.404  11.233  13.267  1.00  0.00     0.093 A 
ATOM      8  C   UNL     1       0.744  10.812  11.978  1.00  0.00     0.123 A 
ATOM      9  C   UNL     1       1.830   9.961  11.792  1.00  0.00     0.094 A 
ATOM     10  C   UNL     1       2.601   9.547  12.881  1.00  0.00     0.146 A 
ATOM     11  O   UNL     1       3.635   8.743  12.658  1.00  0.00    -0.452 OA
ENDROOT
BRANCH   1  12
ATOM     12  C   UNL     1       5.547   7.395  13.239  1.00  0.00     0.025 A 
ATOM     13  C   UNL     1       5.290   6.115  12.719  1.00  0.00     0.016 A 
ATOM     14  C   UNL     1       6.346   5.278  12.348  1.00  0.00     0.051 A 
ATOM     15  C   UNL     1       7.671   5.713  12.475  1.00  0.00     0.157 A 
ATOM     16  C   UNL     1       6.877   7.835  13.344  1.00  0.00     0.062 A 
ATOM     17  C   UNL     1       7.937   6.999  12.974  1.00  0.00     0.158 A 
BRANCH  15  18
ATOM     18  O   UNL     1       8.722   4.875  12.105  1.00  0.00    -0.504 OA
ATOM     19  H   UNL     1       9.676   5.060  12.396  1.00  0.00     0.293 HD
ENDBRANCH  15  18
BRANCH  17  20
ATOM     20  O   UNL     1       9.245   7.465  13.107  1.00  0.00    -0.504 OA
ATOM     21  H   UNL     1       9.843   7.624  12.305  1.00  0.00     0.293 HD
ENDBRANCH  17  20
ENDBRANCH   1  12
BRANCH   2  22
ATOM     22  O   UNL     1       5.156   8.370  15.939  1.00  0.00    -0.502 OA
ATOM     23  H   UNL     1       5.027   8.622  16.912  1.00  0.00     0.293 HD
ENDBRANCH   2  22
BRANCH   6  24
ATOM     24  O   UNL     1       0.658  11.206  15.633  1.00  0.00    -0.507 OA
ATOM     25  H   UNL     1       0.915  10.778  16.510  1.00  0.00     0.293 HD
ENDBRANCH   6  24
BRANCH   8  26
ATOM     26  O   UNL     1       0.001  11.229  10.876  1.00  0.00    -0.508 OA
ATOM     27  H   UNL     1      -0.059  12.207  10.616  1.00  0.00     0.293 HD
ENDBRANCH   8  26
TORSDOF 6
ENDMDL
MODEL 2
REMARK VINA RESULT:    14.181      2.700      4.929
REMARK INTER + INTRA:          16.934
REMARK INTER:                  16.719
REMARK INTRA:                   0.215
REMARK UNBOUND:                -0.149
REMARK SMILES O=c1c(O)c(-c2ccc(O)c(O)c2)oc2cc(O)cc(O)c12
REMARK SMILES IDX 5 1 3 2 2 3 1 4 22 5 20 6 19 7 17 8 16 9 15 10 14 11 6 12
REMARK SMILES IDX 7 13 8 14 9 15 13 16 11 17 10 18 12 20 4 22 21 24 18 26
REMARK H PARENT 10 19 12 21 4 23 21 25 18 27
REMARK Flexibility Score: inf
ROOT
ATOM      1  C   UNL     1       7.896   7.709  13.993  1.00  0.00     0.180 A 
ATOM      2  C   UNL     1       7.607   6.513  13.312  1.00  0.00     0.208 A 
ATOM      3  C   UNL     1       6.283   6.255  12.922  1.00  0.00     0.238 A 
ATOM      4  O   UNL     1       6.022   5.159  12.362  1.00  0.00    -0.285 OA
ATOM      5  C   UNL     1       5.269   7.203  13.200  1.00  0.00     0.111 A 
ATOM      6  C   UNL     1       3.902   7.063  12.814  1.00  0.00     0.134 A 
ATOM      7  C   UNL     1       2.960   8.001  13.257  1.00  0.00     0.093 A 
ATOM      8  C   UNL     1       3.349   9.108  14.016  1.00  0.00     0.123 A 
ATOM      9  C   UNL     1       4.689   9.283  14.347  1.00  0.00     0.094 A 
ATOM     10  C   UNL     1       5.646   8.346  13.951  1.00  0.00     0.146 A 
ATOM     11  O   UNL     1       6.913   8.547  14.297  1.00  0.00    -0.452 OA
ENDROOT
BRANCH   1  12
ATOM     12  C   UNL     1       9.271   8.062  14.414  1.00  0.00     0.025 A 
ATOM     13  C   UNL     1       9.521   8.684  15.650  1.00  0.00     0.016 A 
ATOM     14  C   UNL     1      10.829   8.986  16.037  1.00  0.00     0.051 A 
ATOM     15  C   UNL     1      11.907   8.659  15.204  1.00  0.00     0.157 A 
ATOM     16  C   UNL     1      10.356   7.717  13.592  1.00  0.00     0.062 A 
ATOM     17  C   UNL     1      11.668   8.018  13.977  1.00  0.00     0.158 A 
BRANCH  15  18
ATOM     18  O   UNL     1      13.211   8.963  15.592  1.00  0.00    -0.504 OA
ATOM     19  H   UNL     1      14.001   8.787  14.983  1.00  0.00     0.293 HD
ENDBRANCH  15  18
BRANCH  17  20
ATOM     20  O   UNL     1      12.719   7.673  13.127  1.00  0.00    -0.504 OA
ATOM     21  H   UNL     1      12.882   8.154  12.250  1.00  0.00     0.293 HD
ENDBRANCH  17  20
ENDBRANCH   1  12
BRANCH   2  22
ATOM     22  O   UNL     1       8.620   5.582  13.068  1.00  0.00    -0.502 OA
ATOM     23  H   UNL     1       8.858   4.851  13.728  1.00  0.00     0.293 HD
ENDBRANCH   2  22
BRANCH   6  24
ATOM     24  O   UNL     1       3.425   6.046  11.982  1.00  0.00    -0.507 OA
ATOM     25  H   UNL     1       2.834   5.286  12.285  1.00  0.00     0.293 HD
ENDBRANCH   6  24
BRANCH   8  26
ATOM     26  O   UNL     1       2.408  10.044  14.439  1.00  0.00    -0.508 OA
ATOM     27  H   UNL     1       2.552  10.602  15.272  1.00  0.00     0.293 HD
ENDBRANCH   8  26
TORSDOF 6
ENDMDL
MODEL 3
REMARK VINA RESULT:    14.289      2.800      6.391
REMARK INTER + INTRA:          17.064
REMARK INTER:                  16.620
REMARK INTRA:                   0.445
REMARK UNBOUND:                -0.149
REMARK SMILES O=c1c(O)c(-c2ccc(O)c(O)c2)oc2cc(O)cc(O)c12
REMARK SMILES IDX 5 1 3 2 2 3 1 4 22 5 20 6 19 7 17 8 16 9 15 10 14 11 6 12
REMARK SMILES IDX 7 13 8 14 9 15 13 16 11 17 10 18 12 20 4 22 21 24 18 26
REMARK H PARENT 10 19 12 21 4 23 21 25 18 27
REMARK Flexibility Score: inf
ROOT
ATOM      1  C   UNL     1       3.616   9.079  16.046  1.00  0.00     0.180 A 
ATOM      2  C   UNL     1       2.973   9.972  15.170  1.00  0.00     0.208 A 
ATOM      3  C   UNL     1       3.224   9.872  13.792  1.00  0.00     0.238 A 
ATOM      4  O   UNL     1       2.689  10.709  13.019  1.00  0.00    -0.285 OA
ATOM      5  C   UNL     1       4.098   8.870  13.305  1.00  0.00     0.111 A 
ATOM      6  C   UNL     1       4.391   8.651  11.925  1.00  0.00     0.134 A 
ATOM      7  C   UNL     1       5.372   7.717  11.568  1.00  0.00     0.093 A 
ATOM      8  C   UNL     1       6.020   6.948  12.537  1.00  0.00     0.123 A 
ATOM      9  C   UNL     1       5.698   7.112  13.881  1.00  0.00     0.094 A 
ATOM     10  C   UNL     1       4.750   8.062  14.272  1.00  0.00     0.146 A 
ATOM     11  O   UNL     1       4.480   8.194  15.565  1.00  0.00    -0.452 OA
ENDROOT
BRANCH   1  12
ATOM     12  C   UNL     1       3.384   9.107  17.508  1.00  0.00     0.025 A 
ATOM     13  C   UNL     1       2.717  10.181  18.123  1.00  0.00     0.016 A 
ATOM     14  C   UNL     1       2.488  10.174  19.502  1.00  0.00     0.051 A 
ATOM     15  C   UNL     1       2.908   9.090  20.283  1.00  0.00     0.157 A 
ATOM     16  C   UNL     1       3.784   8.013  18.292  1.00  0.00     0.062 A 
ATOM     17  C   UNL     1       3.556   8.003  19.674  1.00  0.00     0.158 A 
BRANCH  15  18
ATOM     18  O   UNL     1       2.680   9.086  21.658  1.00  0.00    -0.504 OA
ATOM     19  H   UNL     1       2.165   9.832  22.113  1.00  0.00     0.293 HD
ENDBRANCH  15  18
BRANCH  17  20
ATOM     20  O   UNL     1       3.981   6.905  20.422  1.00  0.00    -0.504 OA
ATOM     21  H   UNL     1       4.068   6.943  21.431  1.00  0.00     0.293 HD
ENDBRANCH  17  20
ENDBRANCH   1  12
BRANCH   2  22
ATOM     22  O   UNL     1       2.132  10.967  15.674  1.00  0.00    -0.502 OA
ATOM     23  H   UNL     1       1.351  11.339  15.145  1.00  0.00     0.293 HD
ENDBRANCH   2  22
BRANCH   6  24
ATOM     24  O   UNL     1       3.735   9.300  10.875  1.00  0.00    -0.507 OA
ATOM     25  H   UNL     1       4.181   9.611  10.024  1.00  0.00     0.293 HD
ENDBRANCH   6  24
BRANCH   8  26
ATOM     26  O   UNL     1       6.983   6.009  12.171  1.00  0.00    -0.508 OA
ATOM     27  H   UNL     1       7.605   5.593  12.854  1.00  0.00     0.293 HD
ENDBRANCH   8  26
TORSDOF 6
ENDMDL
MODEL 4
REMARK VINA RESULT:    15.341      1.697      2.019
REMARK INTER + INTRA:          18.331
REMARK INTER:                  18.204
REMARK INTRA:                   0.128
REMARK UNBOUND:                -0.149
REMARK SMILES O=c1c(O)c(-c2ccc(O)c(O)c2)oc2cc(O)cc(O)c12
REMARK SMILES IDX 5 1 3 2 2 3 1 4 22 5 20 6 19 7 17 8 16 9 15 10 14 11 6 12
REMARK SMILES IDX 7 13 8 14 9 15 13 16 11 17 10 18 12 20 4 22 21 24 18 26
REMARK H PARENT 10 19 12 21 4 23 21 25 18 27
REMARK Flexibility Score: inf
ROOT
ATOM      1  C   UNL     1       4.488   8.110  12.880  1.00  0.00     0.180 A 
ATOM      2  C   UNL     1       3.249   7.705  13.408  1.00  0.00     0.208 A 
ATOM      3  C   UNL     1       2.143   8.562  13.284  1.00  0.00     0.238 A 
ATOM      4  O   UNL     1       1.052   8.218  13.807  1.00  0.00    -0.285 OA
ATOM      5  C   UNL     1       2.285   9.803  12.617  1.00  0.00     0.111 A 
ATOM      6  C   UNL     1       1.222  10.731  12.398  1.00  0.00     0.134 A 
ATOM      7  C   UNL     1       1.505  11.985  11.844  1.00  0.00     0.093 A 
ATOM      8  C   UNL     1       2.800  12.319  11.440  1.00  0.00     0.123 A 
ATOM      9  C   UNL     1       3.832  11.398  11.596  1.00  0.00     0.094 A 
ATOM     10  C   UNL     1       3.589  10.152  12.179  1.00  0.00     0.146 A 
ATOM     11  O   UNL     1       4.604   9.307  12.319  1.00  0.00    -0.452 OA
ENDROOT
BRANCH   1  12
ATOM     12  C   UNL     1       5.692   7.251  12.951  1.00  0.00     0.025 A 
ATOM     13  C   UNL     1       5.611   5.860  12.768  1.00  0.00     0.016 A 
ATOM     14  C   UNL     1       6.765   5.073  12.816  1.00  0.00     0.051 A 
ATOM     15  C   UNL     1       8.016   5.664  13.030  1.00  0.00     0.157 A 
ATOM     16  C   UNL     1       6.952   7.842  13.144  1.00  0.00     0.062 A 
ATOM     17  C   UNL     1       8.109   7.057  13.193  1.00  0.00     0.158 A 
BRANCH  15  18
ATOM     18  O   UNL     1       9.165   4.876  13.079  1.00  0.00    -0.504 OA
ATOM     19  H   UNL     1       9.157   3.907  12.781  1.00  0.00     0.293 HD
ENDBRANCH  15  18
BRANCH  17  20
ATOM     20  O   UNL     1       9.341   7.678  13.402  1.00  0.00    -0.504 OA
ATOM     21  H   UNL     1      10.219   7.193  13.257  1.00  0.00     0.293 HD
ENDBRANCH  17  20
ENDBRANCH   1  12
BRANCH   2  22
ATOM     22  O   UNL     1       3.137   6.486  14.082  1.00  0.00    -0.502 OA
ATOM     23  H   UNL     1       3.904   6.081  14.606  1.00  0.00     0.293 HD
ENDBRANCH   2  22
BRANCH   6  24
ATOM     24  O   UNL     1      -0.120  10.461  12.679  1.00  0.00    -0.507 OA
ATOM     25  H   UNL     1      -0.801  10.163  11.996  1.00  0.00     0.293 HD
ENDBRANCH   6  24
BRANCH   8  26
ATOM     26  O   UNL     1       3.069  13.564  10.875  1.00  0.00    -0.508 OA
ATOM     27  H   UNL     1       3.304  13.662   9.894  1.00  0.00     0.293 HD
ENDBRANCH   8  26
TORSDOF 6
ENDMDL
