MODEL 1
REMARK VINA RESULT:    -3.270      0.000      0.000
REMARK INTER + INTRA:          -7.506
REMARK INTER:                  -5.946
REMARK INTRA:                  -1.561
REMARK UNBOUND:                -1.561
REMARK SMILES CCCCCCCCCCCCCC[C@H](C)C(=O)[O-]
REMARK SMILES IDX 9 1 10 2 11 3 12 4 13 5 14 6 15 7 16 8 17 9 18 10 19 11 8 12
REMARK SMILES IDX 7 13 6 14 5 15 4 16 3 17 2 18 1 19
REMARK H PARENT
REMARK Flexibility Score: inf
ROOT
ATOM      1  C   UNL     1     -13.712 -15.278  19.347  1.00  0.00     0.000 C 
ENDROOT
BRANCH   1   2
ATOM      2  C   UNL     1     -13.628 -16.818  19.390  1.00  0.00     0.000 C 
BRANCH   2   3
ATOM      3  C   UNL     1     -14.702 -17.512  20.248  1.00  0.00     0.000 C 
BRANCH   3   4
ATOM      4  C   UNL     1     -14.137 -18.110  21.548  1.00  0.00     0.000 C 
BRANCH   4   5
ATOM      5  C   UNL     1     -14.882 -17.611  22.797  1.00  0.00     0.001 C 
BRANCH   5   6
ATOM      6  C   UNL     1     -15.103 -16.087  22.791  1.00  0.00     0.009 C 
BRANCH   6   7
ATOM      7  C   UNL     1     -14.026 -15.344  23.608  1.00  0.00     0.032 C 
ATOM      8  C   UNL     1     -14.626 -14.768  24.896  1.00  0.00     0.014 C 
BRANCH   7   9
ATOM      9  C   UNL     1     -13.387 -14.243  22.804  1.00  0.00     0.044 C 
ATOM     10  O   UNL     1     -12.153 -14.267  22.552  1.00  0.00    -0.550 OA
ATOM     11  O   UNL     1     -14.161 -13.190  22.333  1.00  0.00    -0.550 OA
ENDBRANCH   7   9
ENDBRANCH   6   7
ENDBRANCH   5   6
ENDBRANCH   4   5
ENDBRANCH   3   4
ENDBRANCH   2   3
ENDBRANCH   1   2
BRANCH   1  12
ATOM     12  C   UNL     1     -15.125 -14.707  19.131  1.00  0.00     0.000 C 
BRANCH  12  13
ATOM     13  C   UNL     1     -15.114 -13.350  18.408  1.00  0.00    -0.000 C 
BRANCH  13  14
ATOM     14  C   UNL     1     -14.072 -12.376  18.985  1.00  0.00    -0.000 C 
BRANCH  14  15
ATOM     15  C   UNL     1     -13.493 -11.370  17.970  1.00  0.00    -0.000 C 
BRANCH  15  16
ATOM     16  C   UNL     1     -11.962 -11.423  17.793  1.00  0.00    -0.000 C 
BRANCH  16  17
ATOM     17  C   UNL     1     -11.385 -12.827  17.536  1.00  0.00    -0.000 C 
BRANCH  17  18
ATOM     18  C   UNL     1     -10.897 -13.513  18.820  1.00  0.00    -0.003 C 
ATOM     19  C   UNL     1     -10.637 -12.491  19.924  1.00  0.00     0.004 C 
ENDBRANCH  17  18
ENDBRANCH  16  17
ENDBRANCH  15  16
ENDBRANCH  14  15
ENDBRANCH  13  14
ENDBRANCH  12  13
ENDBRANCH   1  12
TORSDOF 14
ENDMDL
MODEL 2
REMARK VINA RESULT:    -2.819      1.433      5.009
REMARK INTER + INTRA:          -6.687
REMARK INTER:                  -5.699
REMARK INTRA:                  -0.988
REMARK UNBOUND:                -1.561
REMARK SMILES CCCCCCCCCCCCCC[C@H](C)C(=O)[O-]
REMARK SMILES IDX 9 1 10 2 11 3 12 4 13 5 14 6 15 7 16 8 17 9 18 10 19 11 8 12
REMARK SMILES IDX 7 13 6 14 5 15 4 16 3 17 2 18 1 19
REMARK H PARENT
REMARK Flexibility Score: inf
ROOT
ATOM      1  C   UNL     1     -10.956 -12.508  18.923  1.00  0.00     0.000 C 
ENDROOT
BRANCH   1   2
ATOM      2  C   UNL     1     -11.786 -11.865  17.793  1.00  0.00     0.000 C 
BRANCH   2   3
ATOM      3  C   UNL     1     -13.208 -11.427  18.189  1.00  0.00     0.000 C 
BRANCH   3   4
ATOM      4  C   UNL     1     -14.162 -12.613  18.406  1.00  0.00     0.000 C 
BRANCH   4   5
ATOM      5  C   UNL     1     -15.125 -12.386  19.584  1.00  0.00     0.001 C 
BRANCH   5   6
ATOM      6  C   UNL     1     -14.979 -13.449  20.687  1.00  0.00     0.009 C 
BRANCH   6   7
ATOM      7  C   UNL     1     -15.122 -12.842  22.098  1.00  0.00     0.032 C 
ATOM      8  C   UNL     1     -14.858 -11.333  22.067  1.00  0.00     0.014 C 
BRANCH   7   9
ATOM      9  C   UNL     1     -14.193 -13.505  23.080  1.00  0.00     0.044 C 
ATOM     10  O   UNL     1     -12.974 -13.667  22.802  1.00  0.00    -0.550 OA
ATOM     11  O   UNL     1     -14.679 -13.944  24.306  1.00  0.00    -0.550 OA
ENDBRANCH   7   9
ENDBRANCH   6   7
ENDBRANCH   5   6
ENDBRANCH   4   5
ENDBRANCH   3   4
ENDBRANCH   2   3
ENDBRANCH   1   2
BRANCH   1  12
ATOM     12  C   UNL     1     -11.007 -14.045  18.977  1.00  0.00     0.000 C 
BRANCH  12  13
ATOM     13  C   UNL     1     -12.189 -14.574  19.807  1.00  0.00    -0.000 C 
BRANCH  13  14
ATOM     14  C   UNL     1     -12.508 -16.051  19.517  1.00  0.00    -0.000 C 
BRANCH  14  15
ATOM     15  C   UNL     1     -13.975 -16.335  19.137  1.00  0.00    -0.000 C 
BRANCH  15  16
ATOM     16  C   UNL     1     -14.511 -17.714  19.573  1.00  0.00    -0.000 C 
BRANCH  16  17
ATOM     17  C   UNL     1     -14.329 -18.040  21.066  1.00  0.00    -0.000 C 
BRANCH  17  18
ATOM     18  C   UNL     1     -14.852 -16.927  21.985  1.00  0.00    -0.003 C 
ATOM     19  C   UNL     1     -14.919 -17.399  23.436  1.00  0.00     0.004 C 
ENDBRANCH  17  18
ENDBRANCH  16  17
ENDBRANCH  15  16
ENDBRANCH  14  15
ENDBRANCH  13  14
ENDBRANCH  12  13
ENDBRANCH   1  12
TORSDOF 14
ENDMDL
MODEL 3
REMARK VINA RESULT:    -2.792      1.464      2.692
REMARK INTER + INTRA:          -6.638
REMARK INTER:                  -5.329
REMARK INTRA:                  -1.308
REMARK UNBOUND:                -1.561
REMARK SMILES CCCCCCCCCCCCCC[C@H](C)C(=O)[O-]
REMARK SMILES IDX 9 1 10 2 11 3 12 4 13 5 14 6 15 7 16 8 17 9 18 10 19 11 8 12
REMARK SMILES IDX 7 13 6 14 5 15 4 16 3 17 2 18 1 19
REMARK H PARENT
REMARK Flexibility Score: inf
ROOT
ATOM      1  C   UNL     1     -14.522 -13.051  19.342  1.00  0.00     0.000 C 
ENDROOT
BRANCH   1   2
ATOM      2  C   UNL     1     -14.634 -14.491  18.800  1.00  0.00     0.000 C 
BRANCH   2   3
ATOM      3  C   UNL     1     -15.116 -15.542  19.816  1.00  0.00     0.000 C 
BRANCH   3   4
ATOM      4  C   UNL     1     -14.368 -16.881  19.695  1.00  0.00     0.000 C 
BRANCH   4   5
ATOM      5  C   UNL     1     -14.419 -17.702  20.994  1.00  0.00     0.001 C 
BRANCH   5   6
ATOM      6  C   UNL     1     -15.125 -16.958  22.143  1.00  0.00     0.009 C 
BRANCH   6   7
ATOM      7  C   UNL     1     -14.165 -16.653  23.311  1.00  0.00     0.032 C 
ATOM      8  C   UNL     1     -14.325 -17.690  24.428  1.00  0.00     0.014 C 
BRANCH   7   9
ATOM      9  C   UNL     1     -14.388 -15.269  23.860  1.00  0.00     0.044 C 
ATOM     10  O   UNL     1     -15.125 -14.448  23.251  1.00  0.00    -0.550 OA
ATOM     11  O   UNL     1     -13.779 -14.890  25.050  1.00  0.00    -0.550 OA
ENDBRANCH   7   9
ENDBRANCH   6   7
ENDBRANCH   5   6
ENDBRANCH   4   5
ENDBRANCH   3   4
ENDBRANCH   2   3
ENDBRANCH   1   2
BRANCH   1  12
ATOM     12  C   UNL     1     -14.129 -12.942  20.826  1.00  0.00     0.000 C 
BRANCH  12  13
ATOM     13  C   UNL     1     -12.610 -13.030  21.048  1.00  0.00    -0.000 C 
BRANCH  13  14
ATOM     14  C   UNL     1     -11.991 -14.298  20.435  1.00  0.00    -0.000 C 
BRANCH  14  15
ATOM     15  C   UNL     1     -10.832 -14.042  19.449  1.00  0.00    -0.000 C 
BRANCH  15  16
ATOM     16  C   UNL     1     -10.690 -12.585  18.967  1.00  0.00    -0.000 C 
BRANCH  16  17
ATOM     17  C   UNL     1     -11.160 -12.329  17.523  1.00  0.00    -0.000 C 
BRANCH  17  18
ATOM     18  C   UNL     1     -12.121 -11.137  17.414  1.00  0.00    -0.003 C 
ATOM     19  C   UNL     1     -11.434  -9.934  16.772  1.00  0.00     0.004 C 
ENDBRANCH  17  18
ENDBRANCH  16  17
ENDBRANCH  15  16
ENDBRANCH  14  15
ENDBRANCH  13  14
ENDBRANCH  12  13
ENDBRANCH   1  12
TORSDOF 14
ENDMDL
MODEL 4
REMARK VINA RESULT:    -2.742      1.715      5.968
REMARK INTER + INTRA:          -6.547
REMARK INTER:                  -5.442
REMARK INTRA:                  -1.106
REMARK UNBOUND:                -1.561
REMARK SMILES CCCCCCCCCCCCCC[C@H](C)C(=O)[O-]
REMARK SMILES IDX 9 1 10 2 11 3 12 4 13 5 14 6 15 7 16 8 17 9 18 10 19 11 8 12
REMARK SMILES IDX 7 13 6 14 5 15 4 16 3 17 2 18 1 19
REMARK H PARENT
REMARK Flexibility Score: inf
ROOT
ATOM      1  C   UNL     1     -13.267 -15.793  19.271  1.00  0.00     0.000 C 
ENDROOT
BRANCH   1   2
ATOM      2  C   UNL     1     -14.679 -15.227  19.015  1.00  0.00     0.000 C 
BRANCH   2   3
ATOM      3  C   UNL     1     -15.121 -14.103  19.970  1.00  0.00     0.000 C 
BRANCH   3   4
ATOM      4  C   UNL     1     -14.141 -12.919  19.996  1.00  0.00     0.000 C 
BRANCH   4   5
ATOM      5  C   UNL     1     -14.515 -11.823  18.984  1.00  0.00     0.001 C 
BRANCH   5   6
ATOM      6  C   UNL     1     -13.568 -11.785  17.770  1.00  0.00     0.009 C 
BRANCH   6   7
ATOM      7  C   UNL     1     -12.148 -11.324  18.158  1.00  0.00     0.032 C 
ATOM      8  C   UNL     1     -11.537 -10.461  17.049  1.00  0.00     0.014 C 
BRANCH   7   9
ATOM      9  C   UNL     1     -11.249 -12.497  18.449  1.00  0.00     0.044 C 
ATOM     10  O   UNL     1     -11.277 -13.523  17.717  1.00  0.00    -0.550 OA
ATOM     11  O   UNL     1     -10.379 -12.452  19.531  1.00  0.00    -0.550 OA
ENDBRANCH   7   9
ENDBRANCH   6   7
ENDBRANCH   5   6
ENDBRANCH   4   5
ENDBRANCH   3   4
ENDBRANCH   2   3
ENDBRANCH   1   2
BRANCH   1  12
ATOM     12  C   UNL     1     -13.163 -16.782  20.446  1.00  0.00     0.000 C 
BRANCH  12  13
ATOM     13  C   UNL     1     -14.511 -17.436  20.795  1.00  0.00    -0.000 C 
BRANCH  13  14
ATOM     14  C   UNL     1     -15.111 -16.900  22.106  1.00  0.00    -0.000 C 
BRANCH  14  15
ATOM     15  C   UNL     1     -14.319 -17.264  23.378  1.00  0.00    -0.000 C 
BRANCH  15  16
ATOM     16  C   UNL     1     -14.723 -16.489  24.648  1.00  0.00    -0.000 C 
BRANCH  16  17
ATOM     17  C   UNL     1     -14.067 -15.105  24.802  1.00  0.00    -0.000 C 
BRANCH  17  18
ATOM     18  C   UNL     1     -14.163 -14.257  23.526  1.00  0.00    -0.003 C 
ATOM     19  C   UNL     1     -12.812 -13.639  23.174  1.00  0.00     0.004 C 
ENDBRANCH  17  18
ENDBRANCH  16  17
ENDBRANCH  15  16
ENDBRANCH  14  15
ENDBRANCH  13  14
ENDBRANCH  12  13
ENDBRANCH   1  12
TORSDOF 14
ENDMDL
MODEL 5
REMARK VINA RESULT:    -2.362      1.061      2.152
REMARK INTER + INTRA:          -5.856
REMARK INTER:                  -5.477
REMARK INTRA:                  -0.379
REMARK UNBOUND:                -1.561
REMARK SMILES CCCCCCCCCCCCCC[C@H](C)C(=O)[O-]
REMARK SMILES IDX 9 1 10 2 11 3 12 4 13 5 14 6 15 7 16 8 17 9 18 10 19 11 8 12
REMARK SMILES IDX 7 13 6 14 5 15 4 16 3 17 2 18 1 19
REMARK H PARENT
REMARK Flexibility Score: inf
ROOT
ATOM      1  C   UNL     1     -14.378 -15.319  19.168  1.00  0.00     0.000 C 
ENDROOT
BRANCH   1   2
ATOM      2  C   UNL     1     -15.018 -16.695  19.444  1.00  0.00     0.000 C 
BRANCH   2   3
ATOM      3  C   UNL     1     -14.048 -17.787  19.931  1.00  0.00     0.000 C 
BRANCH   3   4
ATOM      4  C   UNL     1     -13.856 -17.781  21.457  1.00  0.00     0.000 C 
BRANCH   4   5
ATOM      5  C   UNL     1     -15.114 -17.313  22.207  1.00  0.00     0.001 C 
BRANCH   5   6
ATOM      6  C   UNL     1     -15.118 -15.797  22.476  1.00  0.00     0.009 C 
BRANCH   6   7
ATOM      7  C   UNL     1     -14.085 -15.397  23.550  1.00  0.00     0.032 C 
ATOM      8  C   UNL     1     -14.485 -15.956  24.920  1.00  0.00     0.014 C 
BRANCH   7   9
ATOM      9  C   UNL     1     -13.928 -13.902  23.633  1.00  0.00     0.044 C 
ATOM     10  O   UNL     1     -12.797 -13.367  23.482  1.00  0.00    -0.550 OA
ATOM     11  O   UNL     1     -15.037 -13.101  23.876  1.00  0.00    -0.550 OA
ENDBRANCH   7   9
ENDBRANCH   6   7
ENDBRANCH   5   6
ENDBRANCH   4   5
ENDBRANCH   3   4
ENDBRANCH   2   3
ENDBRANCH   1   2
BRANCH   1  12
ATOM     12  C   UNL     1     -12.839 -15.303  19.171  1.00  0.00     0.000 C 
BRANCH  12  13
ATOM     13  C   UNL     1     -12.253 -14.615  20.416  1.00  0.00    -0.000 C 
BRANCH  13  14
ATOM     14  C   UNL     1     -11.879 -13.144  20.163  1.00  0.00    -0.000 C 
BRANCH  14  15
ATOM     15  C   UNL     1     -10.928 -12.913  18.971  1.00  0.00    -0.000 C 
BRANCH  15  16
ATOM     16  C   UNL     1     -11.604 -12.414  17.679  1.00  0.00    -0.000 C 
BRANCH  16  17
ATOM     17  C   UNL     1     -12.665 -11.317  17.881  1.00  0.00    -0.000 C 
BRANCH  17  18
ATOM     18  C   UNL     1     -13.756 -11.723  18.881  1.00  0.00    -0.003 C 
ATOM     19  C   UNL     1     -15.124 -11.789  18.206  1.00  0.00     0.004 C 
ENDBRANCH  17  18
ENDBRANCH  16  17
ENDBRANCH  15  16
ENDBRANCH  14  15
ENDBRANCH  13  14
ENDBRANCH  12  13
ENDBRANCH   1  12
TORSDOF 14
ENDMDL
MODEL 6
REMARK VINA RESULT:    -2.213      1.929      3.428
REMARK INTER + INTRA:          -5.585
REMARK INTER:                  -5.180
REMARK INTRA:                  -0.404
REMARK UNBOUND:                -1.561
REMARK SMILES CCCCCCCCCCCCCC[C@H](C)C(=O)[O-]
REMARK SMILES IDX 9 1 10 2 11 3 12 4 13 5 14 6 15 7 16 8 17 9 18 10 19 11 8 12
REMARK SMILES IDX 7 13 6 14 5 15 4 16 3 17 2 18 1 19
REMARK H PARENT
REMARK Flexibility Score: inf
ROOT
ATOM      1  C   UNL     1     -14.471 -11.365  20.817  1.00  0.00     0.000 C 
ENDROOT
BRANCH   1   2
ATOM      2  C   UNL     1     -14.761 -12.288  22.018  1.00  0.00     0.000 C 
BRANCH   2   3
ATOM      3  C   UNL     1     -13.607 -13.222  22.424  1.00  0.00     0.000 C 
BRANCH   3   4
ATOM      4  C   UNL     1     -13.853 -13.933  23.766  1.00  0.00     0.000 C 
BRANCH   4   5
ATOM      5  C   UNL     1     -14.166 -15.428  23.590  1.00  0.00     0.001 C 
BRANCH   5   6
ATOM      6  C   UNL     1     -13.814 -15.950  22.185  1.00  0.00     0.009 C 
BRANCH   6   7
ATOM      7  C   UNL     1     -14.991 -16.708  21.538  1.00  0.00     0.032 C 
ATOM      8  C   UNL     1     -15.103 -18.125  22.112  1.00  0.00     0.014 C 
BRANCH   7   9
ATOM      9  C   UNL     1     -14.850 -16.771  20.040  1.00  0.00     0.044 C 
ATOM     10  O   UNL     1     -14.483 -17.836  19.475  1.00  0.00    -0.550 OA
ATOM     11  O   UNL     1     -15.125 -15.647  19.271  1.00  0.00    -0.550 OA
ENDBRANCH   7   9
ENDBRANCH   6   7
ENDBRANCH   5   6
ENDBRANCH   4   5
ENDBRANCH   3   4
ENDBRANCH   2   3
ENDBRANCH   1   2
BRANCH   1  12
ATOM     12  C   UNL     1     -14.911 -11.916  19.449  1.00  0.00     0.000 C 
BRANCH  12  13
ATOM     13  C   UNL     1     -13.733 -12.450  18.616  1.00  0.00    -0.000 C 
BRANCH  13  14
ATOM     14  C   UNL     1     -12.916 -11.327  17.953  1.00  0.00    -0.000 C 
BRANCH  14  15
ATOM     15  C   UNL     1     -11.674 -11.804  17.173  1.00  0.00    -0.000 C 
BRANCH  15  16
ATOM     16  C   UNL     1     -10.740 -12.759  17.944  1.00  0.00    -0.000 C 
BRANCH  16  17
ATOM     17  C   UNL     1     -10.698 -12.537  19.467  1.00  0.00    -0.000 C 
BRANCH  17  18
ATOM     18  C   UNL     1     -11.378 -13.669  20.251  1.00  0.00    -0.003 C 
ATOM     19  C   UNL     1     -11.908 -14.747  19.310  1.00  0.00     0.004 C 
ENDBRANCH  17  18
ENDBRANCH  16  17
ENDBRANCH  15  16
ENDBRANCH  14  15
ENDBRANCH  13  14
ENDBRANCH  12  13
ENDBRANCH   1  12
TORSDOF 14
ENDMDL
MODEL 7
REMARK VINA RESULT:    -1.858      1.811      3.504
REMARK INTER + INTRA:          -4.940
REMARK INTER:                  -3.315
REMARK INTRA:                  -1.625
REMARK UNBOUND:                -1.561
REMARK SMILES CCCCCCCCCCCCCC[C@H](C)C(=O)[O-]
REMARK SMILES IDX 9 1 10 2 11 3 12 4 13 5 14 6 15 7 16 8 17 9 18 10 19 11 8 12
REMARK SMILES IDX 7 13 6 14 5 15 4 16 3 17 2 18 1 19
REMARK H PARENT
REMARK Flexibility Score: inf
ROOT
ATOM      1  C   UNL     1     -12.562 -13.094  23.317  1.00  0.00     0.000 C 
ENDROOT
BRANCH   1   2
ATOM      2  C   UNL     1     -12.619 -14.455  24.041  1.00  0.00     0.000 C 
BRANCH   2   3
ATOM      3  C   UNL     1     -13.889 -14.704  24.876  1.00  0.00     0.000 C 
BRANCH   3   4
ATOM      4  C   UNL     1     -15.125 -15.006  24.013  1.00  0.00     0.000 C 
BRANCH   4   5
ATOM      5  C   UNL     1     -14.985 -16.319  23.225  1.00  0.00     0.001 C 
BRANCH   5   6
ATOM      6  C   UNL     1     -15.125 -16.121  21.705  1.00  0.00     0.009 C 
BRANCH   6   7
ATOM      7  C   UNL     1     -14.533 -17.303  20.910  1.00  0.00     0.032 C 
ATOM      8  C   UNL     1     -13.544 -18.094  21.773  1.00  0.00     0.014 C 
BRANCH   7   9
ATOM      9  C   UNL     1     -13.853 -16.834  19.650  1.00  0.00     0.044 C 
ATOM     10  O   UNL     1     -13.609 -17.642  18.715  1.00  0.00    -0.550 OA
ATOM     11  O   UNL     1     -13.492 -15.499  19.514  1.00  0.00    -0.550 OA
ENDBRANCH   7   9
ENDBRANCH   6   7
ENDBRANCH   5   6
ENDBRANCH   4   5
ENDBRANCH   3   4
ENDBRANCH   2   3
ENDBRANCH   1   2
BRANCH   1  12
ATOM     12  C   UNL     1     -13.101 -13.099  21.876  1.00  0.00     0.000 C 
BRANCH  12  13
ATOM     13  C   UNL     1     -14.530 -12.540  21.773  1.00  0.00    -0.000 C 
BRANCH  13  14
ATOM     14  C   UNL     1     -15.078 -12.565  20.335  1.00  0.00    -0.000 C 
BRANCH  14  15
ATOM     15  C   UNL     1     -14.470 -11.508  19.391  1.00  0.00    -0.000 C 
BRANCH  15  16
ATOM     16  C   UNL     1     -13.763 -12.071  18.142  1.00  0.00    -0.000 C 
BRANCH  16  17
ATOM     17  C   UNL     1     -12.347 -11.522  17.893  1.00  0.00    -0.000 C 
BRANCH  17  18
ATOM     18  C   UNL     1     -11.273 -12.619  17.910  1.00  0.00    -0.003 C 
ATOM     19  C   UNL     1     -10.848 -12.949  19.339  1.00  0.00     0.004 C 
ENDBRANCH  17  18
ENDBRANCH  16  17
ENDBRANCH  15  16
ENDBRANCH  14  15
ENDBRANCH  13  14
ENDBRANCH  12  13
ENDBRANCH   1  12
TORSDOF 14
ENDMDL
MODEL 8
REMARK VINA RESULT:    -1.775      2.210      5.726
REMARK INTER + INTRA:          -4.788
REMARK INTER:                  -4.477
REMARK INTRA:                  -0.311
REMARK UNBOUND:                -1.561
REMARK SMILES CCCCCCCCCCCCCC[C@H](C)C(=O)[O-]
REMARK SMILES IDX 9 1 10 2 11 3 12 4 13 5 14 6 15 7 16 8 17 9 18 10 19 11 8 12
REMARK SMILES IDX 7 13 6 14 5 15 4 16 3 17 2 18 1 19
REMARK H PARENT
REMARK Flexibility Score: inf
ROOT
ATOM      1  C   UNL     1     -15.124 -13.777  18.820  1.00  0.00     0.000 C 
ENDROOT
BRANCH   1   2
ATOM      2  C   UNL     1     -15.007 -13.454  20.324  1.00  0.00     0.000 C 
BRANCH   2   3
ATOM      3  C   UNL     1     -13.856 -12.507  20.706  1.00  0.00     0.000 C 
BRANCH   3   4
ATOM      4  C   UNL     1     -12.633 -13.247  21.274  1.00  0.00     0.000 C 
BRANCH   4   5
ATOM      5  C   UNL     1     -12.027 -14.239  20.268  1.00  0.00     0.001 C 
BRANCH   5   6
ATOM      6  C   UNL     1     -12.130 -13.749  18.812  1.00  0.00     0.009 C 
BRANCH   6   7
ATOM      7  C   UNL     1     -11.092 -12.652  18.496  1.00  0.00     0.032 C 
ATOM      8  C   UNL     1     -10.379 -12.198  19.774  1.00  0.00     0.014 C 
BRANCH   7   9
ATOM      9  C   UNL     1     -11.731 -11.469  17.817  1.00  0.00     0.044 C 
ATOM     10  O   UNL     1     -12.981 -11.314  17.841  1.00  0.00    -0.550 OA
ATOM     11  O   UNL     1     -10.938 -10.538  17.158  1.00  0.00    -0.550 OA
ENDBRANCH   7   9
ENDBRANCH   6   7
ENDBRANCH   5   6
ENDBRANCH   4   5
ENDBRANCH   3   4
ENDBRANCH   2   3
ENDBRANCH   1   2
BRANCH   1  12
ATOM     12  C   UNL     1     -15.046 -15.273  18.465  1.00  0.00     0.000 C 
BRANCH  12  13
ATOM     13  C   UNL     1     -15.125 -16.183  19.702  1.00  0.00    -0.000 C 
BRANCH  13  14
ATOM     14  C   UNL     1     -13.879 -17.072  19.868  1.00  0.00    -0.000 C 
BRANCH  14  15
ATOM     15  C   UNL     1     -13.652 -17.609  21.296  1.00  0.00    -0.000 C 
BRANCH  15  16
ATOM     16  C   UNL     1     -14.723 -17.202  22.329  1.00  0.00    -0.000 C 
BRANCH  16  17
ATOM     17  C   UNL     1     -14.181 -16.854  23.726  1.00  0.00    -0.000 C 
BRANCH  17  18
ATOM     18  C   UNL     1     -13.914 -15.353  23.903  1.00  0.00    -0.003 C 
ATOM     19  C   UNL     1     -15.056 -14.678  24.660  1.00  0.00     0.004 C 
ENDBRANCH  17  18
ENDBRANCH  16  17
ENDBRANCH  15  16
ENDBRANCH  14  15
ENDBRANCH  13  14
ENDBRANCH  12  13
ENDBRANCH   1  12
TORSDOF 14
ENDMDL
