MODEL 1
REMARK VINA RESULT:    -2.809      0.000      0.000
REMARK INTER + INTRA:          -2.809
REMARK INTER:                  -2.809
REMARK INTRA:                   0.000
REMARK UNBOUND:                 0.000
REMARK SMILES CC(=O)[O-]
REMARK SMILES IDX 1 1 2 2 3 3 4 4
REMARK H PARENT
REMARK Flexibility Score: inf
ROOT
ATOM      1  C   UNL     1      16.881  -2.137   6.242  1.00  0.00     0.063 C 
ATOM      2  C   UNL     1      18.349  -1.903   6.349  1.00  0.00     0.038 C 
ATOM      3  O   UNL     1      19.029  -1.668   5.315  1.00  0.00    -0.550 OA
ATOM      4  O   UNL     1      18.981  -1.997   7.582  1.00  0.00    -0.550 OA
ENDROOT
TORSDOF 0
ENDMDL
MODEL 2
REMARK VINA RESULT:    -2.786      1.583      2.020
REMARK INTER + INTRA:          -2.786
REMARK INTER:                  -2.786
REMARK INTRA:                   0.000
REMARK UNBOUND:                 0.000
REMARK SMILES CC(=O)[O-]
REMARK SMILES IDX 1 1 2 2 3 3 4 4
REMARK H PARENT
REMARK Flexibility Score: inf
ROOT
ATOM      1  C   UNL     1      18.994  -1.745   5.531  1.00  0.00     0.063 C 
ATOM      2  C   UNL     1      18.415  -2.001   6.881  1.00  0.00     0.038 C 
ATOM      3  O   UNL     1      19.170  -2.116   7.882  1.00  0.00    -0.550 OA
ATOM      4  O   UNL     1      17.043  -2.168   7.029  1.00  0.00    -0.550 OA
ENDROOT
TORSDOF 0
ENDMDL
MODEL 3
REMARK VINA RESULT:    -2.727      1.451      1.788
REMARK INTER + INTRA:          -2.727
REMARK INTER:                  -2.727
REMARK INTRA:                   0.000
REMARK UNBOUND:                 0.000
REMARK SMILES CC(=O)[O-]
REMARK SMILES IDX 1 1 2 2 3 3 4 4
REMARK H PARENT
REMARK Flexibility Score: inf
ROOT
ATOM      1  C   UNL     1      19.258  -2.066   7.524  1.00  0.00     0.063 C 
ATOM      2  C   UNL     1      18.579  -1.941   6.203  1.00  0.00     0.038 C 
ATOM      3  O   UNL     1      19.235  -1.596   5.185  1.00  0.00    -0.550 OA
ATOM      4  O   UNL     1      17.210  -2.152   6.102  1.00  0.00    -0.550 OA
ENDROOT
TORSDOF 0
ENDMDL
MODEL 4
REMARK VINA RESULT:    -2.719      8.242      8.679
REMARK INTER + INTRA:          -2.719
REMARK INTER:                  -2.719
REMARK INTRA:                   0.000
REMARK UNBOUND:                 0.000
REMARK SMILES CC(=O)[O-]
REMARK SMILES IDX 1 1 2 2 3 3 4 4
REMARK H PARENT
REMARK Flexibility Score: inf
ROOT
ATOM      1  C   UNL     1      26.016   3.233   7.453  1.00  0.00     0.063 C 
ATOM      2  C   UNL     1      25.691   1.950   8.140  1.00  0.00     0.038 C 
ATOM      3  O   UNL     1      25.298   0.958   7.472  1.00  0.00    -0.550 OA
ATOM      4  O   UNL     1      25.768   1.862   9.524  1.00  0.00    -0.550 OA
ENDROOT
TORSDOF 0
ENDMDL
MODEL 5
REMARK VINA RESULT:    -2.588      8.351      8.732
REMARK INTER + INTRA:          -2.588
REMARK INTER:                  -2.588
REMARK INTRA:                   0.000
REMARK UNBOUND:                 0.000
REMARK SMILES CC(=O)[O-]
REMARK SMILES IDX 1 1 2 2 3 3 4 4
REMARK H PARENT
REMARK Flexibility Score: inf
ROOT
ATOM      1  C   UNL     1      25.501   2.313   9.499  1.00  0.00     0.063 C 
ATOM      2  C   UNL     1      25.666   2.213   8.021  1.00  0.00     0.038 C 
ATOM      3  O   UNL     1      26.090   3.199   7.364  1.00  0.00    -0.550 OA
ATOM      4  O   UNL     1      25.299   1.049   7.357  1.00  0.00    -0.550 OA
ENDROOT
TORSDOF 0
ENDMDL
MODEL 6
REMARK VINA RESULT:    -2.412      9.004      9.061
REMARK INTER + INTRA:          -2.412
REMARK INTER:                  -2.412
REMARK INTRA:                   0.000
REMARK UNBOUND:                 0.000
REMARK SMILES CC(=O)[O-]
REMARK SMILES IDX 1 1 2 2 3 3 4 4
REMARK H PARENT
REMARK Flexibility Score: inf
ROOT
ATOM      1  C   UNL     1      25.932   1.999   9.197  1.00  0.00     0.063 C 
ATOM      2  C   UNL     1      25.190   3.221   8.774  1.00  0.00     0.038 C 
ATOM      3  O   UNL     1      25.444   3.764   7.667  1.00  0.00    -0.550 OA
ATOM      4  O   UNL     1      24.253   3.795   9.625  1.00  0.00    -0.550 OA
ENDROOT
TORSDOF 0
ENDMDL
MODEL 7
REMARK VINA RESULT:    -2.392      9.960     10.618
REMARK INTER + INTRA:          -2.392
REMARK INTER:                  -2.392
REMARK INTRA:                   0.000
REMARK UNBOUND:                 0.000
REMARK SMILES CC(=O)[O-]
REMARK SMILES IDX 1 1 2 2 3 3 4 4
REMARK H PARENT
REMARK Flexibility Score: inf
ROOT
ATOM      1  C   UNL     1      10.674   2.161  -0.376  1.00  0.00     0.063 C 
ATOM      2  C   UNL     1      11.930   1.735  -1.057  1.00  0.00     0.038 C 
ATOM      3  O   UNL     1      12.674   0.868  -0.527  1.00  0.00    -0.550 OA
ATOM      4  O   UNL     1      12.311   2.332  -2.252  1.00  0.00    -0.550 OA
ENDROOT
TORSDOF 0
ENDMDL
MODEL 8
REMARK VINA RESULT:    -2.379     10.346     10.962
REMARK INTER + INTRA:          -2.379
REMARK INTER:                  -2.379
REMARK INTRA:                   0.000
REMARK UNBOUND:                 0.000
REMARK SMILES CC(=O)[O-]
REMARK SMILES IDX 1 1 2 2 3 3 4 4
REMARK H PARENT
REMARK Flexibility Score: inf
ROOT
ATOM      1  C   UNL     1      12.117   2.446  -2.320  1.00  0.00     0.063 C 
ATOM      2  C   UNL     1      11.557   1.732  -1.136  1.00  0.00     0.038 C 
ATOM      3  O   UNL     1      12.319   1.093  -0.364  1.00  0.00    -0.550 OA
ATOM      4  O   UNL     1      10.186   1.726  -0.912  1.00  0.00    -0.550 OA
ENDROOT
TORSDOF 0
ENDMDL
MODEL 9
REMARK VINA RESULT:    -2.295     11.525     11.971
REMARK INTER + INTRA:          -2.295
REMARK INTER:                  -2.295
REMARK INTRA:                   0.000
REMARK UNBOUND:                 0.000
REMARK SMILES CC(=O)[O-]
REMARK SMILES IDX 1 1 2 2 3 3 4 4
REMARK H PARENT
REMARK Flexibility Score: inf
ROOT
ATOM      1  C   UNL     1      12.137   1.651  -1.222  1.00  0.00     0.063 C 
ATOM      2  C   UNL     1      11.265   1.634  -2.431  1.00  0.00     0.038 C 
ATOM      3  O   UNL     1      10.043   1.920  -2.333  1.00  0.00    -0.550 OA
ATOM      4  O   UNL     1      11.786   1.251  -3.660  1.00  0.00    -0.550 OA
ENDROOT
TORSDOF 0
ENDMDL
