MODEL 1
REMARK VINA RESULT:    -5.438      0.000      0.000
REMARK INTER + INTRA:          -6.282
REMARK INTER:                  -6.233
REMARK INTRA:                  -0.049
REMARK UNBOUND:                -0.049
REMARK SMILES O=C([O-])c1cc(O)c(O)c(O)c1
REMARK SMILES IDX 4 1 5 2 12 3 6 4 10 5 8 6 2 7 1 8 3 9 7 10 11 12 9 14
REMARK H PARENT 7 11 11 13 9 15
REMARK Flexibility Score: inf
ROOT
ATOM      1  C   UNL     1      12.689  42.053  20.291  1.00  0.00     0.005 A 
ATOM      2  C   UNL     1      12.902  40.714  20.651  1.00  0.00     0.060 A 
ATOM      3  C   UNL     1      11.853  42.340  19.201  1.00  0.00     0.060 A 
ATOM      4  C   UNL     1      12.293  39.671  19.944  1.00  0.00     0.162 A 
ATOM      5  C   UNL     1      11.237  41.306  18.485  1.00  0.00     0.162 A 
ATOM      6  C   UNL     1      11.450  39.969  18.847  1.00  0.00     0.200 A 
ENDROOT
BRANCH   1   7
ATOM      7  C   UNL     1      13.341  43.145  21.050  1.00  0.00     0.072 C 
ATOM      8  O   UNL     1      14.529  43.024  21.453  1.00  0.00    -0.545 OA
ATOM      9  O   UNL     1      12.651  44.319  21.328  1.00  0.00    -0.545 OA
ENDBRANCH   1   7
BRANCH   4  10
ATOM     10  O   UNL     1      12.551  38.363  20.362  1.00  0.00    -0.504 OA
ATOM     11  H   UNL     1      12.155  37.542  19.930  1.00  0.00     0.293 HD
ENDBRANCH   4  10
BRANCH   5  12
ATOM     12  O   UNL     1      10.406  41.602  17.404  1.00  0.00    -0.504 OA
ATOM     13  H   UNL     1       9.686  42.311  17.465  1.00  0.00     0.293 HD
ENDBRANCH   5  12
BRANCH   6  14
ATOM     14  O   UNL     1      10.812  38.977  18.098  1.00  0.00    -0.502 OA
ATOM     15  H   UNL     1      10.587  38.058  18.452  1.00  0.00     0.293 HD
ENDBRANCH   6  14
TORSDOF 4
ENDMDL
MODEL 2
REMARK VINA RESULT:    -5.347      0.092      2.437
REMARK INTER + INTRA:          -6.177
REMARK INTER:                  -6.128
REMARK INTRA:                  -0.049
REMARK UNBOUND:                -0.049
REMARK SMILES O=C([O-])c1cc(O)c(O)c(O)c1
REMARK SMILES IDX 4 1 5 2 12 3 6 4 10 5 8 6 2 7 1 8 3 9 7 10 11 12 9 14
REMARK H PARENT 7 11 11 13 9 15
REMARK Flexibility Score: inf
ROOT
ATOM      1  C   UNL     1      12.635  42.075  20.259  1.00  0.00     0.005 A 
ATOM      2  C   UNL     1      11.817  42.362  19.156  1.00  0.00     0.060 A 
ATOM      3  C   UNL     1      12.819  40.737  20.639  1.00  0.00     0.060 A 
ATOM      4  C   UNL     1      11.189  41.339  18.437  1.00  0.00     0.162 A 
ATOM      5  C   UNL     1      12.198  39.702  19.928  1.00  0.00     0.162 A 
ATOM      6  C   UNL     1      11.381  39.992  18.826  1.00  0.00     0.200 A 
ENDROOT
BRANCH   1   7
ATOM      7  C   UNL     1      13.291  43.170  21.008  1.00  0.00     0.072 C 
ATOM      8  O   UNL     1      14.486  43.058  21.393  1.00  0.00    -0.545 OA
ATOM      9  O   UNL     1      12.597  44.339  21.299  1.00  0.00    -0.545 OA
ENDBRANCH   1   7
BRANCH   4  10
ATOM     10  O   UNL     1      10.390  41.702  17.350  1.00  0.00    -0.504 OA
ATOM     11  H   UNL     1      10.634  42.418  16.682  1.00  0.00     0.293 HD
ENDBRANCH   4  10
BRANCH   5  12
ATOM     12  O   UNL     1      12.388  38.375  20.313  1.00  0.00    -0.504 OA
ATOM     13  H   UNL     1      12.032  38.021  21.193  1.00  0.00     0.293 HD
ENDBRANCH   5  12
BRANCH   6  14
ATOM     14  O   UNL     1      10.784  38.922  18.153  1.00  0.00    -0.502 OA
ATOM     15  H   UNL     1       9.882  38.537  18.391  1.00  0.00     0.293 HD
ENDBRANCH   6  14
TORSDOF 4
ENDMDL
MODEL 3
REMARK VINA RESULT:    -5.269      3.857      4.777
REMARK INTER + INTRA:          -6.089
REMARK INTER:                  -6.036
REMARK INTRA:                  -0.053
REMARK UNBOUND:                -0.049
REMARK SMILES O=C([O-])c1cc(O)c(O)c(O)c1
REMARK SMILES IDX 4 1 5 2 12 3 6 4 10 5 8 6 2 7 1 8 3 9 7 10 11 12 9 14
REMARK H PARENT 7 11 11 13 9 15
REMARK Flexibility Score: inf
ROOT
ATOM      1  C   UNL     1      11.275  38.677  23.862  1.00  0.00     0.005 A 
ATOM      2  C   UNL     1      12.194  37.978  23.065  1.00  0.00     0.060 A 
ATOM      3  C   UNL     1      10.228  39.374  23.240  1.00  0.00     0.060 A 
ATOM      4  C   UNL     1      12.078  37.966  21.670  1.00  0.00     0.162 A 
ATOM      5  C   UNL     1      10.099  39.371  21.846  1.00  0.00     0.162 A 
ATOM      6  C   UNL     1      11.018  38.670  21.051  1.00  0.00     0.200 A 
ENDROOT
BRANCH   1   7
ATOM      7  C   UNL     1      11.412  38.679  25.336  1.00  0.00     0.072 C 
ATOM      8  O   UNL     1      10.529  39.209  26.062  1.00  0.00    -0.545 OA
ATOM      9  O   UNL     1      12.520  38.095  25.941  1.00  0.00    -0.545 OA
ENDBRANCH   1   7
BRANCH   4  10
ATOM     10  O   UNL     1      13.030  37.247  20.944  1.00  0.00    -0.504 OA
ATOM     11  H   UNL     1      13.567  36.480  21.320  1.00  0.00     0.293 HD
ENDBRANCH   4  10
BRANCH   5  12
ATOM     12  O   UNL     1       9.054  40.066  21.237  1.00  0.00    -0.504 OA
ATOM     13  H   UNL     1       8.090  39.772  21.338  1.00  0.00     0.293 HD
ENDBRANCH   5  12
BRANCH   6  14
ATOM     14  O   UNL     1      10.844  38.701  19.665  1.00  0.00    -0.502 OA
ATOM     15  H   UNL     1      10.838  37.880  19.078  1.00  0.00     0.293 HD
ENDBRANCH   6  14
TORSDOF 4
ENDMDL
MODEL 4
REMARK VINA RESULT:    -5.108      1.872      5.142
REMARK INTER + INTRA:          -5.904
REMARK INTER:                  -5.856
REMARK INTRA:                  -0.048
REMARK UNBOUND:                -0.049
REMARK SMILES O=C([O-])c1cc(O)c(O)c(O)c1
REMARK SMILES IDX 4 1 5 2 12 3 6 4 10 5 8 6 2 7 1 8 3 9 7 10 11 12 9 14
REMARK H PARENT 7 11 11 13 9 15
REMARK Flexibility Score: inf
ROOT
ATOM      1  C   UNL     1      10.914  42.417  19.591  1.00  0.00     0.005 A 
ATOM      2  C   UNL     1      10.103  43.430  20.125  1.00  0.00     0.060 A 
ATOM      3  C   UNL     1      12.274  42.382  19.937  1.00  0.00     0.060 A 
ATOM      4  C   UNL     1      10.630  44.395  20.992  1.00  0.00     0.162 A 
ATOM      5  C   UNL     1      12.814  43.340  20.804  1.00  0.00     0.162 A 
ATOM      6  C   UNL     1      12.001  44.351  21.337  1.00  0.00     0.200 A 
ENDROOT
BRANCH   1   7
ATOM      7  C   UNL     1      10.341  41.405  18.675  1.00  0.00     0.072 C 
ATOM      8  O   UNL     1       9.252  40.835  18.951  1.00  0.00    -0.545 OA
ATOM      9  O   UNL     1      10.998  41.070  17.496  1.00  0.00    -0.545 OA
ENDBRANCH   1   7
BRANCH   4  10
ATOM     10  O   UNL     1       9.761  45.371  21.485  1.00  0.00    -0.504 OA
ATOM     11  H   UNL     1       8.917  45.169  22.001  1.00  0.00     0.293 HD
ENDBRANCH   4  10
BRANCH   5  12
ATOM     12  O   UNL     1      14.167  43.295  21.142  1.00  0.00    -0.504 OA
ATOM     13  H   UNL     1      14.515  42.672  21.861  1.00  0.00     0.293 HD
ENDBRANCH   5  12
BRANCH   6  14
ATOM     14  O   UNL     1      12.592  45.282  22.195  1.00  0.00    -0.502 OA
ATOM     15  H   UNL     1      13.501  45.164  22.617  1.00  0.00     0.293 HD
ENDBRANCH   6  14
TORSDOF 4
ENDMDL
MODEL 5
REMARK VINA RESULT:    -5.097      1.860      4.733
REMARK INTER + INTRA:          -5.891
REMARK INTER:                  -5.844
REMARK INTRA:                  -0.047
REMARK UNBOUND:                -0.049
REMARK SMILES O=C([O-])c1cc(O)c(O)c(O)c1
REMARK SMILES IDX 4 1 5 2 12 3 6 4 10 5 8 6 2 7 1 8 3 9 7 10 11 12 9 14
REMARK H PARENT 7 11 11 13 9 15
REMARK Flexibility Score: inf
ROOT
ATOM      1  C   UNL     1      10.853  42.340  19.562  1.00  0.00     0.005 A 
ATOM      2  C   UNL     1      12.211  42.286  19.909  1.00  0.00     0.060 A 
ATOM      3  C   UNL     1      10.059  43.374  20.081  1.00  0.00     0.060 A 
ATOM      4  C   UNL     1      12.778  43.244  20.757  1.00  0.00     0.162 A 
ATOM      5  C   UNL     1      10.613  44.340  20.930  1.00  0.00     0.162 A 
ATOM      6  C   UNL     1      11.971  44.284  21.275  1.00  0.00     0.200 A 
ENDROOT
BRANCH   1   7
ATOM      7  C   UNL     1      10.269  41.318  18.663  1.00  0.00     0.072 C 
ATOM      8  O   UNL     1       9.226  40.694  18.995  1.00  0.00    -0.545 OA
ATOM      9  O   UNL     1      10.866  41.033  17.440  1.00  0.00    -0.545 OA
ENDBRANCH   1   7
BRANCH   4  10
ATOM     10  O   UNL     1      14.138  43.125  21.056  1.00  0.00    -0.504 OA
ATOM     11  H   UNL     1      14.753  42.446  20.634  1.00  0.00     0.293 HD
ENDBRANCH   4  10
BRANCH   5  12
ATOM     12  O   UNL     1       9.815  45.364  21.441  1.00  0.00    -0.504 OA
ATOM     13  H   UNL     1       8.885  45.185  21.799  1.00  0.00     0.293 HD
ENDBRANCH   5  12
BRANCH   6  14
ATOM     14  O   UNL     1      12.472  45.272  22.127  1.00  0.00    -0.502 OA
ATOM     15  H   UNL     1      13.398  45.256  22.528  1.00  0.00     0.293 HD
ENDBRANCH   6  14
TORSDOF 4
ENDMDL
MODEL 6
REMARK VINA RESULT:    -5.077      3.752      5.125
REMARK INTER + INTRA:          -5.868
REMARK INTER:                  -5.821
REMARK INTRA:                  -0.047
REMARK UNBOUND:                -0.049
REMARK SMILES O=C([O-])c1cc(O)c(O)c(O)c1
REMARK SMILES IDX 4 1 5 2 12 3 6 4 10 5 8 6 2 7 1 8 3 9 7 10 11 12 9 14
REMARK H PARENT 7 11 11 13 9 15
REMARK Flexibility Score: inf
ROOT
ATOM      1  C   UNL     1      10.852  38.699  23.593  1.00  0.00     0.005 A 
ATOM      2  C   UNL     1      10.040  39.524  22.801  1.00  0.00     0.060 A 
ATOM      3  C   UNL     1      11.852  37.933  22.974  1.00  0.00     0.060 A 
ATOM      4  C   UNL     1      10.214  39.593  21.414  1.00  0.00     0.162 A 
ATOM      5  C   UNL     1      12.040  37.993  21.588  1.00  0.00     0.162 A 
ATOM      6  C   UNL     1      11.226  38.818  20.798  1.00  0.00     0.200 A 
ENDROOT
BRANCH   1   7
ATOM      7  C   UNL     1      10.653  38.639  25.059  1.00  0.00     0.072 C 
ATOM      8  O   UNL     1      11.607  38.879  25.846  1.00  0.00    -0.545 OA
ATOM      9  O   UNL     1       9.408  38.315  25.588  1.00  0.00    -0.545 OA
ENDBRANCH   1   7
BRANCH   4  10
ATOM     10  O   UNL     1       9.368  40.437  20.692  1.00  0.00    -0.504 OA
ATOM     11  H   UNL     1       8.812  41.170  21.106  1.00  0.00     0.293 HD
ENDBRANCH   4  10
BRANCH   5  12
ATOM     12  O   UNL     1      13.037  37.228  20.982  1.00  0.00    -0.504 OA
ATOM     13  H   UNL     1      13.641  36.620  21.521  1.00  0.00     0.293 HD
ENDBRANCH   5  12
BRANCH   6  14
ATOM     14  O   UNL     1      11.455  38.839  19.420  1.00  0.00    -0.502 OA
ATOM     15  H   UNL     1      11.091  39.545  18.797  1.00  0.00     0.293 HD
ENDBRANCH   6  14
TORSDOF 4
ENDMDL
MODEL 7
REMARK VINA RESULT:    -4.993      1.708      2.926
REMARK INTER + INTRA:          -5.772
REMARK INTER:                  -5.719
REMARK INTRA:                  -0.053
REMARK UNBOUND:                -0.049
REMARK SMILES O=C([O-])c1cc(O)c(O)c(O)c1
REMARK SMILES IDX 4 1 5 2 12 3 6 4 10 5 8 6 2 7 1 8 3 9 7 10 11 12 9 14
REMARK H PARENT 7 11 11 13 9 15
REMARK Flexibility Score: inf
ROOT
ATOM      1  C   UNL     1      12.692  41.696  19.887  1.00  0.00     0.005 A 
ATOM      2  C   UNL     1      11.850  42.661  20.459  1.00  0.00     0.060 A 
ATOM      3  C   UNL     1      12.243  40.979  18.767  1.00  0.00     0.060 A 
ATOM      4  C   UNL     1      10.579  42.915  19.930  1.00  0.00     0.162 A 
ATOM      5  C   UNL     1      10.974  41.224  18.226  1.00  0.00     0.162 A 
ATOM      6  C   UNL     1      10.134  42.189  18.800  1.00  0.00     0.200 A 
ENDROOT
BRANCH   1   7
ATOM      7  C   UNL     1      14.033  41.439  20.459  1.00  0.00     0.072 C 
ATOM      8  O   UNL     1      14.802  40.590  19.935  1.00  0.00    -0.545 OA
ATOM      9  O   UNL     1      14.462  42.133  21.586  1.00  0.00    -0.545 OA
ENDBRANCH   1   7
BRANCH   4  10
ATOM     10  O   UNL     1       9.798  43.892  20.553  1.00  0.00    -0.504 OA
ATOM     11  H   UNL     1       8.882  44.172  20.235  1.00  0.00     0.293 HD
ENDBRANCH   4  10
BRANCH   5  12
ATOM     12  O   UNL     1      10.537  40.506  17.113  1.00  0.00    -0.504 OA
ATOM     13  H   UNL     1      10.952  39.619  16.856  1.00  0.00     0.293 HD
ENDBRANCH   5  12
BRANCH   6  14
ATOM     14  O   UNL     1       8.878  42.392  18.222  1.00  0.00    -0.502 OA
ATOM     15  H   UNL     1       8.165  41.682  18.157  1.00  0.00     0.293 HD
ENDBRANCH   6  14
TORSDOF 4
ENDMDL
MODEL 8
REMARK VINA RESULT:    -4.923      1.687      2.890
REMARK INTER + INTRA:          -5.692
REMARK INTER:                  -5.640
REMARK INTRA:                  -0.052
REMARK UNBOUND:                -0.049
REMARK SMILES O=C([O-])c1cc(O)c(O)c(O)c1
REMARK SMILES IDX 4 1 5 2 12 3 6 4 10 5 8 6 2 7 1 8 3 9 7 10 11 12 9 14
REMARK H PARENT 7 11 11 13 9 15
REMARK Flexibility Score: inf
ROOT
ATOM      1  C   UNL     1      12.702  41.892  20.016  1.00  0.00     0.005 A 
ATOM      2  C   UNL     1      12.324  41.190  18.862  1.00  0.00     0.060 A 
ATOM      3  C   UNL     1      11.797  42.800  20.587  1.00  0.00     0.060 A 
ATOM      4  C   UNL     1      11.066  41.381  18.281  1.00  0.00     0.162 A 
ATOM      5  C   UNL     1      10.534  43.001  20.017  1.00  0.00     0.162 A 
ATOM      6  C   UNL     1      10.158  42.296  18.863  1.00  0.00     0.200 A 
ENDROOT
BRANCH   1   7
ATOM      7  C   UNL     1      14.038  41.678  20.618  1.00  0.00     0.072 C 
ATOM      8  O   UNL     1      14.483  42.472  21.490  1.00  0.00    -0.545 OA
ATOM      9  O   UNL     1      14.821  40.597  20.229  1.00  0.00    -0.545 OA
ENDBRANCH   1   7
BRANCH   4  10
ATOM     10  O   UNL     1      10.760  40.644  17.134  1.00  0.00    -0.504 OA
ATOM     11  H   UNL     1      11.375  40.552  16.339  1.00  0.00     0.293 HD
ENDBRANCH   4  10
BRANCH   5  12
ATOM     12  O   UNL     1       9.641  43.905  20.592  1.00  0.00    -0.504 OA
ATOM     13  H   UNL     1       9.725  44.903  20.443  1.00  0.00     0.293 HD
ENDBRANCH   5  12
BRANCH   6  14
ATOM     14  O   UNL     1       8.887  42.536  18.335  1.00  0.00    -0.502 OA
ATOM     15  H   UNL     1       8.159  43.039  18.820  1.00  0.00     0.293 HD
ENDBRANCH   6  14
TORSDOF 4
ENDMDL
MODEL 9
REMARK VINA RESULT:    -4.921      2.135      4.054
REMARK INTER + INTRA:          -5.689
REMARK INTER:                  -5.637
REMARK INTRA:                  -0.052
REMARK UNBOUND:                -0.049
REMARK SMILES O=C([O-])c1cc(O)c(O)c(O)c1
REMARK SMILES IDX 4 1 5 2 12 3 6 4 10 5 8 6 2 7 1 8 3 9 7 10 11 12 9 14
REMARK H PARENT 7 11 11 13 9 15
REMARK Flexibility Score: inf
ROOT
ATOM      1  C   UNL     1      12.174  39.136  21.793  1.00  0.00     0.005 A 
ATOM      2  C   UNL     1      11.435  38.807  20.646  1.00  0.00     0.060 A 
ATOM      3  C   UNL     1      13.114  40.175  21.722  1.00  0.00     0.060 A 
ATOM      4  C   UNL     1      11.623  39.498  19.444  1.00  0.00     0.162 A 
ATOM      5  C   UNL     1      13.312  40.876  20.526  1.00  0.00     0.162 A 
ATOM      6  C   UNL     1      12.572  40.546  19.381  1.00  0.00     0.200 A 
ENDROOT
BRANCH   1   7
ATOM      7  C   UNL     1      11.963  38.393  23.057  1.00  0.00     0.072 C 
ATOM      8  O   UNL     1      10.882  37.782  23.268  1.00  0.00    -0.545 OA
ATOM      9  O   UNL     1      12.957  38.361  24.029  1.00  0.00    -0.545 OA
ENDBRANCH   1   7
BRANCH   4  10
ATOM     10  O   UNL     1      10.851  39.115  18.345  1.00  0.00    -0.504 OA
ATOM     11  H   UNL     1      10.892  39.562  17.441  1.00  0.00     0.293 HD
ENDBRANCH   4  10
BRANCH   5  12
ATOM     12  O   UNL     1      14.248  41.908  20.466  1.00  0.00    -0.504 OA
ATOM     13  H   UNL     1      14.089  42.738  19.907  1.00  0.00     0.293 HD
ENDBRANCH   5  12
BRANCH   6  14
ATOM     14  O   UNL     1      12.810  41.277  18.214  1.00  0.00    -0.502 OA
ATOM     15  H   UNL     1      13.492  42.018  18.140  1.00  0.00     0.293 HD
ENDBRANCH   6  14
TORSDOF 4
ENDMDL
