MODEL 1
REMARK VINA RESULT:    -4.271      0.000      0.000
REMARK INTER + INTRA:          -6.922
REMARK INTER:                  -6.518
REMARK INTRA:                  -0.404
REMARK UNBOUND:                -0.404
REMARK SMILES CC1=CCC[C@H](C)C(=O)C[C@@H](C(C)C)C(=O)C1
REMARK SMILES IDX 8 1 9 2 6 3 7 4 5 5 4 6 3 7 2 8 1 9 10 11 11 12 15 13 16 14
REMARK SMILES IDX 17 15 12 17 13 18 14 19
REMARK H PARENT
REMARK Flexibility Score: 70.00
ROOT
ATOM      1  C   UNL     1      14.999 -34.049  20.409  1.00  0.00     0.136 C 
ATOM      2  O   UNL     1      14.188 -33.205  20.054  1.00  0.00    -0.299 OA
ENDROOT
BRANCH   1   3
ATOM      3  C   UNL     1      15.815 -34.794  19.370  1.00  0.00     0.053 C 
ATOM      4  C   UNL     1      17.119 -34.033  19.105  1.00  0.00     0.016 C 
BRANCH   3   5
ATOM      5  C   UNL     1      16.122 -36.246  19.793  1.00  0.00     0.015 C 
BRANCH   5   6
ATOM      6  C   UNL     1      17.617 -36.601  19.845  1.00  0.00     0.028 C 
BRANCH   6   7
ATOM      7  C   UNL     1      18.046 -37.295  21.117  1.00  0.00    -0.028 C 
ATOM      8  C   UNL     1      18.517 -36.736  22.263  1.00  0.00    -0.070 CG0
ATOM      9  C   UNL     1      18.983 -37.690  23.339  1.00  0.00     0.039 C 
ATOM     10  G   UNL     1      18.520 -35.248  22.595  1.00  0.00     0.000 G0
ENDBRANCH   6   7
ENDBRANCH   5   6
ENDBRANCH   3   5
ENDBRANCH   1   3
BRANCH   1  11
ATOM     11  C   UNL     1      15.132 -34.369  21.876  1.00  0.00     0.087 C 
BRANCH  11  12
ATOM     12  C   UNL     1      16.363 -33.695  22.542  1.00  0.00     0.066 C 
BRANCH  12  13
ATOM     13  C   UNL     1      17.258 -34.704  23.255  1.00  0.00     0.140 C 
ATOM     14  O   UNL     1      16.870 -35.201  24.303  1.00  0.00    -0.299 OA
BRANCH  13  15
ATOM     15  C   UNL     1      18.512 -35.241  22.611  1.00  0.00     0.106 CG0
ATOM     16  G   UNL     1      18.496 -36.729  22.272  1.00  0.00     0.000 G0
ENDBRANCH  13  15
ENDBRANCH  12  13
BRANCH  12  17
ATOM     17  C   UNL     1      15.939 -32.559  23.529  1.00  0.00    -0.006 C 
ATOM     18  C   UNL     1      16.078 -31.167  22.883  1.00  0.00     0.008 C 
ATOM     19  C   UNL     1      14.494 -32.731  24.031  1.00  0.00     0.008 C 
ENDBRANCH  12  17
ENDBRANCH  11  12
ENDBRANCH   1  11
TORSDOF 1
ENDMDL
MODEL 2
REMARK VINA RESULT:    -4.259      2.563      4.671
REMARK INTER + INTRA:          -6.904
REMARK INTER:                  -6.617
REMARK INTRA:                  -0.288
REMARK UNBOUND:                -0.404
REMARK SMILES CC1=CCC[C@H](C)C(=O)C[C@@H](C(C)C)C(=O)C1
REMARK SMILES IDX 8 1 9 2 6 3 7 4 5 5 4 6 3 7 2 8 1 9 10 11 11 12 15 13 16 14
REMARK SMILES IDX 17 15 12 17 13 18 14 19
REMARK H PARENT
REMARK Flexibility Score: 70.00
ROOT
ATOM      1  C   UNL     1      15.399 -30.449  22.319  1.00  0.00     0.136 C 
ATOM      2  O   UNL     1      14.969 -30.078  21.236  1.00  0.00    -0.299 OA
ENDROOT
BRANCH   1   3
ATOM      3  C   UNL     1      14.455 -30.589  23.498  1.00  0.00     0.053 C 
ATOM      4  C   UNL     1      13.436 -29.445  23.472  1.00  0.00     0.016 C 
BRANCH   3   5
ATOM      5  C   UNL     1      13.728 -31.951  23.511  1.00  0.00     0.015 C 
BRANCH   5   6
ATOM      6  C   UNL     1      14.640 -33.165  23.753  1.00  0.00     0.028 C 
BRANCH   6   7
ATOM      7  C   UNL     1      14.846 -34.037  22.535  1.00  0.00    -0.028 C 
ATOM      8  C   UNL     1      15.953 -34.144  21.755  1.00  0.00    -0.070 CG0
ATOM      9  C   UNL     1      15.832 -35.013  20.524  1.00  0.00     0.039 C 
ATOM     10  G   UNL     1      17.325 -33.555  22.065  1.00  0.00     0.000 G0
ENDBRANCH   6   7
ENDBRANCH   5   6
ENDBRANCH   3   5
ENDBRANCH   1   3
BRANCH   1  11
ATOM     11  C   UNL     1      16.877 -30.707  22.473  1.00  0.00     0.087 C 
BRANCH  11  12
ATOM     12  C   UNL     1      17.577 -31.076  21.136  1.00  0.00     0.066 C 
BRANCH  12  13
ATOM     13  C   UNL     1      17.869 -32.570  21.030  1.00  0.00     0.140 C 
ATOM     14  O   UNL     1      18.668 -32.957  20.188  1.00  0.00    -0.299 OA
BRANCH  13  15
ATOM     15  C   UNL     1      17.347 -33.551  22.050  1.00  0.00     0.106 CG0
ATOM     16  G   UNL     1      15.960 -34.120  21.770  1.00  0.00     0.000 G0
ENDBRANCH  13  15
ENDBRANCH  12  13
BRANCH  12  17
ATOM     17  C   UNL     1      18.890 -30.254  20.923  1.00  0.00    -0.006 C 
ATOM     18  C   UNL     1      18.613 -28.739  20.910  1.00  0.00     0.008 C 
ATOM     19  C   UNL     1      19.948 -30.555  22.000  1.00  0.00     0.008 C 
ENDBRANCH  12  17
ENDBRANCH  11  12
ENDBRANCH   1  11
TORSDOF 1
ENDMDL
MODEL 3
REMARK VINA RESULT:    -4.163      2.630      3.719
REMARK INTER + INTRA:          -6.758
REMARK INTER:                  -6.490
REMARK INTRA:                  -0.268
REMARK UNBOUND:                -0.404
REMARK SMILES CC1=CCC[C@H](C)C(=O)C[C@@H](C(C)C)C(=O)C1
REMARK SMILES IDX 8 1 9 2 6 3 7 4 5 5 4 6 3 7 2 8 1 9 10 11 11 12 15 13 16 14
REMARK SMILES IDX 17 15 12 17 13 18 14 19
REMARK H PARENT
REMARK Flexibility Score: 70.00
ROOT
ATOM      1  C   UNL     1      17.084 -30.619  21.796  1.00  0.00     0.136 C 
ATOM      2  O   UNL     1      17.264 -30.103  22.891  1.00  0.00    -0.299 OA
ENDROOT
BRANCH   1   3
ATOM      3  C   UNL     1      18.217 -30.663  20.789  1.00  0.00     0.053 C 
ATOM      4  C   UNL     1      19.023 -29.362  20.871  1.00  0.00     0.016 C 
BRANCH   3   5
ATOM      5  C   UNL     1      19.144 -31.879  20.999  1.00  0.00     0.015 C 
BRANCH   5   6
ATOM      6  C   UNL     1      18.508 -33.240  20.669  1.00  0.00     0.028 C 
BRANCH   6   7
ATOM      7  C   UNL     1      18.310 -34.138  21.869  1.00  0.00    -0.028 C 
ATOM      8  C   UNL     1      17.160 -34.394  22.547  1.00  0.00    -0.070 CG0
ATOM      9  C   UNL     1      17.283 -35.246  23.789  1.00  0.00     0.039 C 
ATOM     10  G   UNL     1      15.756 -33.989  22.110  1.00  0.00     0.000 G0
ENDBRANCH   6   7
ENDBRANCH   5   6
ENDBRANCH   3   5
ENDBRANCH   1   3
BRANCH   1  11
ATOM     11  C   UNL     1      15.717 -31.152  21.451  1.00  0.00     0.087 C 
BRANCH  11  12
ATOM     12  C   UNL     1      14.884 -31.557  22.698  1.00  0.00     0.066 C 
BRANCH  12  13
ATOM     13  C   UNL     1      15.043 -33.033  23.045  1.00  0.00     0.140 C 
ATOM     14  O   UNL     1      14.454 -33.477  24.021  1.00  0.00    -0.299 OA
BRANCH  13  15
ATOM     15  C   UNL     1      15.748 -33.992  22.116  1.00  0.00     0.106 CG0
ATOM     16  G   UNL     1      17.167 -34.379  22.519  1.00  0.00     0.000 G0
ENDBRANCH  13  15
ENDBRANCH  12  13
BRANCH  12  17
ATOM     17  C   UNL     1      13.370 -31.204  22.523  1.00  0.00    -0.006 C 
ATOM     18  C   UNL     1      13.036 -29.828  23.130  1.00  0.00     0.008 C 
ATOM     19  C   UNL     1      12.936 -31.213  21.046  1.00  0.00     0.008 C 
ENDBRANCH  12  17
ENDBRANCH  11  12
ENDBRANCH   1  11
TORSDOF 1
ENDMDL
MODEL 4
REMARK VINA RESULT:    -4.145      2.227      3.170
REMARK INTER + INTRA:          -6.730
REMARK INTER:                  -6.525
REMARK INTRA:                  -0.205
REMARK UNBOUND:                -0.404
REMARK SMILES CC1=CCC[C@H](C)C(=O)C[C@@H](C(C)C)C(=O)C1
REMARK SMILES IDX 8 1 9 2 6 3 7 4 5 5 4 6 3 7 2 8 1 9 10 11 11 12 15 13 16 14
REMARK SMILES IDX 17 15 12 17 13 18 14 19
REMARK H PARENT
REMARK Flexibility Score: 70.00
ROOT
ATOM      1  C   UNL     1      15.354 -34.258  20.621  1.00  0.00     0.136 C 
ATOM      2  O   UNL     1      14.500 -34.055  19.769  1.00  0.00    -0.299 OA
ENDROOT
BRANCH   1   3
ATOM      3  C   UNL     1      16.421 -35.309  20.383  1.00  0.00     0.053 C 
ATOM      4  C   UNL     1      17.301 -34.883  19.204  1.00  0.00     0.016 C 
BRANCH   3   5
ATOM      5  C   UNL     1      17.290 -35.560  21.635  1.00  0.00     0.015 C 
BRANCH   5   6
ATOM      6  C   UNL     1      18.702 -34.953  21.571  1.00  0.00     0.028 C 
BRANCH   6   7
ATOM      7  C   UNL     1      18.979 -33.916  22.635  1.00  0.00    -0.028 C 
ATOM      8  C   UNL     1      18.708 -32.585  22.603  1.00  0.00    -0.070 CG0
ATOM      9  C   UNL     1      19.208 -31.765  23.770  1.00  0.00     0.039 C 
ATOM     10  G   UNL     1      17.862 -31.870  21.555  1.00  0.00     0.000 G0
ENDBRANCH   6   7
ENDBRANCH   5   6
ENDBRANCH   3   5
ENDBRANCH   1   3
BRANCH   1  11
ATOM     11  C   UNL     1      15.292 -33.493  21.919  1.00  0.00     0.087 C 
BRANCH  11  12
ATOM     12  C   UNL     1      15.226 -31.954  21.721  1.00  0.00     0.066 C 
BRANCH  12  13
ATOM     13  C   UNL     1      16.558 -31.275  22.023  1.00  0.00     0.140 C 
ATOM     14  O   UNL     1      16.575 -30.325  22.795  1.00  0.00    -0.299 OA
BRANCH  13  15
ATOM     15  C   UNL     1      17.867 -31.856  21.548  1.00  0.00     0.106 CG0
ATOM     16  G   UNL     1      18.699 -32.566  22.611  1.00  0.00     0.000 G0
ENDBRANCH  13  15
ENDBRANCH  12  13
BRANCH  12  17
ATOM     17  C   UNL     1      14.086 -31.309  22.574  1.00  0.00    -0.006 C 
ATOM     18  C   UNL     1      12.828 -31.037  21.727  1.00  0.00     0.008 C 
ATOM     19  C   UNL     1      13.693 -32.183  23.779  1.00  0.00     0.008 C 
ENDBRANCH  12  17
ENDBRANCH  11  12
ENDBRANCH   1  11
TORSDOF 1
ENDMDL
MODEL 5
REMARK VINA RESULT:    -4.108      2.246      3.697
REMARK INTER + INTRA:          -6.674
REMARK INTER:                  -6.155
REMARK INTRA:                  -0.519
REMARK UNBOUND:                -0.404
REMARK SMILES CC1=CCC[C@H](C)C(=O)C[C@@H](C(C)C)C(=O)C1
REMARK SMILES IDX 8 1 9 2 6 3 7 4 5 5 4 6 3 7 2 8 1 9 10 11 11 12 15 13 16 14
REMARK SMILES IDX 17 15 12 17 13 18 14 19
REMARK H PARENT
REMARK Flexibility Score: 70.00
ROOT
ATOM      1  C   UNL     1      16.942 -30.770  22.202  1.00  0.00     0.136 C 
ATOM      2  O   UNL     1      16.509 -29.745  22.712  1.00  0.00    -0.299 OA
ENDROOT
BRANCH   1   3
ATOM      3  C   UNL     1      18.379 -31.187  22.450  1.00  0.00     0.053 C 
ATOM      4  C   UNL     1      18.472 -31.923  23.790  1.00  0.00     0.016 C 
BRANCH   3   5
ATOM      5  C   UNL     1      18.939 -32.071  21.315  1.00  0.00     0.015 C 
BRANCH   5   6
ATOM      6  C   UNL     1      19.153 -33.546  21.694  1.00  0.00     0.028 C 
BRANCH   6   7
ATOM      7  C   UNL     1      18.643 -34.530  20.665  1.00  0.00    -0.028 C 
ATOM      8  C   UNL     1      17.490 -35.249  20.688  1.00  0.00    -0.070 CG0
ATOM      9  C   UNL     1      17.295 -36.250  19.573  1.00  0.00     0.039 C 
ATOM     10  G   UNL     1      16.340 -35.061  21.672  1.00  0.00     0.000 G0
ENDBRANCH   6   7
ENDBRANCH   5   6
ENDBRANCH   3   5
ENDBRANCH   1   3
BRANCH   1  11
ATOM     11  C   UNL     1      16.047 -31.571  21.291  1.00  0.00     0.087 C 
BRANCH  11  12
ATOM     12  C   UNL     1      15.239 -32.670  22.034  1.00  0.00     0.066 C 
BRANCH  12  13
ATOM     13  C   UNL     1      15.292 -34.013  21.314  1.00  0.00     0.140 C 
ATOM     14  O   UNL     1      14.593 -34.180  20.324  1.00  0.00    -0.299 OA
BRANCH  13  15
ATOM     15  C   UNL     1      16.314 -35.063  21.675  1.00  0.00     0.106 CG0
ATOM     16  G   UNL     1      17.473 -35.221  20.696  1.00  0.00     0.000 G0
ENDBRANCH  13  15
ENDBRANCH  12  13
BRANCH  12  17
ATOM     17  C   UNL     1      13.753 -32.241  22.266  1.00  0.00    -0.006 C 
ATOM     18  C   UNL     1      13.535 -31.702  23.693  1.00  0.00     0.008 C 
ATOM     19  C   UNL     1      13.290 -31.174  21.257  1.00  0.00     0.008 C 
ENDBRANCH  12  17
ENDBRANCH  11  12
ENDBRANCH   1  11
TORSDOF 1
ENDMDL
MODEL 6
REMARK VINA RESULT:    -4.095      2.705      4.250
REMARK INTER + INTRA:          -6.654
REMARK INTER:                  -6.118
REMARK INTRA:                  -0.536
REMARK UNBOUND:                -0.404
REMARK SMILES CC1=CCC[C@H](C)C(=O)C[C@@H](C(C)C)C(=O)C1
REMARK SMILES IDX 8 1 9 2 6 3 7 4 5 5 4 6 3 7 2 8 1 9 10 11 11 12 15 13 16 14
REMARK SMILES IDX 17 15 12 17 13 18 14 19
REMARK H PARENT
REMARK Flexibility Score: 70.00
ROOT
ATOM      1  C   UNL     1      15.435 -33.171  23.761  1.00  0.00     0.136 C 
ATOM      2  O   UNL     1      14.344 -33.532  24.180  1.00  0.00    -0.299 OA
ENDROOT
BRANCH   1   3
ATOM      3  C   UNL     1      16.568 -34.173  23.644  1.00  0.00     0.053 C 
ATOM      4  C   UNL     1      16.558 -35.096  24.867  1.00  0.00     0.016 C 
BRANCH   3   5
ATOM      5  C   UNL     1      16.486 -35.005  22.346  1.00  0.00     0.015 C 
BRANCH   5   6
ATOM      6  C   UNL     1      17.368 -34.492  21.196  1.00  0.00     0.028 C 
BRANCH   6   7
ATOM      7  C   UNL     1      18.481 -33.567  21.634  1.00  0.00    -0.028 C 
ATOM      8  C   UNL     1      18.690 -32.274  21.274  1.00  0.00    -0.070 CG0
ATOM      9  C   UNL     1      19.961 -31.628  21.778  1.00  0.00     0.039 C 
ATOM     10  G   UNL     1      17.715 -31.392  20.501  1.00  0.00     0.000 G0
ENDBRANCH   6   7
ENDBRANCH   5   6
ENDBRANCH   3   5
ENDBRANCH   1   3
BRANCH   1  11
ATOM     11  C   UNL     1      15.646 -31.717  23.420  1.00  0.00     0.087 C 
BRANCH  11  12
ATOM     12  C   UNL     1      15.472 -31.410  21.907  1.00  0.00     0.066 C 
BRANCH  12  13
ATOM     13  C   UNL     1      16.668 -30.662  21.328  1.00  0.00     0.140 C 
ATOM     14  O   UNL     1      16.860 -29.503  21.667  1.00  0.00    -0.299 OA
BRANCH  13  15
ATOM     15  C   UNL     1      17.717 -31.367  20.504  1.00  0.00     0.106 CG0
ATOM     16  G   UNL     1      18.682 -32.256  21.282  1.00  0.00     0.000 G0
ENDBRANCH  13  15
ENDBRANCH  12  13
BRANCH  12  17
ATOM     17  C   UNL     1      14.153 -30.619  21.624  1.00  0.00    -0.006 C 
ATOM     18  C   UNL     1      13.069 -31.526  21.011  1.00  0.00     0.008 C 
ATOM     19  C   UNL     1      13.586 -29.957  22.893  1.00  0.00     0.008 C 
ENDBRANCH  12  17
ENDBRANCH  11  12
ENDBRANCH   1  11
TORSDOF 1
ENDMDL
MODEL 7
REMARK VINA RESULT:    -4.049      2.562      4.464
REMARK INTER + INTRA:          -6.583
REMARK INTER:                  -6.263
REMARK INTRA:                  -0.321
REMARK UNBOUND:                -0.404
REMARK SMILES CC1=CCC[C@H](C)C(=O)C[C@@H](C(C)C)C(=O)C1
REMARK SMILES IDX 8 1 9 2 6 3 7 4 5 5 4 6 3 7 2 8 1 9 10 11 11 12 15 13 16 14
REMARK SMILES IDX 17 15 12 17 13 18 14 19
REMARK H PARENT
REMARK Flexibility Score: 70.00
ROOT
ATOM      1  C   UNL     1      18.096 -34.905  21.148  1.00  0.00     0.136 C 
ATOM      2  O   UNL     1      18.347 -35.665  22.073  1.00  0.00    -0.299 OA
ENDROOT
BRANCH   1   3
ATOM      3  C   UNL     1      17.581 -35.460  19.834  1.00  0.00     0.053 C 
ATOM      4  C   UNL     1      17.282 -36.954  19.995  1.00  0.00     0.016 C 
BRANCH   3   5
ATOM      5  C   UNL     1      16.326 -34.715  19.331  1.00  0.00     0.015 C 
BRANCH   5   6
ATOM      6  C   UNL     1      15.131 -34.740  20.300  1.00  0.00     0.028 C 
BRANCH   6   7
ATOM      7  C   UNL     1      14.331 -33.458  20.329  1.00  0.00    -0.028 C 
ATOM      8  C   UNL     1      14.266 -32.530  21.320  1.00  0.00    -0.070 CG0
ATOM      9  C   UNL     1      13.284 -31.398  21.123  1.00  0.00     0.039 C 
ATOM     10  G   UNL     1      15.161 -32.475  22.554  1.00  0.00     0.000 G0
ENDBRANCH   6   7
ENDBRANCH   5   6
ENDBRANCH   3   5
ENDBRANCH   1   3
BRANCH   1  11
ATOM     11  C   UNL     1      18.357 -33.430  21.319  1.00  0.00     0.087 C 
BRANCH  11  12
ATOM     12  C   UNL     1      17.770 -32.851  22.635  1.00  0.00     0.066 C 
BRANCH  12  13
ATOM     13  C   UNL     1      16.554 -31.965  22.385  1.00  0.00     0.140 C 
ATOM     14  O   UNL     1      16.720 -30.865  21.875  1.00  0.00    -0.299 OA
BRANCH  13  15
ATOM     15  C   UNL     1      15.148 -32.480  22.573  1.00  0.00     0.106 CG0
ATOM     16  G   UNL     1      14.292 -32.537  21.312  1.00  0.00     0.000 G0
ENDBRANCH  13  15
ENDBRANCH  12  13
BRANCH  12  17
ATOM     17  C   UNL     1      18.846 -32.070  23.456  1.00  0.00    -0.006 C 
ATOM     18  C   UNL     1      18.327 -31.691  24.856  1.00  0.00     0.008 C 
ATOM     19  C   UNL     1      20.154 -32.868  23.612  1.00  0.00     0.008 C 
ENDBRANCH  12  17
ENDBRANCH  11  12
ENDBRANCH   1  11
TORSDOF 1
ENDMDL
MODEL 8
REMARK VINA RESULT:    -3.905      2.065      4.467
REMARK INTER + INTRA:          -6.364
REMARK INTER:                  -6.289
REMARK INTRA:                  -0.075
REMARK UNBOUND:                -0.404
REMARK SMILES CC1=CCC[C@H](C)C(=O)C[C@@H](C(C)C)C(=O)C1
REMARK SMILES IDX 8 1 9 2 6 3 7 4 5 5 4 6 3 7 2 8 1 9 10 11 11 12 15 13 16 14
REMARK SMILES IDX 17 15 12 17 13 18 14 19
REMARK H PARENT
REMARK Flexibility Score: 70.00
ROOT
ATOM      1  C   UNL     1      15.456 -32.739  21.328  1.00  0.00     0.136 C 
ATOM      2  O   UNL     1      14.724 -33.651  21.687  1.00  0.00    -0.299 OA
ENDROOT
BRANCH   1   3
ATOM      3  C   UNL     1      14.955 -31.308  21.373  1.00  0.00     0.053 C 
ATOM      4  C   UNL     1      13.425 -31.301  21.280  1.00  0.00     0.016 C 
BRANCH   3   5
ATOM      5  C   UNL     1      15.415 -30.562  22.643  1.00  0.00     0.015 C 
BRANCH   5   6
ATOM      6  C   UNL     1      16.934 -30.581  22.887  1.00  0.00     0.028 C 
BRANCH   6   7
ATOM      7  C   UNL     1      17.363 -31.435  24.058  1.00  0.00    -0.028 C 
ATOM      8  C   UNL     1      18.120 -32.563  24.044  1.00  0.00    -0.070 CG0
ATOM      9  C   UNL     1      18.292 -33.280  25.363  1.00  0.00     0.039 C 
ATOM     10  G   UNL     1      18.891 -33.107  22.845  1.00  0.00     0.000 G0
ENDBRANCH   6   7
ENDBRANCH   5   6
ENDBRANCH   3   5
ENDBRANCH   1   3
BRANCH   1  11
ATOM     11  C   UNL     1      16.828 -33.065  20.796  1.00  0.00     0.087 C 
BRANCH  11  12
ATOM     12  C   UNL     1      17.325 -34.478  21.205  1.00  0.00     0.066 C 
BRANCH  12  13
ATOM     13  C   UNL     1      18.405 -34.422  22.281  1.00  0.00     0.140 C 
ATOM     14  O   UNL     1      18.985 -35.454  22.590  1.00  0.00    -0.299 OA
BRANCH  13  15
ATOM     15  C   UNL     1      18.901 -33.109  22.834  1.00  0.00     0.106 CG0
ATOM     16  G   UNL     1      18.130 -32.561  24.030  1.00  0.00     0.000 G0
ENDBRANCH  13  15
ENDBRANCH  12  13
BRANCH  12  17
ATOM     17  C   UNL     1      17.836 -35.293  19.972  1.00  0.00    -0.006 C 
ATOM     18  C   UNL     1      16.927 -36.500  19.675  1.00  0.00     0.008 C 
ATOM     19  C   UNL     1      17.940 -34.427  18.703  1.00  0.00     0.008 C 
ENDBRANCH  12  17
ENDBRANCH  11  12
ENDBRANCH   1  11
TORSDOF 1
ENDMDL
MODEL 9
REMARK VINA RESULT:    -3.879      2.181      4.869
REMARK INTER + INTRA:          -6.325
REMARK INTER:                  -6.289
REMARK INTRA:                  -0.035
REMARK UNBOUND:                -0.404
REMARK SMILES CC1=CCC[C@H](C)C(=O)C[C@@H](C(C)C)C(=O)C1
REMARK SMILES IDX 8 1 9 2 6 3 7 4 5 5 4 6 3 7 2 8 1 9 10 11 11 12 15 13 16 14
REMARK SMILES IDX 17 15 12 17 13 18 14 19
REMARK H PARENT
REMARK Flexibility Score: 70.00
ROOT
ATOM      1  C   UNL     1      15.436 -33.487  23.017  1.00  0.00     0.136 C 
ATOM      2  O   UNL     1      15.752 -33.830  24.148  1.00  0.00    -0.299 OA
ENDROOT
BRANCH   1   3
ATOM      3  C   UNL     1      14.780 -32.138  22.794  1.00  0.00     0.053 C 
ATOM      4  C   UNL     1      13.611 -31.973  23.771  1.00  0.00     0.016 C 
BRANCH   3   5
ATOM      5  C   UNL     1      15.774 -30.967  22.949  1.00  0.00     0.015 C 
BRANCH   5   6
ATOM      6  C   UNL     1      16.361 -30.441  21.628  1.00  0.00     0.028 C 
BRANCH   6   7
ATOM      7  C   UNL     1      17.871 -30.372  21.606  1.00  0.00    -0.028 C 
ATOM      8  C   UNL     1      18.756 -31.380  21.389  1.00  0.00    -0.070 CG0
ATOM      9  C   UNL     1      20.220 -31.040  21.544  1.00  0.00     0.039 C 
ATOM     10  G   UNL     1      18.409 -32.785  20.906  1.00  0.00     0.000 G0
ENDBRANCH   6   7
ENDBRANCH   5   6
ENDBRANCH   3   5
ENDBRANCH   1   3
BRANCH   1  11
ATOM     11  C   UNL     1      15.658 -34.442  21.871  1.00  0.00     0.087 C 
BRANCH  11  12
ATOM     12  C   UNL     1      17.125 -34.940  21.762  1.00  0.00     0.066 C 
BRANCH  12  13
ATOM     13  C   UNL     1      18.134 -33.816  21.974  1.00  0.00     0.140 C 
ATOM     14  O   UNL     1      18.834 -33.831  22.978  1.00  0.00    -0.299 OA
BRANCH  13  15
ATOM     15  C   UNL     1      18.421 -32.798  20.897  1.00  0.00     0.106 CG0
ATOM     16  G   UNL     1      18.755 -31.393  21.388  1.00  0.00     0.000 G0
ENDBRANCH  13  15
ENDBRANCH  12  13
BRANCH  12  17
ATOM     17  C   UNL     1      17.395 -35.656  20.399  1.00  0.00    -0.006 C 
ATOM     18  C   UNL     1      17.826 -37.121  20.605  1.00  0.00     0.008 C 
ATOM     19  C   UNL     1      16.166 -35.626  19.472  1.00  0.00     0.008 C 
ENDBRANCH  12  17
ENDBRANCH  11  12
ENDBRANCH   1  11
TORSDOF 1
ENDMDL
