MODEL 1
REMARK VINA RESULT:    -5.888      0.000      0.000
REMARK INTER + INTRA:          -6.649
REMARK INTER:                  -6.405
REMARK INTRA:                  -0.244
REMARK UNBOUND:                -0.244
REMARK SMILES O=C([O-])c1ccccc1O
REMARK SMILES IDX 4 1 9 2 5 3 8 4 6 5 7 6 2 7 1 8 3 9 10 10
REMARK H PARENT 10 11
REMARK Flexibility Score: inf
ROOT
ATOM      1  C   UNL     1      11.181 112.699  16.397  1.00  0.00     0.039 A 
ATOM      2  C   UNL     1      11.739 112.047  17.526  1.00  0.00     0.124 A 
ATOM      3  C   UNL     1      10.373 111.959  15.514  1.00  0.00     0.014 A 
ATOM      4  C   UNL     1      11.530 110.674  17.707  1.00  0.00     0.047 A 
ATOM      5  C   UNL     1      10.157 110.595  15.721  1.00  0.00     0.001 A 
ATOM      6  C   UNL     1      10.743 109.951  16.810  1.00  0.00     0.004 A 
ENDROOT
BRANCH   1   7
ATOM      7  C   UNL     1      11.448 114.122  16.091  1.00  0.00     0.075 C 
ATOM      8  O   UNL     1      11.511 114.968  17.022  1.00  0.00    -0.545 OA
ATOM      9  O   UNL     1      11.561 114.558  14.776  1.00  0.00    -0.545 OA
ENDBRANCH   1   7
BRANCH   2  10
ATOM     10  O   UNL     1      12.471 112.728  18.502  1.00  0.00    -0.507 OA
ATOM     11  H   UNL     1      12.979 113.582  18.321  1.00  0.00     0.293 HD
ENDBRANCH   2  10
TORSDOF 2
ENDMDL
MODEL 2
REMARK VINA RESULT:    -5.812     13.891     15.877
REMARK INTER + INTRA:          -6.566
REMARK INTER:                  -6.346
REMARK INTRA:                  -0.220
REMARK UNBOUND:                -0.244
REMARK SMILES O=C([O-])c1ccccc1O
REMARK SMILES IDX 4 1 9 2 5 3 8 4 6 5 7 6 2 7 1 8 3 9 10 10
REMARK H PARENT 10 11
REMARK Flexibility Score: inf
ROOT
ATOM      1  C   UNL     1      18.792 125.695  16.273  1.00  0.00     0.039 A 
ATOM      2  C   UNL     1      18.349 126.495  17.356  1.00  0.00     0.124 A 
ATOM      3  C   UNL     1      19.596 126.282  15.277  1.00  0.00     0.014 A 
ATOM      4  C   UNL     1      18.664 127.860  17.384  1.00  0.00     0.047 A 
ATOM      5  C   UNL     1      19.920 127.640  15.332  1.00  0.00     0.001 A 
ATOM      6  C   UNL     1      19.445 128.429  16.378  1.00  0.00     0.004 A 
ENDROOT
BRANCH   1   7
ATOM      7  C   UNL     1      18.409 124.274  16.128  1.00  0.00     0.075 C 
ATOM      8  O   UNL     1      18.080 123.601  17.141  1.00  0.00    -0.545 OA
ATOM      9  O   UNL     1      18.474 123.640  14.893  1.00  0.00    -0.545 OA
ENDBRANCH   1   7
BRANCH   2  10
ATOM     10  O   UNL     1      17.631 125.971  18.433  1.00  0.00    -0.507 OA
ATOM     11  H   UNL     1      17.990 125.249  19.043  1.00  0.00     0.293 HD
ENDBRANCH   2  10
TORSDOF 2
ENDMDL
MODEL 3
REMARK VINA RESULT:    -5.467     13.600     15.644
REMARK INTER + INTRA:          -6.191
REMARK INTER:                  -5.971
REMARK INTRA:                  -0.219
REMARK UNBOUND:                -0.244
REMARK SMILES O=C([O-])c1ccccc1O
REMARK SMILES IDX 4 1 9 2 5 3 8 4 6 5 7 6 2 7 1 8 3 9 10 10
REMARK H PARENT 10 11
REMARK Flexibility Score: inf
ROOT
ATOM      1  C   UNL     1      18.319 125.482  16.614  1.00  0.00     0.039 A 
ATOM      2  C   UNL     1      18.465 126.587  15.738  1.00  0.00     0.124 A 
ATOM      3  C   UNL     1      18.367 125.704  18.004  1.00  0.00     0.014 A 
ATOM      4  C   UNL     1      18.714 127.861  16.264  1.00  0.00     0.047 A 
ATOM      5  C   UNL     1      18.594 126.985  18.512  1.00  0.00     0.001 A 
ATOM      6  C   UNL     1      18.779 128.059  17.644  1.00  0.00     0.004 A 
ENDROOT
BRANCH   1   7
ATOM      7  C   UNL     1      18.157 124.096  16.123  1.00  0.00     0.075 C 
ATOM      8  O   UNL     1      17.875 123.169  16.928  1.00  0.00    -0.545 OA
ATOM      9  O   UNL     1      18.382 123.782  14.788  1.00  0.00    -0.545 OA
ENDBRANCH   1   7
BRANCH   2  10
ATOM     10  O   UNL     1      18.334 126.469  14.352  1.00  0.00    -0.507 OA
ATOM     11  H   UNL     1      19.121 126.444  13.719  1.00  0.00     0.293 HD
ENDBRANCH   2  10
TORSDOF 2
ENDMDL
MODEL 4
REMARK VINA RESULT:    -5.377      1.277      2.405
REMARK INTER + INTRA:          -6.093
REMARK INTER:                  -5.880
REMARK INTRA:                  -0.213
REMARK UNBOUND:                -0.244
REMARK SMILES O=C([O-])c1ccccc1O
REMARK SMILES IDX 4 1 9 2 5 3 8 4 6 5 7 6 2 7 1 8 3 9 10 10
REMARK H PARENT 10 11
REMARK Flexibility Score: inf
ROOT
ATOM      1  C   UNL     1      11.454 112.505  16.611  1.00  0.00     0.039 A 
ATOM      2  C   UNL     1      11.092 111.295  15.966  1.00  0.00     0.124 A 
ATOM      3  C   UNL     1      11.748 112.481  17.988  1.00  0.00     0.014 A 
ATOM      4  C   UNL     1      10.973 110.119  16.716  1.00  0.00     0.047 A 
ATOM      5  C   UNL     1      11.645 111.294  18.717  1.00  0.00     0.001 A 
ATOM      6  C   UNL     1      11.248 110.117  18.084  1.00  0.00     0.004 A 
ENDROOT
BRANCH   1   7
ATOM      7  C   UNL     1      11.498 113.801  15.899  1.00  0.00     0.075 C 
ATOM      8  O   UNL     1      11.583 113.830  14.643  1.00  0.00    -0.545 OA
ATOM      9  O   UNL     1      11.519 115.000  16.602  1.00  0.00    -0.545 OA
ENDBRANCH   1   7
BRANCH   2  10
ATOM     10  O   UNL     1      10.880 111.213  14.588  1.00  0.00    -0.507 OA
ATOM     11  H   UNL     1      10.011 111.474  14.142  1.00  0.00     0.293 HD
ENDBRANCH   2  10
TORSDOF 2
ENDMDL
MODEL 5
REMARK VINA RESULT:    -5.308      9.546     11.689
REMARK INTER + INTRA:          -6.018
REMARK INTER:                  -5.784
REMARK INTRA:                  -0.234
REMARK UNBOUND:                -0.244
REMARK SMILES O=C([O-])c1ccccc1O
REMARK SMILES IDX 4 1 9 2 5 3 8 4 6 5 7 6 2 7 1 8 3 9 10 10
REMARK H PARENT 10 11
REMARK Flexibility Score: inf
ROOT
ATOM      1  C   UNL     1      17.244 121.403  16.346  1.00  0.00     0.039 A 
ATOM      2  C   UNL     1      17.421 121.532  14.945  1.00  0.00     0.124 A 
ATOM      3  C   UNL     1      17.738 122.416  17.190  1.00  0.00     0.014 A 
ATOM      4  C   UNL     1      18.132 122.625  14.434  1.00  0.00     0.047 A 
ATOM      5  C   UNL     1      18.426 123.510  16.662  1.00  0.00     0.001 A 
ATOM      6  C   UNL     1      18.632 123.609  15.287  1.00  0.00     0.004 A 
ENDROOT
BRANCH   1   7
ATOM      7  C   UNL     1      16.594 120.224  16.959  1.00  0.00     0.075 C 
ATOM      8  O   UNL     1      15.681 119.614  16.342  1.00  0.00    -0.545 OA
ATOM      9  O   UNL     1      16.927 119.814  18.244  1.00  0.00    -0.545 OA
ENDBRANCH   1   7
BRANCH   2  10
ATOM     10  O   UNL     1      16.878 120.624  14.033  1.00  0.00    -0.507 OA
ATOM     11  H   UNL     1      16.198 120.880  13.331  1.00  0.00     0.293 HD
ENDBRANCH   2  10
TORSDOF 2
ENDMDL
MODEL 6
REMARK VINA RESULT:    -5.099     14.338     15.626
REMARK INTER + INTRA:          -5.791
REMARK INTER:                  -5.571
REMARK INTRA:                  -0.220
REMARK UNBOUND:                -0.244
REMARK SMILES O=C([O-])c1ccccc1O
REMARK SMILES IDX 4 1 9 2 5 3 8 4 6 5 7 6 2 7 1 8 3 9 10 10
REMARK H PARENT 10 11
REMARK Flexibility Score: inf
ROOT
ATOM      1  C   UNL     1      18.563 126.234  16.741  1.00  0.00     0.039 A 
ATOM      2  C   UNL     1      18.607 126.012  15.341  1.00  0.00     0.124 A 
ATOM      3  C   UNL     1      18.369 125.134  17.599  1.00  0.00     0.014 A 
ATOM      4  C   UNL     1      18.394 124.723  14.837  1.00  0.00     0.047 A 
ATOM      5  C   UNL     1      18.180 123.851  17.080  1.00  0.00     0.001 A 
ATOM      6  C   UNL     1      18.182 123.648  15.701  1.00  0.00     0.004 A 
ENDROOT
BRANCH   1   7
ATOM      7  C   UNL     1      18.677 127.584  17.334  1.00  0.00     0.075 C 
ATOM      8  O   UNL     1      19.251 128.508  16.698  1.00  0.00    -0.545 OA
ATOM      9  O   UNL     1      18.220 127.837  18.622  1.00  0.00    -0.545 OA
ENDBRANCH   1   7
BRANCH   2  10
ATOM     10  O   UNL     1      18.891 127.029  14.428  1.00  0.00    -0.507 OA
ATOM     11  H   UNL     1      19.644 127.692  14.550  1.00  0.00     0.293 HD
ENDBRANCH   2  10
TORSDOF 2
ENDMDL
MODEL 7
REMARK VINA RESULT:    -5.096      7.679      8.925
REMARK INTER + INTRA:          -5.787
REMARK INTER:                  -5.538
REMARK INTRA:                  -0.250
REMARK UNBOUND:                -0.244
REMARK SMILES O=C([O-])c1ccccc1O
REMARK SMILES IDX 4 1 9 2 5 3 8 4 6 5 7 6 2 7 1 8 3 9 10 10
REMARK H PARENT 10 11
REMARK Flexibility Score: inf
ROOT
ATOM      1  C   UNL     1      15.138 119.331  19.669  1.00  0.00     0.039 A 
ATOM      2  C   UNL     1      13.976 119.172  18.871  1.00  0.00     0.124 A 
ATOM      3  C   UNL     1      16.369 119.586  19.037  1.00  0.00     0.014 A 
ATOM      4  C   UNL     1      14.085 119.207  17.475  1.00  0.00     0.047 A 
ATOM      5  C   UNL     1      16.456 119.640  17.644  1.00  0.00     0.001 A 
ATOM      6  C   UNL     1      15.318 119.440  16.864  1.00  0.00     0.004 A 
ENDROOT
BRANCH   1   7
ATOM      7  C   UNL     1      15.111 119.202  21.143  1.00  0.00     0.075 C 
ATOM      8  O   UNL     1      14.469 118.263  21.684  1.00  0.00    -0.545 OA
ATOM      9  O   UNL     1      15.729 120.148  21.952  1.00  0.00    -0.545 OA
ENDBRANCH   1   7
BRANCH   2  10
ATOM     10  O   UNL     1      12.702 119.013  19.421  1.00  0.00    -0.507 OA
ATOM     11  H   UNL     1      12.460 118.266  20.057  1.00  0.00     0.293 HD
ENDBRANCH   2  10
TORSDOF 2
ENDMDL
MODEL 8
REMARK VINA RESULT:    -5.010      9.671     11.114
REMARK INTER + INTRA:          -5.693
REMARK INTER:                  -5.440
REMARK INTRA:                  -0.253
REMARK UNBOUND:                -0.244
REMARK SMILES O=C([O-])c1ccccc1O
REMARK SMILES IDX 4 1 9 2 5 3 8 4 6 5 7 6 2 7 1 8 3 9 10 10
REMARK H PARENT 10 11
REMARK Flexibility Score: inf
ROOT
ATOM      1  C   UNL     1      14.039 120.920  23.257  1.00  0.00     0.039 A 
ATOM      2  C   UNL     1      12.938 120.380  22.546  1.00  0.00     0.124 A 
ATOM      3  C   UNL     1      15.342 120.524  22.899  1.00  0.00     0.014 A 
ATOM      4  C   UNL     1      13.160 119.421  21.550  1.00  0.00     0.047 A 
ATOM      5  C   UNL     1      15.546 119.583  21.888  1.00  0.00     0.001 A 
ATOM      6  C   UNL     1      14.457 119.024  21.221  1.00  0.00     0.004 A 
ENDROOT
BRANCH   1   7
ATOM      7  C   UNL     1      13.869 121.858  24.389  1.00  0.00     0.075 C 
ATOM      8  O   UNL     1      14.517 121.685  25.456  1.00  0.00    -0.545 OA
ATOM      9  O   UNL     1      12.947 122.895  24.323  1.00  0.00    -0.545 OA
ENDBRANCH   1   7
BRANCH   2  10
ATOM     10  O   UNL     1      11.622 120.791  22.772  1.00  0.00    -0.507 OA
ATOM     11  H   UNL     1      11.302 121.738  22.622  1.00  0.00     0.293 HD
ENDBRANCH   2  10
TORSDOF 2
ENDMDL
MODEL 9
REMARK VINA RESULT:    -4.983      9.193     10.731
REMARK INTER + INTRA:          -5.665
REMARK INTER:                  -5.435
REMARK INTRA:                  -0.229
REMARK UNBOUND:                -0.244
REMARK SMILES O=C([O-])c1ccccc1O
REMARK SMILES IDX 4 1 9 2 5 3 8 4 6 5 7 6 2 7 1 8 3 9 10 10
REMARK H PARENT 10 11
REMARK Flexibility Score: inf
ROOT
ATOM      1  C   UNL     1      13.752 119.882  22.551  1.00  0.00     0.039 A 
ATOM      2  C   UNL     1      12.815 120.782  23.121  1.00  0.00     0.124 A 
ATOM      3  C   UNL     1      15.048 119.812  23.096  1.00  0.00     0.014 A 
ATOM      4  C   UNL     1      13.212 121.623  24.168  1.00  0.00     0.047 A 
ATOM      5  C   UNL     1      15.420 120.644  24.155  1.00  0.00     0.001 A 
ATOM      6  C   UNL     1      14.507 121.555  24.683  1.00  0.00     0.004 A 
ENDROOT
BRANCH   1   7
ATOM      7  C   UNL     1      13.430 119.040  21.378  1.00  0.00     0.075 C 
ATOM      8  O   UNL     1      14.177 118.073  21.070  1.00  0.00    -0.545 OA
ATOM      9  O   UNL     1      12.348 119.341  20.560  1.00  0.00    -0.545 OA
ENDBRANCH   1   7
BRANCH   2  10
ATOM     10  O   UNL     1      11.484 120.844  22.704  1.00  0.00    -0.507 OA
ATOM     11  H   UNL     1      10.923 121.683  22.756  1.00  0.00     0.293 HD
ENDBRANCH   2  10
TORSDOF 2
ENDMDL
