MODEL 1
REMARK VINA RESULT:    -4.057      0.000      0.000
REMARK INTER + INTRA:          -4.473
REMARK INTER:                  -4.294
REMARK INTRA:                  -0.179
REMARK UNBOUND:                -0.179
REMARK SMILES C=C1CC=C(C(C)C)CC1
REMARK SMILES IDX 5 1 4 2 3 3 2 4 1 5 10 6 9 7 6 8 7 9 8 10
REMARK H PARENT
REMARK Flexibility Score: inf
ROOT
ATOM      1  C   UNL     1     133.598 139.128 134.856  1.00  0.00    -0.071 C 
ATOM      2  C   UNL     1     134.230 138.990 133.672  1.00  0.00    -0.023 C 
ATOM      3  C   UNL     1     135.287 139.972 133.233  1.00  0.00     0.057 C 
ATOM      4  C   UNL     1     136.112 140.440 134.414  1.00  0.00    -0.073 C 
ATOM      5  C   UNL     1     137.376 140.849 134.233  1.00  0.00     0.008 C 
ATOM      6  C   UNL     1     135.498 140.479 135.798  1.00  0.00     0.035 C 
ATOM      7  C   UNL     1     133.975 140.299 135.744  1.00  0.00     0.035 C 
ENDROOT
BRANCH   1   8
ATOM      8  C   UNL     1     132.587 138.088 135.311  1.00  0.00     0.008 C 
ATOM      9  C   UNL     1     131.853 137.481 134.111  1.00  0.00     0.012 C 
ATOM     10  C   UNL     1     133.253 136.999 136.159  1.00  0.00     0.012 C 
ENDBRANCH   1   8
TORSDOF 1
ENDMDL
MODEL 2
REMARK VINA RESULT:    -4.052      6.529      8.186
REMARK INTER + INTRA:          -4.468
REMARK INTER:                  -4.287
REMARK INTRA:                  -0.180
REMARK UNBOUND:                -0.179
REMARK SMILES C=C1CC=C(C(C)C)CC1
REMARK SMILES IDX 5 1 4 2 3 3 2 4 1 5 10 6 9 7 6 8 7 9 8 10
REMARK H PARENT
REMARK Flexibility Score: inf
ROOT
ATOM      1  C   UNL     1     139.028 133.490 134.848  1.00  0.00    -0.071 C 
ATOM      2  C   UNL     1     138.398 133.615 133.662  1.00  0.00    -0.023 C 
ATOM      3  C   UNL     1     137.335 132.635 133.236  1.00  0.00     0.057 C 
ATOM      4  C   UNL     1     136.505 132.190 134.423  1.00  0.00    -0.073 C 
ATOM      5  C   UNL     1     135.239 131.787 134.247  1.00  0.00     0.008 C 
ATOM      6  C   UNL     1     137.117 132.166 135.808  1.00  0.00     0.035 C 
ATOM      7  C   UNL     1     138.642 132.334 135.752  1.00  0.00     0.035 C 
ENDROOT
BRANCH   1   8
ATOM      8  C   UNL     1     140.046 134.529 135.289  1.00  0.00     0.008 C 
ATOM      9  C   UNL     1     140.750 135.149 134.078  1.00  0.00     0.012 C 
ATOM     10  C   UNL     1     139.397 135.607 136.164  1.00  0.00     0.012 C 
ENDBRANCH   1   8
TORSDOF 1
ENDMDL
MODEL 3
REMARK VINA RESULT:    -4.048      3.893      5.735
REMARK INTER + INTRA:          -4.464
REMARK INTER:                  -4.282
REMARK INTRA:                  -0.182
REMARK UNBOUND:                -0.179
REMARK SMILES C=C1CC=C(C(C)C)CC1
REMARK SMILES IDX 5 1 4 2 3 3 2 4 1 5 10 6 9 7 6 8 7 9 8 10
REMARK H PARENT
REMARK Flexibility Score: inf
ROOT
ATOM      1  C   UNL     1     133.438 133.651 134.885  1.00  0.00    -0.071 C 
ATOM      2  C   UNL     1     133.562 134.267 133.691  1.00  0.00    -0.023 C 
ATOM      3  C   UNL     1     132.591 135.338 133.261  1.00  0.00     0.057 C 
ATOM      4  C   UNL     1     132.166 136.185 134.443  1.00  0.00    -0.073 C 
ATOM      5  C   UNL     1     131.777 137.454 134.257  1.00  0.00     0.008 C 
ATOM      6  C   UNL     1     132.146 135.588 135.835  1.00  0.00     0.035 C 
ATOM      7  C   UNL     1     132.294 134.060 135.794  1.00  0.00     0.035 C 
ENDROOT
BRANCH   1   8
ATOM      8  C   UNL     1     134.468 132.625 135.328  1.00  0.00     0.008 C 
ATOM      9  C   UNL     1     135.105 131.935 134.118  1.00  0.00     0.012 C 
ATOM     10  C   UNL     1     135.535 133.261 136.227  1.00  0.00     0.012 C 
ENDBRANCH   1   8
TORSDOF 1
ENDMDL
MODEL 4
REMARK VINA RESULT:    -4.041      3.954      5.804
REMARK INTER + INTRA:          -4.457
REMARK INTER:                  -4.277
REMARK INTRA:                  -0.180
REMARK UNBOUND:                -0.179
REMARK SMILES C=C1CC=C(C(C)C)CC1
REMARK SMILES IDX 5 1 4 2 3 3 2 4 1 5 10 6 9 7 6 8 7 9 8 10
REMARK H PARENT
REMARK Flexibility Score: inf
ROOT
ATOM      1  C   UNL     1     139.144 139.013 134.850  1.00  0.00    -0.071 C 
ATOM      2  C   UNL     1     139.003 138.381 133.667  1.00  0.00    -0.023 C 
ATOM      3  C   UNL     1     139.983 137.323 133.226  1.00  0.00     0.057 C 
ATOM      4  C   UNL     1     140.452 136.498 134.407  1.00  0.00    -0.073 C 
ATOM      5  C   UNL     1     140.860 135.234 134.225  1.00  0.00     0.008 C 
ATOM      6  C   UNL     1     140.495 137.112 135.791  1.00  0.00     0.035 C 
ATOM      7  C   UNL     1     140.317 138.636 135.736  1.00  0.00     0.035 C 
ENDROOT
BRANCH   1   8
ATOM      8  C   UNL     1     138.106 140.026 135.307  1.00  0.00     0.008 C 
ATOM      9  C   UNL     1     137.487 140.750 134.107  1.00  0.00     0.012 C 
ATOM     10  C   UNL     1     137.027 139.364 136.171  1.00  0.00     0.012 C 
ENDBRANCH   1   8
TORSDOF 1
ENDMDL
MODEL 5
REMARK VINA RESULT:    -3.986      4.048      5.435
REMARK INTER + INTRA:          -4.399
REMARK INTER:                  -4.255
REMARK INTRA:                  -0.144
REMARK UNBOUND:                -0.179
REMARK SMILES C=C1CC=C(C(C)C)CC1
REMARK SMILES IDX 5 1 4 2 3 3 2 4 1 5 10 6 9 7 6 8 7 9 8 10
REMARK H PARENT
REMARK Flexibility Score: inf
ROOT
ATOM      1  C   UNL     1     132.842 134.824 134.944  1.00  0.00    -0.071 C 
ATOM      2  C   UNL     1     132.096 135.909 135.234  1.00  0.00    -0.023 C 
ATOM      3  C   UNL     1     131.903 137.014 134.226  1.00  0.00     0.057 C 
ATOM      4  C   UNL     1     131.804 136.453 132.823  1.00  0.00    -0.073 C 
ATOM      5  C   UNL     1     131.123 137.117 131.878  1.00  0.00     0.008 C 
ATOM      6  C   UNL     1     132.505 135.156 132.475  1.00  0.00     0.035 C 
ATOM      7  C   UNL     1     133.490 134.736 133.575  1.00  0.00     0.035 C 
ENDROOT
BRANCH   1   8
ATOM      8  C   UNL     1     132.966 133.689 135.948  1.00  0.00     0.008 C 
ATOM      9  C   UNL     1     133.966 132.636 135.459  1.00  0.00     0.012 C 
ATOM     10  C   UNL     1     133.350 134.214 137.336  1.00  0.00     0.012 C 
ENDBRANCH   1   8
TORSDOF 1
ENDMDL
MODEL 6
REMARK VINA RESULT:    -3.977      7.043      7.461
REMARK INTER + INTRA:          -4.389
REMARK INTER:                  -4.249
REMARK INTRA:                  -0.140
REMARK UNBOUND:                -0.179
REMARK SMILES C=C1CC=C(C(C)C)CC1
REMARK SMILES IDX 5 1 4 2 3 3 2 4 1 5 10 6 9 7 6 8 7 9 8 10
REMARK H PARENT
REMARK Flexibility Score: inf
ROOT
ATOM      1  C   UNL     1     139.216 133.927 135.334  1.00  0.00    -0.071 C 
ATOM      2  C   UNL     1     138.768 133.576 134.111  1.00  0.00    -0.023 C 
ATOM      3  C   UNL     1     138.965 134.480 132.920  1.00  0.00     0.057 C 
ATOM      4  C   UNL     1     140.300 135.191 132.997  1.00  0.00    -0.073 C 
ATOM      5  C   UNL     1     140.917 135.590 131.875  1.00  0.00     0.008 C 
ATOM      6  C   UNL     1     140.925 135.484 134.345  1.00  0.00     0.035 C 
ATOM      7  C   UNL     1     139.927 135.259 135.489  1.00  0.00     0.035 C 
ENDROOT
BRANCH   1   8
ATOM      8  C   UNL     1     139.071 132.970 136.506  1.00  0.00     0.008 C 
ATOM      9  C   UNL     1     138.846 133.740 137.812  1.00  0.00     0.012 C 
ATOM     10  C   UNL     1     137.947 131.957 136.261  1.00  0.00     0.012 C 
ENDBRANCH   1   8
TORSDOF 1
ENDMDL
MODEL 7
REMARK VINA RESULT:    -3.962      1.986      2.947
REMARK INTER + INTRA:          -4.373
REMARK INTER:                  -4.232
REMARK INTRA:                  -0.141
REMARK UNBOUND:                -0.179
REMARK SMILES C=C1CC=C(C(C)C)CC1
REMARK SMILES IDX 5 1 4 2 3 3 2 4 1 5 10 6 9 7 6 8 7 9 8 10
REMARK H PARENT
REMARK Flexibility Score: inf
ROOT
ATOM      1  C   UNL     1     133.064 137.032 136.054  1.00  0.00    -0.071 C 
ATOM      2  C   UNL     1     132.629 138.063 135.301  1.00  0.00    -0.023 C 
ATOM      3  C   UNL     1     132.854 139.491 135.729  1.00  0.00     0.057 C 
ATOM      4  C   UNL     1     134.198 139.644 136.413  1.00  0.00    -0.073 C 
ATOM      5  C   UNL     1     134.835 140.823 136.390  1.00  0.00     0.008 C 
ATOM      6  C   UNL     1     134.806 138.472 137.155  1.00  0.00     0.035 C 
ATOM      7  C   UNL     1     133.789 137.340 137.351  1.00  0.00     0.035 C 
ENDROOT
BRANCH   1   8
ATOM      8  C   UNL     1     132.890 135.602 135.570  1.00  0.00     0.008 C 
ATOM      9  C   UNL     1     131.806 134.881 136.378  1.00  0.00     0.012 C 
ATOM     10  C   UNL     1     132.581 135.557 134.069  1.00  0.00     0.012 C 
ENDBRANCH   1   8
TORSDOF 1
ENDMDL
MODEL 8
REMARK VINA RESULT:    -3.956      6.072      7.867
REMARK INTER + INTRA:          -4.366
REMARK INTER:                  -4.226
REMARK INTRA:                  -0.140
REMARK UNBOUND:                -0.179
REMARK SMILES C=C1CC=C(C(C)C)CC1
REMARK SMILES IDX 5 1 4 2 3 3 2 4 1 5 10 6 9 7 6 8 7 9 8 10
REMARK H PARENT
REMARK Flexibility Score: inf
ROOT
ATOM      1  C   UNL     1     139.579 135.580 136.030  1.00  0.00    -0.071 C 
ATOM      2  C   UNL     1     140.001 134.552 135.265  1.00  0.00    -0.023 C 
ATOM      3  C   UNL     1     139.782 133.122 135.691  1.00  0.00     0.057 C 
ATOM      4  C   UNL     1     138.450 132.967 136.397  1.00  0.00    -0.073 C 
ATOM      5  C   UNL     1     137.812 131.789 136.379  1.00  0.00     0.008 C 
ATOM      6  C   UNL     1     137.854 134.136 137.154  1.00  0.00     0.035 C 
ATOM      7  C   UNL     1     138.875 135.267 137.337  1.00  0.00     0.035 C 
ENDROOT
BRANCH   1   8
ATOM      8  C   UNL     1     139.745 137.012 135.548  1.00  0.00     0.008 C 
ATOM      9  C   UNL     1     140.828 137.735 136.355  1.00  0.00     0.012 C 
ATOM     10  C   UNL     1     140.050 137.062 134.047  1.00  0.00     0.012 C 
ENDBRANCH   1   8
TORSDOF 1
ENDMDL
MODEL 9
REMARK VINA RESULT:    -3.933      2.848      4.370
REMARK INTER + INTRA:          -4.342
REMARK INTER:                  -4.203
REMARK INTRA:                  -0.139
REMARK UNBOUND:                -0.179
REMARK SMILES C=C1CC=C(C(C)C)CC1
REMARK SMILES IDX 5 1 4 2 3 3 2 4 1 5 10 6 9 7 6 8 7 9 8 10
REMARK H PARENT
REMARK Flexibility Score: inf
ROOT
ATOM      1  C   UNL     1     137.054 139.626 135.988  1.00  0.00    -0.071 C 
ATOM      2  C   UNL     1     138.074 140.008 135.193  1.00  0.00    -0.023 C 
ATOM      3  C   UNL     1     139.508 139.806 135.612  1.00  0.00     0.057 C 
ATOM      4  C   UNL     1     139.668 138.509 136.378  1.00  0.00    -0.073 C 
ATOM      5  C   UNL     1     140.845 137.867 136.376  1.00  0.00     0.008 C 
ATOM      6  C   UNL     1     138.507 137.952 137.175  1.00  0.00     0.035 C 
ATOM      7  C   UNL     1     137.381 138.984 137.324  1.00  0.00     0.035 C 
ENDROOT
BRANCH   1   8
ATOM      8  C   UNL     1     135.616 139.774 135.516  1.00  0.00     0.008 C 
ATOM      9  C   UNL     1     134.869 140.808 136.363  1.00  0.00     0.012 C 
ATOM     10  C   UNL     1     135.555 140.130 134.027  1.00  0.00     0.012 C 
ENDBRANCH   1   8
TORSDOF 1
ENDMDL
