MODEL 1
REMARK VINA RESULT:    -4.121      0.000      0.000
REMARK INTER + INTRA:          -5.222
REMARK INTER:                  -5.085
REMARK INTRA:                  -0.138
REMARK UNBOUND:                -0.138
REMARK SMILES CCCCCC(=O)[O-]
REMARK SMILES IDX 4 1 5 2 6 3 7 4 8 5 3 6 2 7 1 8
REMARK H PARENT
REMARK Flexibility Score: inf
ROOT
ATOM      1  C   UNL     1       1.106  21.693 -19.044  1.00  0.00     0.006 C 
ENDROOT
BRANCH   1   2
ATOM      2  C   UNL     1       1.436  21.726 -17.543  1.00  0.00     0.053 C 
BRANCH   2   3
ATOM      3  C   UNL     1       2.673  22.522 -17.260  1.00  0.00     0.041 C 
ATOM      4  O   UNL     1       2.959  23.524 -17.968  1.00  0.00    -0.550 OA
ATOM      5  O   UNL     1       3.493  22.177 -16.193  1.00  0.00    -0.550 OA
ENDBRANCH   2   3
ENDBRANCH   1   2
BRANCH   1   6
ATOM      6  C   UNL     1       1.692  20.484 -19.801  1.00  0.00     0.000 C 
BRANCH   6   7
ATOM      7  C   UNL     1       2.954  20.787 -20.627  1.00  0.00    -0.003 C 
ATOM      8  C   UNL     1       3.695  19.528 -21.073  1.00  0.00     0.004 C 
ENDBRANCH   6   7
ENDBRANCH   1   6
TORSDOF 4
ENDMDL
MODEL 2
REMARK VINA RESULT:    -4.076      2.362      3.941
REMARK INTER + INTRA:          -5.167
REMARK INTER:                  -5.048
REMARK INTRA:                  -0.119
REMARK UNBOUND:                -0.138
REMARK SMILES CCCCCC(=O)[O-]
REMARK SMILES IDX 4 1 5 2 6 3 7 4 8 5 3 6 2 7 1 8
REMARK H PARENT
REMARK Flexibility Score: inf
ROOT
ATOM      1  C   UNL     1       1.341  22.047 -19.110  1.00  0.00     0.006 C 
ENDROOT
BRANCH   1   2
ATOM      2  C   UNL     1       1.394  20.632 -19.706  1.00  0.00     0.053 C 
BRANCH   2   3
ATOM      3  C   UNL     1       2.633  20.412 -20.519  1.00  0.00     0.041 C 
ATOM      4  O   UNL     1       3.296  21.396 -20.942  1.00  0.00    -0.550 OA
ATOM      5  O   UNL     1       3.073  19.121 -20.780  1.00  0.00    -0.550 OA
ENDBRANCH   2   3
ENDBRANCH   1   2
BRANCH   1   6
ATOM      6  C   UNL     1       1.524  22.104 -17.580  1.00  0.00     0.000 C 
BRANCH   6   7
ATOM      7  C   UNL     1       2.939  22.488 -17.111  1.00  0.00    -0.003 C 
ATOM      8  C   UNL     1       3.211  22.107 -15.657  1.00  0.00     0.004 C 
ENDBRANCH   6   7
ENDBRANCH   1   6
TORSDOF 4
ENDMDL
MODEL 3
REMARK VINA RESULT:    -3.696     12.569     13.847
REMARK INTER + INTRA:          -4.698
REMARK INTER:                  -4.569
REMARK INTRA:                  -0.128
REMARK UNBOUND:                -0.138
REMARK SMILES CCCCCC(=O)[O-]
REMARK SMILES IDX 4 1 5 2 6 3 7 4 8 5 3 6 2 7 1 8
REMARK H PARENT
REMARK Flexibility Score: inf
ROOT
ATOM      1  C   UNL     1      -5.934  31.941 -18.263  1.00  0.00     0.006 C 
ENDROOT
BRANCH   1   2
ATOM      2  C   UNL     1      -4.555  31.562 -18.827  1.00  0.00     0.053 C 
BRANCH   2   3
ATOM      3  C   UNL     1      -3.541  32.641 -18.601  1.00  0.00     0.041 C 
ATOM      4  O   UNL     1      -3.829  33.843 -18.844  1.00  0.00    -0.550 OA
ATOM      5  O   UNL     1      -2.290  32.323 -18.089  1.00  0.00    -0.550 OA
ENDBRANCH   2   3
ENDBRANCH   1   2
BRANCH   1   6
ATOM      6  C   UNL     1      -6.039  31.864 -16.726  1.00  0.00     0.000 C 
BRANCH   6   7
ATOM      7  C   UNL     1      -7.264  32.576 -16.124  1.00  0.00    -0.003 C 
ATOM      8  C   UNL     1      -8.025  33.421 -17.144  1.00  0.00     0.004 C 
ENDBRANCH   6   7
ENDBRANCH   1   6
TORSDOF 4
ENDMDL
MODEL 4
REMARK VINA RESULT:    -3.685     13.124     13.989
REMARK INTER + INTRA:          -4.685
REMARK INTER:                  -4.591
REMARK INTRA:                  -0.093
REMARK UNBOUND:                -0.138
REMARK SMILES CCCCCC(=O)[O-]
REMARK SMILES IDX 4 1 5 2 6 3 7 4 8 5 3 6 2 7 1 8
REMARK H PARENT
REMARK Flexibility Score: inf
ROOT
ATOM      1  C   UNL     1      -5.958  32.148 -18.071  1.00  0.00     0.006 C 
ENDROOT
BRANCH   1   2
ATOM      2  C   UNL     1      -6.016  32.296 -16.543  1.00  0.00     0.053 C 
BRANCH   2   3
ATOM      3  C   UNL     1      -7.392  32.647 -16.066  1.00  0.00     0.041 C 
ATOM      4  O   UNL     1      -7.749  32.363 -14.892  1.00  0.00    -0.550 OA
ATOM      5  O   UNL     1      -8.270  33.319 -16.908  1.00  0.00    -0.550 OA
ENDBRANCH   2   3
ENDBRANCH   1   2
BRANCH   1   6
ATOM      6  C   UNL     1      -4.629  31.578 -18.608  1.00  0.00     0.000 C 
BRANCH   6   7
ATOM      7  C   UNL     1      -3.484  32.600 -18.720  1.00  0.00    -0.003 C 
ATOM      8  C   UNL     1      -2.457  32.473 -17.597  1.00  0.00     0.004 C 
ENDBRANCH   6   7
ENDBRANCH   1   6
TORSDOF 4
ENDMDL
MODEL 5
REMARK VINA RESULT:    -3.681      9.078     10.246
REMARK INTER + INTRA:          -4.680
REMARK INTER:                  -4.574
REMARK INTRA:                  -0.106
REMARK UNBOUND:                -0.138
REMARK SMILES CCCCCC(=O)[O-]
REMARK SMILES IDX 4 1 5 2 6 3 7 4 8 5 3 6 2 7 1 8
REMARK H PARENT
REMARK Flexibility Score: inf
ROOT
ATOM      1  C   UNL     1       7.182  26.033 -12.840  1.00  0.00     0.006 C 
ENDROOT
BRANCH   1   2
ATOM      2  C   UNL     1       8.392  25.553 -12.023  1.00  0.00     0.053 C 
BRANCH   2   3
ATOM      3  C   UNL     1       8.853  24.193 -12.450  1.00  0.00     0.041 C 
ATOM      4  O   UNL     1       8.795  23.223 -11.647  1.00  0.00    -0.550 OA
ATOM      5  O   UNL     1       9.313  23.989 -13.744  1.00  0.00    -0.550 OA
ENDBRANCH   2   3
ENDBRANCH   1   2
BRANCH   1   6
ATOM      6  C   UNL     1       7.177  27.544 -13.148  1.00  0.00     0.000 C 
BRANCH   6   7
ATOM      7  C   UNL     1       8.456  28.294 -12.737  1.00  0.00    -0.003 C 
ATOM      8  C   UNL     1       8.257  29.804 -12.632  1.00  0.00     0.004 C 
ENDBRANCH   6   7
ENDBRANCH   1   6
TORSDOF 4
ENDMDL
MODEL 6
REMARK VINA RESULT:    -3.624      9.343     10.145
REMARK INTER + INTRA:          -4.609
REMARK INTER:                  -4.452
REMARK INTRA:                  -0.157
REMARK UNBOUND:                -0.138
REMARK SMILES CCCCCC(=O)[O-]
REMARK SMILES IDX 4 1 5 2 6 3 7 4 8 5 3 6 2 7 1 8
REMARK H PARENT
REMARK Flexibility Score: inf
ROOT
ATOM      1  C   UNL     1       8.975  24.871 -12.931  1.00  0.00     0.006 C 
ENDROOT
BRANCH   1   2
ATOM      2  C   UNL     1       8.918  26.277 -12.312  1.00  0.00     0.053 C 
BRANCH   2   3
ATOM      3  C   UNL     1       7.691  27.025 -12.733  1.00  0.00     0.041 C 
ATOM      4  O   UNL     1       6.676  26.401 -13.142  1.00  0.00    -0.550 OA
ATOM      5  O   UNL     1       7.656  28.411 -12.640  1.00  0.00    -0.550 OA
ENDBRANCH   2   3
ENDBRANCH   1   2
BRANCH   1   6
ATOM      6  C   UNL     1       8.851  23.718 -11.914  1.00  0.00     0.000 C 
BRANCH   6   7
ATOM      7  C   UNL     1       8.562  24.159 -10.468  1.00  0.00    -0.003 C 
ATOM      8  C   UNL     1       7.796  23.109  -9.664  1.00  0.00     0.004 C 
ENDBRANCH   6   7
ENDBRANCH   1   6
TORSDOF 4
ENDMDL
MODEL 7
REMARK VINA RESULT:    -3.622      9.020     10.272
REMARK INTER + INTRA:          -4.607
REMARK INTER:                  -4.488
REMARK INTRA:                  -0.119
REMARK UNBOUND:                -0.138
REMARK SMILES CCCCCC(=O)[O-]
REMARK SMILES IDX 4 1 5 2 6 3 7 4 8 5 3 6 2 7 1 8
REMARK H PARENT
REMARK Flexibility Score: inf
ROOT
ATOM      1  C   UNL     1       6.997  25.520 -12.727  1.00  0.00     0.006 C 
ENDROOT
BRANCH   1   2
ATOM      2  C   UNL     1       8.357  24.923 -12.332  1.00  0.00     0.053 C 
BRANCH   2   3
ATOM      3  C   UNL     1       8.349  24.387 -10.934  1.00  0.00     0.041 C 
ATOM      4  O   UNL     1       9.311  24.626 -10.157  1.00  0.00    -0.550 OA
ATOM      5  O   UNL     1       7.262  23.652 -10.477  1.00  0.00    -0.550 OA
ENDBRANCH   2   3
ENDBRANCH   1   2
BRANCH   1   6
ATOM      6  C   UNL     1       7.035  27.022 -13.076  1.00  0.00     0.000 C 
BRANCH   6   7
ATOM      7  C   UNL     1       8.359  27.732 -12.740  1.00  0.00    -0.003 C 
ATOM      8  C   UNL     1       8.213  29.248 -12.631  1.00  0.00     0.004 C 
ENDBRANCH   6   7
ENDBRANCH   1   6
TORSDOF 4
ENDMDL
MODEL 8
REMARK VINA RESULT:    -3.433     10.776     12.352
REMARK INTER + INTRA:          -4.374
REMARK INTER:                  -4.145
REMARK INTRA:                  -0.228
REMARK UNBOUND:                -0.138
REMARK SMILES CCCCCC(=O)[O-]
REMARK SMILES IDX 4 1 5 2 6 3 7 4 8 5 3 6 2 7 1 8
REMARK H PARENT
REMARK Flexibility Score: inf
ROOT
ATOM      1  C   UNL     1       0.888  21.307  -7.030  1.00  0.00     0.006 C 
ENDROOT
BRANCH   1   2
ATOM      2  C   UNL     1       2.407  21.102  -6.925  1.00  0.00     0.053 C 
BRANCH   2   3
ATOM      3  C   UNL     1       2.917  20.147  -7.961  1.00  0.00     0.041 C 
ATOM      4  O   UNL     1       3.001  18.916  -7.702  1.00  0.00    -0.550 OA
ATOM      5  O   UNL     1       3.266  20.611  -9.223  1.00  0.00    -0.550 OA
ENDBRANCH   2   3
ENDBRANCH   1   2
BRANCH   1   6
ATOM      6  C   UNL     1       0.111  21.014  -5.730  1.00  0.00     0.000 C 
BRANCH   6   7
ATOM      7  C   UNL     1       0.376  19.628  -5.115  1.00  0.00    -0.003 C 
ATOM      8  C   UNL     1      -0.106  18.480  -6.000  1.00  0.00     0.004 C 
ENDBRANCH   6   7
ENDBRANCH   1   6
TORSDOF 4
ENDMDL
MODEL 9
REMARK VINA RESULT:    -3.416     11.714     12.809
REMARK INTER + INTRA:          -4.353
REMARK INTER:                  -4.132
REMARK INTRA:                  -0.221
REMARK UNBOUND:                -0.138
REMARK SMILES CCCCCC(=O)[O-]
REMARK SMILES IDX 4 1 5 2 6 3 7 4 8 5 3 6 2 7 1 8
REMARK H PARENT
REMARK Flexibility Score: inf
ROOT
ATOM      1  C   UNL     1       0.166  21.004  -6.101  1.00  0.00     0.006 C 
ENDROOT
BRANCH   1   2
ATOM      2  C   UNL     1       1.011  20.621  -4.875  1.00  0.00     0.053 C 
BRANCH   2   3
ATOM      3  C   UNL     1       1.694  19.301  -5.056  1.00  0.00     0.041 C 
ATOM      4  O   UNL     1       2.952  19.233  -5.059  1.00  0.00    -0.550 OA
ATOM      5  O   UNL     1       0.942  18.140  -5.187  1.00  0.00    -0.550 OA
ENDBRANCH   2   3
ENDBRANCH   1   2
BRANCH   1   6
ATOM      6  C   UNL     1       0.815  20.661  -7.457  1.00  0.00     0.000 C 
BRANCH   6   7
ATOM      7  C   UNL     1       1.763  21.739  -8.012  1.00  0.00    -0.003 C 
ATOM      8  C   UNL     1       3.238  21.368  -7.874  1.00  0.00     0.004 C 
ENDBRANCH   6   7
ENDBRANCH   1   6
TORSDOF 4
ENDMDL
