MODEL 1
REMARK VINA RESULT:    -8.097      0.000      0.000
REMARK INTER + INTRA:          -9.470
REMARK INTER:                  -9.754
REMARK INTRA:                   0.285
REMARK UNBOUND:                 0.285
REMARK SMILES Oc1cc(O)c2c(c1)O[C@H](c1ccc(O)c(O)c1)[C@@H](O)C2
REMARK SMILES IDX 21 1 19 2 10 3 9 4 7 5 8 6 2 7 3 8 4 9 6 10 20 11 11 13
REMARK SMILES IDX 18 14 12 15 16 16 13 17 14 18 17 19 15 21 5 23 1 25
REMARK H PARENT 20 12 17 20 15 22 5 24 1 26
REMARK Flexibility Score: inf
ROOT
ATOM      1  C   UNL     1       9.532  54.973   5.090  1.00  0.00     0.079 C 
ATOM      2  C   UNL     1       9.931  55.217   3.624  1.00  0.00     0.164 C 
ATOM      3  C   UNL     1      11.388  54.744   3.418  1.00  0.00     0.232 C 
ATOM      4  O   UNL     1      12.233  55.545   4.242  1.00  0.00    -0.482 OA
ATOM      5  C   UNL     1      11.918  55.714   5.593  1.00  0.00     0.131 A 
ATOM      6  C   UNL     1      12.909  56.126   6.489  1.00  0.00     0.093 A 
ATOM      7  C   UNL     1      12.654  56.117   7.865  1.00  0.00     0.122 A 
ATOM      8  C   UNL     1      11.372  55.808   8.333  1.00  0.00     0.092 A 
ATOM      9  C   UNL     1      10.342  55.468   7.449  1.00  0.00     0.126 A 
ATOM     10  C   UNL     1      10.601  55.443   6.061  1.00  0.00     0.039 A 
ENDROOT
BRANCH   2  11
ATOM     11  O   UNL     1       9.058  54.524   2.764  1.00  0.00    -0.389 OA
ATOM     12  H   UNL     1       9.610  54.231   1.989  1.00  0.00     0.211 HD
ENDBRANCH   2  11
BRANCH   3  13
ATOM     13  C   UNL     1      11.874  54.764   1.981  1.00  0.00    -0.001 A 
ATOM     14  C   UNL     1      11.013  54.975   0.882  1.00  0.00     0.057 A 
ATOM     15  C   UNL     1      13.250  54.603   1.737  1.00  0.00     0.012 A 
ATOM     16  C   UNL     1      11.506  54.926  -0.431  1.00  0.00     0.157 A 
ATOM     17  C   UNL     1      13.743  54.547   0.432  1.00  0.00     0.050 A 
ATOM     18  C   UNL     1      12.879  54.676  -0.656  1.00  0.00     0.157 A 
BRANCH  16  19
ATOM     19  O   UNL     1      10.628  55.155  -1.485  1.00  0.00    -0.504 OA
ATOM     20  H   UNL     1      10.876  55.808  -2.223  1.00  0.00     0.293 HD
ENDBRANCH  16  19
BRANCH  18  21
ATOM     21  O   UNL     1      13.391  54.516  -1.948  1.00  0.00    -0.504 OA
ATOM     22  H   UNL     1      14.361  54.721  -2.175  1.00  0.00     0.293 HD
ENDBRANCH  18  21
ENDBRANCH   3  13
BRANCH   9  23
ATOM     23  O   UNL     1       9.094  55.140   7.982  1.00  0.00    -0.507 OA
ATOM     24  H   UNL     1       8.848  55.257   8.953  1.00  0.00     0.293 HD
ENDBRANCH   9  23
BRANCH   7  25
ATOM     25  O   UNL     1      13.689  56.395   8.760  1.00  0.00    -0.508 OA
ATOM     26  H   UNL     1      13.908  55.767   9.525  1.00  0.00     0.293 HD
ENDBRANCH   7  25
TORSDOF 6
ENDMDL
MODEL 2
REMARK VINA RESULT:    -7.828      7.179      9.228
REMARK INTER + INTRA:          -9.145
REMARK INTER:                  -8.951
REMARK INTRA:                  -0.194
REMARK UNBOUND:                 0.285
REMARK SMILES Oc1cc(O)c2c(c1)O[C@H](c1ccc(O)c(O)c1)[C@@H](O)C2
REMARK SMILES IDX 21 1 19 2 10 3 9 4 7 5 8 6 2 7 3 8 4 9 6 10 20 11 11 13
REMARK SMILES IDX 18 14 12 15 16 16 13 17 14 18 17 19 15 21 5 23 1 25
REMARK H PARENT 20 12 17 20 15 22 5 24 1 26
REMARK Flexibility Score: inf
ROOT
ATOM      1  C   UNL     1      15.554  53.054  -0.881  1.00  0.00     0.079 C 
ATOM      2  C   UNL     1      14.723  53.574  -2.067  1.00  0.00     0.164 C 
ATOM      3  C   UNL     1      15.157  52.825  -3.347  1.00  0.00     0.232 C 
ATOM      4  O   UNL     1      16.526  53.136  -3.600  1.00  0.00    -0.482 OA
ATOM      5  C   UNL     1      17.462  53.010  -2.569  1.00  0.00     0.131 A 
ATOM      6  C   UNL     1      18.821  52.903  -2.878  1.00  0.00     0.093 A 
ATOM      7  C   UNL     1      19.744  52.590  -1.874  1.00  0.00     0.122 A 
ATOM      8  C   UNL     1      19.319  52.498  -0.544  1.00  0.00     0.092 A 
ATOM      9  C   UNL     1      17.975  52.678  -0.200  1.00  0.00     0.126 A 
ATOM     10  C   UNL     1      17.033  52.962  -1.213  1.00  0.00     0.039 A 
ENDROOT
BRANCH   2  11
ATOM     11  O   UNL     1      13.352  53.379  -1.819  1.00  0.00    -0.389 OA
ATOM     12  H   UNL     1      13.188  53.709  -0.894  1.00  0.00     0.211 HD
ENDBRANCH   2  11
BRANCH   3  13
ATOM     13  C   UNL     1      14.313  53.107  -4.575  1.00  0.00    -0.001 A 
ATOM     14  C   UNL     1      13.906  52.098  -5.476  1.00  0.00     0.057 A 
ATOM     15  C   UNL     1      13.885  54.427  -4.805  1.00  0.00     0.012 A 
ATOM     16  C   UNL     1      13.174  52.423  -6.628  1.00  0.00     0.157 A 
ATOM     17  C   UNL     1      13.162  54.755  -5.954  1.00  0.00     0.050 A 
ATOM     18  C   UNL     1      12.829  53.769  -6.884  1.00  0.00     0.157 A 
BRANCH  16  19
ATOM     19  O   UNL     1      12.778  51.398  -7.482  1.00  0.00    -0.504 OA
ATOM     20  H   UNL     1      12.797  50.433  -7.165  1.00  0.00     0.293 HD
ENDBRANCH  16  19
BRANCH  18  21
ATOM     21  O   UNL     1      12.192  54.148  -8.071  1.00  0.00    -0.504 OA
ATOM     22  H   UNL     1      12.693  54.227  -8.953  1.00  0.00     0.293 HD
ENDBRANCH  18  21
ENDBRANCH   3  13
BRANCH   9  23
ATOM     23  O   UNL     1      17.611  52.541   1.141  1.00  0.00    -0.507 OA
ATOM     24  H   UNL     1      17.659  53.289   1.817  1.00  0.00     0.293 HD
ENDBRANCH   9  23
BRANCH   7  25
ATOM     25  O   UNL     1      21.077  52.348  -2.212  1.00  0.00    -0.508 OA
ATOM     26  H   UNL     1      21.362  51.478  -2.645  1.00  0.00     0.293 HD
ENDBRANCH   7  25
TORSDOF 6
ENDMDL
MODEL 3
REMARK VINA RESULT:    -7.812      1.445      1.713
REMARK INTER + INTRA:          -9.126
REMARK INTER:                  -8.844
REMARK INTRA:                  -0.282
REMARK UNBOUND:                 0.285
REMARK SMILES Oc1cc(O)c2c(c1)O[C@H](c1ccc(O)c(O)c1)[C@@H](O)C2
REMARK SMILES IDX 21 1 19 2 10 3 9 4 7 5 8 6 2 7 3 8 4 9 6 10 20 11 11 13
REMARK SMILES IDX 18 14 12 15 16 16 13 17 14 18 17 19 15 21 5 23 1 25
REMARK H PARENT 20 12 17 20 15 22 5 24 1 26
REMARK Flexibility Score: inf
ROOT
ATOM      1  C   UNL     1      10.329  54.663   4.009  1.00  0.00     0.079 C 
ATOM      2  C   UNL     1      11.061  55.044   2.710  1.00  0.00     0.164 C 
ATOM      3  C   UNL     1      12.573  54.784   2.893  1.00  0.00     0.232 C 
ATOM      4  O   UNL     1      13.047  55.640   3.931  1.00  0.00    -0.482 OA
ATOM      5  C   UNL     1      12.365  55.686   5.151  1.00  0.00     0.131 A 
ATOM      6  C   UNL     1      13.015  56.172   6.289  1.00  0.00     0.093 A 
ATOM      7  C   UNL     1      12.411  56.049   7.545  1.00  0.00     0.122 A 
ATOM      8  C   UNL     1      11.110  55.544   7.644  1.00  0.00     0.092 A 
ATOM      9  C   UNL     1      10.409  55.122   6.509  1.00  0.00     0.126 A 
ATOM     10  C   UNL     1      11.025  55.214   5.242  1.00  0.00     0.039 A 
ENDROOT
BRANCH   2  11
ATOM     11  O   UNL     1      10.555  54.293   1.633  1.00  0.00    -0.389 OA
ATOM     12  H   UNL     1      10.321  53.400   2.004  1.00  0.00     0.211 HD
ENDBRANCH   2  11
BRANCH   3  13
ATOM     13  C   UNL     1      13.412  54.953   1.641  1.00  0.00    -0.001 A 
ATOM     14  C   UNL     1      13.285  56.061   0.776  1.00  0.00     0.057 A 
ATOM     15  C   UNL     1      14.386  53.980   1.351  1.00  0.00     0.012 A 
ATOM     16  C   UNL     1      14.046  56.140  -0.400  1.00  0.00     0.157 A 
ATOM     17  C   UNL     1      15.141  54.051   0.178  1.00  0.00     0.050 A 
ATOM     18  C   UNL     1      14.958  55.106  -0.716  1.00  0.00     0.157 A 
BRANCH  16  19
ATOM     19  O   UNL     1      13.905  57.256  -1.218  1.00  0.00    -0.504 OA
ATOM     20  H   UNL     1      14.701  57.613  -1.737  1.00  0.00     0.293 HD
ENDBRANCH  16  19
BRANCH  18  21
ATOM     21  O   UNL     1      15.658  55.094  -1.928  1.00  0.00    -0.504 OA
ATOM     22  H   UNL     1      16.375  55.781  -2.145  1.00  0.00     0.293 HD
ENDBRANCH  18  21
ENDBRANCH   3  13
BRANCH   9  23
ATOM     23  O   UNL     1       9.126  54.599   6.680  1.00  0.00    -0.507 OA
ATOM     24  H   UNL     1       8.899  53.621   6.583  1.00  0.00     0.293 HD
ENDBRANCH   9  23
BRANCH   7  25
ATOM     25  O   UNL     1      13.122  56.409   8.691  1.00  0.00    -0.508 OA
ATOM     26  H   UNL     1      13.331  57.378   8.900  1.00  0.00     0.293 HD
ENDBRANCH   7  25
TORSDOF 6
ENDMDL
MODEL 4
REMARK VINA RESULT:    -7.811      5.442     10.150
REMARK INTER + INTRA:          -9.125
REMARK INTER:                  -8.810
REMARK INTRA:                  -0.315
REMARK UNBOUND:                 0.285
REMARK SMILES Oc1cc(O)c2c(c1)O[C@H](c1ccc(O)c(O)c1)[C@@H](O)C2
REMARK SMILES IDX 21 1 19 2 10 3 9 4 7 5 8 6 2 7 3 8 4 9 6 10 20 11 11 13
REMARK SMILES IDX 18 14 12 15 16 16 13 17 14 18 17 19 15 21 5 23 1 25
REMARK H PARENT 20 12 17 20 15 22 5 24 1 26
REMARK Flexibility Score: inf
ROOT
ATOM      1  C   UNL     1      14.485  53.411  -4.929  1.00  0.00     0.079 C 
ATOM      2  C   UNL     1      14.616  54.012  -3.519  1.00  0.00     0.164 C 
ATOM      3  C   UNL     1      14.939  52.878  -2.520  1.00  0.00     0.232 C 
ATOM      4  O   UNL     1      13.837  51.971  -2.509  1.00  0.00    -0.482 OA
ATOM      5  C   UNL     1      13.334  51.484  -3.720  1.00  0.00     0.131 A 
ATOM      6  C   UNL     1      12.564  50.318  -3.730  1.00  0.00     0.093 A 
ATOM      7  C   UNL     1      12.216  49.722  -4.947  1.00  0.00     0.122 A 
ATOM      8  C   UNL     1      12.540  50.357  -6.151  1.00  0.00     0.092 A 
ATOM      9  C   UNL     1      13.244  51.566  -6.163  1.00  0.00     0.126 A 
ATOM     10  C   UNL     1      13.627  52.157  -4.940  1.00  0.00     0.039 A 
ENDROOT
BRANCH   2  11
ATOM     11  O   UNL     1      15.629  54.989  -3.503  1.00  0.00    -0.389 OA
ATOM     12  H   UNL     1      15.210  55.815  -3.139  1.00  0.00     0.211 HD
ENDBRANCH   2  11
BRANCH   3  13
ATOM     13  C   UNL     1      15.264  53.334  -1.110  1.00  0.00    -0.001 A 
ATOM     14  C   UNL     1      16.469  53.000  -0.455  1.00  0.00     0.057 A 
ATOM     15  C   UNL     1      14.340  54.157  -0.443  1.00  0.00     0.012 A 
ATOM     16  C   UNL     1      16.695  53.400   0.871  1.00  0.00     0.157 A 
ATOM     17  C   UNL     1      14.558  54.552   0.879  1.00  0.00     0.050 A 
ATOM     18  C   UNL     1      15.714  54.155   1.553  1.00  0.00     0.157 A 
BRANCH  16  19
ATOM     19  O   UNL     1      17.902  53.066   1.476  1.00  0.00    -0.504 OA
ATOM     20  H   UNL     1      18.684  52.745   0.913  1.00  0.00     0.293 HD
ENDBRANCH  16  19
BRANCH  18  21
ATOM     21  O   UNL     1      15.853  54.484   2.906  1.00  0.00    -0.504 OA
ATOM     22  H   UNL     1      16.669  54.977   3.261  1.00  0.00     0.293 HD
ENDBRANCH  18  21
ENDBRANCH   3  13
BRANCH   9  23
ATOM     23  O   UNL     1      13.564  52.132  -7.399  1.00  0.00    -0.507 OA
ATOM     24  H   UNL     1      13.769  53.110  -7.535  1.00  0.00     0.293 HD
ENDBRANCH   9  23
BRANCH   7  25
ATOM     25  O   UNL     1      11.567  48.485  -4.949  1.00  0.00    -0.508 OA
ATOM     26  H   UNL     1      11.893  47.719  -5.526  1.00  0.00     0.293 HD
ENDBRANCH   7  25
TORSDOF 6
ENDMDL
MODEL 5
REMARK VINA RESULT:    -7.744      5.272      7.565
REMARK INTER + INTRA:          -9.044
REMARK INTER:                  -8.790
REMARK INTRA:                  -0.255
REMARK UNBOUND:                 0.285
REMARK SMILES Oc1cc(O)c2c(c1)O[C@H](c1ccc(O)c(O)c1)[C@@H](O)C2
REMARK SMILES IDX 21 1 19 2 10 3 9 4 7 5 8 6 2 7 3 8 4 9 6 10 20 11 11 13
REMARK SMILES IDX 18 14 12 15 16 16 13 17 14 18 17 19 15 21 5 23 1 25
REMARK H PARENT 20 12 17 20 15 22 5 24 1 26
REMARK Flexibility Score: inf
ROOT
ATOM      1  C   UNL     1      13.174  54.577  -0.964  1.00  0.00     0.079 C 
ATOM      2  C   UNL     1      13.071  54.312  -2.476  1.00  0.00     0.164 C 
ATOM      3  C   UNL     1      13.609  52.894  -2.773  1.00  0.00     0.232 C 
ATOM      4  O   UNL     1      14.990  52.861  -2.414  1.00  0.00    -0.482 OA
ATOM      5  C   UNL     1      15.386  53.326  -1.157  1.00  0.00     0.131 A 
ATOM      6  C   UNL     1      16.621  52.934  -0.632  1.00  0.00     0.093 A 
ATOM      7  C   UNL     1      16.944  53.238   0.696  1.00  0.00     0.122 A 
ATOM      8  C   UNL     1      16.080  54.033   1.457  1.00  0.00     0.092 A 
ATOM      9  C   UNL     1      14.873  54.502   0.927  1.00  0.00     0.126 A 
ATOM     10  C   UNL     1      14.526  54.171  -0.401  1.00  0.00     0.039 A 
ENDROOT
BRANCH   2  11
ATOM     11  O   UNL     1      11.734  54.432  -2.898  1.00  0.00    -0.389 OA
ATOM     12  H   UNL     1      11.184  54.456  -2.069  1.00  0.00     0.211 HD
ENDBRANCH   2  11
BRANCH   3  13
ATOM     13  C   UNL     1      13.420  52.419  -4.201  1.00  0.00    -0.001 A 
ATOM     14  C   UNL     1      13.659  53.243  -5.322  1.00  0.00     0.057 A 
ATOM     15  C   UNL     1      13.026  51.086  -4.416  1.00  0.00     0.012 A 
ATOM     16  C   UNL     1      13.413  52.771  -6.620  1.00  0.00     0.157 A 
ATOM     17  C   UNL     1      12.773  50.614  -5.707  1.00  0.00     0.050 A 
ATOM     18  C   UNL     1      12.934  51.455  -6.809  1.00  0.00     0.157 A 
BRANCH  16  19
ATOM     19  O   UNL     1      13.677  53.608  -7.699  1.00  0.00    -0.504 OA
ATOM     20  H   UNL     1      14.036  54.545  -7.543  1.00  0.00     0.293 HD
ENDBRANCH  16  19
BRANCH  18  21
ATOM     21  O   UNL     1      12.577  50.981  -8.077  1.00  0.00    -0.504 OA
ATOM     22  H   UNL     1      11.618  51.011  -8.415  1.00  0.00     0.293 HD
ENDBRANCH  18  21
ENDBRANCH   3  13
BRANCH   9  23
ATOM     23  O   UNL     1      14.041  55.264   1.749  1.00  0.00    -0.507 OA
ATOM     24  H   UNL     1      13.164  54.936   2.123  1.00  0.00     0.293 HD
ENDBRANCH   9  23
BRANCH   7  25
ATOM     25  O   UNL     1      18.116  52.726   1.256  1.00  0.00    -0.508 OA
ATOM     26  H   UNL     1      18.108  52.243   2.147  1.00  0.00     0.293 HD
ENDBRANCH   7  25
TORSDOF 6
ENDMDL
MODEL 6
REMARK VINA RESULT:    -7.713      2.645      6.855
REMARK INTER + INTRA:          -9.007
REMARK INTER:                  -8.944
REMARK INTRA:                  -0.062
REMARK UNBOUND:                 0.285
REMARK SMILES Oc1cc(O)c2c(c1)O[C@H](c1ccc(O)c(O)c1)[C@@H](O)C2
REMARK SMILES IDX 21 1 19 2 10 3 9 4 7 5 8 6 2 7 3 8 4 9 6 10 20 11 11 13
REMARK SMILES IDX 18 14 12 15 16 16 13 17 14 18 17 19 15 21 5 23 1 25
REMARK H PARENT 20 12 17 20 15 22 5 24 1 26
REMARK Flexibility Score: inf
ROOT
ATOM      1  C   UNL     1      10.923  55.341   6.883  1.00  0.00     0.079 C 
ATOM      2  C   UNL     1      12.292  55.809   7.408  1.00  0.00     0.164 C 
ATOM      3  C   UNL     1      12.700  57.098   6.659  1.00  0.00     0.232 C 
ATOM      4  O   UNL     1      12.847  56.778   5.276  1.00  0.00    -0.482 OA
ATOM      5  C   UNL     1      11.827  56.083   4.618  1.00  0.00     0.131 A 
ATOM      6  C   UNL     1      11.752  56.121   3.223  1.00  0.00     0.093 A 
ATOM      7  C   UNL     1      10.636  55.589   2.569  1.00  0.00     0.122 A 
ATOM      8  C   UNL     1       9.654  54.917   3.304  1.00  0.00     0.092 A 
ATOM      9  C   UNL     1       9.746  54.798   4.695  1.00  0.00     0.126 A 
ATOM     10  C   UNL     1      10.854  55.361   5.365  1.00  0.00     0.039 A 
ENDROOT
BRANCH   2  11
ATOM     11  O   UNL     1      12.223  56.043   8.794  1.00  0.00    -0.389 OA
ATOM     12  H   UNL     1      12.672  55.268   9.227  1.00  0.00     0.211 HD
ENDBRANCH   2  11
BRANCH   3  13
ATOM     13  C   UNL     1      13.951  57.778   7.181  1.00  0.00    -0.001 A 
ATOM     14  C   UNL     1      15.204  57.680   6.539  1.00  0.00     0.057 A 
ATOM     15  C   UNL     1      13.847  58.573   8.337  1.00  0.00     0.012 A 
ATOM     16  C   UNL     1      16.342  58.282   7.097  1.00  0.00     0.157 A 
ATOM     17  C   UNL     1      14.978  59.169   8.899  1.00  0.00     0.050 A 
ATOM     18  C   UNL     1      16.231  59.005   8.307  1.00  0.00     0.157 A 
BRANCH  16  19
ATOM     19  O   UNL     1      17.555  58.176   6.425  1.00  0.00    -0.504 OA
ATOM     20  H   UNL     1      17.612  58.398   5.435  1.00  0.00     0.293 HD
ENDBRANCH  16  19
BRANCH  18  21
ATOM     21  O   UNL     1      17.357  59.531   8.950  1.00  0.00    -0.504 OA
ATOM     22  H   UNL     1      17.554  59.348   9.931  1.00  0.00     0.293 HD
ENDBRANCH  18  21
ENDBRANCH   3  13
BRANCH   9  23
ATOM     23  O   UNL     1       8.717  54.143   5.373  1.00  0.00    -0.507 OA
ATOM     24  H   UNL     1       8.058  53.520   4.931  1.00  0.00     0.293 HD
ENDBRANCH   9  23
BRANCH   7  25
ATOM     25  O   UNL     1      10.501  55.754   1.188  1.00  0.00    -0.508 OA
ATOM     26  H   UNL     1       9.847  55.196   0.652  1.00  0.00     0.293 HD
ENDBRANCH   7  25
TORSDOF 6
ENDMDL
MODEL 7
REMARK VINA RESULT:    -7.666      3.478      4.541
REMARK INTER + INTRA:          -8.950
REMARK INTER:                  -8.700
REMARK INTRA:                  -0.250
REMARK UNBOUND:                 0.285
REMARK SMILES Oc1cc(O)c2c(c1)O[C@H](c1ccc(O)c(O)c1)[C@@H](O)C2
REMARK SMILES IDX 21 1 19 2 10 3 9 4 7 5 8 6 2 7 3 8 4 9 6 10 20 11 11 13
REMARK SMILES IDX 18 14 12 15 16 16 13 17 14 18 17 19 15 21 5 23 1 25
REMARK H PARENT 20 12 17 20 15 22 5 24 1 26
REMARK Flexibility Score: inf
ROOT
ATOM      1  C   UNL     1      14.114  56.861   6.311  1.00  0.00     0.079 C 
ATOM      2  C   UNL     1      14.706  57.213   4.935  1.00  0.00     0.164 C 
ATOM      3  C   UNL     1      13.595  57.832   4.056  1.00  0.00     0.232 C 
ATOM      4  O   UNL     1      12.585  56.844   3.859  1.00  0.00    -0.482 OA
ATOM      5  C   UNL     1      12.067  56.159   4.963  1.00  0.00     0.131 A 
ATOM      6  C   UNL     1      10.832  55.514   4.860  1.00  0.00     0.093 A 
ATOM      7  C   UNL     1      10.220  54.989   6.004  1.00  0.00     0.122 A 
ATOM      8  C   UNL     1      10.900  55.007   7.226  1.00  0.00     0.092 A 
ATOM      9  C   UNL     1      12.173  55.578   7.337  1.00  0.00     0.126 A 
ATOM     10  C   UNL     1      12.782  56.140   6.194  1.00  0.00     0.039 A 
ENDROOT
BRANCH   2  11
ATOM     11  O   UNL     1      15.777  58.113   5.086  1.00  0.00    -0.389 OA
ATOM     12  H   UNL     1      15.946  58.179   6.064  1.00  0.00     0.211 HD
ENDBRANCH   2  11
BRANCH   3  13
ATOM     13  C   UNL     1      14.062  58.387   2.724  1.00  0.00    -0.001 A 
ATOM     14  C   UNL     1      13.684  59.661   2.248  1.00  0.00     0.057 A 
ATOM     15  C   UNL     1      14.941  57.612   1.947  1.00  0.00     0.012 A 
ATOM     16  C   UNL     1      14.097  60.103   0.982  1.00  0.00     0.157 A 
ATOM     17  C   UNL     1      15.350  58.044   0.683  1.00  0.00     0.050 A 
ATOM     18  C   UNL     1      14.911  59.270   0.181  1.00  0.00     0.157 A 
BRANCH  16  19
ATOM     19  O   UNL     1      13.718  61.371   0.557  1.00  0.00    -0.504 OA
ATOM     20  H   UNL     1      14.170  61.797  -0.247  1.00  0.00     0.293 HD
ENDBRANCH  16  19
BRANCH  18  21
ATOM     21  O   UNL     1      15.259  59.627  -1.127  1.00  0.00    -0.504 OA
ATOM     22  H   UNL     1      15.941  59.101  -1.668  1.00  0.00     0.293 HD
ENDBRANCH  18  21
ENDBRANCH   3  13
BRANCH   9  23
ATOM     23  O   UNL     1      12.784  55.593   8.592  1.00  0.00    -0.507 OA
ATOM     24  H   UNL     1      12.756  56.379   9.224  1.00  0.00     0.293 HD
ENDBRANCH   9  23
BRANCH   7  25
ATOM     25  O   UNL     1       8.926  54.471   5.919  1.00  0.00    -0.508 OA
ATOM     26  H   UNL     1       8.332  54.398   6.736  1.00  0.00     0.293 HD
ENDBRANCH   7  25
TORSDOF 6
ENDMDL
MODEL 8
REMARK VINA RESULT:    -7.643      3.993      7.174
REMARK INTER + INTRA:          -8.923
REMARK INTER:                  -8.590
REMARK INTRA:                  -0.333
REMARK UNBOUND:                 0.285
REMARK SMILES Oc1cc(O)c2c(c1)O[C@H](c1ccc(O)c(O)c1)[C@@H](O)C2
REMARK SMILES IDX 21 1 19 2 10 3 9 4 7 5 8 6 2 7 3 8 4 9 6 10 20 11 11 13
REMARK SMILES IDX 18 14 12 15 16 16 13 17 14 18 17 19 15 21 5 23 1 25
REMARK H PARENT 20 12 17 20 15 22 5 24 1 26
REMARK Flexibility Score: inf
ROOT
ATOM      1  C   UNL     1      15.166  54.122  -0.719  1.00  0.00     0.079 C 
ATOM      2  C   UNL     1      14.944  53.228  -1.952  1.00  0.00     0.164 C 
ATOM      3  C   UNL     1      13.818  53.839  -2.816  1.00  0.00     0.232 C 
ATOM      4  O   UNL     1      12.617  53.832  -2.047  1.00  0.00    -0.482 OA
ATOM      5  C   UNL     1      12.628  54.350  -0.748  1.00  0.00     0.131 A 
ATOM      6  C   UNL     1      11.426  54.730  -0.145  1.00  0.00     0.093 A 
ATOM      7  C   UNL     1      11.443  55.419   1.073  1.00  0.00     0.122 A 
ATOM      8  C   UNL     1      12.656  55.622   1.740  1.00  0.00     0.092 A 
ATOM      9  C   UNL     1      13.865  55.181   1.192  1.00  0.00     0.126 A 
ATOM     10  C   UNL     1      13.859  54.514  -0.052  1.00  0.00     0.039 A 
ENDROOT
BRANCH   2  11
ATOM     11  O   UNL     1      16.136  53.122  -2.693  1.00  0.00    -0.389 OA
ATOM     12  H   UNL     1      16.873  53.083  -2.026  1.00  0.00     0.211 HD
ENDBRANCH   2  11
BRANCH   3  13
ATOM     13  C   UNL     1      13.595  53.163  -4.155  1.00  0.00    -0.001 A 
ATOM     14  C   UNL     1      13.739  53.835  -5.388  1.00  0.00     0.057 A 
ATOM     15  C   UNL     1      13.267  51.795  -4.168  1.00  0.00     0.012 A 
ATOM     16  C   UNL     1      13.464  53.177  -6.597  1.00  0.00     0.157 A 
ATOM     17  C   UNL     1      12.986  51.138  -5.368  1.00  0.00     0.050 A 
ATOM     18  C   UNL     1      13.052  51.825  -6.581  1.00  0.00     0.157 A 
BRANCH  16  19
ATOM     19  O   UNL     1      13.635  53.869  -7.791  1.00  0.00    -0.504 OA
ATOM     20  H   UNL     1      14.015  54.811  -7.786  1.00  0.00     0.293 HD
ENDBRANCH  16  19
BRANCH  18  21
ATOM     21  O   UNL     1      12.668  51.164  -7.753  1.00  0.00    -0.504 OA
ATOM     22  H   UNL     1      13.330  50.638  -8.319  1.00  0.00     0.293 HD
ENDBRANCH  18  21
ENDBRANCH   3  13
BRANCH   9  23
ATOM     23  O   UNL     1      15.044  55.443   1.893  1.00  0.00    -0.507 OA
ATOM     24  H   UNL     1      15.090  56.008   2.728  1.00  0.00     0.293 HD
ENDBRANCH   9  23
BRANCH   7  25
ATOM     25  O   UNL     1      10.250  55.918   1.601  1.00  0.00    -0.508 OA
ATOM     26  H   UNL     1      10.244  56.513   2.421  1.00  0.00     0.293 HD
ENDBRANCH   7  25
TORSDOF 6
ENDMDL
MODEL 9
REMARK VINA RESULT:    -7.584      2.715      6.624
REMARK INTER + INTRA:          -8.851
REMARK INTER:                  -8.508
REMARK INTRA:                  -0.343
REMARK UNBOUND:                 0.285
REMARK SMILES Oc1cc(O)c2c(c1)O[C@H](c1ccc(O)c(O)c1)[C@@H](O)C2
REMARK SMILES IDX 21 1 19 2 10 3 9 4 7 5 8 6 2 7 3 8 4 9 6 10 20 11 11 13
REMARK SMILES IDX 18 14 12 15 16 16 13 17 14 18 17 19 15 21 5 23 1 25
REMARK H PARENT 20 12 17 20 15 22 5 24 1 26
REMARK Flexibility Score: inf
ROOT
ATOM      1  C   UNL     1      13.541  55.065   0.818  1.00  0.00     0.079 C 
ATOM      2  C   UNL     1      12.901  54.658   2.157  1.00  0.00     0.164 C 
ATOM      3  C   UNL     1      12.042  55.832   2.678  1.00  0.00     0.232 C 
ATOM      4  O   UNL     1      12.908  56.938   2.925  1.00  0.00    -0.482 OA
ATOM      5  C   UNL     1      13.811  57.340   1.935  1.00  0.00     0.131 A 
ATOM      6  C   UNL     1      14.355  58.627   1.977  1.00  0.00     0.093 A 
ATOM      7  C   UNL     1      15.108  59.102   0.898  1.00  0.00     0.122 A 
ATOM      8  C   UNL     1      15.411  58.248  -0.169  1.00  0.00     0.092 A 
ATOM      9  C   UNL     1      14.941  56.931  -0.196  1.00  0.00     0.126 A 
ATOM     10  C   UNL     1      14.153  56.455   0.875  1.00  0.00     0.039 A 
ENDROOT
BRANCH   2  11
ATOM     11  O   UNL     1      12.112  53.505   1.984  1.00  0.00    -0.389 OA
ATOM     12  H   UNL     1      12.220  53.237   1.032  1.00  0.00     0.211 HD
ENDBRANCH   2  11
BRANCH   3  13
ATOM     13  C   UNL     1      11.209  55.525   3.908  1.00  0.00    -0.001 A 
ATOM     14  C   UNL     1       9.809  55.352   3.864  1.00  0.00     0.057 A 
ATOM     15  C   UNL     1      11.869  55.367   5.141  1.00  0.00     0.012 A 
ATOM     16  C   UNL     1       9.080  55.127   5.042  1.00  0.00     0.157 A 
ATOM     17  C   UNL     1      11.146  55.149   6.316  1.00  0.00     0.050 A 
ATOM     18  C   UNL     1       9.754  55.058   6.282  1.00  0.00     0.157 A 
BRANCH  16  19
ATOM     19  O   UNL     1       7.704  54.945   4.954  1.00  0.00    -0.504 OA
ATOM     20  H   UNL     1       7.270  54.753   4.056  1.00  0.00     0.293 HD
ENDBRANCH  16  19
BRANCH  18  21
ATOM     21  O   UNL     1       9.056  54.939   7.489  1.00  0.00    -0.504 OA
ATOM     22  H   UNL     1       8.063  54.724   7.520  1.00  0.00     0.293 HD
ENDBRANCH  18  21
ENDBRANCH   3  13
BRANCH   9  23
ATOM     23  O   UNL     1      15.251  56.140  -1.304  1.00  0.00    -0.507 OA
ATOM     24  H   UNL     1      14.577  55.847  -1.994  1.00  0.00     0.293 HD
ENDBRANCH   9  23
BRANCH   7  25
ATOM     25  O   UNL     1      15.531  60.433   0.884  1.00  0.00    -0.508 OA
ATOM     26  H   UNL     1      15.563  60.968   0.024  1.00  0.00     0.293 HD
ENDBRANCH   7  25
TORSDOF 6
ENDMDL
