MODEL 1
REMARK VINA RESULT:    -3.468      0.000      0.000
REMARK INTER + INTRA:          -4.674
REMARK INTER:                  -4.482
REMARK INTRA:                  -0.192
REMARK UNBOUND:                -0.192
REMARK SMILES CCO[C@@H]1O[C@@H](CO)[C@@H](O)[C@H](O)[C@H]1O
REMARK SMILES IDX 4 1 13 2 11 3 9 4 6 5 5 6 3 7 2 8 1 9 14 10 12 12 7 14 8 15
REMARK SMILES IDX 10 17
REMARK H PARENT 14 11 12 13 8 16 10 18
REMARK Flexibility Score: inf
ROOT
ATOM      1  C   UNL     1      34.025  37.706  -0.504  1.00  0.00     0.281 C 
ATOM      2  C   UNL     1      33.909  38.941   0.429  1.00  0.00     0.202 C 
ATOM      3  C   UNL     1      32.776  38.783   1.466  1.00  0.00     0.179 C 
ATOM      4  C   UNL     1      32.768  37.377   2.099  1.00  0.00     0.177 C 
ATOM      5  C   UNL     1      32.918  36.288   1.008  1.00  0.00     0.178 C 
ATOM      6  O   UNL     1      34.094  36.502   0.246  1.00  0.00    -0.341 OA
ENDROOT
BRANCH   1   7
ATOM      7  O   UNL     1      32.945  37.651  -1.427  1.00  0.00    -0.350 OA
BRANCH   7   8
ATOM      8  C   UNL     1      32.931  38.788  -2.264  1.00  0.00     0.160 C 
ATOM      9  C   UNL     1      33.184  38.353  -3.699  1.00  0.00     0.035 C 
ENDBRANCH   7   8
ENDBRANCH   1   7
BRANCH   2  10
ATOM     10  O   UNL     1      35.125  39.124   1.110  1.00  0.00    -0.385 OA
ATOM     11  H   UNL     1      35.587  38.245   1.119  1.00  0.00     0.211 HD
ENDBRANCH   2  10
BRANCH   3  12
ATOM     12  O   UNL     1      31.523  39.118   0.918  1.00  0.00    -0.387 OA
ATOM     13  H   UNL     1      31.189  39.935   1.367  1.00  0.00     0.211 HD
ENDBRANCH   3  12
BRANCH   5  14
ATOM     14  C   UNL     1      32.985  34.876   1.616  1.00  0.00     0.191 C 
BRANCH  14  15
ATOM     15  O   UNL     1      31.866  34.114   1.249  1.00  0.00    -0.394 OA
ATOM     16  H   UNL     1      31.100  34.462   1.777  1.00  0.00     0.210 HD
ENDBRANCH  14  15
ENDBRANCH   5  14
BRANCH   4  17
ATOM     17  O   UNL     1      33.829  37.288   3.020  1.00  0.00    -0.387 OA
ATOM     18  H   UNL     1      33.432  37.298   3.930  1.00  0.00     0.211 HD
ENDBRANCH   4  17
TORSDOF 7
ENDMDL
MODEL 2
REMARK VINA RESULT:    -3.376      1.846      4.593
REMARK INTER + INTRA:          -4.554
REMARK INTER:                  -4.193
REMARK INTRA:                  -0.361
REMARK UNBOUND:                -0.192
REMARK SMILES CCO[C@@H]1O[C@@H](CO)[C@@H](O)[C@H](O)[C@H]1O
REMARK SMILES IDX 4 1 13 2 11 3 9 4 6 5 5 6 3 7 2 8 1 9 14 10 12 12 7 14 8 15
REMARK SMILES IDX 10 17
REMARK H PARENT 14 11 12 13 8 16 10 18
REMARK Flexibility Score: inf
ROOT
ATOM      1  C   UNL     1      34.145  37.607   2.757  1.00  0.00     0.281 C 
ATOM      2  C   UNL     1      33.919  36.088   2.538  1.00  0.00     0.202 C 
ATOM      3  C   UNL     1      32.835  35.807   1.475  1.00  0.00     0.179 C 
ATOM      4  C   UNL     1      32.994  36.715   0.238  1.00  0.00     0.177 C 
ATOM      5  C   UNL     1      33.234  38.183   0.668  1.00  0.00     0.178 C 
ATOM      6  O   UNL     1      34.361  38.276   1.523  1.00  0.00    -0.341 OA
ENDROOT
BRANCH   1   7
ATOM      7  O   UNL     1      33.055  38.198   3.454  1.00  0.00    -0.350 OA
BRANCH   7   8
ATOM      8  C   UNL     1      33.508  39.124   4.419  1.00  0.00     0.160 C 
ATOM      9  C   UNL     1      33.850  38.379   5.700  1.00  0.00     0.035 C 
ENDBRANCH   7   8
ENDBRANCH   1   7
BRANCH   2  10
ATOM     10  O   UNL     1      35.124  35.494   2.125  1.00  0.00    -0.385 OA
ATOM     11  H   UNL     1      35.615  35.232   2.947  1.00  0.00     0.211 HD
ENDBRANCH   2  10
BRANCH   3  12
ATOM     12  O   UNL     1      31.540  35.890   2.022  1.00  0.00    -0.387 OA
ATOM     13  H   UNL     1      30.942  36.313   1.356  1.00  0.00     0.211 HD
ENDBRANCH   3  12
BRANCH   5  14
ATOM     14  C   UNL     1      33.468  39.102  -0.543  1.00  0.00     0.191 C 
BRANCH  14  15
ATOM     15  O   UNL     1      32.629  38.754  -1.612  1.00  0.00    -0.394 OA
ATOM     16  H   UNL     1      32.115  37.956  -1.320  1.00  0.00     0.210 HD
ENDBRANCH  14  15
ENDBRANCH   5  14
BRANCH   4  17
ATOM     17  O   UNL     1      34.081  36.252  -0.527  1.00  0.00    -0.387 OA
ATOM     18  H   UNL     1      34.827  36.067   0.102  1.00  0.00     0.211 HD
ENDBRANCH   4  17
TORSDOF 7
ENDMDL
MODEL 3
REMARK VINA RESULT:    -3.281      1.738      3.985
REMARK INTER + INTRA:          -4.432
REMARK INTER:                  -4.266
REMARK INTRA:                  -0.166
REMARK UNBOUND:                -0.192
REMARK SMILES CCO[C@@H]1O[C@@H](CO)[C@@H](O)[C@H](O)[C@H]1O
REMARK SMILES IDX 4 1 13 2 11 3 9 4 6 5 5 6 3 7 2 8 1 9 14 10 12 12 7 14 8 15
REMARK SMILES IDX 10 17
REMARK H PARENT 14 11 12 13 8 16 10 18
REMARK Flexibility Score: inf
ROOT
ATOM      1  C   UNL     1      33.269  37.104   0.905  1.00  0.00     0.281 C 
ATOM      2  C   UNL     1      33.198  38.635   0.667  1.00  0.00     0.202 C 
ATOM      3  C   UNL     1      33.720  39.032  -0.731  1.00  0.00     0.179 C 
ATOM      4  C   UNL     1      33.191  38.089  -1.831  1.00  0.00     0.177 C 
ATOM      5  C   UNL     1      33.328  36.610  -1.392  1.00  0.00     0.178 C 
ATOM      6  O   UNL     1      32.660  36.390  -0.161  1.00  0.00    -0.341 OA
ENDROOT
BRANCH   1   7
ATOM      7  O   UNL     1      34.611  36.669   1.086  1.00  0.00    -0.350 OA
BRANCH   7   8
ATOM      8  C   UNL     1      34.805  36.133   2.378  1.00  0.00     0.160 C 
ATOM      9  C   UNL     1      34.696  37.252   3.402  1.00  0.00     0.035 C 
ENDBRANCH   7   8
ENDBRANCH   1   7
BRANCH   2  10
ATOM     10  O   UNL     1      31.865  39.063   0.791  1.00  0.00    -0.385 OA
ATOM     11  H   UNL     1      31.290  38.266   0.651  1.00  0.00     0.211 HD
ENDBRANCH   2  10
BRANCH   3  12
ATOM     12  O   UNL     1      35.125  39.125  -0.752  1.00  0.00    -0.387 OA
ATOM     13  H   UNL     1      35.412  39.733  -0.026  1.00  0.00     0.211 HD
ENDBRANCH   3  12
BRANCH   5  14
ATOM     14  C   UNL     1      32.743  35.646  -2.439  1.00  0.00     0.191 C 
BRANCH  14  15
ATOM     15  O   UNL     1      31.356  35.816  -2.563  1.00  0.00    -0.394 OA
ATOM     16  H   UNL     1      31.218  36.641  -3.098  1.00  0.00     0.210 HD
ENDBRANCH  14  15
ENDBRANCH   5  14
BRANCH   4  17
ATOM     17  O   UNL     1      31.840  38.396  -2.080  1.00  0.00    -0.387 OA
ATOM     18  H   UNL     1      31.340  38.233  -1.238  1.00  0.00     0.211 HD
ENDBRANCH   4  17
TORSDOF 7
ENDMDL
MODEL 4
REMARK VINA RESULT:    -2.496      1.385      4.075
REMARK INTER + INTRA:          -3.417
REMARK INTER:                  -2.977
REMARK INTRA:                  -0.440
REMARK UNBOUND:                -0.192
REMARK SMILES CCO[C@@H]1O[C@@H](CO)[C@@H](O)[C@H](O)[C@H]1O
REMARK SMILES IDX 4 1 13 2 11 3 9 4 6 5 5 6 3 7 2 8 1 9 14 10 12 12 7 14 8 15
REMARK SMILES IDX 10 17
REMARK H PARENT 14 11 12 13 8 16 10 18
REMARK Flexibility Score: inf
ROOT
ATOM      1  C   UNL     1      33.251  36.252   1.426  1.00  0.00     0.281 C 
ATOM      2  C   UNL     1      32.692  37.406   2.298  1.00  0.00     0.202 C 
ATOM      3  C   UNL     1      33.202  38.787   1.833  1.00  0.00     0.179 C 
ATOM      4  C   UNL     1      33.152  38.932   0.298  1.00  0.00     0.177 C 
ATOM      5  C   UNL     1      33.732  37.669  -0.387  1.00  0.00     0.178 C 
ATOM      6  O   UNL     1      33.044  36.507   0.044  1.00  0.00    -0.341 OA
ENDROOT
BRANCH   1   7
ATOM      7  O   UNL     1      34.632  36.028   1.685  1.00  0.00    -0.350 OA
BRANCH   7   8
ATOM      8  C   UNL     1      34.811  35.086   2.722  1.00  0.00     0.160 C 
ATOM      9  C   UNL     1      33.986  33.846   2.415  1.00  0.00     0.035 C 
ENDBRANCH   7   8
ENDBRANCH   1   7
BRANCH   2  10
ATOM     10  O   UNL     1      31.288  37.397   2.236  1.00  0.00    -0.385 OA
ATOM     11  H   UNL     1      31.041  37.323   1.277  1.00  0.00     0.211 HD
ENDBRANCH   2  10
BRANCH   3  12
ATOM     12  O   UNL     1      34.485  39.064   2.343  1.00  0.00    -0.387 OA
ATOM     13  H   UNL     1      35.159  38.772   1.680  1.00  0.00     0.211 HD
ENDBRANCH   3  12
BRANCH   5  14
ATOM     14  C   UNL     1      33.630  37.753  -1.919  1.00  0.00     0.191 C 
BRANCH  14  15
ATOM     15  O   UNL     1      32.402  37.252  -2.373  1.00  0.00    -0.394 OA
ATOM     16  H   UNL     1      32.442  37.255  -3.365  1.00  0.00     0.210 HD
ENDBRANCH  14  15
ENDBRANCH   5  14
BRANCH   4  17
ATOM     17  O   UNL     1      31.814  39.123  -0.095  1.00  0.00    -0.387 OA
ATOM     18  H   UNL     1      31.676  38.606  -0.931  1.00  0.00     0.211 HD
ENDBRANCH   4  17
TORSDOF 7
ENDMDL
MODEL 5
REMARK VINA RESULT:    -2.431      1.870      3.031
REMARK INTER + INTRA:          -3.334
REMARK INTER:                  -3.192
REMARK INTRA:                  -0.142
REMARK UNBOUND:                -0.192
REMARK SMILES CCO[C@@H]1O[C@@H](CO)[C@@H](O)[C@H](O)[C@H]1O
REMARK SMILES IDX 4 1 13 2 11 3 9 4 6 5 5 6 3 7 2 8 1 9 14 10 12 12 7 14 8 15
REMARK SMILES IDX 10 17
REMARK H PARENT 14 11 12 13 8 16 10 18
REMARK Flexibility Score: inf
ROOT
ATOM      1  C   UNL     1      33.248  36.554   1.293  1.00  0.00     0.281 C 
ATOM      2  C   UNL     1      34.640  36.955   1.850  1.00  0.00     0.202 C 
ATOM      3  C   UNL     1      34.782  38.484   2.015  1.00  0.00     0.179 C 
ATOM      4  C   UNL     1      33.525  39.114   2.647  1.00  0.00     0.177 C 
ATOM      5  C   UNL     1      32.243  38.568   1.971  1.00  0.00     0.178 C 
ATOM      6  O   UNL     1      32.203  37.153   2.045  1.00  0.00    -0.341 OA
ENDROOT
BRANCH   1   7
ATOM      7  O   UNL     1      33.123  36.894  -0.083  1.00  0.00    -0.350 OA
BRANCH   7   8
ATOM      8  C   UNL     1      32.883  35.748  -0.872  1.00  0.00     0.160 C 
ATOM      9  C   UNL     1      32.613  36.179  -2.305  1.00  0.00     0.035 C 
ENDBRANCH   7   8
ENDBRANCH   1   7
BRANCH   2  10
ATOM     10  O   UNL     1      34.832  36.345   3.101  1.00  0.00    -0.385 OA
ATOM     11  H   UNL     1      35.652  36.744   3.496  1.00  0.00     0.211 HD
ENDBRANCH   2  10
BRANCH   3  12
ATOM     12  O   UNL     1      35.125  39.106   0.798  1.00  0.00    -0.387 OA
ATOM     13  H   UNL     1      34.877  38.502   0.054  1.00  0.00     0.211 HD
ENDBRANCH   3  12
BRANCH   5  14
ATOM     14  C   UNL     1      30.969  39.125   2.628  1.00  0.00     0.191 C 
BRANCH  14  15
ATOM     15  O   UNL     1      29.858  38.321   2.337  1.00  0.00    -0.394 OA
ATOM     16  H   UNL     1      30.213  37.452   2.014  1.00  0.00     0.210 HD
ENDBRANCH  14  15
ENDBRANCH   5  14
BRANCH   4  17
ATOM     17  O   UNL     1      33.511  38.814   4.023  1.00  0.00    -0.387 OA
ATOM     18  H   UNL     1      32.879  38.059   4.153  1.00  0.00     0.211 HD
ENDBRANCH   4  17
TORSDOF 7
ENDMDL
MODEL 6
REMARK VINA RESULT:    -2.331      1.553      3.708
REMARK INTER + INTRA:          -3.204
REMARK INTER:                  -2.875
REMARK INTRA:                  -0.330
REMARK UNBOUND:                -0.192
REMARK SMILES CCO[C@@H]1O[C@@H](CO)[C@@H](O)[C@H](O)[C@H]1O
REMARK SMILES IDX 4 1 13 2 11 3 9 4 6 5 5 6 3 7 2 8 1 9 14 10 12 12 7 14 8 15
REMARK SMILES IDX 10 17
REMARK H PARENT 14 11 12 13 8 16 10 18
REMARK Flexibility Score: inf
ROOT
ATOM      1  C   UNL     1      32.709  38.800   1.243  1.00  0.00     0.281 C 
ATOM      2  C   UNL     1      32.860  39.125  -0.266  1.00  0.00     0.202 C 
ATOM      3  C   UNL     1      33.759  38.102  -0.995  1.00  0.00     0.179 C 
ATOM      4  C   UNL     1      33.433  36.652  -0.581  1.00  0.00     0.177 C 
ATOM      5  C   UNL     1      33.300  36.543   0.958  1.00  0.00     0.178 C 
ATOM      6  O   UNL     1      32.321  37.448   1.441  1.00  0.00    -0.341 OA
ENDROOT
BRANCH   1   7
ATOM      7  O   UNL     1      33.908  39.078   1.956  1.00  0.00    -0.350 OA
BRANCH   7   8
ATOM      8  C   UNL     1      33.692  39.050   3.351  1.00  0.00     0.160 C 
ATOM      9  C   UNL     1      34.735  38.153   3.998  1.00  0.00     0.035 C 
ENDBRANCH   7   8
ENDBRANCH   1   7
BRANCH   2  10
ATOM     10  O   UNL     1      31.591  39.124  -0.871  1.00  0.00    -0.385 OA
ATOM     11  H   UNL     1      30.950  38.775  -0.197  1.00  0.00     0.211 HD
ENDBRANCH   2  10
BRANCH   3  12
ATOM     12  O   UNL     1      35.125  38.401  -0.826  1.00  0.00    -0.387 OA
ATOM     13  H   UNL     1      35.275  38.674   0.114  1.00  0.00     0.211 HD
ENDBRANCH   3  12
BRANCH   5  14
ATOM     14  C   UNL     1      32.905  35.123   1.397  1.00  0.00     0.191 C 
BRANCH  14  15
ATOM     15  O   UNL     1      31.513  34.955   1.375  1.00  0.00    -0.394 OA
ATOM     16  H   UNL     1      31.345  33.977   1.343  1.00  0.00     0.210 HD
ENDBRANCH  14  15
ENDBRANCH   5  14
BRANCH   4  17
ATOM     17  O   UNL     1      32.230  36.264  -1.199  1.00  0.00    -0.387 OA
ATOM     18  H   UNL     1      32.355  35.337  -1.531  1.00  0.00     0.211 HD
ENDBRANCH   4  17
TORSDOF 7
ENDMDL
