MODEL 1
REMARK VINA RESULT:    -3.641      0.000      0.000
REMARK INTER + INTRA:          -4.997
REMARK INTER:                  -4.705
REMARK INTRA:                  -0.292
REMARK UNBOUND:                -0.292
REMARK SMILES CCCCCCC(=O)[O-]
REMARK SMILES IDX 5 1 6 2 7 3 8 4 9 5 4 6 3 7 2 8 1 9
REMARK H PARENT
REMARK Flexibility Score: inf
ROOT
ATOM      1  C   UNL     1      -6.558 -34.693 -10.439  1.00  0.00     0.006 C 
ENDROOT
BRANCH   1   2
ATOM      2  C   UNL     1      -8.055 -35.008 -10.350  1.00  0.00     0.053 C 
BRANCH   2   3
ATOM      3  C   UNL     1      -8.272 -36.478 -10.177  1.00  0.00     0.041 C 
ATOM      4  O   UNL     1      -7.360 -37.294 -10.475  1.00  0.00    -0.550 OA
ATOM      5  O   UNL     1      -9.501 -36.951  -9.734  1.00  0.00    -0.550 OA
ENDBRANCH   2   3
ENDBRANCH   1   2
BRANCH   1   6
ATOM      6  C   UNL     1      -6.067 -33.994  -9.163  1.00  0.00     0.000 C 
BRANCH   6   7
ATOM      7  C   UNL     1      -5.409 -34.966  -8.172  1.00  0.00    -0.000 C 
BRANCH   7   8
ATOM      8  C   UNL     1      -4.402 -35.908  -8.848  1.00  0.00    -0.003 C 
ATOM      9  C   UNL     1      -3.023 -35.790  -8.204  1.00  0.00     0.004 C 
ENDBRANCH   7   8
ENDBRANCH   6   7
ENDBRANCH   1   6
TORSDOF 5
ENDMDL
MODEL 2
REMARK VINA RESULT:    -3.514      1.144      1.592
REMARK INTER + INTRA:          -4.833
REMARK INTER:                  -4.517
REMARK INTRA:                  -0.316
REMARK UNBOUND:                -0.292
REMARK SMILES CCCCCCC(=O)[O-]
REMARK SMILES IDX 5 1 6 2 7 3 8 4 9 5 4 6 3 7 2 8 1 9
REMARK H PARENT
REMARK Flexibility Score: inf
ROOT
ATOM      1  C   UNL     1      -7.128 -34.353 -10.163  1.00  0.00     0.006 C 
ENDROOT
BRANCH   1   2
ATOM      2  C   UNL     1      -8.205 -35.219  -9.501  1.00  0.00     0.053 C 
BRANCH   2   3
ATOM      3  C   UNL     1      -8.930 -36.031 -10.527  1.00  0.00     0.041 C 
ATOM      4  O   UNL     1      -9.824 -35.502 -11.239  1.00  0.00    -0.550 OA
ATOM      5  O   UNL     1      -8.654 -37.386 -10.664  1.00  0.00    -0.550 OA
ENDBRANCH   2   3
ENDBRANCH   1   2
BRANCH   1   6
ATOM      6  C   UNL     1      -5.996 -34.035  -9.176  1.00  0.00     0.000 C 
BRANCH   6   7
ATOM      7  C   UNL     1      -5.591 -35.251  -8.327  1.00  0.00    -0.000 C 
BRANCH   7   8
ATOM      8  C   UNL     1      -4.528 -36.122  -9.012  1.00  0.00    -0.003 C 
ATOM      9  C   UNL     1      -5.136 -37.422  -9.531  1.00  0.00     0.004 C 
ENDBRANCH   7   8
ENDBRANCH   6   7
ENDBRANCH   1   6
TORSDOF 5
ENDMDL
MODEL 3
REMARK VINA RESULT:    -3.431      2.484      3.675
REMARK INTER + INTRA:          -4.726
REMARK INTER:                  -4.610
REMARK INTRA:                  -0.116
REMARK UNBOUND:                -0.292
REMARK SMILES CCCCCCC(=O)[O-]
REMARK SMILES IDX 5 1 6 2 7 3 8 4 9 5 4 6 3 7 2 8 1 9
REMARK H PARENT
REMARK Flexibility Score: inf
ROOT
ATOM      1  C   UNL     1      -5.790 -37.616  -9.395  1.00  0.00     0.006 C 
ENDROOT
BRANCH   1   2
ATOM      2  C   UNL     1      -5.057 -38.729 -10.152  1.00  0.00     0.053 C 
BRANCH   2   3
ATOM      3  C   UNL     1      -6.012 -39.808 -10.552  1.00  0.00     0.041 C 
ATOM      4  O   UNL     1      -6.376 -40.676  -9.715  1.00  0.00    -0.550 OA
ATOM      5  O   UNL     1      -6.463 -39.886 -11.864  1.00  0.00    -0.550 OA
ENDBRANCH   2   3
ENDBRANCH   1   2
BRANCH   1   6
ATOM      6  C   UNL     1      -4.917 -36.357  -9.290  1.00  0.00     0.000 C 
BRANCH   6   7
ATOM      7  C   UNL     1      -5.565 -35.257  -8.433  1.00  0.00    -0.000 C 
BRANCH   7   8
ATOM      8  C   UNL     1      -6.016 -34.049  -9.266  1.00  0.00    -0.003 C 
ATOM      9  C   UNL     1      -7.245 -34.389 -10.105  1.00  0.00     0.004 C 
ENDBRANCH   7   8
ENDBRANCH   6   7
ENDBRANCH   1   6
TORSDOF 5
ENDMDL
MODEL 4
REMARK VINA RESULT:    -3.414      1.914      2.571
REMARK INTER + INTRA:          -4.704
REMARK INTER:                  -4.575
REMARK INTRA:                  -0.129
REMARK UNBOUND:                -0.292
REMARK SMILES CCCCCCC(=O)[O-]
REMARK SMILES IDX 5 1 6 2 7 3 8 4 9 5 4 6 3 7 2 8 1 9
REMARK H PARENT
REMARK Flexibility Score: inf
ROOT
ATOM      1  C   UNL     1      -5.743 -34.544  -8.646  1.00  0.00     0.006 C 
ENDROOT
BRANCH   1   2
ATOM      2  C   UNL     1      -6.446 -34.485 -10.006  1.00  0.00     0.053 C 
BRANCH   2   3
ATOM      3  C   UNL     1      -7.883 -34.880  -9.871  1.00  0.00     0.041 C 
ATOM      4  O   UNL     1      -8.640 -34.873 -10.878  1.00  0.00    -0.550 OA
ATOM      5  O   UNL     1      -8.400 -35.207  -8.624  1.00  0.00    -0.550 OA
ENDBRANCH   2   3
ENDBRANCH   1   2
BRANCH   1   6
ATOM      6  C   UNL     1      -4.634 -35.606  -8.647  1.00  0.00     0.000 C 
BRANCH   6   7
ATOM      7  C   UNL     1      -4.792 -36.627  -9.785  1.00  0.00    -0.000 C 
BRANCH   7   8
ATOM      8  C   UNL     1      -5.657 -37.831  -9.383  1.00  0.00    -0.003 C 
ATOM      9  C   UNL     1      -5.392 -39.025 -10.297  1.00  0.00     0.004 C 
ENDBRANCH   7   8
ENDBRANCH   6   7
ENDBRANCH   1   6
TORSDOF 5
ENDMDL
MODEL 5
REMARK VINA RESULT:    -3.401      2.954      4.146
REMARK INTER + INTRA:          -4.688
REMARK INTER:                  -4.633
REMARK INTRA:                  -0.055
REMARK UNBOUND:                -0.292
REMARK SMILES CCCCCCC(=O)[O-]
REMARK SMILES IDX 5 1 6 2 7 3 8 4 9 5 4 6 3 7 2 8 1 9
REMARK H PARENT
REMARK Flexibility Score: inf
ROOT
ATOM      1  C   UNL     1      -4.698 -36.317  -9.442  1.00  0.00     0.006 C 
ENDROOT
BRANCH   1   2
ATOM      2  C   UNL     1      -5.185 -35.169  -8.552  1.00  0.00     0.053 C 
BRANCH   2   3
ATOM      3  C   UNL     1      -6.151 -34.302  -9.294  1.00  0.00     0.041 C 
ATOM      4  O   UNL     1      -6.290 -34.428 -10.540  1.00  0.00    -0.550 OA
ATOM      5  O   UNL     1      -6.863 -33.318  -8.619  1.00  0.00    -0.550 OA
ENDBRANCH   2   3
ENDBRANCH   1   2
BRANCH   1   6
ATOM      6  C   UNL     1      -5.661 -37.511  -9.373  1.00  0.00     0.000 C 
BRANCH   6   7
ATOM      7  C   UNL     1      -5.170 -38.716 -10.191  1.00  0.00    -0.000 C 
BRANCH   7   8
ATOM      8  C   UNL     1      -6.261 -39.777 -10.394  1.00  0.00    -0.003 C 
ATOM      9  C   UNL     1      -6.470 -40.071 -11.877  1.00  0.00     0.004 C 
ENDBRANCH   7   8
ENDBRANCH   6   7
ENDBRANCH   1   6
TORSDOF 5
ENDMDL
MODEL 6
REMARK VINA RESULT:    -3.400      1.446      2.825
REMARK INTER + INTRA:          -4.686
REMARK INTER:                  -4.298
REMARK INTRA:                  -0.388
REMARK UNBOUND:                -0.292
REMARK SMILES CCCCCCC(=O)[O-]
REMARK SMILES IDX 5 1 6 2 7 3 8 4 9 5 4 6 3 7 2 8 1 9
REMARK H PARENT
REMARK Flexibility Score: inf
ROOT
ATOM      1  C   UNL     1      -5.235 -37.520  -9.520  1.00  0.00     0.006 C 
ENDROOT
BRANCH   1   2
ATOM      2  C   UNL     1      -6.692 -37.846  -9.174  1.00  0.00     0.053 C 
BRANCH   2   3
ATOM      3  C   UNL     1      -7.523 -37.914 -10.415  1.00  0.00     0.041 C 
ATOM      4  O   UNL     1      -8.559 -37.206 -10.525  1.00  0.00    -0.550 OA
ATOM      5  O   UNL     1      -7.184 -38.799 -11.431  1.00  0.00    -0.550 OA
ENDBRANCH   2   3
ENDBRANCH   1   2
BRANCH   1   6
ATOM      6  C   UNL     1      -5.042 -36.010  -9.718  1.00  0.00     0.000 C 
BRANCH   6   7
ATOM      7  C   UNL     1      -5.299 -35.206  -8.433  1.00  0.00    -0.000 C 
BRANCH   7   8
ATOM      8  C   UNL     1      -6.407 -34.156  -8.605  1.00  0.00    -0.003 C 
ATOM      9  C   UNL     1      -6.959 -34.169 -10.028  1.00  0.00     0.004 C 
ENDBRANCH   7   8
ENDBRANCH   6   7
ENDBRANCH   1   6
TORSDOF 5
ENDMDL
MODEL 7
REMARK VINA RESULT:    -3.364      1.623      2.384
REMARK INTER + INTRA:          -4.640
REMARK INTER:                  -4.398
REMARK INTRA:                  -0.242
REMARK UNBOUND:                -0.292
REMARK SMILES CCCCCCC(=O)[O-]
REMARK SMILES IDX 5 1 6 2 7 3 8 4 9 5 4 6 3 7 2 8 1 9
REMARK H PARENT
REMARK Flexibility Score: inf
ROOT
ATOM      1  C   UNL     1      -7.335 -37.172  -9.035  1.00  0.00     0.006 C 
ENDROOT
BRANCH   1   2
ATOM      2  C   UNL     1      -8.023 -36.868 -10.369  1.00  0.00     0.053 C 
BRANCH   2   3
ATOM      3  C   UNL     1      -8.662 -35.516 -10.334  1.00  0.00     0.041 C 
ATOM      4  O   UNL     1      -9.911 -35.407 -10.213  1.00  0.00    -0.550 OA
ATOM      5  O   UNL     1      -7.883 -34.375 -10.486  1.00  0.00    -0.550 OA
ENDBRANCH   2   3
ENDBRANCH   1   2
BRANCH   1   6
ATOM      6  C   UNL     1      -5.869 -37.576  -9.252  1.00  0.00     0.000 C 
BRANCH   6   7
ATOM      7  C   UNL     1      -5.001 -36.409  -9.750  1.00  0.00    -0.000 C 
BRANCH   7   8
ATOM      8  C   UNL     1      -4.573 -35.466  -8.616  1.00  0.00    -0.003 C 
ATOM      9  C   UNL     1      -3.131 -35.735  -8.193  1.00  0.00     0.004 C 
ENDBRANCH   7   8
ENDBRANCH   6   7
ENDBRANCH   1   6
TORSDOF 5
ENDMDL
MODEL 8
REMARK VINA RESULT:    -3.351      2.943      3.560
REMARK INTER + INTRA:          -4.623
REMARK INTER:                  -4.460
REMARK INTRA:                  -0.163
REMARK UNBOUND:                -0.292
REMARK SMILES CCCCCCC(=O)[O-]
REMARK SMILES IDX 5 1 6 2 7 3 8 4 9 5 4 6 3 7 2 8 1 9
REMARK H PARENT
REMARK Flexibility Score: inf
ROOT
ATOM      1  C   UNL     1      -5.258 -38.661 -10.148  1.00  0.00     0.006 C 
ENDROOT
BRANCH   1   2
ATOM      2  C   UNL     1      -6.087 -39.926  -9.898  1.00  0.00     0.053 C 
BRANCH   2   3
ATOM      3  C   UNL     1      -6.819 -40.326 -11.140  1.00  0.00     0.041 C 
ATOM      4  O   UNL     1      -6.636 -39.698 -12.216  1.00  0.00    -0.550 OA
ATOM      5  O   UNL     1      -7.744 -41.362 -11.097  1.00  0.00    -0.550 OA
ENDBRANCH   2   3
ENDBRANCH   1   2
BRANCH   1   6
ATOM      6  C   UNL     1      -5.853 -37.459  -9.401  1.00  0.00     0.000 C 
BRANCH   6   7
ATOM      7  C   UNL     1      -5.209 -36.126  -9.817  1.00  0.00    -0.000 C 
BRANCH   7   8
ATOM      8  C   UNL     1      -4.648 -35.343  -8.621  1.00  0.00    -0.003 C 
ATOM      9  C   UNL     1      -3.246 -35.826  -8.258  1.00  0.00     0.004 C 
ENDBRANCH   7   8
ENDBRANCH   6   7
ENDBRANCH   1   6
TORSDOF 5
ENDMDL
MODEL 9
REMARK VINA RESULT:    -3.336      2.034      4.231
REMARK INTER + INTRA:          -4.603
REMARK INTER:                  -4.351
REMARK INTRA:                  -0.251
REMARK UNBOUND:                -0.292
REMARK SMILES CCCCCCC(=O)[O-]
REMARK SMILES IDX 5 1 6 2 7 3 8 4 9 5 4 6 3 7 2 8 1 9
REMARK H PARENT
REMARK Flexibility Score: inf
ROOT
ATOM      1  C   UNL     1      -6.041 -34.070  -9.518  1.00  0.00     0.006 C 
ENDROOT
BRANCH   1   2
ATOM      2  C   UNL     1      -5.618 -34.958  -8.344  1.00  0.00     0.053 C 
BRANCH   2   3
ATOM      3  C   UNL     1      -4.587 -35.950  -8.780  1.00  0.00     0.041 C 
ATOM      4  O   UNL     1      -3.364 -35.719  -8.590  1.00  0.00    -0.550 OA
ATOM      5  O   UNL     1      -4.973 -37.107  -9.444  1.00  0.00    -0.550 OA
ENDBRANCH   2   3
ENDBRANCH   1   2
BRANCH   1   6
ATOM      6  C   UNL     1      -7.415 -34.491 -10.058  1.00  0.00     0.000 C 
BRANCH   6   7
ATOM      7  C   UNL     1      -8.254 -35.250  -9.017  1.00  0.00    -0.000 C 
BRANCH   7   8
ATOM      8  C   UNL     1      -9.489 -35.924  -9.632  1.00  0.00    -0.003 C 
ATOM      9  C   UNL     1      -9.703 -35.469 -11.073  1.00  0.00     0.004 C 
ENDBRANCH   7   8
ENDBRANCH   6   7
ENDBRANCH   1   6
TORSDOF 5
ENDMDL
