MODEL 1
REMARK VINA RESULT:    -3.620      0.000      0.000
REMARK INTER + INTRA:          -5.040
REMARK INTER:                  -4.678
REMARK INTRA:                  -0.361
REMARK UNBOUND:                -0.361
REMARK SMILES CCO[C@H]1O[C@H](CO)[C@@H](O)[C@H](O)[C@@H]1O
REMARK SMILES IDX 4 1 13 2 11 3 9 4 6 5 5 6 3 7 2 8 1 9 14 10 12 12 7 14 8 15
REMARK SMILES IDX 10 17
REMARK H PARENT 14 11 12 13 8 16 10 18
REMARK Flexibility Score: inf
ROOT
ATOM      1  C   UNL     1       6.324  32.614  32.657  1.00  0.00     0.281 C 
ATOM      2  C   UNL     1       7.799  32.147  32.741  1.00  0.00     0.202 C 
ATOM      3  C   UNL     1       8.480  32.769  33.975  1.00  0.00     0.179 C 
ATOM      4  C   UNL     1       8.304  34.289  33.952  1.00  0.00     0.177 C 
ATOM      5  C   UNL     1       6.808  34.662  33.768  1.00  0.00     0.178 C 
ATOM      6  O   UNL     1       6.288  34.039  32.588  1.00  0.00    -0.341 OA
ENDROOT
BRANCH   1   7
ATOM      7  O   UNL     1       5.495  32.197  33.752  1.00  0.00    -0.350 OA
BRANCH   7   8
ATOM      8  C   UNL     1       4.513  31.224  33.438  1.00  0.00     0.160 C 
ATOM      9  C   UNL     1       3.065  31.741  33.544  1.00  0.00     0.035 C 
ENDBRANCH   7   8
ENDBRANCH   1   7
BRANCH   2  10
ATOM     10  O   UNL     1       8.493  32.571  31.580  1.00  0.00    -0.385 OA
ATOM     11  H   UNL     1       7.919  33.244  31.129  1.00  0.00     0.211 HD
ENDBRANCH   2  10
BRANCH   3  12
ATOM     12  O   UNL     1       9.850  32.415  34.024  1.00  0.00    -0.387 OA
ATOM     13  H   UNL     1       9.969  31.495  33.654  1.00  0.00     0.211 HD
ENDBRANCH   3  12
BRANCH   5  14
ATOM     14  C   UNL     1       6.656  36.187  33.623  1.00  0.00     0.191 C 
BRANCH  14  15
ATOM     15  O   UNL     1       7.828  36.757  33.069  1.00  0.00    -0.394 OA
ATOM     16  H   UNL     1       7.904  36.400  32.139  1.00  0.00     0.210 HD
ENDBRANCH  14  15
ENDBRANCH   5  14
BRANCH   4  17
ATOM     17  O   UNL     1       8.817  34.861  35.125  1.00  0.00    -0.387 OA
ATOM     18  H   UNL     1       9.598  35.414  34.850  1.00  0.00     0.211 HD
ENDBRANCH   4  17
TORSDOF 7
ENDMDL
MODEL 2
REMARK VINA RESULT:    -3.612      1.579      4.331
REMARK INTER + INTRA:          -5.029
REMARK INTER:                  -4.644
REMARK INTRA:                  -0.385
REMARK UNBOUND:                -0.361
REMARK SMILES CCO[C@H]1O[C@H](CO)[C@@H](O)[C@H](O)[C@@H]1O
REMARK SMILES IDX 4 1 13 2 11 3 9 4 6 5 5 6 3 7 2 8 1 9 14 10 12 12 7 14 8 15
REMARK SMILES IDX 10 17
REMARK H PARENT 14 11 12 13 8 16 10 18
REMARK Flexibility Score: inf
ROOT
ATOM      1  C   UNL     1       7.077  33.427  34.540  1.00  0.00     0.281 C 
ATOM      2  C   UNL     1       7.815  33.108  33.216  1.00  0.00     0.202 C 
ATOM      3  C   UNL     1       6.807  33.046  32.052  1.00  0.00     0.179 C 
ATOM      4  C   UNL     1       5.681  32.068  32.394  1.00  0.00     0.177 C 
ATOM      5  C   UNL     1       5.067  32.406  33.779  1.00  0.00     0.178 C 
ATOM      6  O   UNL     1       6.091  32.423  34.780  1.00  0.00    -0.341 OA
ENDROOT
BRANCH   1   7
ATOM      7  O   UNL     1       6.432  34.708  34.579  1.00  0.00    -0.350 OA
BRANCH   7   8
ATOM      8  C   UNL     1       7.295  35.830  34.503  1.00  0.00     0.160 C 
ATOM      9  C   UNL     1       7.031  36.741  33.289  1.00  0.00     0.035 C 
ENDBRANCH   7   8
ENDBRANCH   1   7
BRANCH   2  10
ATOM     10  O   UNL     1       8.455  31.849  33.326  1.00  0.00    -0.385 OA
ATOM     11  H   UNL     1       8.144  31.438  34.175  1.00  0.00     0.211 HD
ENDBRANCH   2  10
BRANCH   3  12
ATOM     12  O   UNL     1       7.454  32.679  30.847  1.00  0.00    -0.387 OA
ATOM     13  H   UNL     1       7.267  33.366  30.147  1.00  0.00     0.211 HD
ENDBRANCH   3  12
BRANCH   5  14
ATOM     14  C   UNL     1       4.021  31.345  34.169  1.00  0.00     0.191 C 
BRANCH  14  15
ATOM     15  O   UNL     1       2.877  31.441  33.341  1.00  0.00    -0.394 OA
ATOM     16  H   UNL     1       3.035  30.829  32.568  1.00  0.00     0.210 HD
ENDBRANCH  14  15
ENDBRANCH   5  14
BRANCH   4  17
ATOM     17  O   UNL     1       4.695  32.085  31.397  1.00  0.00    -0.387 OA
ATOM     18  H   UNL     1       4.131  31.278  31.545  1.00  0.00     0.211 HD
ENDBRANCH   4  17
TORSDOF 7
ENDMDL
MODEL 3
REMARK VINA RESULT:    -3.350      1.463      4.249
REMARK INTER + INTRA:          -4.691
REMARK INTER:                  -4.324
REMARK INTRA:                  -0.367
REMARK UNBOUND:                -0.361
REMARK SMILES CCO[C@H]1O[C@H](CO)[C@@H](O)[C@H](O)[C@@H]1O
REMARK SMILES IDX 4 1 13 2 11 3 9 4 6 5 5 6 3 7 2 8 1 9 14 10 12 12 7 14 8 15
REMARK SMILES IDX 10 17
REMARK H PARENT 14 11 12 13 8 16 10 18
REMARK Flexibility Score: inf
ROOT
ATOM      1  C   UNL     1       7.800  34.419  34.440  1.00  0.00     0.281 C 
ATOM      2  C   UNL     1       8.536  33.658  33.310  1.00  0.00     0.202 C 
ATOM      3  C   UNL     1       7.531  33.215  32.229  1.00  0.00     0.179 C 
ATOM      4  C   UNL     1       6.390  32.427  32.876  1.00  0.00     0.177 C 
ATOM      5  C   UNL     1       5.777  33.225  34.059  1.00  0.00     0.178 C 
ATOM      6  O   UNL     1       6.799  33.570  35.001  1.00  0.00    -0.341 OA
ENDROOT
BRANCH   1   7
ATOM      7  O   UNL     1       7.173  35.644  34.034  1.00  0.00    -0.350 OA
BRANCH   7   8
ATOM      8  C   UNL     1       8.033  36.606  33.446  1.00  0.00     0.160 C 
ATOM      9  C   UNL     1       7.300  37.667  32.604  1.00  0.00     0.035 C 
ENDBRANCH   7   8
ENDBRANCH   1   7
BRANCH   2  10
ATOM     10  O   UNL     1       9.158  32.504  33.848  1.00  0.00    -0.385 OA
ATOM     11  H   UNL     1      10.116  32.727  33.984  1.00  0.00     0.211 HD
ENDBRANCH   2  10
BRANCH   3  12
ATOM     12  O   UNL     1       8.175  32.450  31.227  1.00  0.00    -0.387 OA
ATOM     13  H   UNL     1       7.559  31.731  30.911  1.00  0.00     0.211 HD
ENDBRANCH   3  12
BRANCH   5  14
ATOM     14  C   UNL     1       4.715  32.375  34.779  1.00  0.00     0.191 C 
BRANCH  14  15
ATOM     15  O   UNL     1       4.980  30.995  34.610  1.00  0.00    -0.394 OA
ATOM     16  H   UNL     1       5.949  30.919  34.378  1.00  0.00     0.210 HD
ENDBRANCH  14  15
ENDBRANCH   5  14
BRANCH   4  17
ATOM     17  O   UNL     1       5.407  32.115  31.926  1.00  0.00    -0.387 OA
ATOM     18  H   UNL     1       4.896  31.343  32.293  1.00  0.00     0.211 HD
ENDBRANCH   4  17
TORSDOF 7
ENDMDL
MODEL 4
REMARK VINA RESULT:    -3.199      2.037      4.850
REMARK INTER + INTRA:          -4.496
REMARK INTER:                  -4.300
REMARK INTRA:                  -0.196
REMARK UNBOUND:                -0.361
REMARK SMILES CCO[C@H]1O[C@H](CO)[C@@H](O)[C@H](O)[C@@H]1O
REMARK SMILES IDX 4 1 13 2 11 3 9 4 6 5 5 6 3 7 2 8 1 9 14 10 12 12 7 14 8 15
REMARK SMILES IDX 10 17
REMARK H PARENT 14 11 12 13 8 16 10 18
REMARK Flexibility Score: inf
ROOT
ATOM      1  C   UNL     1       9.902  35.255  33.448  1.00  0.00     0.281 C 
ATOM      2  C   UNL     1       8.890  36.423  33.546  1.00  0.00     0.202 C 
ATOM      3  C   UNL     1       7.562  35.923  34.147  1.00  0.00     0.179 C 
ATOM      4  C   UNL     1       7.055  34.719  33.350  1.00  0.00     0.177 C 
ATOM      5  C   UNL     1       8.167  33.642  33.221  1.00  0.00     0.178 C 
ATOM      6  O   UNL     1       9.343  34.218  32.642  1.00  0.00    -0.341 OA
ENDROOT
BRANCH   1   7
ATOM      7  O   UNL     1      10.290  34.685  34.706  1.00  0.00    -0.350 OA
BRANCH   7   8
ATOM      8  C   UNL     1      11.552  34.039  34.722  1.00  0.00     0.160 C 
ATOM      9  C   UNL     1      11.488  32.551  35.118  1.00  0.00     0.035 C 
ENDBRANCH   7   8
ENDBRANCH   1   7
BRANCH   2  10
ATOM     10  O   UNL     1       8.634  36.933  32.249  1.00  0.00    -0.385 OA
ATOM     11  H   UNL     1       9.360  37.579  32.043  1.00  0.00     0.211 HD
ENDBRANCH   2  10
BRANCH   3  12
ATOM     12  O   UNL     1       6.599  36.960  34.171  1.00  0.00    -0.387 OA
ATOM     13  H   UNL     1       5.830  36.686  34.745  1.00  0.00     0.211 HD
ENDBRANCH   3  12
BRANCH   5  14
ATOM     14  C   UNL     1       7.690  32.492  32.316  1.00  0.00     0.191 C 
BRANCH  14  15
ATOM     15  O   UNL     1       8.426  32.468  31.107  1.00  0.00    -0.394 OA
ATOM     16  H   UNL     1       7.895  31.919  30.463  1.00  0.00     0.210 HD
ENDBRANCH  14  15
ENDBRANCH   5  14
BRANCH   4  17
ATOM     17  O   UNL     1       5.909  34.178  33.951  1.00  0.00    -0.387 OA
ATOM     18  H   UNL     1       5.633  33.405  33.386  1.00  0.00     0.211 HD
ENDBRANCH   4  17
TORSDOF 7
ENDMDL
MODEL 5
REMARK VINA RESULT:    -3.051      3.033      4.817
REMARK INTER + INTRA:          -4.304
REMARK INTER:                  -3.924
REMARK INTRA:                  -0.380
REMARK UNBOUND:                -0.361
REMARK SMILES CCO[C@H]1O[C@H](CO)[C@@H](O)[C@H](O)[C@@H]1O
REMARK SMILES IDX 4 1 13 2 11 3 9 4 6 5 5 6 3 7 2 8 1 9 14 10 12 12 7 14 8 15
REMARK SMILES IDX 10 17
REMARK H PARENT 14 11 12 13 8 16 10 18
REMARK Flexibility Score: inf
ROOT
ATOM      1  C   UNL     1       9.321  35.909  32.850  1.00  0.00     0.281 C 
ATOM      2  C   UNL     1       8.729  34.554  33.309  1.00  0.00     0.202 C 
ATOM      3  C   UNL     1       9.570  33.974  34.463  1.00  0.00     0.179 C 
ATOM      4  C   UNL     1      11.041  33.908  34.048  1.00  0.00     0.177 C 
ATOM      5  C   UNL     1      11.520  35.285  33.511  1.00  0.00     0.178 C 
ATOM      6  O   UNL     1      10.674  35.714  32.439  1.00  0.00    -0.341 OA
ENDROOT
BRANCH   1   7
ATOM      7  O   UNL     1       9.299  36.945  33.842  1.00  0.00    -0.350 OA
BRANCH   7   8
ATOM      8  C   UNL     1       8.052  37.598  34.017  1.00  0.00     0.160 C 
ATOM      9  C   UNL     1       7.352  37.973  32.697  1.00  0.00     0.035 C 
ENDBRANCH   7   8
ENDBRANCH   1   7
BRANCH   2  10
ATOM     10  O   UNL     1       8.756  33.638  32.228  1.00  0.00    -0.385 OA
ATOM     11  H   UNL     1       7.909  33.121  32.265  1.00  0.00     0.211 HD
ENDBRANCH   2  10
BRANCH   3  12
ATOM     12  O   UNL     1       9.089  32.698  34.843  1.00  0.00    -0.387 OA
ATOM     13  H   UNL     1       8.701  32.750  35.762  1.00  0.00     0.211 HD
ENDBRANCH   3  12
BRANCH   5  14
ATOM     14  C   UNL     1      12.962  35.176  32.983  1.00  0.00     0.191 C 
BRANCH  14  15
ATOM     15  O   UNL     1      13.346  33.820  32.852  1.00  0.00    -0.394 OA
ATOM     16  H   UNL     1      13.571  33.681  31.889  1.00  0.00     0.210 HD
ENDBRANCH  14  15
ENDBRANCH   5  14
BRANCH   4  17
ATOM     17  O   UNL     1      11.838  33.492  35.125  1.00  0.00    -0.387 OA
ATOM     18  H   UNL     1      11.751  34.193  35.827  1.00  0.00     0.211 HD
ENDBRANCH   4  17
TORSDOF 7
ENDMDL
MODEL 6
REMARK VINA RESULT:    -2.981      1.565      3.410
REMARK INTER + INTRA:          -4.214
REMARK INTER:                  -3.848
REMARK INTRA:                  -0.365
REMARK UNBOUND:                -0.361
REMARK SMILES CCO[C@H]1O[C@H](CO)[C@@H](O)[C@H](O)[C@@H]1O
REMARK SMILES IDX 4 1 13 2 11 3 9 4 6 5 5 6 3 7 2 8 1 9 14 10 12 12 7 14 8 15
REMARK SMILES IDX 10 17
REMARK H PARENT 14 11 12 13 8 16 10 18
REMARK Flexibility Score: inf
ROOT
ATOM      1  C   UNL     1       6.955  33.318  34.165  1.00  0.00     0.281 C 
ATOM      2  C   UNL     1       7.015  34.822  33.801  1.00  0.00     0.202 C 
ATOM      3  C   UNL     1       8.310  35.125  33.023  1.00  0.00     0.179 C 
ATOM      4  C   UNL     1       9.519  34.623  33.815  1.00  0.00     0.177 C 
ATOM      5  C   UNL     1       9.327  33.136  34.221  1.00  0.00     0.178 C 
ATOM      6  O   UNL     1       8.102  32.979  34.945  1.00  0.00    -0.341 OA
ENDROOT
BRANCH   1   7
ATOM      7  O   UNL     1       6.896  32.426  33.044  1.00  0.00    -0.350 OA
BRANCH   7   8
ATOM      8  C   UNL     1       5.703  32.483  32.278  1.00  0.00     0.160 C 
ATOM      9  C   UNL     1       4.511  31.752  32.925  1.00  0.00     0.035 C 
ENDBRANCH   7   8
ENDBRANCH   1   7
BRANCH   2  10
ATOM     10  O   UNL     1       7.011  35.595  34.988  1.00  0.00    -0.385 OA
ATOM     11  H   UNL     1       7.538  36.415  34.802  1.00  0.00     0.211 HD
ENDBRANCH   2  10
BRANCH   3  12
ATOM     12  O   UNL     1       8.419  36.510  32.749  1.00  0.00    -0.387 OA
ATOM     13  H   UNL     1       7.536  36.949  32.905  1.00  0.00     0.211 HD
ENDBRANCH   3  12
BRANCH   5  14
ATOM     14  C   UNL     1      10.489  32.678  35.121  1.00  0.00     0.191 C 
BRANCH  14  15
ATOM     15  O   UNL     1      11.690  32.581  34.378  1.00  0.00    -0.394 OA
ATOM     16  H   UNL     1      12.000  33.516  34.219  1.00  0.00     0.210 HD
ENDBRANCH  14  15
ENDBRANCH   5  14
BRANCH   4  17
ATOM     17  O   UNL     1      10.697  34.786  33.072  1.00  0.00    -0.387 OA
ATOM     18  H   UNL     1      10.484  34.503  32.141  1.00  0.00     0.211 HD
ENDBRANCH   4  17
TORSDOF 7
ENDMDL
MODEL 7
REMARK VINA RESULT:    -2.894      1.712      4.250
REMARK INTER + INTRA:          -4.102
REMARK INTER:                  -3.900
REMARK INTRA:                  -0.202
REMARK UNBOUND:                -0.361
REMARK SMILES CCO[C@H]1O[C@H](CO)[C@@H](O)[C@H](O)[C@@H]1O
REMARK SMILES IDX 4 1 13 2 11 3 9 4 6 5 5 6 3 7 2 8 1 9 14 10 12 12 7 14 8 15
REMARK SMILES IDX 10 17
REMARK H PARENT 14 11 12 13 8 16 10 18
REMARK Flexibility Score: inf
ROOT
ATOM      1  C   UNL     1       7.373  35.426  34.726  1.00  0.00     0.281 C 
ATOM      2  C   UNL     1       8.837  35.453  34.220  1.00  0.00     0.202 C 
ATOM      3  C   UNL     1       8.929  34.780  32.837  1.00  0.00     0.179 C 
ATOM      4  C   UNL     1       8.314  33.380  32.901  1.00  0.00     0.177 C 
ATOM      5  C   UNL     1       6.886  33.439  33.510  1.00  0.00     0.178 C 
ATOM      6  O   UNL     1       6.927  34.072  34.794  1.00  0.00    -0.341 OA
ENDROOT
BRANCH   1   7
ATOM      7  O   UNL     1       6.442  36.165  33.923  1.00  0.00    -0.350 OA
BRANCH   7   8
ATOM      8  C   UNL     1       6.652  37.567  33.878  1.00  0.00     0.160 C 
ATOM      9  C   UNL     1       7.001  38.101  32.476  1.00  0.00     0.035 C 
ENDBRANCH   7   8
ENDBRANCH   1   7
BRANCH   2  10
ATOM     10  O   UNL     1       9.661  34.739  35.125  1.00  0.00    -0.385 OA
ATOM     11  H   UNL     1      10.410  34.359  34.596  1.00  0.00     0.211 HD
ENDBRANCH   2  10
BRANCH   3  12
ATOM     12  O   UNL     1      10.273  34.726  32.394  1.00  0.00    -0.387 OA
ATOM     13  H   UNL     1      10.699  33.886  32.726  1.00  0.00     0.211 HD
ENDBRANCH   3  12
BRANCH   5  14
ATOM     14  C   UNL     1       6.325  32.016  33.684  1.00  0.00     0.191 C 
BRANCH  14  15
ATOM     15  O   UNL     1       4.969  31.960  33.284  1.00  0.00    -0.394 OA
ATOM     16  H   UNL     1       4.744  30.993  33.176  1.00  0.00     0.210 HD
ENDBRANCH  14  15
ENDBRANCH   5  14
BRANCH   4  17
ATOM     17  O   UNL     1       8.284  32.797  31.626  1.00  0.00    -0.387 OA
ATOM     18  H   UNL     1       8.357  31.813  31.765  1.00  0.00     0.211 HD
ENDBRANCH   4  17
TORSDOF 7
ENDMDL
MODEL 8
REMARK VINA RESULT:    -2.885      4.009      6.237
REMARK INTER + INTRA:          -4.090
REMARK INTER:                  -3.900
REMARK INTRA:                  -0.190
REMARK UNBOUND:                -0.361
REMARK SMILES CCO[C@H]1O[C@H](CO)[C@@H](O)[C@H](O)[C@@H]1O
REMARK SMILES IDX 4 1 13 2 11 3 9 4 6 5 5 6 3 7 2 8 1 9 14 10 12 12 7 14 8 15
REMARK SMILES IDX 10 17
REMARK H PARENT 14 11 12 13 8 16 10 18
REMARK Flexibility Score: inf
ROOT
ATOM      1  C   UNL     1      11.378  36.611  34.081  1.00  0.00     0.281 C 
ATOM      2  C   UNL     1      12.888  36.869  33.851  1.00  0.00     0.202 C 
ATOM      3  C   UNL     1      13.527  35.662  33.137  1.00  0.00     0.179 C 
ATOM      4  C   UNL     1      13.221  34.380  33.914  1.00  0.00     0.177 C 
ATOM      5  C   UNL     1      11.696  34.255  34.182  1.00  0.00     0.178 C 
ATOM      6  O   UNL     1      11.219  35.424  34.857  1.00  0.00    -0.341 OA
ENDROOT
BRANCH   1   7
ATOM      7  O   UNL     1      10.600  36.472  32.884  1.00  0.00    -0.350 OA
BRANCH   7   8
ATOM      8  C   UNL     1       9.314  37.067  32.918  1.00  0.00     0.160 C 
ATOM      9  C   UNL     1       8.175  36.077  33.231  1.00  0.00     0.035 C 
ENDBRANCH   7   8
ENDBRANCH   1   7
BRANCH   2  10
ATOM     10  O   UNL     1      13.531  37.045  35.101  1.00  0.00    -0.385 OA
ATOM     11  H   UNL     1      12.978  37.682  35.624  1.00  0.00     0.211 HD
ENDBRANCH   2  10
BRANCH   3  12
ATOM     12  O   UNL     1      14.923  35.848  32.988  1.00  0.00    -0.387 OA
ATOM     13  H   UNL     1      15.377  34.958  32.983  1.00  0.00     0.211 HD
ENDBRANCH   3  12
BRANCH   5  14
ATOM     14  C   UNL     1      11.412  33.029  35.068  1.00  0.00     0.191 C 
BRANCH  14  15
ATOM     15  O   UNL     1      10.342  32.267  34.541  1.00  0.00    -0.394 OA
ATOM     16  H   UNL     1      10.731  31.691  33.824  1.00  0.00     0.210 HD
ENDBRANCH  14  15
ENDBRANCH   5  14
BRANCH   4  17
ATOM     17  O   UNL     1      13.695  33.258  33.219  1.00  0.00    -0.387 OA
ATOM     18  H   UNL     1      13.930  32.578  33.907  1.00  0.00     0.211 HD
ENDBRANCH   4  17
TORSDOF 7
ENDMDL
MODEL 9
REMARK VINA RESULT:    -2.883      3.820      6.683
REMARK INTER + INTRA:          -4.087
REMARK INTER:                  -3.739
REMARK INTRA:                  -0.348
REMARK UNBOUND:                -0.361
REMARK SMILES CCO[C@H]1O[C@H](CO)[C@@H](O)[C@H](O)[C@@H]1O
REMARK SMILES IDX 4 1 13 2 11 3 9 4 6 5 5 6 3 7 2 8 1 9 14 10 12 12 7 14 8 15
REMARK SMILES IDX 10 17
REMARK H PARENT 14 11 12 13 8 16 10 18
REMARK Flexibility Score: inf
ROOT
ATOM      1  C   UNL     1      12.479  35.632  33.176  1.00  0.00     0.281 C 
ATOM      2  C   UNL     1      11.118  35.885  32.480  1.00  0.00     0.202 C 
ATOM      3  C   UNL     1       9.964  35.609  33.462  1.00  0.00     0.179 C 
ATOM      4  C   UNL     1      10.114  34.207  34.055  1.00  0.00     0.177 C 
ATOM      5  C   UNL     1      11.538  34.012  34.643  1.00  0.00     0.178 C 
ATOM      6  O   UNL     1      12.524  34.283  33.639  1.00  0.00    -0.341 OA
ENDROOT
BRANCH   1   7
ATOM      7  O   UNL     1      12.760  36.498  34.285  1.00  0.00    -0.350 OA
BRANCH   7   8
ATOM      8  C   UNL     1      13.766  37.472  34.061  1.00  0.00     0.160 C 
ATOM      9  C   UNL     1      15.196  36.964  34.326  1.00  0.00     0.035 C 
ENDBRANCH   7   8
ENDBRANCH   1   7
BRANCH   2  10
ATOM     10  O   UNL     1      10.987  35.011  31.372  1.00  0.00    -0.385 OA
ATOM     11  H   UNL     1      11.581  34.234  31.544  1.00  0.00     0.211 HD
ENDBRANCH   2  10
BRANCH   3  12
ATOM     12  O   UNL     1       8.711  35.760  32.819  1.00  0.00    -0.387 OA
ATOM     13  H   UNL     1       8.687  36.636  32.341  1.00  0.00     0.211 HD
ENDBRANCH   3  12
BRANCH   5  14
ATOM     14  C   UNL     1      11.719  32.561  35.125  1.00  0.00     0.191 C 
BRANCH  14  15
ATOM     15  O   UNL     1      10.671  31.739  34.645  1.00  0.00    -0.394 OA
ATOM     16  H   UNL     1      11.105  30.947  34.219  1.00  0.00     0.210 HD
ENDBRANCH  14  15
ENDBRANCH   5  14
BRANCH   4  17
ATOM     17  O   UNL     1       9.138  33.981  35.037  1.00  0.00    -0.387 OA
ATOM     18  H   UNL     1       8.305  33.726  34.553  1.00  0.00     0.211 HD
ENDBRANCH   4  17
TORSDOF 7
ENDMDL
