MODEL 1
REMARK VINA RESULT:    -7.436      0.000      0.000
REMARK INTER + INTRA:          -7.834
REMARK INTER:                  -8.088
REMARK INTRA:                   0.253
REMARK UNBOUND:                 0.253
REMARK SMILES C[C@H]1[C@H](C)CC[C@@]2(C(=O)[O-])CC[C@@]3(C)C(=CC[C@@H]4[C@@]5(C)CC[C@H](O)C(C)(C)[C@H]5CC[C@@]43C)[C@H]12
REMARK SMILES IDX 7 1 6 2 11 3 33 4 5 5 12 6 15 7 2 8 3 9 13 10 16 11 1 12
REMARK SMILES IDX 4 13 14 14 31 15 17 16 18 17 30 18 32 19 19 20 29 21 28 22
REMARK SMILES IDX 21 23 20 24 25 25 22 26 23 27 26 28 27 29 8 30 9 31 10 32
REMARK SMILES IDX 24 33
REMARK H PARENT 24 34
REMARK Flexibility Score: inf
ROOT
ATOM      1  C   UNL     1       5.628 -18.137 -37.345  1.00  0.00     0.017 C 
ATOM      2  C   UNL     1       4.252 -17.703 -36.777  1.00  0.00     0.014 C 
ATOM      3  C   UNL     1       6.725 -18.192 -36.220  1.00  0.00     0.014 C 
ATOM      4  C   UNL     1       5.415 -19.568 -37.947  1.00  0.00     0.030 C 
ATOM      5  C   UNL     1       3.180 -17.675 -37.887  1.00  0.00     0.004 C 
ATOM      6  C   UNL     1       7.008 -19.608 -35.671  1.00  0.00     0.013 C 
ATOM      7  C   UNL     1       6.776 -20.247 -38.086  1.00  0.00    -0.063 C 
ATOM      8  C   UNL     1       4.398 -19.601 -39.123  1.00  0.00    -0.003 C 
ATOM      9  C   UNL     1       3.027 -19.033 -38.617  1.00  0.00    -0.011 C 
ATOM     10  C   UNL     1       7.432 -20.698 -36.769  1.00  0.00    -0.006 C 
ATOM     11  C   UNL     1       7.466 -20.061 -39.211  1.00  0.00    -0.027 C 
ATOM     12  C   UNL     1       4.230 -21.043 -39.646  1.00  0.00     0.008 C 
ATOM     13  C   UNL     1       2.010 -18.879 -39.762  1.00  0.00     0.008 C 
ATOM     14  C   UNL     1       6.720 -22.031 -36.370  1.00  0.00     0.017 C 
ATOM     15  C   UNL     1       9.042 -20.968 -36.890  1.00  0.00    -0.020 C 
ATOM     16  C   UNL     1       8.948 -20.050 -39.283  1.00  0.00     0.032 C 
ATOM     17  C   UNL     1       9.710 -19.960 -37.912  1.00  0.00     0.006 C 
ATOM     18  C   UNL     1       9.380 -22.391 -37.437  1.00  0.00     0.008 C 
ATOM     19  C   UNL     1       9.637 -20.886 -35.446  1.00  0.00     0.012 C 
ATOM     20  C   UNL     1      11.291 -20.125 -38.189  1.00  0.00    -0.025 C 
ATOM     21  C   UNL     1      10.883 -22.651 -37.684  1.00  0.00     0.005 C 
ATOM     22  C   UNL     1      11.629 -21.624 -38.592  1.00  0.00     0.003 C 
ATOM     23  C   UNL     1      12.168 -19.673 -36.976  1.00  0.00     0.010 C 
ATOM     24  C   UNL     1      11.649 -19.134 -39.353  1.00  0.00     0.012 C 
ATOM     25  C   UNL     1      13.190 -21.955 -38.697  1.00  0.00    -0.006 C 
ATOM     26  C   UNL     1      13.672 -19.951 -37.138  1.00  0.00     0.033 C 
ATOM     27  C   UNL     1      13.951 -21.429 -37.437  1.00  0.00     0.120 C 
ATOM     28  C   UNL     1      13.808 -21.370 -40.001  1.00  0.00     0.014 C 
ATOM     29  C   UNL     1      13.425 -23.493 -38.793  1.00  0.00     0.014 C 
ENDROOT
BRANCH   1  30
ATOM     30  C   UNL     1       6.085 -17.070 -38.344  1.00  0.00     0.048 C 
ATOM     31  O   UNL     1       6.727 -16.066 -37.928  1.00  0.00    -0.550 OA
ATOM     32  O   UNL     1       5.902 -17.207 -39.712  1.00  0.00    -0.550 OA
ENDBRANCH   1  30
BRANCH  27  33
ATOM     33  O   UNL     1      15.340 -21.597 -37.592  1.00  0.00    -0.393 OA
ATOM     34  H   UNL     1      15.787 -20.901 -37.043  1.00  0.00     0.210 HD
ENDBRANCH  27  33
TORSDOF 2
ENDMDL
MODEL 2
REMARK VINA RESULT:    -7.225      2.551      7.782
REMARK INTER + INTRA:          -7.605
REMARK INTER:                  -8.192
REMARK INTRA:                   0.587
REMARK UNBOUND:                 0.253
REMARK SMILES C[C@H]1[C@H](C)CC[C@@]2(C(=O)[O-])CC[C@@]3(C)C(=CC[C@@H]4[C@@]5(C)CC[C@H](O)C(C)(C)[C@H]5CC[C@@]43C)[C@H]12
REMARK SMILES IDX 7 1 6 2 11 3 33 4 5 5 12 6 15 7 2 8 3 9 13 10 16 11 1 12
REMARK SMILES IDX 4 13 14 14 31 15 17 16 18 17 30 18 32 19 19 20 29 21 28 22
REMARK SMILES IDX 21 23 20 24 25 25 22 26 23 27 26 28 27 29 8 30 9 31 10 32
REMARK SMILES IDX 24 33
REMARK H PARENT 24 34
REMARK Flexibility Score: inf
ROOT
ATOM      1  C   UNL     1       9.952 -21.336 -36.896  1.00  0.00     0.017 C 
ATOM      2  C   UNL     1      11.221 -22.174 -37.200  1.00  0.00     0.014 C 
ATOM      3  C   UNL     1      10.242 -19.794 -36.988  1.00  0.00     0.014 C 
ATOM      4  C   UNL     1       8.897 -21.742 -37.980  1.00  0.00     0.030 C 
ATOM      5  C   UNL     1      10.917 -23.684 -37.128  1.00  0.00     0.004 C 
ATOM      6  C   UNL     1       9.810 -19.140 -38.319  1.00  0.00     0.013 C 
ATOM      7  C   UNL     1       7.827 -20.655 -38.052  1.00  0.00    -0.063 C 
ATOM      8  C   UNL     1       8.488 -23.241 -37.917  1.00  0.00    -0.003 C 
ATOM      9  C   UNL     1       9.775 -24.120 -38.081  1.00  0.00    -0.011 C 
ATOM     10  C   UNL     1       8.265 -19.333 -38.708  1.00  0.00    -0.006 C 
ATOM     11  C   UNL     1       6.775 -20.744 -37.238  1.00  0.00    -0.027 C 
ATOM     12  C   UNL     1       7.464 -23.565 -39.025  1.00  0.00     0.008 C 
ATOM     13  C   UNL     1       9.483 -25.616 -37.868  1.00  0.00     0.008 C 
ATOM     14  C   UNL     1       8.223 -19.586 -40.250  1.00  0.00     0.017 C 
ATOM     15  C   UNL     1       7.297 -18.062 -38.348  1.00  0.00    -0.020 C 
ATOM     16  C   UNL     1       6.043 -19.572 -36.698  1.00  0.00     0.032 C 
ATOM     17  C   UNL     1       6.740 -18.175 -36.871  1.00  0.00     0.006 C 
ATOM     18  C   UNL     1       6.031 -17.987 -39.259  1.00  0.00     0.008 C 
ATOM     19  C   UNL     1       8.122 -16.761 -38.612  1.00  0.00     0.012 C 
ATOM     20  C   UNL     1       5.723 -17.026 -36.372  1.00  0.00    -0.025 C 
ATOM     21  C   UNL     1       5.025 -16.877 -38.880  1.00  0.00     0.005 C 
ATOM     22  C   UNL     1       4.525 -16.862 -37.402  1.00  0.00     0.003 C 
ATOM     23  C   UNL     1       6.433 -15.652 -36.134  1.00  0.00     0.010 C 
ATOM     24  C   UNL     1       5.198 -17.471 -34.962  1.00  0.00     0.012 C 
ATOM     25  C   UNL     1       3.562 -15.618 -37.118  1.00  0.00    -0.006 C 
ATOM     26  C   UNL     1       5.480 -14.492 -35.803  1.00  0.00     0.033 C 
ATOM     27  C   UNL     1       4.396 -14.319 -36.874  1.00  0.00     0.120 C 
ATOM     28  C   UNL     1       2.610 -15.900 -35.918  1.00  0.00     0.014 C 
ATOM     29  C   UNL     1       2.616 -15.361 -38.330  1.00  0.00     0.014 C 
ENDROOT
BRANCH   1  30
ATOM     30  C   UNL     1       9.539 -21.613 -35.446  1.00  0.00     0.048 C 
ATOM     31  O   UNL     1       8.760 -20.813 -34.861  1.00  0.00    -0.550 OA
ATOM     32  O   UNL     1       9.917 -22.767 -34.775  1.00  0.00    -0.550 OA
ENDBRANCH   1  30
BRANCH  27  33
ATOM     33  O   UNL     1       3.556 -13.257 -36.488  1.00  0.00    -0.393 OA
ATOM     34  H   UNL     1       3.956 -12.419 -36.838  1.00  0.00     0.210 HD
ENDBRANCH  27  33
TORSDOF 2
ENDMDL
MODEL 3
REMARK VINA RESULT:    -7.158      1.859      8.000
REMARK INTER + INTRA:          -7.532
REMARK INTER:                  -7.786
REMARK INTRA:                   0.253
REMARK UNBOUND:                 0.253
REMARK SMILES C[C@H]1[C@H](C)CC[C@@]2(C(=O)[O-])CC[C@@]3(C)C(=CC[C@@H]4[C@@]5(C)CC[C@H](O)C(C)(C)[C@H]5CC[C@@]43C)[C@H]12
REMARK SMILES IDX 7 1 6 2 11 3 33 4 5 5 12 6 15 7 2 8 3 9 13 10 16 11 1 12
REMARK SMILES IDX 4 13 14 14 31 15 17 16 18 17 30 18 32 19 19 20 29 21 28 22
REMARK SMILES IDX 21 23 20 24 25 25 22 26 23 27 26 28 27 29 8 30 9 31 10 32
REMARK SMILES IDX 24 33
REMARK H PARENT 24 34
REMARK Flexibility Score: inf
ROOT
ATOM      1  C   UNL     1      11.271 -23.009 -38.803  1.00  0.00     0.017 C 
ATOM      2  C   UNL     1      12.392 -24.064 -38.616  1.00  0.00     0.014 C 
ATOM      3  C   UNL     1       9.853 -23.612 -38.492  1.00  0.00     0.014 C 
ATOM      4  C   UNL     1      11.590 -21.857 -37.790  1.00  0.00     0.030 C 
ATOM      5  C   UNL     1      13.780 -23.453 -38.902  1.00  0.00     0.004 C 
ATOM      6  C   UNL     1       9.312 -23.283 -37.083  1.00  0.00     0.013 C 
ATOM      7  C   UNL     1      10.321 -21.037 -37.569  1.00  0.00    -0.063 C 
ATOM      8  C   UNL     1      12.945 -21.145 -38.066  1.00  0.00    -0.003 C 
ATOM      9  C   UNL     1      14.091 -22.214 -38.024  1.00  0.00    -0.011 C 
ATOM     10  C   UNL     1       9.225 -21.720 -36.731  1.00  0.00    -0.006 C 
ATOM     11  C   UNL     1      10.072 -20.017 -38.390  1.00  0.00    -0.027 C 
ATOM     12  C   UNL     1      13.194 -20.040 -37.018  1.00  0.00     0.008 C 
ATOM     13  C   UNL     1      15.447 -21.623 -38.448  1.00  0.00     0.008 C 
ATOM     14  C   UNL     1       9.673 -21.575 -35.240  1.00  0.00     0.017 C 
ATOM     15  C   UNL     1       7.741 -21.052 -36.910  1.00  0.00    -0.020 C 
ATOM     16  C   UNL     1       8.709 -19.564 -38.761  1.00  0.00     0.032 C 
ATOM     17  C   UNL     1       7.529 -20.533 -38.390  1.00  0.00     0.006 C 
ATOM     18  C   UNL     1       7.526 -19.800 -36.001  1.00  0.00     0.008 C 
ATOM     19  C   UNL     1       6.693 -22.122 -36.462  1.00  0.00     0.012 C 
ATOM     20  C   UNL     1       6.133 -19.796 -38.724  1.00  0.00    -0.025 C 
ATOM     21  C   UNL     1       6.186 -19.062 -36.223  1.00  0.00     0.005 C 
ATOM     22  C   UNL     1       5.862 -18.626 -37.685  1.00  0.00     0.003 C 
ATOM     23  C   UNL     1       4.921 -20.785 -38.763  1.00  0.00     0.010 C 
ATOM     24  C   UNL     1       6.258 -19.236 -40.185  1.00  0.00     0.012 C 
ATOM     25  C   UNL     1       4.415 -17.954 -37.793  1.00  0.00    -0.006 C 
ATOM     26  C   UNL     1       3.551 -20.108 -38.930  1.00  0.00     0.033 C 
ATOM     27  C   UNL     1       3.302 -19.049 -37.849  1.00  0.00     0.120 C 
ATOM     28  C   UNL     1       4.321 -17.005 -39.025  1.00  0.00     0.014 C 
ATOM     29  C   UNL     1       4.133 -17.044 -36.561  1.00  0.00     0.014 C 
ENDROOT
BRANCH   1  30
ATOM     30  C   UNL     1      11.252 -22.596 -40.278  1.00  0.00     0.048 C 
ATOM     31  O   UNL     1      10.569 -23.266 -41.100  1.00  0.00    -0.550 OA
ATOM     32  O   UNL     1      11.886 -21.450 -40.736  1.00  0.00    -0.550 OA
ENDBRANCH   1  30
BRANCH  27  33
ATOM     33  O   UNL     1       2.043 -18.463 -38.083  1.00  0.00    -0.393 OA
ATOM     34  H   UNL     1       2.095 -17.516 -37.789  1.00  0.00     0.210 HD
ENDBRANCH  27  33
TORSDOF 2
ENDMDL
MODEL 4
REMARK VINA RESULT:    -7.012      3.504      8.743
REMARK INTER + INTRA:          -7.373
REMARK INTER:                  -7.931
REMARK INTRA:                   0.558
REMARK UNBOUND:                 0.253
REMARK SMILES C[C@H]1[C@H](C)CC[C@@]2(C(=O)[O-])CC[C@@]3(C)C(=CC[C@@H]4[C@@]5(C)CC[C@H](O)C(C)(C)[C@H]5CC[C@@]43C)[C@H]12
REMARK SMILES IDX 7 1 6 2 11 3 33 4 5 5 12 6 15 7 2 8 3 9 13 10 16 11 1 12
REMARK SMILES IDX 4 13 14 14 31 15 17 16 18 17 30 18 32 19 19 20 29 21 28 22
REMARK SMILES IDX 21 23 20 24 25 25 22 26 23 27 26 28 27 29 8 30 9 31 10 32
REMARK SMILES IDX 24 33
REMARK H PARENT 24 34
REMARK Flexibility Score: inf
ROOT
ATOM      1  C   UNL     1      14.424 -20.907 -42.840  1.00  0.00     0.017 C 
ATOM      2  C   UNL     1      15.325 -21.131 -44.083  1.00  0.00     0.014 C 
ATOM      3  C   UNL     1      13.083 -21.720 -42.946  1.00  0.00     0.014 C 
ATOM      4  C   UNL     1      15.253 -21.408 -41.610  1.00  0.00     0.030 C 
ATOM      5  C   UNL     1      16.647 -20.345 -43.956  1.00  0.00     0.004 C 
ATOM      6  C   UNL     1      13.076 -23.047 -42.155  1.00  0.00     0.013 C 
ATOM      7  C   UNL     1      14.295 -21.668 -40.449  1.00  0.00    -0.063 C 
ATOM      8  C   UNL     1      16.567 -20.609 -41.378  1.00  0.00    -0.003 C 
ATOM      9  C   UNL     1      17.444 -20.699 -42.675  1.00  0.00    -0.011 C 
ATOM     10  C   UNL     1      13.402 -22.913 -40.589  1.00  0.00    -0.006 C 
ATOM     11  C   UNL     1      14.005 -20.659 -39.628  1.00  0.00    -0.027 C 
ATOM     12  C   UNL     1      17.332 -21.175 -40.164  1.00  0.00     0.008 C 
ATOM     13  C   UNL     1      18.690 -19.800 -42.591  1.00  0.00     0.008 C 
ATOM     14  C   UNL     1      14.306 -24.133 -40.218  1.00  0.00     0.017 C 
ATOM     15  C   UNL     1      12.091 -22.902 -39.609  1.00  0.00    -0.020 C 
ATOM     16  C   UNL     1      12.706 -20.508 -38.927  1.00  0.00     0.032 C 
ATOM     17  C   UNL     1      11.536 -21.431 -39.422  1.00  0.00     0.006 C 
ATOM     18  C   UNL     1      12.409 -23.407 -38.165  1.00  0.00     0.008 C 
ATOM     19  C   UNL     1      11.048 -23.896 -40.216  1.00  0.00     0.012 C 
ATOM     20  C   UNL     1      10.273 -21.235 -38.438  1.00  0.00    -0.025 C 
ATOM     21  C   UNL     1      11.233 -23.300 -37.168  1.00  0.00     0.005 C 
ATOM     22  C   UNL     1      10.564 -21.898 -37.024  1.00  0.00     0.003 C 
ATOM     23  C   UNL     1       8.943 -21.796 -39.042  1.00  0.00     0.010 C 
ATOM     24  C   UNL     1      10.046 -19.689 -38.299  1.00  0.00     0.012 C 
ATOM     25  C   UNL     1       9.310 -21.943 -36.033  1.00  0.00    -0.006 C 
ATOM     26  C   UNL     1       7.744 -21.765 -38.080  1.00  0.00     0.033 C 
ATOM     27  C   UNL     1       8.046 -22.496 -36.766  1.00  0.00     0.120 C 
ATOM     28  C   UNL     1       9.024 -20.541 -35.417  1.00  0.00     0.014 C 
ATOM     29  C   UNL     1       9.601 -22.867 -34.812  1.00  0.00     0.014 C 
ENDROOT
BRANCH   1  30
ATOM     30  C   UNL     1      14.031 -19.426 -42.804  1.00  0.00     0.048 C 
ATOM     31  O   UNL     1      14.674 -18.597 -43.503  1.00  0.00    -0.550 OA
ATOM     32  O   UNL     1      12.928 -18.969 -42.098  1.00  0.00    -0.550 OA
ENDBRANCH   1  30
BRANCH  27  33
ATOM     33  O   UNL     1       6.912 -22.405 -35.936  1.00  0.00    -0.393 OA
ATOM     34  H   UNL     1       6.790 -21.448 -35.704  1.00  0.00     0.210 HD
ENDBRANCH  27  33
TORSDOF 2
ENDMDL
MODEL 5
REMARK VINA RESULT:    -6.732      2.084      7.834
REMARK INTER + INTRA:          -7.069
REMARK INTER:                  -7.322
REMARK INTRA:                   0.253
REMARK UNBOUND:                 0.253
REMARK SMILES C[C@H]1[C@H](C)CC[C@@]2(C(=O)[O-])CC[C@@]3(C)C(=CC[C@@H]4[C@@]5(C)CC[C@H](O)C(C)(C)[C@H]5CC[C@@]43C)[C@H]12
REMARK SMILES IDX 7 1 6 2 11 3 33 4 5 5 12 6 15 7 2 8 3 9 13 10 16 11 1 12
REMARK SMILES IDX 4 13 14 14 31 15 17 16 18 17 30 18 32 19 19 20 29 21 28 22
REMARK SMILES IDX 21 23 20 24 25 25 22 26 23 27 26 28 27 29 8 30 9 31 10 32
REMARK SMILES IDX 24 33
REMARK H PARENT 24 34
REMARK Flexibility Score: inf
ROOT
ATOM      1  C   UNL     1      11.468 -21.277 -40.382  1.00  0.00     0.017 C 
ATOM      2  C   UNL     1      12.379 -22.374 -40.992  1.00  0.00     0.014 C 
ATOM      3  C   UNL     1       9.947 -21.650 -40.514  1.00  0.00     0.014 C 
ATOM      4  C   UNL     1      11.861 -21.183 -38.868  1.00  0.00     0.030 C 
ATOM      5  C   UNL     1      13.869 -22.005 -40.835  1.00  0.00     0.004 C 
ATOM      6  C   UNL     1       9.322 -22.250 -39.236  1.00  0.00     0.013 C 
ATOM      7  C   UNL     1      10.724 -20.500 -38.111  1.00  0.00    -0.063 C 
ATOM      8  C   UNL     1      13.334 -20.744 -38.635  1.00  0.00    -0.003 C 
ATOM      9  C   UNL     1      14.282 -21.759 -39.362  1.00  0.00    -0.011 C 
ATOM     10  C   UNL     1       9.451 -21.343 -37.918  1.00  0.00    -0.006 C 
ATOM     11  C   UNL     1      10.731 -19.170 -38.020  1.00  0.00    -0.027 C 
ATOM     12  C   UNL     1      13.647 -20.693 -37.125  1.00  0.00     0.008 C 
ATOM     13  C   UNL     1      15.752 -21.307 -39.319  1.00  0.00     0.008 C 
ATOM     14  C   UNL     1       9.759 -22.318 -36.736  1.00  0.00     0.017 C 
ATOM     15  C   UNL     1       8.121 -20.461 -37.552  1.00  0.00    -0.020 C 
ATOM     16  C   UNL     1       9.505 -18.338 -37.945  1.00  0.00     0.032 C 
ATOM     17  C   UNL     1       8.152 -19.059 -38.287  1.00  0.00     0.006 C 
ATOM     18  C   UNL     1       8.017 -20.125 -36.030  1.00  0.00     0.008 C 
ATOM     19  C   UNL     1       6.873 -21.333 -37.910  1.00  0.00     0.012 C 
ATOM     20  C   UNL     1       6.936 -18.041 -37.991  1.00  0.00    -0.025 C 
ATOM     21  C   UNL     1       6.845 -19.192 -35.653  1.00  0.00     0.005 C 
ATOM     22  C   UNL     1       6.750 -17.840 -36.426  1.00  0.00     0.003 C 
ATOM     23  C   UNL     1       5.591 -18.499 -38.648  1.00  0.00     0.010 C 
ATOM     24  C   UNL     1       7.302 -16.687 -38.694  1.00  0.00     0.012 C 
ATOM     25  C   UNL     1       5.450 -17.010 -36.006  1.00  0.00    -0.006 C 
ATOM     26  C   UNL     1       4.373 -17.639 -38.270  1.00  0.00     0.033 C 
ATOM     27  C   UNL     1       4.186 -17.551 -36.750  1.00  0.00     0.120 C 
ATOM     28  C   UNL     1       5.639 -15.487 -36.271  1.00  0.00     0.014 C 
ATOM     29  C   UNL     1       5.190 -17.124 -34.474  1.00  0.00     0.014 C 
ENDROOT
BRANCH   1  30
ATOM     30  C   UNL     1      11.671 -19.991 -41.190  1.00  0.00     0.048 C 
ATOM     31  O   UNL     1      10.977 -19.795 -42.226  1.00  0.00    -0.550 OA
ATOM     32  O   UNL     1      12.527 -18.982 -40.777  1.00  0.00    -0.550 OA
ENDBRANCH   1  30
BRANCH  27  33
ATOM     33  O   UNL     1       3.069 -16.734 -36.487  1.00  0.00    -0.393 OA
ATOM     34  H   UNL     1       3.273 -15.829 -36.841  1.00  0.00     0.210 HD
ENDBRANCH  27  33
TORSDOF 2
ENDMDL
MODEL 6
REMARK VINA RESULT:    -6.711      2.437      4.799
REMARK INTER + INTRA:          -7.046
REMARK INTER:                  -7.299
REMARK INTRA:                   0.253
REMARK UNBOUND:                 0.253
REMARK SMILES C[C@H]1[C@H](C)CC[C@@]2(C(=O)[O-])CC[C@@]3(C)C(=CC[C@@H]4[C@@]5(C)CC[C@H](O)C(C)(C)[C@H]5CC[C@@]43C)[C@H]12
REMARK SMILES IDX 7 1 6 2 11 3 33 4 5 5 12 6 15 7 2 8 3 9 13 10 16 11 1 12
REMARK SMILES IDX 4 13 14 14 31 15 17 16 18 17 30 18 32 19 19 20 29 21 28 22
REMARK SMILES IDX 21 23 20 24 25 25 22 26 23 27 26 28 27 29 8 30 9 31 10 32
REMARK SMILES IDX 24 33
REMARK H PARENT 24 34
REMARK Flexibility Score: inf
ROOT
ATOM      1  C   UNL     1       3.522 -16.756 -38.382  1.00  0.00     0.017 C 
ATOM      2  C   UNL     1       2.650 -15.604 -38.948  1.00  0.00     0.014 C 
ATOM      3  C   UNL     1       4.019 -17.717 -39.522  1.00  0.00     0.014 C 
ATOM      4  C   UNL     1       4.751 -16.069 -37.696  1.00  0.00     0.030 C 
ATOM      5  C   UNL     1       2.189 -14.656 -37.822  1.00  0.00     0.004 C 
ATOM      6  C   UNL     1       5.466 -17.454 -39.996  1.00  0.00     0.013 C 
ATOM      7  C   UNL     1       5.866 -17.102 -37.544  1.00  0.00    -0.063 C 
ATOM      8  C   UNL     1       4.363 -15.152 -36.501  1.00  0.00    -0.003 C 
ATOM      9  C   UNL     1       3.366 -14.056 -37.012  1.00  0.00    -0.011 C 
ATOM     10  C   UNL     1       6.583 -17.503 -38.845  1.00  0.00    -0.006 C 
ATOM     11  C   UNL     1       5.888 -17.855 -36.444  1.00  0.00    -0.027 C 
ATOM     12  C   UNL     1       5.623 -14.501 -35.893  1.00  0.00     0.008 C 
ATOM     13  C   UNL     1       2.804 -13.206 -35.859  1.00  0.00     0.008 C 
ATOM     14  C   UNL     1       7.589 -16.347 -39.154  1.00  0.00     0.017 C 
ATOM     15  C   UNL     1       7.406 -18.915 -38.740  1.00  0.00    -0.020 C 
ATOM     16  C   UNL     1       6.405 -19.245 -36.401  1.00  0.00     0.032 C 
ATOM     17  C   UNL     1       6.658 -19.936 -37.789  1.00  0.00     0.006 C 
ATOM     18  C   UNL     1       8.829 -18.742 -38.118  1.00  0.00     0.008 C 
ATOM     19  C   UNL     1       7.610 -19.444 -40.197  1.00  0.00     0.012 C 
ATOM     20  C   UNL     1       7.366 -21.363 -37.533  1.00  0.00    -0.025 C 
ATOM     21  C   UNL     1       9.598 -20.062 -37.885  1.00  0.00     0.005 C 
ATOM     22  C   UNL     1       8.866 -21.159 -37.052  1.00  0.00     0.003 C 
ATOM     23  C   UNL     1       7.315 -22.298 -38.787  1.00  0.00     0.010 C 
ATOM     24  C   UNL     1       6.516 -22.096 -36.435  1.00  0.00     0.012 C 
ATOM     25  C   UNL     1       9.729 -22.502 -36.958  1.00  0.00    -0.006 C 
ATOM     26  C   UNL     1       8.105 -23.608 -38.637  1.00  0.00     0.033 C 
ATOM     27  C   UNL     1       9.570 -23.352 -38.259  1.00  0.00     0.120 C 
ATOM     28  C   UNL     1       9.344 -23.337 -35.700  1.00  0.00     0.014 C 
ATOM     29  C   UNL     1      11.242 -22.177 -36.778  1.00  0.00     0.014 C 
ENDROOT
BRANCH   1  30
ATOM     30  C   UNL     1       2.644 -17.601 -37.454  1.00  0.00     0.048 C 
ATOM     31  O   UNL     1       1.978 -18.559 -37.935  1.00  0.00    -0.550 OA
ATOM     32  O   UNL     1       2.621 -17.414 -36.080  1.00  0.00    -0.550 OA
ENDBRANCH   1  30
BRANCH  27  33
ATOM     33  O   UNL     1      10.217 -24.595 -38.121  1.00  0.00    -0.393 OA
ATOM     34  H   UNL     1       9.551 -25.302 -38.329  1.00  0.00     0.210 HD
ENDBRANCH  27  33
TORSDOF 2
ENDMDL
MODEL 7
REMARK VINA RESULT:    -6.434      1.789      2.981
REMARK INTER + INTRA:          -6.745
REMARK INTER:                  -6.998
REMARK INTRA:                   0.253
REMARK UNBOUND:                 0.253
REMARK SMILES C[C@H]1[C@H](C)CC[C@@]2(C(=O)[O-])CC[C@@]3(C)C(=CC[C@@H]4[C@@]5(C)CC[C@H](O)C(C)(C)[C@H]5CC[C@@]43C)[C@H]12
REMARK SMILES IDX 7 1 6 2 11 3 33 4 5 5 12 6 15 7 2 8 3 9 13 10 16 11 1 12
REMARK SMILES IDX 4 13 14 14 31 15 17 16 18 17 30 18 32 19 19 20 29 21 28 22
REMARK SMILES IDX 21 23 20 24 25 25 22 26 23 27 26 28 27 29 8 30 9 31 10 32
REMARK SMILES IDX 24 33
REMARK H PARENT 24 34
REMARK Flexibility Score: inf
ROOT
ATOM      1  C   UNL     1       8.262 -18.105 -38.716  1.00  0.00     0.017 C 
ATOM      2  C   UNL     1       7.430 -16.938 -38.123  1.00  0.00     0.014 C 
ATOM      3  C   UNL     1       9.784 -17.976 -38.345  1.00  0.00     0.014 C 
ATOM      4  C   UNL     1       7.674 -19.416 -38.092  1.00  0.00     0.030 C 
ATOM      5  C   UNL     1       5.936 -17.089 -38.475  1.00  0.00     0.004 C 
ATOM      6  C   UNL     1      10.230 -18.856 -37.157  1.00  0.00     0.013 C 
ATOM      7  C   UNL     1       8.706 -20.531 -38.237  1.00  0.00    -0.063 C 
ATOM      8  C   UNL     1       6.187 -19.669 -38.468  1.00  0.00    -0.003 C 
ATOM      9  C   UNL     1       5.334 -18.438 -38.005  1.00  0.00    -0.011 C 
ATOM     10  C   UNL     1       9.935 -20.425 -37.317  1.00  0.00    -0.006 C 
ATOM     11  C   UNL     1       8.699 -21.262 -39.353  1.00  0.00    -0.027 C 
ATOM     12  C   UNL     1       5.677 -20.964 -37.802  1.00  0.00     0.008 C 
ATOM     13  C   UNL     1       3.875 -18.534 -38.485  1.00  0.00     0.008 C 
ATOM     14  C   UNL     1       9.466 -20.935 -35.916  1.00  0.00     0.017 C 
ATOM     15  C   UNL     1      11.213 -21.322 -37.812  1.00  0.00    -0.020 C 
ATOM     16  C   UNL     1       9.912 -21.871 -39.953  1.00  0.00     0.032 C 
ATOM     17  C   UNL     1      11.292 -21.371 -39.392  1.00  0.00     0.006 C 
ATOM     18  C   UNL     1      11.118 -22.814 -37.358  1.00  0.00     0.008 C 
ATOM     19  C   UNL     1      12.489 -20.724 -37.136  1.00  0.00     0.012 C 
ATOM     20  C   UNL     1      12.467 -22.261 -40.047  1.00  0.00    -0.025 C 
ATOM     21  C   UNL     1      12.238 -23.728 -37.903  1.00  0.00     0.005 C 
ATOM     22  C   UNL     1      12.446 -23.733 -39.450  1.00  0.00     0.003 C 
ATOM     23  C   UNL     1      13.883 -21.618 -39.870  1.00  0.00     0.010 C 
ATOM     24  C   UNL     1      12.209 -22.277 -41.595  1.00  0.00     0.012 C 
ATOM     25  C   UNL     1      13.687 -24.648 -39.875  1.00  0.00    -0.006 C 
ATOM     26  C   UNL     1      15.047 -22.502 -40.348  1.00  0.00     0.033 C 
ATOM     27  C   UNL     1      15.033 -23.880 -39.674  1.00  0.00     0.120 C 
ATOM     28  C   UNL     1      13.547 -25.145 -41.345  1.00  0.00     0.014 C 
ATOM     29  C   UNL     1      13.740 -25.945 -39.014  1.00  0.00     0.014 C 
ENDROOT
BRANCH   1  30
ATOM     30  C   UNL     1       8.179 -18.014 -40.244  1.00  0.00     0.048 C 
ATOM     31  O   UNL     1       9.009 -17.297 -40.867  1.00  0.00    -0.550 OA
ATOM     32  O   UNL     1       7.281 -18.768 -40.984  1.00  0.00    -0.550 OA
ENDBRANCH   1  30
BRANCH  27  33
ATOM     33  O   UNL     1      16.112 -24.631 -40.177  1.00  0.00    -0.393 OA
ATOM     34  H   UNL     1      16.085 -25.522 -39.738  1.00  0.00     0.210 HD
ENDBRANCH  27  33
TORSDOF 2
ENDMDL
MODEL 8
REMARK VINA RESULT:    -6.431      7.619     10.255
REMARK INTER + INTRA:          -6.742
REMARK INTER:                  -7.019
REMARK INTRA:                   0.277
REMARK UNBOUND:                 0.253
REMARK SMILES C[C@H]1[C@H](C)CC[C@@]2(C(=O)[O-])CC[C@@]3(C)C(=CC[C@@H]4[C@@]5(C)CC[C@H](O)C(C)(C)[C@H]5CC[C@@]43C)[C@H]12
REMARK SMILES IDX 7 1 6 2 11 3 33 4 5 5 12 6 15 7 2 8 3 9 13 10 16 11 1 12
REMARK SMILES IDX 4 13 14 14 31 15 17 16 18 17 30 18 32 19 19 20 29 21 28 22
REMARK SMILES IDX 21 23 20 24 25 25 22 26 23 27 26 28 27 29 8 30 9 31 10 32
REMARK SMILES IDX 24 33
REMARK H PARENT 24 34
REMARK Flexibility Score: inf
ROOT
ATOM      1  C   UNL     1      10.474 -13.171 -45.410  1.00  0.00     0.017 C 
ATOM      2  C   UNL     1       9.739 -11.947 -46.016  1.00  0.00     0.014 C 
ATOM      3  C   UNL     1      10.498 -14.384 -46.411  1.00  0.00     0.014 C 
ATOM      4  C   UNL     1      11.938 -12.696 -45.119  1.00  0.00     0.030 C 
ATOM      5  C   UNL     1       9.743 -10.758 -45.033  1.00  0.00     0.004 C 
ATOM      6  C   UNL     1      11.821 -14.542 -47.193  1.00  0.00     0.013 C 
ATOM      7  C   UNL     1      12.832 -13.925 -44.981  1.00  0.00    -0.063 C 
ATOM      8  C   UNL     1      12.021 -11.544 -44.078  1.00  0.00    -0.003 C 
ATOM      9  C   UNL     1      11.168 -10.335 -44.597  1.00  0.00    -0.011 C 
ATOM     10  C   UNL     1      13.140 -14.676 -46.289  1.00  0.00    -0.006 C 
ATOM     11  C   UNL     1      12.957 -14.488 -43.778  1.00  0.00    -0.027 C 
ATOM     12  C   UNL     1      13.489 -11.121 -43.861  1.00  0.00     0.008 C 
ATOM     13  C   UNL     1      11.063  -9.212 -43.550  1.00  0.00     0.008 C 
ATOM     14  C   UNL     1      14.256 -13.848 -47.006  1.00  0.00     0.017 C 
ATOM     15  C   UNL     1      13.672 -16.208 -46.065  1.00  0.00    -0.020 C 
ATOM     16  C   UNL     1      13.187 -15.937 -43.561  1.00  0.00     0.032 C 
ATOM     17  C   UNL     1      12.976 -16.870 -44.806  1.00  0.00     0.006 C 
ATOM     18  C   UNL     1      15.205 -16.281 -45.772  1.00  0.00     0.008 C 
ATOM     19  C   UNL     1      13.429 -16.984 -47.400  1.00  0.00     0.012 C 
ATOM     20  C   UNL     1      13.429 -18.367 -44.412  1.00  0.00    -0.025 C 
ATOM     21  C   UNL     1      15.732 -17.693 -45.432  1.00  0.00     0.005 C 
ATOM     22  C   UNL     1      15.010 -18.449 -44.275  1.00  0.00     0.003 C 
ATOM     23  C   UNL     1      12.911 -19.443 -45.423  1.00  0.00     0.010 C 
ATOM     24  C   UNL     1      12.727 -18.706 -43.050  1.00  0.00     0.012 C 
ATOM     25  C   UNL     1      15.591 -19.927 -44.083  1.00  0.00    -0.006 C 
ATOM     26  C   UNL     1      13.442 -20.863 -45.170  1.00  0.00     0.033 C 
ATOM     27  C   UNL     1      14.975 -20.903 -45.136  1.00  0.00     0.120 C 
ATOM     28  C   UNL     1      15.348 -20.448 -42.635  1.00  0.00     0.014 C 
ATOM     29  C   UNL     1      17.139 -19.941 -44.262  1.00  0.00     0.014 C 
ENDROOT
BRANCH   1  30
ATOM     30  C   UNL     1       9.683 -13.638 -44.184  1.00  0.00     0.048 C 
ATOM     31  O   UNL     1       8.632 -14.316 -44.346  1.00  0.00    -0.550 OA
ATOM     32  O   UNL     1      10.128 -13.423 -42.888  1.00  0.00    -0.550 OA
ENDBRANCH   1  30
BRANCH  27  33
ATOM     33  O   UNL     1      15.379 -22.227 -44.880  1.00  0.00    -0.393 OA
ATOM     34  H   UNL     1      16.371 -22.231 -44.832  1.00  0.00     0.210 HD
ENDBRANCH  27  33
TORSDOF 2
ENDMDL
MODEL 9
REMARK VINA RESULT:    -6.390      2.374      3.895
REMARK INTER + INTRA:          -6.697
REMARK INTER:                  -6.953
REMARK INTRA:                   0.256
REMARK UNBOUND:                 0.253
REMARK SMILES C[C@H]1[C@H](C)CC[C@@]2(C(=O)[O-])CC[C@@]3(C)C(=CC[C@@H]4[C@@]5(C)CC[C@H](O)C(C)(C)[C@H]5CC[C@@]43C)[C@H]12
REMARK SMILES IDX 7 1 6 2 11 3 33 4 5 5 12 6 15 7 2 8 3 9 13 10 16 11 1 12
REMARK SMILES IDX 4 13 14 14 31 15 17 16 18 17 30 18 32 19 19 20 29 21 28 22
REMARK SMILES IDX 21 23 20 24 25 25 22 26 23 27 26 28 27 29 8 30 9 31 10 32
REMARK SMILES IDX 24 33
REMARK H PARENT 24 34
REMARK Flexibility Score: inf
ROOT
ATOM      1  C   UNL     1       4.754 -17.215 -40.116  1.00  0.00     0.017 C 
ATOM      2  C   UNL     1       4.179 -15.826 -40.496  1.00  0.00     0.014 C 
ATOM      3  C   UNL     1       6.326 -17.212 -40.128  1.00  0.00     0.014 C 
ATOM      4  C   UNL     1       4.235 -17.515 -38.669  1.00  0.00     0.030 C 
ATOM      5  C   UNL     1       2.636 -15.837 -40.459  1.00  0.00     0.004 C 
ATOM      6  C   UNL     1       6.975 -17.059 -38.735  1.00  0.00     0.013 C 
ATOM      7  C   UNL     1       5.116 -18.598 -38.050  1.00  0.00    -0.063 C 
ATOM      8  C   UNL     1       2.686 -17.613 -38.572  1.00  0.00    -0.003 C 
ATOM      9  C   UNL     1       2.065 -16.268 -39.085  1.00  0.00    -0.011 C 
ATOM     10  C   UNL     1       6.534 -18.155 -37.649  1.00  0.00    -0.006 C 
ATOM     11  C   UNL     1       4.787 -19.875 -38.250  1.00  0.00    -0.027 C 
ATOM     12  C   UNL     1       2.256 -17.891 -37.117  1.00  0.00     0.008 C 
ATOM     13  C   UNL     1       0.530 -16.340 -39.177  1.00  0.00     0.008 C 
ATOM     14  C   UNL     1       6.377 -17.396 -36.291  1.00  0.00     0.017 C 
ATOM     15  C   UNL     1       7.585 -19.394 -37.450  1.00  0.00    -0.020 C 
ATOM     16  C   UNL     1       5.771 -20.982 -38.327  1.00  0.00     0.032 C 
ATOM     17  C   UNL     1       7.279 -20.565 -38.471  1.00  0.00     0.006 C 
ATOM     18  C   UNL     1       7.489 -20.050 -36.035  1.00  0.00     0.008 C 
ATOM     19  C   UNL     1       9.027 -18.806 -37.580  1.00  0.00     0.012 C 
ATOM     20  C   UNL     1       8.193 -21.891 -38.374  1.00  0.00    -0.025 C 
ATOM     21  C   UNL     1       8.374 -21.301 -35.840  1.00  0.00     0.005 C 
ATOM     22  C   UNL     1       8.205 -22.447 -36.886  1.00  0.00     0.003 C 
ATOM     23  C   UNL     1       9.654 -21.657 -38.883  1.00  0.00     0.010 C 
ATOM     24  C   UNL     1       7.571 -22.939 -39.363  1.00  0.00     0.012 C 
ATOM     25  C   UNL     1       9.235 -23.641 -36.624  1.00  0.00    -0.006 C 
ATOM     26  C   UNL     1      10.600 -22.850 -38.671  1.00  0.00     0.033 C 
ATOM     27  C   UNL     1      10.644 -23.291 -37.202  1.00  0.00     0.120 C 
ATOM     28  C   UNL     1       8.711 -24.983 -37.217  1.00  0.00     0.014 C 
ATOM     29  C   UNL     1       9.395 -23.910 -35.098  1.00  0.00     0.014 C 
ENDROOT
BRANCH   1  30
ATOM     30  C   UNL     1       4.315 -18.217 -41.189  1.00  0.00     0.048 C 
ATOM     31  O   UNL     1       4.985 -18.319 -42.253  1.00  0.00    -0.550 OA
ATOM     32  O   UNL     1       3.255 -19.091 -40.998  1.00  0.00    -0.550 OA
ENDBRANCH   1  30
BRANCH  27  33
ATOM     33  O   UNL     1      11.511 -24.395 -37.096  1.00  0.00    -0.393 OA
ATOM     34  H   UNL     1      11.758 -24.489 -36.138  1.00  0.00     0.210 HD
ENDBRANCH  27  33
TORSDOF 2
ENDMDL
