MODEL 1
REMARK VINA RESULT:    -4.358      0.000      0.000
REMARK INTER + INTRA:          -4.666
REMARK INTER:                  -5.378
REMARK INTRA:                   0.712
REMARK UNBOUND:                 0.712
REMARK SMILES C=C1CC[C@H]2[C@H]1[C@H]1[C@@H](CC[C@@H]2C)C1(C)C
REMARK SMILES IDX 6 1 5 2 4 3 3 4 2 5 1 6 11 7 12 8 10 9 7 11 8 12 13 13 14 14
REMARK SMILES IDX 15 15 9 16
REMARK H PARENT
REMARK Flexibility Score: 80.00
ROOT
ATOM      1  C   UNL     1     164.070 163.164 200.705  1.00  0.00     0.022 C 
ATOM      2  C   UNL     1     163.602 163.974 199.480  1.00  0.00    -0.000 C 
ATOM      3  C   UNL     1     162.495 164.891 200.024  1.00  0.00     0.009 C 
ATOM      4  C   UNL     1     162.896 165.214 201.459  1.00  0.00     0.031 C 
ATOM      5  C   UNL     1     163.780 164.081 201.854  1.00  0.00    -0.074 C 
ATOM      6  C   UNL     1     164.165 163.872 203.120  1.00  0.00     0.008 C 
ENDROOT
BRANCH   2   7
ATOM      7  C   UNL     1     163.144 163.081 198.299  1.00  0.00    -0.011 C 
ATOM      8  C   UNL     1     162.776 163.938 197.074  1.00  0.00     0.008 C 
BRANCH   7   9
ATOM      9  C   UNL     1     164.215 162.028 197.921  1.00  0.00     0.004 CG0
ATOM     10  G   UNL     1     165.659 162.543 198.069  1.00  0.00     0.000 G0
ENDBRANCH   7   9
ENDBRANCH   2   7
BRANCH   1  11
ATOM     11  C   UNL     1     165.508 162.552 200.748  1.00  0.00     0.006 C 
ATOM     12  C   UNL     1     166.269 162.206 199.454  1.00  0.00    -0.001 C 
ATOM     13  C   UNL     1     166.811 163.304 200.405  1.00  0.00    -0.029 C 
ATOM     14  C   UNL     1     168.009 162.871 201.264  1.00  0.00     0.012 C 
ATOM     15  C   UNL     1     166.741 164.814 200.098  1.00  0.00     0.012 C 
BRANCH  12  16
ATOM     16  C   UNL     1     165.664 162.536 198.070  1.00  0.00     0.005 CG0
ATOM     17  G   UNL     1     164.219 162.023 197.927  1.00  0.00     0.000 G0
ENDBRANCH  12  16
ENDBRANCH   1  11
TORSDOF 0
ENDMDL
MODEL 2
REMARK VINA RESULT:    -4.325      4.809      6.914
REMARK INTER + INTRA:          -4.624
REMARK INTER:                  -5.360
REMARK INTRA:                   0.736
REMARK UNBOUND:                 0.712
REMARK SMILES C=C1CC[C@H]2[C@H]1[C@H]1[C@@H](CC[C@@H]2C)C1(C)C
REMARK SMILES IDX 6 1 5 2 4 3 3 4 2 5 1 6 11 7 12 8 10 9 7 11 8 12 13 13 14 14
REMARK SMILES IDX 15 15 9 16
REMARK H PARENT
REMARK Flexibility Score: 80.00
ROOT
ATOM      1  C   UNL     1     167.821 168.954 200.590  1.00  0.00     0.022 C 
ATOM      2  C   UNL     1     168.433 168.056 199.496  1.00  0.00    -0.000 C 
ATOM      3  C   UNL     1     169.558 167.291 200.210  1.00  0.00     0.009 C 
ATOM      4  C   UNL     1     169.077 167.093 201.644  1.00  0.00     0.031 C 
ATOM      5  C   UNL     1     168.090 168.191 201.850  1.00  0.00    -0.074 C 
ATOM      6  C   UNL     1     167.599 168.504 203.057  1.00  0.00     0.008 C 
ENDROOT
BRANCH   2   7
ATOM      7  C   UNL     1     168.912 168.850 198.254  1.00  0.00    -0.011 C 
ATOM      8  C   UNL     1     169.401 167.897 197.149  1.00  0.00     0.008 C 
BRANCH   7   9
ATOM      9  C   UNL     1     167.811 169.793 197.709  1.00  0.00     0.004 CG0
ATOM     10  G   UNL     1     166.396 169.190 197.788  1.00  0.00     0.000 G0
ENDBRANCH   7   9
ENDBRANCH   2   7
BRANCH   1  11
ATOM     11  C   UNL     1     166.345 169.455 200.470  1.00  0.00     0.006 C 
ATOM     12  C   UNL     1     165.662 169.609 199.098  1.00  0.00    -0.001 C 
ATOM     13  C   UNL     1     165.127 168.574 200.120  1.00  0.00    -0.029 C 
ATOM     14  C   UNL     1     163.841 168.996 200.846  1.00  0.00     0.012 C 
ATOM     15  C   UNL     1     165.326 167.051 199.980  1.00  0.00     0.012 C 
BRANCH  12  16
ATOM     16  C   UNL     1     166.391 169.191 197.801  1.00  0.00     0.005 CG0
ATOM     17  G   UNL     1     167.803 169.798 197.703  1.00  0.00     0.000 G0
ENDBRANCH  12  16
ENDBRANCH   1  11
TORSDOF 0
ENDMDL
MODEL 3
REMARK VINA RESULT:    -4.261      1.410      2.183
REMARK INTER + INTRA:          -4.546
REMARK INTER:                  -5.243
REMARK INTRA:                   0.697
REMARK UNBOUND:                 0.712
REMARK SMILES C=C1CC[C@H]2[C@H]1[C@H]1[C@@H](CC[C@@H]2C)C1(C)C
REMARK SMILES IDX 6 1 5 2 4 3 3 4 2 5 1 6 11 7 12 8 10 9 7 11 8 12 13 13 14 14
REMARK SMILES IDX 15 15 9 16
REMARK H PARENT
REMARK Flexibility Score: 80.00
ROOT
ATOM      1  C   UNL     1     166.193 162.315 200.116  1.00  0.00     0.022 C 
ATOM      2  C   UNL     1     164.923 163.101 199.733  1.00  0.00    -0.000 C 
ATOM      3  C   UNL     1     164.105 163.168 201.032  1.00  0.00     0.009 C 
ATOM      4  C   UNL     1     165.128 163.227 202.161  1.00  0.00     0.031 C 
ATOM      5  C   UNL     1     166.351 162.609 201.576  1.00  0.00    -0.074 C 
ATOM      6  C   UNL     1     167.414 162.269 202.318  1.00  0.00     0.008 C 
ENDROOT
BRANCH   2   7
ATOM      7  C   UNL     1     164.153 162.472 198.544  1.00  0.00    -0.011 C 
ATOM      8  C   UNL     1     162.937 163.334 198.161  1.00  0.00     0.008 C 
BRANCH   7   9
ATOM      9  C   UNL     1     165.068 162.249 197.315  1.00  0.00     0.004 CG0
ATOM     10  G   UNL     1     166.148 163.335 197.151  1.00  0.00     0.000 G0
ENDBRANCH   7   9
ENDBRANCH   2   7
BRANCH   1  11
ATOM     11  C   UNL     1     167.514 162.497 199.299  1.00  0.00     0.006 C 
ATOM     12  C   UNL     1     167.488 162.957 197.830  1.00  0.00    -0.001 C 
ATOM     13  C   UNL     1     168.147 163.850 198.912  1.00  0.00    -0.029 C 
ATOM     14  C   UNL     1     169.683 163.827 198.913  1.00  0.00     0.012 C 
ATOM     15  C   UNL     1     167.514 165.149 199.451  1.00  0.00     0.012 C 
BRANCH  12  16
ATOM     16  C   UNL     1     166.156 163.335 197.143  1.00  0.00     0.005 CG0
ATOM     17  G   UNL     1     165.078 162.249 197.320  1.00  0.00     0.000 G0
ENDBRANCH  12  16
ENDBRANCH   1  11
TORSDOF 0
ENDMDL
MODEL 4
REMARK VINA RESULT:    -4.249      2.320      3.963
REMARK INTER + INTRA:          -4.531
REMARK INTER:                  -5.204
REMARK INTRA:                   0.673
REMARK UNBOUND:                 0.712
REMARK SMILES C=C1CC[C@H]2[C@H]1[C@H]1[C@@H](CC[C@@H]2C)C1(C)C
REMARK SMILES IDX 6 1 5 2 4 3 3 4 2 5 1 6 11 7 12 8 10 9 7 11 8 12 13 13 14 14
REMARK SMILES IDX 15 15 9 16
REMARK H PARENT
REMARK Flexibility Score: 80.00
ROOT
ATOM      1  C   UNL     1     167.575 162.813 198.367  1.00  0.00     0.022 C 
ATOM      2  C   UNL     1     166.154 162.759 198.964  1.00  0.00    -0.000 C 
ATOM      3  C   UNL     1     166.361 162.272 200.407  1.00  0.00     0.009 C 
ATOM      4  C   UNL     1     167.709 162.836 200.843  1.00  0.00     0.031 C 
ATOM      5  C   UNL     1     168.441 163.059 199.564  1.00  0.00    -0.074 C 
ATOM      6  C   UNL     1     169.750 163.341 199.520  1.00  0.00     0.008 C 
ENDROOT
BRANCH   2   7
ATOM      7  C   UNL     1     165.182 161.874 198.142  1.00  0.00    -0.011 C 
ATOM      8  C   UNL     1     163.776 161.877 198.768  1.00  0.00     0.008 C 
BRANCH   7   9
ATOM      9  C   UNL     1     165.116 162.310 196.658  1.00  0.00     0.004 CG0
ATOM     10  G   UNL     1     165.304 163.826 196.457  1.00  0.00     0.000 G0
ENDBRANCH   7   9
ENDBRANCH   2   7
BRANCH   1  11
ATOM     11  C   UNL     1     167.893 163.761 197.165  1.00  0.00     0.006 C 
ATOM     12  C   UNL     1     166.787 164.228 196.200  1.00  0.00    -0.001 C 
ATOM     13  C   UNL     1     167.530 165.259 197.087  1.00  0.00    -0.029 C 
ATOM     14  C   UNL     1     168.579 166.103 196.346  1.00  0.00     0.012 C 
ATOM     15  C   UNL     1     166.901 165.938 198.320  1.00  0.00     0.012 C 
BRANCH  12  16
ATOM     16  C   UNL     1     165.311 163.839 196.443  1.00  0.00     0.005 CG0
ATOM     17  G   UNL     1     165.132 162.323 196.647  1.00  0.00     0.000 G0
ENDBRANCH  12  16
ENDBRANCH   1  11
TORSDOF 0
ENDMDL
MODEL 5
REMARK VINA RESULT:    -4.202      4.818      6.721
REMARK INTER + INTRA:          -4.473
REMARK INTER:                  -5.195
REMARK INTRA:                   0.723
REMARK UNBOUND:                 0.712
REMARK SMILES C=C1CC[C@H]2[C@H]1[C@H]1[C@@H](CC[C@@H]2C)C1(C)C
REMARK SMILES IDX 6 1 5 2 4 3 3 4 2 5 1 6 11 7 12 8 10 9 7 11 8 12 13 13 14 14
REMARK SMILES IDX 15 15 9 16
REMARK H PARENT
REMARK Flexibility Score: 80.00
ROOT
ATOM      1  C   UNL     1     165.803 169.643 200.858  1.00  0.00     0.022 C 
ATOM      2  C   UNL     1     167.026 168.781 200.487  1.00  0.00    -0.000 C 
ATOM      3  C   UNL     1     167.819 168.652 201.797  1.00  0.00     0.009 C 
ATOM      4  C   UNL     1     166.778 168.649 202.911  1.00  0.00     0.031 C 
ATOM      5  C   UNL     1     165.605 169.349 202.313  1.00  0.00    -0.074 C 
ATOM      6  C   UNL     1     164.555 169.750 203.042  1.00  0.00     0.008 C 
ENDROOT
BRANCH   2   7
ATOM      7  C   UNL     1     167.852 169.369 199.315  1.00  0.00    -0.011 C 
ATOM      8  C   UNL     1     168.990 168.414 198.912  1.00  0.00     0.008 C 
BRANCH   7   9
ATOM      9  C   UNL     1     166.965 169.701 198.090  1.00  0.00     0.004 CG0
ATOM     10  G   UNL     1     165.831 168.683 197.863  1.00  0.00     0.000 G0
ENDBRANCH   7   9
ENDBRANCH   2   7
BRANCH   1  11
ATOM     11  C   UNL     1     164.486 169.551 200.021  1.00  0.00     0.006 C 
ATOM     12  C   UNL     1     164.507 169.129 198.540  1.00  0.00    -0.001 C 
ATOM     13  C   UNL     1     163.788 168.244 199.590  1.00  0.00    -0.029 C 
ATOM     14  C   UNL     1     162.256 168.347 199.573  1.00  0.00     0.012 C 
ATOM     15  C   UNL     1     164.345 166.900 200.102  1.00  0.00     0.012 C 
BRANCH  12  16
ATOM     16  C   UNL     1     165.827 168.700 197.860  1.00  0.00     0.005 CG0
ATOM     17  G   UNL     1     166.966 169.707 198.107  1.00  0.00     0.000 G0
ENDBRANCH  12  16
ENDBRANCH   1  11
TORSDOF 0
ENDMDL
MODEL 6
REMARK VINA RESULT:    -4.186      4.726      6.420
REMARK INTER + INTRA:          -4.453
REMARK INTER:                  -5.135
REMARK INTRA:                   0.682
REMARK UNBOUND:                 0.712
REMARK SMILES C=C1CC[C@H]2[C@H]1[C@H]1[C@@H](CC[C@@H]2C)C1(C)C
REMARK SMILES IDX 6 1 5 2 4 3 3 4 2 5 1 6 11 7 12 8 10 9 7 11 8 12 13 13 14 14
REMARK SMILES IDX 15 15 9 16
REMARK H PARENT
REMARK Flexibility Score: 80.00
ROOT
ATOM      1  C   UNL     1     164.441 169.126 198.550  1.00  0.00     0.022 C 
ATOM      2  C   UNL     1     165.848 169.032 199.173  1.00  0.00    -0.000 C 
ATOM      3  C   UNL     1     165.641 169.401 200.651  1.00  0.00     0.009 C 
ATOM      4  C   UNL     1     164.250 168.891 201.012  1.00  0.00     0.031 C 
ATOM      5  C   UNL     1     163.534 168.833 199.706  1.00  0.00    -0.074 C 
ATOM      6  C   UNL     1     162.211 168.644 199.615  1.00  0.00     0.008 C 
ENDROOT
BRANCH   2   7
ATOM      7  C   UNL     1     166.894 169.920 198.451  1.00  0.00    -0.011 C 
ATOM      8  C   UNL     1     168.285 169.760 199.091  1.00  0.00     0.008 C 
BRANCH   7   9
ATOM      9  C   UNL     1     166.958 169.621 196.933  1.00  0.00     0.004 CG0
ATOM     10  G   UNL     1     166.687 168.145 196.588  1.00  0.00     0.000 G0
ENDBRANCH   7   9
ENDBRANCH   2   7
BRANCH   1  11
ATOM     11  C   UNL     1     164.089 168.313 197.262  1.00  0.00     0.006 C 
ATOM     12  C   UNL     1     165.182 167.867 196.274  1.00  0.00    -0.001 C 
ATOM     13  C   UNL     1     164.360 166.808 197.052  1.00  0.00    -0.029 C 
ATOM     14  C   UNL     1     163.277 166.103 196.223  1.00  0.00     0.012 C 
ATOM     15  C   UNL     1     164.922 165.982 198.227  1.00  0.00     0.012 C 
BRANCH  12  16
ATOM     16  C   UNL     1     166.675 168.139 196.572  1.00  0.00     0.005 CG0
ATOM     17  G   UNL     1     166.939 169.612 196.933  1.00  0.00     0.000 G0
ENDBRANCH  12  16
ENDBRANCH   1  11
TORSDOF 0
ENDMDL
MODEL 7
REMARK VINA RESULT:    -4.173      2.118      4.523
REMARK INTER + INTRA:          -4.437
REMARK INTER:                  -5.145
REMARK INTRA:                   0.708
REMARK UNBOUND:                 0.712
REMARK SMILES C=C1CC[C@H]2[C@H]1[C@H]1[C@@H](CC[C@@H]2C)C1(C)C
REMARK SMILES IDX 6 1 5 2 4 3 3 4 2 5 1 6 11 7 12 8 10 9 7 11 8 12 13 13 14 14
REMARK SMILES IDX 15 15 9 16
REMARK H PARENT
REMARK Flexibility Score: 80.00
ROOT
ATOM      1  C   UNL     1     165.546 162.424 199.914  1.00  0.00     0.022 C 
ATOM      2  C   UNL     1     166.883 163.078 199.511  1.00  0.00    -0.000 C 
ATOM      3  C   UNL     1     167.041 162.744 198.019  1.00  0.00     0.009 C 
ATOM      4  C   UNL     1     165.626 162.710 197.451  1.00  0.00     0.031 C 
ATOM      5  C   UNL     1     164.767 162.419 198.634  1.00  0.00    -0.074 C 
ATOM      6  C   UNL     1     163.473 162.088 198.523  1.00  0.00     0.008 C 
ENDROOT
BRANCH   2   7
ATOM      7  C   UNL     1     168.076 162.611 200.382  1.00  0.00    -0.011 C 
ATOM      8  C   UNL     1     169.365 163.353 199.990  1.00  0.00     0.008 C 
BRANCH   7   9
ATOM      9  C   UNL     1     167.790 162.784 201.895  1.00  0.00     0.004 CG0
ATOM     10  G   UNL     1     166.952 164.034 202.220  1.00  0.00     0.000 G0
ENDBRANCH   7   9
ENDBRANCH   2   7
BRANCH   1  11
ATOM     11  C   UNL     1     164.733 162.969 201.133  1.00  0.00     0.006 C 
ATOM     12  C   UNL     1     165.427 163.718 202.286  1.00  0.00    -0.001 C 
ATOM     13  C   UNL     1     164.396 164.453 201.392  1.00  0.00    -0.029 C 
ATOM     14  C   UNL     1     163.019 164.660 202.041  1.00  0.00     0.012 C 
ATOM     15  C   UNL     1     164.779 165.500 200.327  1.00  0.00     0.012 C 
BRANCH  12  16
ATOM     16  C   UNL     1     166.941 164.027 202.229  1.00  0.00     0.005 CG0
ATOM     17  G   UNL     1     167.781 162.777 201.909  1.00  0.00     0.000 G0
ENDBRANCH  12  16
ENDBRANCH   1  11
TORSDOF 0
ENDMDL
MODEL 8
REMARK VINA RESULT:    -4.106      4.639      6.271
REMARK INTER + INTRA:          -4.354
REMARK INTER:                  -5.062
REMARK INTRA:                   0.708
REMARK UNBOUND:                 0.712
REMARK SMILES C=C1CC[C@H]2[C@H]1[C@H]1[C@@H](CC[C@@H]2C)C1(C)C
REMARK SMILES IDX 6 1 5 2 4 3 3 4 2 5 1 6 11 7 12 8 10 9 7 11 8 12 13 13 14 14
REMARK SMILES IDX 15 15 9 16
REMARK H PARENT
REMARK Flexibility Score: 80.00
ROOT
ATOM      1  C   UNL     1     166.023 169.491 199.849  1.00  0.00     0.022 C 
ATOM      2  C   UNL     1     164.781 168.693 199.405  1.00  0.00    -0.000 C 
ATOM      3  C   UNL     1     164.609 169.043 197.918  1.00  0.00     0.009 C 
ATOM      4  C   UNL     1     166.019 169.259 197.380  1.00  0.00     0.031 C 
ATOM      5  C   UNL     1     166.817 169.621 198.585  1.00  0.00    -0.074 C 
ATOM      6  C   UNL     1     168.064 170.106 198.508  1.00  0.00     0.008 C 
ENDROOT
BRANCH   2   7
ATOM      7  C   UNL     1     163.526 168.994 200.263  1.00  0.00    -0.011 C 
ATOM      8  C   UNL     1     162.342 168.110 199.831  1.00  0.00     0.008 C 
BRANCH   7   9
ATOM      9  C   UNL     1     163.805 168.822 201.777  1.00  0.00     0.004 CG0
ATOM     10  G   UNL     1     164.783 167.675 202.092  1.00  0.00     0.000 G0
ENDBRANCH   7   9
ENDBRANCH   2   7
BRANCH   1  11
ATOM     11  C   UNL     1     166.874 169.017 201.071  1.00  0.00     0.006 C 
ATOM     12  C   UNL     1     166.254 168.166 202.195  1.00  0.00    -0.001 C 
ATOM     13  C   UNL     1     167.379 167.577 201.306  1.00  0.00    -0.029 C 
ATOM     14  C   UNL     1     168.759 167.516 201.976  1.00  0.00     0.012 C 
ATOM     15  C   UNL     1     167.138 166.517 200.212  1.00  0.00     0.012 C 
BRANCH  12  16
ATOM     16  C   UNL     1     164.788 167.683 202.104  1.00  0.00     0.005 CG0
ATOM     17  G   UNL     1     163.816 168.830 201.773  1.00  0.00     0.000 G0
ENDBRANCH  12  16
ENDBRANCH   1  11
TORSDOF 0
ENDMDL
MODEL 9
REMARK VINA RESULT:    -4.101      4.371      6.753
REMARK INTER + INTRA:          -4.348
REMARK INTER:                  -5.057
REMARK INTRA:                   0.709
REMARK UNBOUND:                 0.712
REMARK SMILES C=C1CC[C@H]2[C@H]1[C@H]1[C@@H](CC[C@@H]2C)C1(C)C
REMARK SMILES IDX 6 1 5 2 4 3 3 4 2 5 1 6 11 7 12 8 10 9 7 11 8 12 13 13 14 14
REMARK SMILES IDX 15 15 9 16
REMARK H PARENT
REMARK Flexibility Score: 80.00
ROOT
ATOM      1  C   UNL     1     166.378 168.175 198.598  1.00  0.00     0.022 C 
ATOM      2  C   UNL     1     167.314 168.561 199.760  1.00  0.00    -0.000 C 
ATOM      3  C   UNL     1     168.443 169.364 199.096  1.00  0.00     0.009 C 
ATOM      4  C   UNL     1     167.795 170.095 197.925  1.00  0.00     0.031 C 
ATOM      5  C   UNL     1     166.594 169.274 197.604  1.00  0.00    -0.074 C 
ATOM      6  C   UNL     1     165.872 169.455 196.490  1.00  0.00     0.008 C 
ENDROOT
BRANCH   2   7
ATOM      7  C   UNL     1     167.814 167.338 200.571  1.00  0.00    -0.011 C 
ATOM      8  C   UNL     1     168.670 167.788 201.769  1.00  0.00     0.008 C 
BRANCH   7   9
ATOM      9  C   UNL     1     166.645 166.442 201.047  1.00  0.00     0.004 CG0
ATOM     10  G   UNL     1     165.381 167.236 201.428  1.00  0.00     0.000 G0
ENDBRANCH   7   9
ENDBRANCH   2   7
BRANCH   1  11
ATOM     11  C   UNL     1     164.869 167.866 198.864  1.00  0.00     0.006 C 
ATOM     12  C   UNL     1     164.386 167.362 200.237  1.00  0.00    -0.001 C 
ATOM     13  C   UNL     1     163.912 168.738 199.704  1.00  0.00    -0.029 C 
ATOM     14  C   UNL     1     162.473 168.754 199.167  1.00  0.00     0.012 C 
ATOM     15  C   UNL     1     164.420 170.088 200.248  1.00  0.00     0.012 C 
BRANCH  12  16
ATOM     16  C   UNL     1     165.372 167.228 201.421  1.00  0.00     0.005 CG0
ATOM     17  G   UNL     1     166.640 166.443 201.039  1.00  0.00     0.000 G0
ENDBRANCH  12  16
ENDBRANCH   1  11
TORSDOF 0
ENDMDL
