MODEL 1
REMARK VINA RESULT:    -4.009      0.000      0.000
REMARK INTER + INTRA:          -7.693
REMARK INTER:                  -7.056
REMARK INTRA:                  -0.637
REMARK UNBOUND:                -0.637
REMARK SMILES CCCCCCCCCCCCCCC(=O)[O-]
REMARK SMILES IDX 9 1 10 2 11 3 12 4 13 5 14 6 15 7 16 8 17 9 8 10 7 11 6 12
REMARK SMILES IDX 5 13 4 14 3 15 2 16 1 17
REMARK H PARENT
REMARK Flexibility Score: inf
ROOT
ATOM      1  C   UNL     1       8.663   6.561   9.360  1.00  0.00     0.000 C 
ENDROOT
BRANCH   1   2
ATOM      2  C   UNL     1       9.453   5.242   9.400  1.00  0.00     0.000 C 
BRANCH   2   3
ATOM      3  C   UNL     1       8.595   4.053   9.866  1.00  0.00     0.000 C 
BRANCH   3   4
ATOM      4  C   UNL     1       7.100   4.252   9.566  1.00  0.00     0.000 C 
BRANCH   4   5
ATOM      5  C   UNL     1       6.311   2.932   9.594  1.00  0.00     0.006 C 
BRANCH   5   6
ATOM      6  C   UNL     1       5.464   2.739   8.330  1.00  0.00     0.053 C 
BRANCH   6   7
ATOM      7  C   UNL     1       5.350   1.292   7.956  1.00  0.00     0.041 C 
ATOM      8  O   UNL     1       5.224   0.414   8.850  1.00  0.00    -0.550 OA
ATOM      9  O   UNL     1       5.349   0.918   6.618  1.00  0.00    -0.550 OA
ENDBRANCH   6   7
ENDBRANCH   5   6
ENDBRANCH   4   5
ENDBRANCH   3   4
ENDBRANCH   2   3
ENDBRANCH   1   2
BRANCH   1  10
ATOM     10  C   UNL     1       9.129   7.494   8.229  1.00  0.00     0.000 C 
BRANCH  10  11
ATOM     11  C   UNL     1       8.378   8.835   8.222  1.00  0.00    -0.000 C 
BRANCH  11  12
ATOM     12  C   UNL     1       7.881   9.246   9.616  1.00  0.00    -0.000 C 
BRANCH  12  13
ATOM     13  C   UNL     1       7.020  10.514   9.540  1.00  0.00    -0.000 C 
BRANCH  13  14
ATOM     14  C   UNL     1       6.731  10.898   8.081  1.00  0.00    -0.000 C 
BRANCH  14  15
ATOM     15  C   UNL     1       5.848  12.150   7.963  1.00  0.00    -0.000 C 
BRANCH  15  16
ATOM     16  C   UNL     1       4.370  11.810   7.725  1.00  0.00    -0.003 C 
ATOM     17  C   UNL     1       4.132  11.374   6.281  1.00  0.00     0.004 C 
ENDBRANCH  15  16
ENDBRANCH  14  15
ENDBRANCH  13  14
ENDBRANCH  12  13
ENDBRANCH  11  12
ENDBRANCH  10  11
ENDBRANCH   1  10
TORSDOF 13
ENDMDL
MODEL 2
REMARK VINA RESULT:    -3.820      4.317      6.897
REMARK INTER + INTRA:          -7.359
REMARK INTER:                  -6.542
REMARK INTRA:                  -0.817
REMARK UNBOUND:                -0.637
REMARK SMILES CCCCCCCCCCCCCCC(=O)[O-]
REMARK SMILES IDX 9 1 10 2 11 3 12 4 13 5 14 6 15 7 16 8 17 9 8 10 7 11 6 12
REMARK SMILES IDX 5 13 4 14 3 15 2 16 1 17
REMARK H PARENT
REMARK Flexibility Score: inf
ROOT
ATOM      1  C   UNL     1       4.119   2.144   7.911  1.00  0.00     0.000 C 
ENDROOT
BRANCH   1   2
ATOM      2  C   UNL     1       3.385   1.389   9.030  1.00  0.00     0.000 C 
BRANCH   2   3
ATOM      3  C   UNL     1       2.233   2.208   9.638  1.00  0.00     0.000 C 
BRANCH   3   4
ATOM      4  C   UNL     1       2.339   3.706   9.312  1.00  0.00     0.000 C 
BRANCH   4   5
ATOM      5  C   UNL     1       1.057   4.480   9.667  1.00  0.00     0.006 C 
BRANCH   5   6
ATOM      6  C   UNL     1      -0.200   3.614   9.516  1.00  0.00     0.053 C 
BRANCH   6   7
ATOM      7  C   UNL     1      -1.378   4.424   9.064  1.00  0.00     0.041 C 
ATOM      8  O   UNL     1      -2.403   3.853   8.609  1.00  0.00    -0.550 OA
ATOM      9  O   UNL     1      -1.354   5.808   9.180  1.00  0.00    -0.550 OA
ENDBRANCH   6   7
ENDBRANCH   5   6
ENDBRANCH   4   5
ENDBRANCH   3   4
ENDBRANCH   2   3
ENDBRANCH   1   2
BRANCH   1  10
ATOM     10  C   UNL     1       5.602   1.748   7.806  1.00  0.00     0.000 C 
BRANCH  10  11
ATOM     11  C   UNL     1       6.403   2.118   9.064  1.00  0.00    -0.000 C 
BRANCH  11  12
ATOM     12  C   UNL     1       6.331   3.615   9.398  1.00  0.00    -0.000 C 
BRANCH  12  13
ATOM     13  C   UNL     1       7.650   4.106  10.008  1.00  0.00    -0.000 C 
BRANCH  13  14
ATOM     14  C   UNL     1       8.317   5.157   9.107  1.00  0.00    -0.000 C 
BRANCH  14  15
ATOM     15  C   UNL     1       9.816   5.322   9.401  1.00  0.00    -0.000 C 
BRANCH  15  16
ATOM     16  C   UNL     1      10.369   6.670   8.916  1.00  0.00    -0.003 C 
ATOM     17  C   UNL     1       9.305   7.458   8.155  1.00  0.00     0.004 C 
ENDBRANCH  15  16
ENDBRANCH  14  15
ENDBRANCH  13  14
ENDBRANCH  12  13
ENDBRANCH  11  12
ENDBRANCH  10  11
ENDBRANCH   1  10
TORSDOF 13
ENDMDL
MODEL 3
REMARK VINA RESULT:    -3.662      4.551      7.847
REMARK INTER + INTRA:          -7.082
REMARK INTER:                  -6.056
REMARK INTRA:                  -1.026
REMARK UNBOUND:                -0.637
REMARK SMILES CCCCCCCCCCCCCCC(=O)[O-]
REMARK SMILES IDX 9 1 10 2 11 3 12 4 13 5 14 6 15 7 16 8 17 9 8 10 7 11 6 12
REMARK SMILES IDX 5 13 4 14 3 15 2 16 1 17
REMARK H PARENT
REMARK Flexibility Score: inf
ROOT
ATOM      1  C   UNL     1       4.545  11.662   7.278  1.00  0.00     0.000 C 
ENDROOT
BRANCH   1   2
ATOM      2  C   UNL     1       3.736  12.923   6.932  1.00  0.00     0.000 C 
BRANCH   2   3
ATOM      3  C   UNL     1       3.012  13.515   8.155  1.00  0.00     0.000 C 
BRANCH   3   4
ATOM      4  C   UNL     1       1.849  12.632   8.635  1.00  0.00     0.000 C 
BRANCH   4   5
ATOM      5  C   UNL     1       2.099  12.033  10.030  1.00  0.00     0.006 C 
BRANCH   5   6
ATOM      6  C   UNL     1       2.391  10.528   9.968  1.00  0.00     0.053 C 
BRANCH   6   7
ATOM      7  C   UNL     1       1.254   9.770   9.351  1.00  0.00     0.041 C 
ATOM      8  O   UNL     1       1.303   9.428   8.141  1.00  0.00    -0.550 OA
ATOM      9  O   UNL     1       0.157   9.412  10.125  1.00  0.00    -0.550 OA
ENDBRANCH   6   7
ENDBRANCH   5   6
ENDBRANCH   4   5
ENDBRANCH   3   4
ENDBRANCH   2   3
ENDBRANCH   1   2
BRANCH   1  10
ATOM     10  C   UNL     1       5.903  11.991   7.921  1.00  0.00     0.000 C 
BRANCH  10  11
ATOM     11  C   UNL     1       5.918  11.735   9.436  1.00  0.00    -0.000 C 
BRANCH  11  12
ATOM     12  C   UNL     1       6.735  10.494   9.823  1.00  0.00    -0.000 C 
BRANCH  12  13
ATOM     13  C   UNL     1       7.588  10.008   8.643  1.00  0.00    -0.000 C 
BRANCH  13  14
ATOM     14  C   UNL     1       8.745   9.121   9.128  1.00  0.00    -0.000 C 
BRANCH  14  15
ATOM     15  C   UNL     1       8.709   7.714   8.510  1.00  0.00    -0.000 C 
BRANCH  15  16
ATOM     16  C   UNL     1       9.805   7.503   7.457  1.00  0.00    -0.003 C 
ATOM     17  C   UNL     1      11.065   6.913   8.085  1.00  0.00     0.004 C 
ENDBRANCH  15  16
ENDBRANCH  14  15
ENDBRANCH  13  14
ENDBRANCH  12  13
ENDBRANCH  11  12
ENDBRANCH  10  11
ENDBRANCH   1  10
TORSDOF 13
ENDMDL
MODEL 4
REMARK VINA RESULT:    -3.602      4.555      6.514
REMARK INTER + INTRA:          -6.976
REMARK INTER:                  -6.218
REMARK INTRA:                  -0.758
REMARK UNBOUND:                -0.637
REMARK SMILES CCCCCCCCCCCCCCC(=O)[O-]
REMARK SMILES IDX 9 1 10 2 11 3 12 4 13 5 14 6 15 7 16 8 17 9 8 10 7 11 6 12
REMARK SMILES IDX 5 13 4 14 3 15 2 16 1 17
REMARK H PARENT
REMARK Flexibility Score: inf
ROOT
ATOM      1  C   UNL     1       4.956   3.345   8.535  1.00  0.00     0.000 C 
ENDROOT
BRANCH   1   2
ATOM      2  C   UNL     1       3.898   2.363   9.064  1.00  0.00     0.000 C 
BRANCH   2   3
ATOM      3  C   UNL     1       2.958   3.007  10.098  1.00  0.00     0.000 C 
BRANCH   3   4
ATOM      4  C   UNL     1       2.606   4.462   9.748  1.00  0.00     0.000 C 
BRANCH   4   5
ATOM      5  C   UNL     1       1.127   4.792  10.014  1.00  0.00     0.006 C 
BRANCH   5   6
ATOM      6  C   UNL     1       0.181   3.895   9.206  1.00  0.00     0.053 C 
BRANCH   6   7
ATOM      7  C   UNL     1      -1.177   4.513   9.059  1.00  0.00     0.041 C 
ATOM      8  O   UNL     1      -1.340   5.743   9.277  1.00  0.00    -0.550 OA
ATOM      9  O   UNL     1      -2.253   3.737   8.647  1.00  0.00    -0.550 OA
ENDBRANCH   6   7
ENDBRANCH   5   6
ENDBRANCH   4   5
ENDBRANCH   3   4
ENDBRANCH   2   3
ENDBRANCH   1   2
BRANCH   1  10
ATOM     10  C   UNL     1       6.381   2.969   8.973  1.00  0.00     0.000 C 
BRANCH  10  11
ATOM     11  C   UNL     1       6.898   3.847  10.123  1.00  0.00    -0.000 C 
BRANCH  11  12
ATOM     12  C   UNL     1       8.331   4.348   9.893  1.00  0.00    -0.000 C 
BRANCH  12  13
ATOM     13  C   UNL     1       8.364   5.876   9.756  1.00  0.00    -0.000 C 
BRANCH  13  14
ATOM     14  C   UNL     1       8.952   6.295   8.400  1.00  0.00    -0.000 C 
BRANCH  14  15
ATOM     15  C   UNL     1      10.075   7.335   8.539  1.00  0.00    -0.000 C 
BRANCH  15  16
ATOM     16  C   UNL     1      11.385   6.882   7.877  1.00  0.00    -0.003 C 
ATOM     17  C   UNL     1      12.060   5.782   8.692  1.00  0.00     0.004 C 
ENDBRANCH  15  16
ENDBRANCH  14  15
ENDBRANCH  13  14
ENDBRANCH  12  13
ENDBRANCH  11  12
ENDBRANCH  10  11
ENDBRANCH   1  10
TORSDOF 13
ENDMDL
MODEL 5
REMARK VINA RESULT:    -3.544      4.132      6.455
REMARK INTER + INTRA:          -6.875
REMARK INTER:                  -5.182
REMARK INTRA:                  -1.693
REMARK UNBOUND:                -0.637
REMARK SMILES CCCCCCCCCCCCCCC(=O)[O-]
REMARK SMILES IDX 9 1 10 2 11 3 12 4 13 5 14 6 15 7 16 8 17 9 8 10 7 11 6 12
REMARK SMILES IDX 5 13 4 14 3 15 2 16 1 17
REMARK H PARENT
REMARK Flexibility Score: inf
ROOT
ATOM      1  C   UNL     1       5.877  12.632   8.177  1.00  0.00     0.000 C 
ENDROOT
BRANCH   1   2
ATOM      2  C   UNL     1       5.810  12.441   9.701  1.00  0.00     0.000 C 
BRANCH   2   3
ATOM      3  C   UNL     1       6.050  10.981  10.125  1.00  0.00     0.000 C 
BRANCH   3   4
ATOM      4  C   UNL     1       7.516  10.551   9.949  1.00  0.00     0.000 C 
BRANCH   4   5
ATOM      5  C   UNL     1       7.702   9.545   8.801  1.00  0.00     0.006 C 
BRANCH   5   6
ATOM      6  C   UNL     1       9.091   8.892   8.825  1.00  0.00     0.053 C 
BRANCH   6   7
ATOM      7  C   UNL     1       9.195   7.777   7.828  1.00  0.00     0.041 C 
ATOM      8  O   UNL     1       8.965   6.590   8.179  1.00  0.00    -0.550 OA
ATOM      9  O   UNL     1       9.512   8.056   6.505  1.00  0.00    -0.550 OA
ENDBRANCH   6   7
ENDBRANCH   5   6
ENDBRANCH   4   5
ENDBRANCH   3   4
ENDBRANCH   2   3
ENDBRANCH   1   2
BRANCH   1  10
ATOM     10  C   UNL     1       5.058  11.578   7.413  1.00  0.00     0.000 C 
BRANCH  10  11
ATOM     11  C   UNL     1       3.890  12.193   6.625  1.00  0.00    -0.000 C 
BRANCH  11  12
ATOM     12  C   UNL     1       3.784  13.714   6.809  1.00  0.00    -0.000 C 
BRANCH  12  13
ATOM     13  C   UNL     1       2.405  14.107   7.352  1.00  0.00    -0.000 C 
BRANCH  13  14
ATOM     14  C   UNL     1       2.336  13.914   8.875  1.00  0.00    -0.000 C 
BRANCH  14  15
ATOM     15  C   UNL     1       1.344  12.815   9.287  1.00  0.00    -0.000 C 
BRANCH  15  16
ATOM     16  C   UNL     1       2.041  11.577   9.868  1.00  0.00    -0.003 C 
ATOM     17  C   UNL     1       1.768  10.342   9.014  1.00  0.00     0.004 C 
ENDBRANCH  15  16
ENDBRANCH  14  15
ENDBRANCH  13  14
ENDBRANCH  12  13
ENDBRANCH  11  12
ENDBRANCH  10  11
ENDBRANCH   1  10
TORSDOF 13
ENDMDL
MODEL 6
REMARK VINA RESULT:    -3.395      3.581      5.353
REMARK INTER + INTRA:          -6.612
REMARK INTER:                  -5.566
REMARK INTRA:                  -1.047
REMARK UNBOUND:                -0.637
REMARK SMILES CCCCCCCCCCCCCCC(=O)[O-]
REMARK SMILES IDX 9 1 10 2 11 3 12 4 13 5 14 6 15 7 16 8 17 9 8 10 7 11 6 12
REMARK SMILES IDX 5 13 4 14 3 15 2 16 1 17
REMARK H PARENT
REMARK Flexibility Score: inf
ROOT
ATOM      1  C   UNL     1       6.773  10.750   8.074  1.00  0.00     0.000 C 
ENDROOT
BRANCH   1   2
ATOM      2  C   UNL     1       7.206  10.398   9.506  1.00  0.00     0.000 C 
BRANCH   2   3
ATOM      3  C   UNL     1       7.946   9.051   9.587  1.00  0.00     0.000 C 
BRANCH   3   4
ATOM      4  C   UNL     1       8.699   8.714   8.289  1.00  0.00     0.000 C 
BRANCH   4   5
ATOM      5  C   UNL     1       9.091   7.229   8.203  1.00  0.00     0.006 C 
BRANCH   5   6
ATOM      6  C   UNL     1       9.731   6.725   9.503  1.00  0.00     0.053 C 
BRANCH   6   7
ATOM      7  C   UNL     1      10.489   5.450   9.288  1.00  0.00     0.041 C 
ATOM      8  O   UNL     1       9.998   4.351   9.655  1.00  0.00    -0.550 OA
ATOM      9  O   UNL     1      11.723   5.475   8.650  1.00  0.00    -0.550 OA
ENDBRANCH   6   7
ENDBRANCH   5   6
ENDBRANCH   4   5
ENDBRANCH   3   4
ENDBRANCH   2   3
ENDBRANCH   1   2
BRANCH   1  10
ATOM     10  C   UNL     1       6.339  12.218   7.933  1.00  0.00     0.000 C 
BRANCH  10  11
ATOM     11  C   UNL     1       5.648  12.755   9.196  1.00  0.00    -0.000 C 
BRANCH  11  12
ATOM     12  C   UNL     1       4.794  14.002   8.924  1.00  0.00    -0.000 C 
BRANCH  12  13
ATOM     13  C   UNL     1       4.320  14.035   7.465  1.00  0.00    -0.000 C 
BRANCH  13  14
ATOM     14  C   UNL     1       2.843  13.626   7.355  1.00  0.00    -0.000 C 
BRANCH  14  15
ATOM     15  C   UNL     1       2.107  13.703   8.701  1.00  0.00    -0.000 C 
BRANCH  15  16
ATOM     16  C   UNL     1       1.508  12.354   9.126  1.00  0.00    -0.003 C 
ATOM     17  C   UNL     1       2.317  11.191   8.558  1.00  0.00     0.004 C 
ENDBRANCH  15  16
ENDBRANCH  14  15
ENDBRANCH  13  14
ENDBRANCH  12  13
ENDBRANCH  11  12
ENDBRANCH  10  11
ENDBRANCH   1  10
TORSDOF 13
ENDMDL
MODEL 7
REMARK VINA RESULT:    -3.296      4.373      8.121
REMARK INTER + INTRA:          -6.437
REMARK INTER:                  -5.383
REMARK INTRA:                  -1.055
REMARK UNBOUND:                -0.637
REMARK SMILES CCCCCCCCCCCCCCC(=O)[O-]
REMARK SMILES IDX 9 1 10 2 11 3 12 4 13 5 14 6 15 7 16 8 17 9 8 10 7 11 6 12
REMARK SMILES IDX 5 13 4 14 3 15 2 16 1 17
REMARK H PARENT
REMARK Flexibility Score: inf
ROOT
ATOM      1  C   UNL     1       6.641  10.471   9.382  1.00  0.00     0.000 C 
ENDROOT
BRANCH   1   2
ATOM      2  C   UNL     1       6.581  11.497   8.238  1.00  0.00     0.000 C 
BRANCH   2   3
ATOM      3  C   UNL     1       5.143  11.772   7.766  1.00  0.00     0.000 C 
BRANCH   3   4
ATOM      4  C   UNL     1       4.579  13.086   8.330  1.00  0.00     0.000 C 
BRANCH   4   5
ATOM      5  C   UNL     1       3.757  12.873   9.613  1.00  0.00     0.006 C 
BRANCH   5   6
ATOM      6  C   UNL     1       3.055  11.509   9.629  1.00  0.00     0.053 C 
BRANCH   6   7
ATOM      7  C   UNL     1       1.570  11.650   9.489  1.00  0.00     0.041 C 
ATOM      8  O   UNL     1       0.798  10.856  10.089  1.00  0.00    -0.550 OA
ATOM      9  O   UNL     1       1.039  12.680   8.723  1.00  0.00    -0.550 OA
ENDBRANCH   6   7
ENDBRANCH   5   6
ENDBRANCH   4   5
ENDBRANCH   3   4
ENDBRANCH   2   3
ENDBRANCH   1   2
BRANCH   1  10
ATOM     10  C   UNL     1       8.076  10.003   9.680  1.00  0.00     0.000 C 
BRANCH  10  11
ATOM     11  C   UNL     1       8.300   8.523   9.330  1.00  0.00    -0.000 C 
BRANCH  11  12
ATOM     12  C   UNL     1       8.803   8.320   7.894  1.00  0.00    -0.000 C 
BRANCH  12  13
ATOM     13  C   UNL     1      10.094   7.491   7.876  1.00  0.00    -0.000 C 
BRANCH  13  14
ATOM     14  C   UNL     1      10.396   6.911   9.266  1.00  0.00    -0.000 C 
BRANCH  14  15
ATOM     15  C   UNL     1      10.462   5.376   9.266  1.00  0.00    -0.000 C 
BRANCH  15  16
ATOM     16  C   UNL     1       9.362   4.737  10.125  1.00  0.00    -0.003 C 
ATOM     17  C   UNL     1       8.021   4.745   9.396  1.00  0.00     0.004 C 
ENDBRANCH  15  16
ENDBRANCH  14  15
ENDBRANCH  13  14
ENDBRANCH  12  13
ENDBRANCH  11  12
ENDBRANCH  10  11
ENDBRANCH   1  10
TORSDOF 13
ENDMDL
MODEL 8
REMARK VINA RESULT:    -3.249      2.141      2.898
REMARK INTER + INTRA:          -6.356
REMARK INTER:                  -5.684
REMARK INTRA:                  -0.672
REMARK UNBOUND:                -0.637
REMARK SMILES CCCCCCCCCCCCCCC(=O)[O-]
REMARK SMILES IDX 9 1 10 2 11 3 12 4 13 5 14 6 15 7 16 8 17 9 8 10 7 11 6 12
REMARK SMILES IDX 5 13 4 14 3 15 2 16 1 17
REMARK H PARENT
REMARK Flexibility Score: inf
ROOT
ATOM      1  C   UNL     1       8.466   5.259  10.016  1.00  0.00     0.000 C 
ENDROOT
BRANCH   1   2
ATOM      2  C   UNL     1       7.980   3.814   9.818  1.00  0.00     0.000 C 
BRANCH   2   3
ATOM      3  C   UNL     1       6.454   3.721   9.650  1.00  0.00     0.000 C 
BRANCH   3   4
ATOM      4  C   UNL     1       6.042   2.727   8.551  1.00  0.00     0.000 C 
BRANCH   4   5
ATOM      5  C   UNL     1       4.543   2.807   8.214  1.00  0.00     0.006 C 
BRANCH   5   6
ATOM      6  C   UNL     1       3.670   2.858   9.475  1.00  0.00     0.053 C 
BRANCH   6   7
ATOM      7  C   UNL     1       2.614   3.918   9.373  1.00  0.00     0.041 C 
ATOM      8  O   UNL     1       1.494   3.650   8.865  1.00  0.00    -0.550 OA
ATOM      9  O   UNL     1       2.857   5.191   9.872  1.00  0.00    -0.550 OA
ENDBRANCH   6   7
ENDBRANCH   5   6
ENDBRANCH   4   5
ENDBRANCH   3   4
ENDBRANCH   2   3
ENDBRANCH   1   2
BRANCH   1  10
ATOM     10  C   UNL     1       8.782   5.963   8.686  1.00  0.00     0.000 C 
BRANCH  10  11
ATOM     11  C   UNL     1      10.071   6.797   8.750  1.00  0.00    -0.000 C 
BRANCH  11  12
ATOM     12  C   UNL     1       9.801   8.295   8.958  1.00  0.00    -0.000 C 
BRANCH  12  13
ATOM     13  C   UNL     1       8.521   8.728   8.232  1.00  0.00    -0.000 C 
BRANCH  13  14
ATOM     14  C   UNL     1       7.487   9.284   9.223  1.00  0.00    -0.000 C 
BRANCH  14  15
ATOM     15  C   UNL     1       7.235  10.788   9.033  1.00  0.00    -0.000 C 
BRANCH  15  16
ATOM     16  C   UNL     1       6.403  11.094   7.779  1.00  0.00    -0.003 C 
ATOM     17  C   UNL     1       5.406  12.220   8.043  1.00  0.00     0.004 C 
ENDBRANCH  15  16
ENDBRANCH  14  15
ENDBRANCH  13  14
ENDBRANCH  12  13
ENDBRANCH  11  12
ENDBRANCH  10  11
ENDBRANCH   1  10
TORSDOF 13
ENDMDL
MODEL 9
REMARK VINA RESULT:    -3.231      4.548      7.531
REMARK INTER + INTRA:          -6.323
REMARK INTER:                  -5.823
REMARK INTRA:                  -0.500
REMARK UNBOUND:                -0.637
REMARK SMILES CCCCCCCCCCCCCCC(=O)[O-]
REMARK SMILES IDX 9 1 10 2 11 3 12 4 13 5 14 6 15 7 16 8 17 9 8 10 7 11 6 12
REMARK SMILES IDX 5 13 4 14 3 15 2 16 1 17
REMARK H PARENT
REMARK Flexibility Score: inf
ROOT
ATOM      1  C   UNL     1       6.561   2.361   9.682  1.00  0.00     0.000 C 
ENDROOT
BRANCH   1   2
ATOM      2  C   UNL     1       7.821   3.173  10.022  1.00  0.00     0.000 C 
BRANCH   2   3
ATOM      3  C   UNL     1       7.783   4.595   9.435  1.00  0.00     0.000 C 
BRANCH   3   4
ATOM      4  C   UNL     1       8.902   5.491   9.991  1.00  0.00     0.000 C 
BRANCH   4   5
ATOM      5  C   UNL     1      10.293   5.091   9.468  1.00  0.00     0.006 C 
BRANCH   5   6
ATOM      6  C   UNL     1      11.115   6.309   9.027  1.00  0.00     0.053 C 
BRANCH   6   7
ATOM      7  C   UNL     1      10.236   7.467   8.661  1.00  0.00     0.041 C 
ATOM      8  O   UNL     1      10.170   8.475   9.412  1.00  0.00    -0.550 OA
ATOM      9  O   UNL     1       9.517   7.444   7.472  1.00  0.00    -0.550 OA
ENDBRANCH   6   7
ENDBRANCH   5   6
ENDBRANCH   4   5
ENDBRANCH   3   4
ENDBRANCH   2   3
ENDBRANCH   1   2
BRANCH   1  10
ATOM     10  C   UNL     1       5.692   3.040   8.610  1.00  0.00     0.000 C 
BRANCH  10  11
ATOM     11  C   UNL     1       4.649   2.087   8.004  1.00  0.00    -0.000 C 
BRANCH  11  12
ATOM     12  C   UNL     1       3.483   1.795   8.960  1.00  0.00    -0.000 C 
BRANCH  12  13
ATOM     13  C   UNL     1       2.809   3.095   9.418  1.00  0.00    -0.000 C 
BRANCH  13  14
ATOM     14  C   UNL     1       1.316   2.870   9.705  1.00  0.00    -0.000 C 
BRANCH  14  15
ATOM     15  C   UNL     1       0.455   4.092   9.346  1.00  0.00    -0.000 C 
BRANCH  15  16
ATOM     16  C   UNL     1      -1.047   3.829   9.522  1.00  0.00    -0.003 C 
ATOM     17  C   UNL     1      -1.355   2.336   9.446  1.00  0.00     0.004 C 
ENDBRANCH  15  16
ENDBRANCH  14  15
ENDBRANCH  13  14
ENDBRANCH  12  13
ENDBRANCH  11  12
ENDBRANCH  10  11
ENDBRANCH   1  10
TORSDOF 13
ENDMDL
