MODEL 1
REMARK VINA RESULT:    -3.663      0.000      0.000
REMARK INTER + INTRA:          -5.654
REMARK INTER:                  -5.590
REMARK INTRA:                  -0.064
REMARK UNBOUND:                -0.064
REMARK SMILES CC1=CCC[C@@H](C)C(=O)C[C@@H](C(C)C)C(=O)C1
REMARK SMILES IDX 8 1 9 2 6 3 7 4 5 5 4 6 3 7 2 8 1 9 10 11 11 12 15 13 16 14
REMARK SMILES IDX 17 15 12 17 13 18 14 19
REMARK H PARENT
REMARK Flexibility Score: 70.00
ROOT
ATOM      1  C   UNL     1      34.626  10.884 105.883  1.00  0.00     0.136 C 
ATOM      2  O   UNL     1      35.159  11.838 105.335  1.00  0.00    -0.299 OA
ENDROOT
BRANCH   1   3
ATOM      3  C   UNL     1      35.037  10.520 107.297  1.00  0.00     0.053 C 
ATOM      4  C   UNL     1      36.418  11.099 107.628  1.00  0.00     0.016 C 
BRANCH   3   5
ATOM      5  C   UNL     1      35.015   8.975 107.461  1.00  0.00     0.015 C 
BRANCH   5   6
ATOM      6  C   UNL     1      33.951   8.438 108.437  1.00  0.00     0.028 C 
BRANCH   6   7
ATOM      7  C   UNL     1      33.269   7.146 108.036  1.00  0.00    -0.028 C 
ATOM      8  C   UNL     1      32.080   7.025 107.398  1.00  0.00    -0.070 CG0
ATOM      9  C   UNL     1      31.617   5.641 107.017  1.00  0.00     0.039 C 
ATOM     10  G   UNL     1      31.162   8.196 107.105  1.00  0.00     0.000 G0
ENDBRANCH   6   7
ENDBRANCH   5   6
ENDBRANCH   3   5
ENDBRANCH   1   3
BRANCH   1  11
ATOM     11  C   UNL     1      33.574  10.101 105.125  1.00  0.00     0.087 C 
BRANCH  11  12
ATOM     12  C   UNL     1      32.138  10.245 105.705  1.00  0.00     0.066 C 
BRANCH  12  13
ATOM     13  C   UNL     1      31.415   8.902 105.804  1.00  0.00     0.140 C 
ATOM     14  O   UNL     1      31.006   8.377 104.778  1.00  0.00    -0.299 OA
BRANCH  13  15
ATOM     15  C   UNL     1      31.148   8.185 107.118  1.00  0.00     0.106 CG0
ATOM     16  G   UNL     1      32.082   7.025 107.401  1.00  0.00     0.000 G0
ENDBRANCH  13  15
ENDBRANCH  12  13
BRANCH  12  17
ATOM     17  C   UNL     1      31.257  11.295 104.958  1.00  0.00    -0.006 C 
ATOM     18  C   UNL     1      29.823  11.332 105.510  1.00  0.00     0.008 C 
ATOM     19  C   UNL     1      31.844  12.717 104.933  1.00  0.00     0.008 C 
ENDBRANCH  12  17
ENDBRANCH  11  12
ENDBRANCH   1  11
TORSDOF 1
ENDMDL
MODEL 2
REMARK VINA RESULT:    -3.320      2.396      4.649
REMARK INTER + INTRA:          -5.132
REMARK INTER:                  -5.125
REMARK INTRA:                  -0.006
REMARK UNBOUND:                -0.064
REMARK SMILES CC1=CCC[C@@H](C)C(=O)C[C@@H](C(C)C)C(=O)C1
REMARK SMILES IDX 8 1 9 2 6 3 7 4 5 5 4 6 3 7 2 8 1 9 10 11 11 12 15 13 16 14
REMARK SMILES IDX 17 15 12 17 13 18 14 19
REMARK H PARENT
REMARK Flexibility Score: 70.00
ROOT
ATOM      1  C   UNL     1      32.368  11.381 105.166  1.00  0.00     0.136 C 
ATOM      2  O   UNL     1      31.154  11.522 105.125  1.00  0.00    -0.299 OA
ENDROOT
BRANCH   1   3
ATOM      3  C   UNL     1      33.254  12.612 105.204  1.00  0.00     0.053 C 
ATOM      4  C   UNL     1      32.446  13.874 104.881  1.00  0.00     0.016 C 
BRANCH   3   5
ATOM      5  C   UNL     1      34.438  12.426 104.215  1.00  0.00     0.015 C 
BRANCH   5   6
ATOM      6  C   UNL     1      35.827  12.324 104.874  1.00  0.00     0.028 C 
BRANCH   6   7
ATOM      7  C   UNL     1      35.845  12.277 106.388  1.00  0.00    -0.028 C 
ATOM      8  C   UNL     1      35.787  11.166 107.162  1.00  0.00    -0.070 CG0
ATOM      9  C   UNL     1      35.900  11.337 108.657  1.00  0.00     0.039 C 
ATOM     10  G   UNL     1      35.549   9.773 106.613  1.00  0.00     0.000 G0
ENDBRANCH   6   7
ENDBRANCH   5   6
ENDBRANCH   3   5
ENDBRANCH   1   3
BRANCH   1  11
ATOM     11  C   UNL     1      32.939   9.978 105.175  1.00  0.00     0.087 C 
BRANCH  11  12
ATOM     12  C   UNL     1      32.891   9.286 106.567  1.00  0.00     0.066 C 
BRANCH  12  13
ATOM     13  C   UNL     1      34.285   9.085 107.162  1.00  0.00     0.140 C 
ATOM     14  O   UNL     1      34.408   8.363 108.141  1.00  0.00    -0.299 OA
BRANCH  13  15
ATOM     15  C   UNL     1      35.537   9.757 106.619  1.00  0.00     0.106 CG0
ATOM     16  G   UNL     1      35.784  11.152 107.160  1.00  0.00     0.000 G0
ENDBRANCH  13  15
ENDBRANCH  12  13
BRANCH  12  17
ATOM     17  C   UNL     1      32.085   7.950 106.582  1.00  0.00    -0.006 C 
ATOM     18  C   UNL     1      31.414   7.704 107.944  1.00  0.00     0.008 C 
ATOM     19  C   UNL     1      31.045   7.821 105.457  1.00  0.00     0.008 C 
ENDBRANCH  12  17
ENDBRANCH  11  12
ENDBRANCH   1  11
TORSDOF 1
ENDMDL
MODEL 3
REMARK VINA RESULT:    -3.150      1.759      4.068
REMARK INTER + INTRA:          -4.872
REMARK INTER:                  -4.735
REMARK INTRA:                  -0.137
REMARK UNBOUND:                -0.064
REMARK SMILES CC1=CCC[C@@H](C)C(=O)C[C@@H](C(C)C)C(=O)C1
REMARK SMILES IDX 8 1 9 2 6 3 7 4 5 5 4 6 3 7 2 8 1 9 10 11 11 12 15 13 16 14
REMARK SMILES IDX 17 15 12 17 13 18 14 19
REMARK H PARENT
REMARK Flexibility Score: 70.00
ROOT
ATOM      1  C   UNL     1      34.969   9.725 106.665  1.00  0.00     0.136 C 
ATOM      2  O   UNL     1      35.805   8.885 106.965  1.00  0.00    -0.299 OA
ENDROOT
BRANCH   1   3
ATOM      3  C   UNL     1      35.353  10.845 105.717  1.00  0.00     0.053 C 
ATOM      4  C   UNL     1      36.835  11.206 105.875  1.00  0.00     0.016 C 
BRANCH   3   5
ATOM      5  C   UNL     1      34.438  12.075 105.973  1.00  0.00     0.015 C 
BRANCH   5   6
ATOM      6  C   UNL     1      33.481  12.425 104.818  1.00  0.00     0.028 C 
BRANCH   6   7
ATOM      7  C   UNL     1      32.001  12.298 105.117  1.00  0.00    -0.028 C 
ATOM      8  C   UNL     1      31.279  11.152 105.145  1.00  0.00    -0.070 CG0
ATOM      9  C   UNL     1      29.827  11.239 105.546  1.00  0.00     0.039 C 
ATOM     10  G   UNL     1      31.832   9.802 104.733  1.00  0.00     0.000 G0
ENDBRANCH   6   7
ENDBRANCH   5   6
ENDBRANCH   3   5
ENDBRANCH   1   3
BRANCH   1  11
ATOM     11  C   UNL     1      33.579   9.612 107.254  1.00  0.00     0.087 C 
BRANCH  11  12
ATOM     12  C   UNL     1      32.794   8.352 106.788  1.00  0.00     0.066 C 
BRANCH  12  13
ATOM     13  C   UNL     1      31.693   8.694 105.784  1.00  0.00     0.140 C 
ATOM     14  O   UNL     1      30.658   8.044 105.803  1.00  0.00    -0.299 OA
BRANCH  13  15
ATOM     15  C   UNL     1      31.819   9.790 104.737  1.00  0.00     0.106 CG0
ATOM     16  G   UNL     1      31.271  11.136 105.167  1.00  0.00     0.000 G0
ENDBRANCH  13  15
ENDBRANCH  12  13
BRANCH  12  17
ATOM     17  C   UNL     1      32.229   7.489 107.959  1.00  0.00    -0.006 C 
ATOM     18  C   UNL     1      33.262   6.470 108.466  1.00  0.00     0.008 C 
ATOM     19  C   UNL     1      31.675   8.303 109.140  1.00  0.00     0.008 C 
ENDBRANCH  12  17
ENDBRANCH  11  12
ENDBRANCH   1  11
TORSDOF 1
ENDMDL
MODEL 4
REMARK VINA RESULT:    -2.883      2.201      4.712
REMARK INTER + INTRA:          -4.465
REMARK INTER:                  -4.174
REMARK INTRA:                  -0.291
REMARK UNBOUND:                -0.064
REMARK SMILES CC1=CCC[C@@H](C)C(=O)C[C@@H](C(C)C)C(=O)C1
REMARK SMILES IDX 8 1 9 2 6 3 7 4 5 5 4 6 3 7 2 8 1 9 10 11 11 12 15 13 16 14
REMARK SMILES IDX 17 15 12 17 13 18 14 19
REMARK H PARENT
REMARK Flexibility Score: 70.00
ROOT
ATOM      1  C   UNL     1      33.728   8.908 107.303  1.00  0.00     0.136 C 
ATOM      2  O   UNL     1      34.487   8.367 108.095  1.00  0.00    -0.299 OA
ENDROOT
BRANCH   1   3
ATOM      3  C   UNL     1      32.231   8.773 107.504  1.00  0.00     0.053 C 
ATOM      4  C   UNL     1      31.921   8.128 108.860  1.00  0.00     0.016 C 
BRANCH   3   5
ATOM      5  C   UNL     1      31.624   7.953 106.332  1.00  0.00     0.015 C 
BRANCH   5   6
ATOM      6  C   UNL     1      31.122   8.791 105.141  1.00  0.00     0.028 C 
BRANCH   6   7
ATOM      7  C   UNL     1      30.608  10.177 105.472  1.00  0.00    -0.028 C 
ATOM      8  C   UNL     1      31.192  11.355 105.144  1.00  0.00    -0.070 CG0
ATOM      9  C   UNL     1      30.469  12.629 105.502  1.00  0.00     0.039 C 
ATOM     10  G   UNL     1      32.560  11.461 104.500  1.00  0.00     0.000 G0
ENDBRANCH   6   7
ENDBRANCH   5   6
ENDBRANCH   3   5
ENDBRANCH   1   3
BRANCH   1  11
ATOM     11  C   UNL     1      34.317   9.691 106.148  1.00  0.00     0.087 C 
BRANCH  11  12
ATOM     12  C   UNL     1      34.409  11.222 106.405  1.00  0.00     0.066 C 
BRANCH  12  13
ATOM     13  C   UNL     1      33.656  12.033 105.350  1.00  0.00     0.140 C 
ATOM     14  O   UNL     1      33.936  13.214 105.205  1.00  0.00    -0.299 OA
BRANCH  13  15
ATOM     15  C   UNL     1      32.549  11.459 104.479  1.00  0.00     0.106 CG0
ATOM     16  G   UNL     1      31.198  11.366 105.160  1.00  0.00     0.000 G0
ENDBRANCH  13  15
ENDBRANCH  12  13
BRANCH  12  17
ATOM     17  C   UNL     1      35.868  11.750 106.571  1.00  0.00    -0.006 C 
ATOM     18  C   UNL     1      36.383  11.558 108.008  1.00  0.00     0.008 C 
ATOM     19  C   UNL     1      36.876  11.159 105.571  1.00  0.00     0.008 C 
ENDBRANCH  12  17
ENDBRANCH  11  12
ENDBRANCH   1  11
TORSDOF 1
ENDMDL
MODEL 5
REMARK VINA RESULT:    -2.803      2.109      4.372
REMARK INTER + INTRA:          -4.343
REMARK INTER:                  -4.269
REMARK INTRA:                  -0.074
REMARK UNBOUND:                -0.064
REMARK SMILES CC1=CCC[C@@H](C)C(=O)C[C@@H](C(C)C)C(=O)C1
REMARK SMILES IDX 8 1 9 2 6 3 7 4 5 5 4 6 3 7 2 8 1 9 10 11 11 12 15 13 16 14
REMARK SMILES IDX 17 15 12 17 13 18 14 19
REMARK H PARENT
REMARK Flexibility Score: 70.00
ROOT
ATOM      1  C   UNL     1      31.992   8.089 108.671  1.00  0.00     0.136 C 
ATOM      2  O   UNL     1      31.697   8.212 109.851  1.00  0.00    -0.299 OA
ENDROOT
BRANCH   1   3
ATOM      3  C   UNL     1      33.398   7.654 108.302  1.00  0.00     0.053 C 
ATOM      4  C   UNL     1      33.909   6.586 109.277  1.00  0.00     0.016 C 
BRANCH   3   5
ATOM      5  C   UNL     1      34.333   8.894 108.275  1.00  0.00     0.015 C 
BRANCH   5   6
ATOM      6  C   UNL     1      34.952   9.213 106.901  1.00  0.00     0.028 C 
BRANCH   6   7
ATOM      7  C   UNL     1      34.681  10.600 106.354  1.00  0.00    -0.028 C 
ATOM      8  C   UNL     1      33.736  10.938 105.444  1.00  0.00    -0.070 CG0
ATOM      9  C   UNL     1      33.579  12.397 105.094  1.00  0.00     0.039 C 
ATOM     10  G   UNL     1      32.876   9.926 104.712  1.00  0.00     0.000 G0
ENDBRANCH   6   7
ENDBRANCH   5   6
ENDBRANCH   3   5
ENDBRANCH   1   3
BRANCH   1  11
ATOM     11  C   UNL     1      30.940   8.381 107.622  1.00  0.00     0.087 C 
BRANCH  11  12
ATOM     12  C   UNL     1      31.433   8.186 106.160  1.00  0.00     0.066 C 
BRANCH  12  13
ATOM     13  C   UNL     1      31.596   9.514 105.422  1.00  0.00     0.140 C 
ATOM     14  O   UNL     1      30.650  10.287 105.386  1.00  0.00    -0.299 OA
BRANCH  13  15
ATOM     15  C   UNL     1      32.870   9.924 104.699  1.00  0.00     0.106 CG0
ATOM     16  G   UNL     1      33.719  10.933 105.447  1.00  0.00     0.000 G0
ENDBRANCH  13  15
ENDBRANCH  12  13
BRANCH  12  17
ATOM     17  C   UNL     1      30.565   7.191 105.327  1.00  0.00    -0.006 C 
ATOM     18  C   UNL     1      30.610   7.517 103.825  1.00  0.00     0.008 C 
ATOM     19  C   UNL     1      30.904   5.708 105.551  1.00  0.00     0.008 C 
ENDBRANCH  12  17
ENDBRANCH  11  12
ENDBRANCH   1  11
TORSDOF 1
ENDMDL
MODEL 6
REMARK VINA RESULT:    -2.705      2.160      4.449
REMARK INTER + INTRA:          -4.193
REMARK INTER:                  -4.586
REMARK INTRA:                   0.393
REMARK UNBOUND:                -0.064
REMARK SMILES CC1=CCC[C@@H](C)C(=O)C[C@@H](C(C)C)C(=O)C1
REMARK SMILES IDX 8 1 9 2 6 3 7 4 5 5 4 6 3 7 2 8 1 9 10 11 11 12 15 13 16 14
REMARK SMILES IDX 17 15 12 17 13 18 14 19
REMARK H PARENT
REMARK Flexibility Score: 70.00
ROOT
ATOM      1  C   UNL     1      31.577   8.841 105.850  1.00  0.00     0.136 C 
ATOM      2  O   UNL     1      31.412   9.884 105.235  1.00  0.00    -0.299 OA
ENDROOT
BRANCH   1   3
ATOM      3  C   UNL     1      31.169   7.530 105.204  1.00  0.00     0.053 C 
ATOM      4  C   UNL     1      30.199   7.775 104.042  1.00  0.00     0.016 C 
BRANCH   3   5
ATOM      5  C   UNL     1      30.546   6.596 106.278  1.00  0.00     0.015 C 
BRANCH   5   6
ATOM      6  C   UNL     1      30.708   5.089 106.004  1.00  0.00     0.028 C 
BRANCH   6   7
ATOM      7  C   UNL     1      32.055   4.489 106.354  1.00  0.00    -0.028 C 
ATOM      8  C   UNL     1      32.808   4.775 107.443  1.00  0.00    -0.070 CG0
ATOM      9  C   UNL     1      34.087   4.000 107.644  1.00  0.00     0.039 C 
ATOM     10  G   UNL     1      32.468   5.872 108.432  1.00  0.00     0.000 G0
ENDBRANCH   6   7
ENDBRANCH   5   6
ENDBRANCH   3   5
ENDBRANCH   1   3
BRANCH   1  11
ATOM     11  C   UNL     1      32.183   8.899 107.237  1.00  0.00     0.087 C 
BRANCH  11  12
ATOM     12  C   UNL     1      33.521   8.119 107.375  1.00  0.00     0.066 C 
BRANCH  12  13
ATOM     13  C   UNL     1      33.455   7.044 108.460  1.00  0.00     0.140 C 
ATOM     14  O   UNL     1      34.246   7.098 109.391  1.00  0.00    -0.299 OA
BRANCH  13  15
ATOM     15  C   UNL     1      32.471   5.884 108.437  1.00  0.00     0.106 CG0
ATOM     16  G   UNL     1      32.818   4.786 107.451  1.00  0.00     0.000 G0
ENDBRANCH  13  15
ENDBRANCH  12  13
BRANCH  12  17
ATOM     17  C   UNL     1      34.769   9.034 107.578  1.00  0.00    -0.006 C 
ATOM     18  C   UNL     1      35.384   9.464 106.235  1.00  0.00     0.008 C 
ATOM     19  C   UNL     1      34.516  10.271 108.457  1.00  0.00     0.008 C 
ENDBRANCH  12  17
ENDBRANCH  11  12
ENDBRANCH   1  11
TORSDOF 1
ENDMDL
MODEL 7
REMARK VINA RESULT:    -2.630      1.701      4.486
REMARK INTER + INTRA:          -4.077
REMARK INTER:                  -4.588
REMARK INTRA:                   0.510
REMARK UNBOUND:                -0.064
REMARK SMILES CC1=CCC[C@@H](C)C(=O)C[C@@H](C(C)C)C(=O)C1
REMARK SMILES IDX 8 1 9 2 6 3 7 4 5 5 4 6 3 7 2 8 1 9 10 11 11 12 15 13 16 14
REMARK SMILES IDX 17 15 12 17 13 18 14 19
REMARK H PARENT
REMARK Flexibility Score: 70.00
ROOT
ATOM      1  C   UNL     1      32.866   7.854 108.333  1.00  0.00     0.136 C 
ATOM      2  O   UNL     1      32.262   8.730 108.936  1.00  0.00    -0.299 OA
ENDROOT
BRANCH   1   3
ATOM      3  C   UNL     1      32.300   6.446 108.313  1.00  0.00     0.053 C 
ATOM      4  C   UNL     1      33.320   5.459 107.734  1.00  0.00     0.016 C 
BRANCH   3   5
ATOM      5  C   UNL     1      30.974   6.434 107.503  1.00  0.00     0.015 C 
BRANCH   5   6
ATOM      6  C   UNL     1      31.091   6.943 106.054  1.00  0.00     0.028 C 
BRANCH   6   7
ATOM      7  C   UNL     1      30.620   8.362 105.806  1.00  0.00    -0.028 C 
ATOM      8  C   UNL     1      31.376   9.399 105.371  1.00  0.00    -0.070 CG0
ATOM      9  C   UNL     1      30.689  10.716 105.111  1.00  0.00     0.039 C 
ATOM     10  G   UNL     1      32.880   9.324 105.195  1.00  0.00     0.000 G0
ENDBRANCH   6   7
ENDBRANCH   5   6
ENDBRANCH   3   5
ENDBRANCH   1   3
BRANCH   1  11
ATOM     11  C   UNL     1      34.159   8.211 107.631  1.00  0.00     0.087 C 
BRANCH  11  12
ATOM     12  C   UNL     1      34.352   9.736 107.398  1.00  0.00     0.066 C 
BRANCH  12  13
ATOM     13  C   UNL     1      33.703  10.211 106.098  1.00  0.00     0.140 C 
ATOM     14  O   UNL     1      33.822  11.384 105.775  1.00  0.00    -0.299 OA
BRANCH  13  15
ATOM     15  C   UNL     1      32.886   9.308 105.186  1.00  0.00     0.106 CG0
ATOM     16  G   UNL     1      31.386   9.414 105.378  1.00  0.00     0.000 G0
ENDBRANCH  13  15
ENDBRANCH  12  13
BRANCH  12  17
ATOM     17  C   UNL     1      35.838  10.206 107.478  1.00  0.00    -0.006 C 
ATOM     18  C   UNL     1      36.491  10.271 106.088  1.00  0.00     0.008 C 
ATOM     19  C   UNL     1      36.046  11.539 108.217  1.00  0.00     0.008 C 
ENDBRANCH  12  17
ENDBRANCH  11  12
ENDBRANCH   1  11
TORSDOF 1
ENDMDL
MODEL 8
REMARK VINA RESULT:    -2.628      1.477      3.797
REMARK INTER + INTRA:          -4.076
REMARK INTER:                  -4.483
REMARK INTRA:                   0.407
REMARK UNBOUND:                -0.064
REMARK SMILES CC1=CCC[C@@H](C)C(=O)C[C@@H](C(C)C)C(=O)C1
REMARK SMILES IDX 8 1 9 2 6 3 7 4 5 5 4 6 3 7 2 8 1 9 10 11 11 12 15 13 16 14
REMARK SMILES IDX 17 15 12 17 13 18 14 19
REMARK H PARENT
REMARK Flexibility Score: 70.00
ROOT
ATOM      1  C   UNL     1      31.002   7.310 105.689  1.00  0.00     0.136 C 
ATOM      2  O   UNL     1      30.587   6.908 104.612  1.00  0.00    -0.299 OA
ENDROOT
BRANCH   1   3
ATOM      3  C   UNL     1      31.676   6.331 106.633  1.00  0.00     0.053 C 
ATOM      4  C   UNL     1      31.365   4.885 106.229  1.00  0.00     0.016 C 
BRANCH   3   5
ATOM      5  C   UNL     1      31.223   6.624 108.090  1.00  0.00     0.015 C 
BRANCH   5   6
ATOM      6  C   UNL     1      32.206   7.472 108.920  1.00  0.00     0.028 C 
BRANCH   6   7
ATOM      7  C   UNL     1      33.611   7.595 108.367  1.00  0.00    -0.028 C 
ATOM      8  C   UNL     1      34.135   8.665 107.722  1.00  0.00    -0.070 CG0
ATOM      9  C   UNL     1      35.589   8.611 107.322  1.00  0.00     0.039 C 
ATOM     10  G   UNL     1      33.325   9.883 107.323  1.00  0.00     0.000 G0
ENDBRANCH   6   7
ENDBRANCH   5   6
ENDBRANCH   3   5
ENDBRANCH   1   3
BRANCH   1  11
ATOM     11  C   UNL     1      30.825   8.772 106.040  1.00  0.00     0.087 C 
BRANCH  11  12
ATOM     12  C   UNL     1      31.699   9.737 105.189  1.00  0.00     0.066 C 
BRANCH  12  13
ATOM     13  C   UNL     1      33.061  10.003 105.830  1.00  0.00     0.140 C 
ATOM     14  O   UNL     1      33.998  10.319 105.111  1.00  0.00    -0.299 OA
BRANCH  13  15
ATOM     15  C   UNL     1      33.329   9.872 107.321  1.00  0.00     0.106 CG0
ATOM     16  G   UNL     1      34.148   8.656 107.707  1.00  0.00     0.000 G0
ENDBRANCH  13  15
ENDBRANCH  12  13
BRANCH  12  17
ATOM     17  C   UNL     1      30.988  11.077 104.821  1.00  0.00    -0.006 C 
ATOM     18  C   UNL     1      29.626  11.210 105.523  1.00  0.00     0.008 C 
ATOM     19  C   UNL     1      31.833  12.337 105.076  1.00  0.00     0.008 C 
ENDBRANCH  12  17
ENDBRANCH  11  12
ENDBRANCH   1  11
TORSDOF 1
ENDMDL
MODEL 9
REMARK VINA RESULT:    -2.361      5.243      7.238
REMARK INTER + INTRA:          -3.668
REMARK INTER:                  -4.517
REMARK INTRA:                   0.848
REMARK UNBOUND:                -0.064
REMARK SMILES CC1=CCC[C@@H](C)C(=O)C[C@@H](C(C)C)C(=O)C1
REMARK SMILES IDX 8 1 9 2 6 3 7 4 5 5 4 6 3 7 2 8 1 9 10 11 11 12 15 13 16 14
REMARK SMILES IDX 17 15 12 17 13 18 14 19
REMARK H PARENT
REMARK Flexibility Score: 70.00
ROOT
ATOM      1  C   UNL     1      36.137  11.261 106.037  1.00  0.00     0.136 C 
ATOM      2  O   UNL     1      34.925  11.302 105.878  1.00  0.00    -0.299 OA
ENDROOT
BRANCH   1   3
ATOM      3  C   UNL     1      36.736  11.831 107.308  1.00  0.00     0.053 C 
ATOM      4  C   UNL     1      35.947  11.364 108.537  1.00  0.00     0.016 C 
BRANCH   3   5
ATOM      5  C   UNL     1      36.773  13.382 107.212  1.00  0.00     0.015 C 
BRANCH   5   6
ATOM      6  C   UNL     1      38.171  13.987 106.983  1.00  0.00     0.028 C 
BRANCH   6   7
ATOM      7  C   UNL     1      39.328  13.009 106.980  1.00  0.00    -0.028 C 
ATOM      8  C   UNL     1      40.027  12.588 105.898  1.00  0.00    -0.070 CG0
ATOM      9  C   UNL     1      41.202  11.669 106.126  1.00  0.00     0.039 C 
ATOM     10  G   UNL     1      39.655  12.939 104.471  1.00  0.00     0.000 G0
ENDBRANCH   6   7
ENDBRANCH   5   6
ENDBRANCH   3   5
ENDBRANCH   1   3
BRANCH   1  11
ATOM     11  C   UNL     1      36.993  10.641 104.952  1.00  0.00     0.087 C 
BRANCH  11  12
ATOM     12  C   UNL     1      37.391  11.629 103.819  1.00  0.00     0.066 C 
BRANCH  12  13
ATOM     13  C   UNL     1      38.904  11.828 103.727  1.00  0.00     0.140 C 
ATOM     14  O   UNL     1      39.558  11.057 103.040  1.00  0.00    -0.299 OA
BRANCH  13  15
ATOM     15  C   UNL     1      39.654  12.923 104.468  1.00  0.00     0.106 CG0
ATOM     16  G   UNL     1      40.033  12.571 105.894  1.00  0.00     0.000 G0
ENDBRANCH  13  15
ENDBRANCH  12  13
BRANCH  12  17
ATOM     17  C   UNL     1      36.654  13.003 103.890  1.00  0.00    -0.006 C 
ATOM     18  C   UNL     1      37.472  14.123 103.225  1.00  0.00     0.008 C 
ATOM     19  C   UNL     1      35.226  12.990 103.319  1.00  0.00     0.008 C 
ENDBRANCH  12  17
ENDBRANCH  11  12
ENDBRANCH   1  11
TORSDOF 1
ENDMDL
