MODEL 1
REMARK VINA RESULT:    -4.467      0.000      0.000
REMARK INTER + INTRA:         -14.944
REMARK INTER:                 -11.257
REMARK INTRA:                  -3.687
REMARK UNBOUND:                -3.687
REMARK SMILES CCCCCCCCCCCCCCCCCCCCCCCCCCCC(=O)[O-]
REMARK SMILES IDX 15 1 16 2 17 3 18 4 19 5 20 6 21 7 22 8 23 9 24 10 25 11
REMARK SMILES IDX 26 12 27 13 28 14 29 15 30 16 14 17 13 18 12 19 11 20 10 21
REMARK SMILES IDX 9 22 8 23 7 24 6 25 5 26 4 27 3 28 2 29 1 30
REMARK H PARENT
REMARK Flexibility Score: inf
ROOT
ATOM      1  C   UNL     1       7.948   0.205 400.958  1.00  0.00     0.000 C 
ENDROOT
BRANCH   1   2
ATOM      2  C   UNL     1       7.222   0.009 402.300  1.00  0.00     0.000 C 
BRANCH   2   3
ATOM      3  C   UNL     1       6.973   1.337 403.038  1.00  0.00     0.000 C 
BRANCH   3   4
ATOM      4  C   UNL     1       5.856   1.226 404.088  1.00  0.00     0.000 C 
BRANCH   4   5
ATOM      5  C   UNL     1       4.481   1.644 403.539  1.00  0.00     0.000 C 
BRANCH   5   6
ATOM      6  C   UNL     1       4.589   2.638 402.370  1.00  0.00     0.000 C 
BRANCH   6   7
ATOM      7  C   UNL     1       3.954   2.097 401.077  1.00  0.00     0.000 C 
BRANCH   7   8
ATOM      8  C   UNL     1       3.513   0.626 401.198  1.00  0.00     0.000 C 
BRANCH   8   9
ATOM      9  C   UNL     1       3.721  -0.226 399.931  1.00  0.00     0.000 C 
BRANCH   9  10
ATOM     10  C   UNL     1       4.361  -1.609 400.168  1.00  0.00     0.000 C 
BRANCH  10  11
ATOM     11  C   UNL     1       3.679  -2.461 401.255  1.00  0.00     0.000 C 
BRANCH  11  12
ATOM     12  C   UNL     1       4.601  -2.746 402.452  1.00  0.00     0.006 C 
BRANCH  12  13
ATOM     13  C   UNL     1       4.102  -2.074 403.738  1.00  0.00     0.053 C 
BRANCH  13  14
ATOM     14  C   UNL     1       3.346  -3.032 404.606  1.00  0.00     0.041 C 
ATOM     15  O   UNL     1       2.090  -3.094 404.539  1.00  0.00    -0.550 OA
ATOM     16  O   UNL     1       4.031  -3.883 405.465  1.00  0.00    -0.550 OA
ENDBRANCH  13  14
ENDBRANCH  12  13
ENDBRANCH  11  12
ENDBRANCH  10  11
ENDBRANCH   9  10
ENDBRANCH   8   9
ENDBRANCH   7   8
ENDBRANCH   6   7
ENDBRANCH   5   6
ENDBRANCH   4   5
ENDBRANCH   3   4
ENDBRANCH   2   3
ENDBRANCH   1   2
BRANCH   1  17
ATOM     17  C   UNL     1       7.115   1.022 399.956  1.00  0.00     0.000 C 
BRANCH  17  18
ATOM     18  C   UNL     1       7.052   0.376 398.560  1.00  0.00     0.000 C 
BRANCH  18  19
ATOM     19  C   UNL     1       8.138   0.842 397.567  1.00  0.00     0.000 C 
BRANCH  19  20
ATOM     20  C   UNL     1       8.516   2.333 397.659  1.00  0.00     0.000 C 
BRANCH  20  21
ATOM     21  C   UNL     1      10.014   2.609 397.886  1.00  0.00     0.000 C 
BRANCH  21  22
ATOM     22  C   UNL     1      10.746   1.483 398.647  1.00  0.00    -0.000 C 
BRANCH  22  23
ATOM     23  C   UNL     1      11.741   0.720 397.755  1.00  0.00    -0.000 C 
BRANCH  23  24
ATOM     24  C   UNL     1      13.203   1.102 398.044  1.00  0.00    -0.000 C 
BRANCH  24  25
ATOM     25  C   UNL     1      13.949   1.571 396.782  1.00  0.00    -0.000 C 
BRANCH  25  26
ATOM     26  C   UNL     1      14.468   3.012 396.903  1.00  0.00    -0.000 C 
BRANCH  26  27
ATOM     27  C   UNL     1      14.417   3.777 395.568  1.00  0.00    -0.000 C 
BRANCH  27  28
ATOM     28  C   UNL     1      15.775   3.802 394.849  1.00  0.00    -0.000 C 
BRANCH  28  29
ATOM     29  C   UNL     1      15.638   3.667 393.326  1.00  0.00    -0.003 C 
ATOM     30  C   UNL     1      14.483   2.741 392.956  1.00  0.00     0.004 C 
ENDBRANCH  28  29
ENDBRANCH  27  28
ENDBRANCH  26  27
ENDBRANCH  25  26
ENDBRANCH  24  25
ENDBRANCH  23  24
ENDBRANCH  22  23
ENDBRANCH  21  22
ENDBRANCH  20  21
ENDBRANCH  19  20
ENDBRANCH  18  19
ENDBRANCH  17  18
ENDBRANCH   1  17
TORSDOF 26
ENDMDL
MODEL 2
REMARK VINA RESULT:    -4.457      4.721      9.549
REMARK INTER + INTRA:         -14.919
REMARK INTER:                  -9.554
REMARK INTRA:                  -5.366
REMARK UNBOUND:                -3.687
REMARK SMILES CCCCCCCCCCCCCCCCCCCCCCCCCCCC(=O)[O-]
REMARK SMILES IDX 15 1 16 2 17 3 18 4 19 5 20 6 21 7 22 8 23 9 24 10 25 11
REMARK SMILES IDX 26 12 27 13 28 14 29 15 30 16 14 17 13 18 12 19 11 20 10 21
REMARK SMILES IDX 9 22 8 23 7 24 6 25 5 26 4 27 3 28 2 29 1 30
REMARK H PARENT
REMARK Flexibility Score: inf
ROOT
ATOM      1  C   UNL     1       4.353  -2.476 402.446  1.00  0.00     0.000 C 
ENDROOT
BRANCH   1   2
ATOM      2  C   UNL     1       4.644  -2.476 400.935  1.00  0.00     0.000 C 
BRANCH   2   3
ATOM      3  C   UNL     1       4.006  -1.278 400.210  1.00  0.00     0.000 C 
BRANCH   3   4
ATOM      4  C   UNL     1       3.681  -0.117 401.164  1.00  0.00     0.000 C 
BRANCH   4   5
ATOM      5  C   UNL     1       3.458   1.214 400.425  1.00  0.00     0.000 C 
BRANCH   5   6
ATOM      6  C   UNL     1       3.908   2.431 401.250  1.00  0.00     0.000 C 
BRANCH   6   7
ATOM      7  C   UNL     1       4.147   2.082 402.730  1.00  0.00     0.000 C 
BRANCH   7   8
ATOM      8  C   UNL     1       5.611   2.280 403.161  1.00  0.00     0.000 C 
BRANCH   8   9
ATOM      9  C   UNL     1       6.535   1.071 402.917  1.00  0.00     0.000 C 
BRANCH   9  10
ATOM     10  C   UNL     1       7.258   1.061 401.555  1.00  0.00     0.000 C 
BRANCH  10  11
ATOM     11  C   UNL     1       7.826  -0.306 401.131  1.00  0.00     0.000 C 
BRANCH  11  12
ATOM     12  C   UNL     1       7.560  -0.628 399.652  1.00  0.00     0.006 C 
BRANCH  12  13
ATOM     13  C   UNL     1       6.993   0.577 398.891  1.00  0.00     0.053 C 
BRANCH  13  14
ATOM     14  C   UNL     1       7.923   1.038 397.811  1.00  0.00     0.041 C 
ATOM     15  O   UNL     1       8.803   1.904 398.059  1.00  0.00    -0.550 OA
ATOM     16  O   UNL     1       7.841   0.485 396.539  1.00  0.00    -0.550 OA
ENDBRANCH  13  14
ENDBRANCH  12  13
ENDBRANCH  11  12
ENDBRANCH  10  11
ENDBRANCH   9  10
ENDBRANCH   8   9
ENDBRANCH   7   8
ENDBRANCH   6   7
ENDBRANCH   5   6
ENDBRANCH   4   5
ENDBRANCH   3   4
ENDBRANCH   2   3
ENDBRANCH   1   2
BRANCH   1  17
ATOM     17  C   UNL     1       3.227  -3.455 402.825  1.00  0.00     0.000 C 
BRANCH  17  18
ATOM     18  C   UNL     1       2.632  -3.175 404.217  1.00  0.00     0.000 C 
BRANCH  18  19
ATOM     19  C   UNL     1       3.236  -1.966 404.962  1.00  0.00     0.000 C 
BRANCH  19  20
ATOM     20  C   UNL     1       3.664  -2.238 406.417  1.00  0.00     0.000 C 
BRANCH  20  21
ATOM     21  C   UNL     1       5.185  -2.212 406.661  1.00  0.00     0.000 C 
BRANCH  21  22
ATOM     22  C   UNL     1       5.962  -1.336 405.656  1.00  0.00    -0.000 C 
BRANCH  22  23
ATOM     23  C   UNL     1       6.877  -2.163 404.737  1.00  0.00    -0.000 C 
BRANCH  23  24
ATOM     24  C   UNL     1       7.229  -3.536 405.338  1.00  0.00    -0.000 C 
BRANCH  24  25
ATOM     25  C   UNL     1       6.781  -4.703 404.441  1.00  0.00    -0.000 C 
BRANCH  25  26
ATOM     26  C   UNL     1       5.609  -5.494 405.040  1.00  0.00    -0.000 C 
BRANCH  26  27
ATOM     27  C   UNL     1       4.977  -6.476 404.037  1.00  0.00    -0.000 C 
BRANCH  27  28
ATOM     28  C   UNL     1       5.574  -6.343 402.627  1.00  0.00    -0.000 C 
BRANCH  28  29
ATOM     29  C   UNL     1       4.532  -6.572 401.522  1.00  0.00    -0.003 C 
ATOM     30  C   UNL     1       3.920  -7.966 401.623  1.00  0.00     0.004 C 
ENDBRANCH  28  29
ENDBRANCH  27  28
ENDBRANCH  26  27
ENDBRANCH  25  26
ENDBRANCH  24  25
ENDBRANCH  23  24
ENDBRANCH  22  23
ENDBRANCH  21  22
ENDBRANCH  20  21
ENDBRANCH  19  20
ENDBRANCH  18  19
ENDBRANCH  17  18
ENDBRANCH   1  17
TORSDOF 26
ENDMDL
MODEL 3
REMARK VINA RESULT:    -4.375      3.497      7.383
REMARK INTER + INTRA:         -14.711
REMARK INTER:                  -9.785
REMARK INTRA:                  -4.926
REMARK UNBOUND:                -3.687
REMARK SMILES CCCCCCCCCCCCCCCCCCCCCCCCCCCC(=O)[O-]
REMARK SMILES IDX 15 1 16 2 17 3 18 4 19 5 20 6 21 7 22 8 23 9 24 10 25 11
REMARK SMILES IDX 26 12 27 13 28 14 29 15 30 16 14 17 13 18 12 19 11 20 10 21
REMARK SMILES IDX 9 22 8 23 7 24 6 25 5 26 4 27 3 28 2 29 1 30
REMARK H PARENT
REMARK Flexibility Score: inf
ROOT
ATOM      1  C   UNL     1       9.824   0.311 398.897  1.00  0.00     0.000 C 
ENDROOT
BRANCH   1   2
ATOM      2  C   UNL     1       9.722  -1.061 398.211  1.00  0.00     0.000 C 
BRANCH   2   3
ATOM      3  C   UNL     1       9.825  -2.230 399.206  1.00  0.00     0.000 C 
BRANCH   3   4
ATOM      4  C   UNL     1       8.554  -2.396 400.054  1.00  0.00     0.000 C 
BRANCH   4   5
ATOM      5  C   UNL     1       8.019  -3.839 400.044  1.00  0.00     0.000 C 
BRANCH   5   6
ATOM      6  C   UNL     1       6.534  -3.922 400.434  1.00  0.00     0.000 C 
BRANCH   6   7
ATOM      7  C   UNL     1       6.213  -5.179 401.262  1.00  0.00     0.000 C 
BRANCH   7   8
ATOM      8  C   UNL     1       4.796  -5.152 401.863  1.00  0.00     0.000 C 
BRANCH   8   9
ATOM      9  C   UNL     1       3.905  -3.986 401.390  1.00  0.00     0.000 C 
BRANCH   9  10
ATOM     10  C   UNL     1       3.520  -2.969 402.483  1.00  0.00     0.000 C 
BRANCH  10  11
ATOM     11  C   UNL     1       3.342  -3.567 403.891  1.00  0.00     0.000 C 
BRANCH  11  12
ATOM     12  C   UNL     1       2.636  -2.606 404.862  1.00  0.00     0.006 C 
BRANCH  12  13
ATOM     13  C   UNL     1       3.633  -1.777 405.681  1.00  0.00     0.053 C 
BRANCH  13  14
ATOM     14  C   UNL     1       3.840  -2.353 407.048  1.00  0.00     0.041 C 
ATOM     15  O   UNL     1       2.924  -2.289 407.909  1.00  0.00    -0.550 OA
ATOM     16  O   UNL     1       5.034  -2.992 407.360  1.00  0.00    -0.550 OA
ENDBRANCH  13  14
ENDBRANCH  12  13
ENDBRANCH  11  12
ENDBRANCH  10  11
ENDBRANCH   9  10
ENDBRANCH   8   9
ENDBRANCH   7   8
ENDBRANCH   6   7
ENDBRANCH   5   6
ENDBRANCH   4   5
ENDBRANCH   3   4
ENDBRANCH   2   3
ENDBRANCH   1   2
BRANCH   1  17
ATOM     17  C   UNL     1       8.795   1.317 398.352  1.00  0.00     0.000 C 
BRANCH  17  18
ATOM     18  C   UNL     1       7.373   0.735 398.267  1.00  0.00     0.000 C 
BRANCH  18  19
ATOM     19  C   UNL     1       6.541   0.836 399.564  1.00  0.00     0.000 C 
BRANCH  19  20
ATOM     20  C   UNL     1       5.709  -0.413 399.909  1.00  0.00     0.000 C 
BRANCH  20  21
ATOM     21  C   UNL     1       4.183  -0.217 399.834  1.00  0.00     0.000 C 
BRANCH  21  22
ATOM     22  C   UNL     1       3.604   0.617 400.996  1.00  0.00    -0.000 C 
BRANCH  22  23
ATOM     23  C   UNL     1       3.549   2.120 400.672  1.00  0.00    -0.000 C 
BRANCH  23  24
ATOM     24  C   UNL     1       4.007   2.994 401.853  1.00  0.00    -0.000 C 
BRANCH  24  25
ATOM     25  C   UNL     1       4.681   2.174 402.966  1.00  0.00    -0.000 C 
BRANCH  25  26
ATOM     26  C   UNL     1       6.185   2.464 403.087  1.00  0.00    -0.000 C 
BRANCH  26  27
ATOM     27  C   UNL     1       7.035   1.183 403.154  1.00  0.00    -0.000 C 
BRANCH  27  28
ATOM     28  C   UNL     1       6.277   0.005 403.787  1.00  0.00    -0.000 C 
BRANCH  28  29
ATOM     29  C   UNL     1       6.628  -1.341 403.135  1.00  0.00    -0.003 C 
ATOM     30  C   UNL     1       7.039  -2.370 404.184  1.00  0.00     0.004 C 
ENDBRANCH  28  29
ENDBRANCH  27  28
ENDBRANCH  26  27
ENDBRANCH  25  26
ENDBRANCH  24  25
ENDBRANCH  23  24
ENDBRANCH  22  23
ENDBRANCH  21  22
ENDBRANCH  20  21
ENDBRANCH  19  20
ENDBRANCH  18  19
ENDBRANCH  17  18
ENDBRANCH   1  17
TORSDOF 26
ENDMDL
MODEL 4
REMARK VINA RESULT:    -4.336      4.680      9.835
REMARK INTER + INTRA:         -14.614
REMARK INTER:                  -9.247
REMARK INTRA:                  -5.368
REMARK UNBOUND:                -3.687
REMARK SMILES CCCCCCCCCCCCCCCCCCCCCCCCCCCC(=O)[O-]
REMARK SMILES IDX 15 1 16 2 17 3 18 4 19 5 20 6 21 7 22 8 23 9 24 10 25 11
REMARK SMILES IDX 26 12 27 13 28 14 29 15 30 16 14 17 13 18 12 19 11 20 10 21
REMARK SMILES IDX 9 22 8 23 7 24 6 25 5 26 4 27 3 28 2 29 1 30
REMARK H PARENT
REMARK Flexibility Score: inf
ROOT
ATOM      1  C   UNL     1       3.928  -2.008 399.827  1.00  0.00     0.000 C 
ENDROOT
BRANCH   1   2
ATOM      2  C   UNL     1       3.982  -0.474 399.734  1.00  0.00     0.000 C 
BRANCH   2   3
ATOM      3  C   UNL     1       3.601   0.213 401.057  1.00  0.00     0.000 C 
BRANCH   3   4
ATOM      4  C   UNL     1       3.747   1.742 400.991  1.00  0.00     0.000 C 
BRANCH   4   5
ATOM      5  C   UNL     1       4.478   2.321 402.214  1.00  0.00     0.000 C 
BRANCH   5   6
ATOM      6  C   UNL     1       4.260   1.484 403.485  1.00  0.00     0.000 C 
BRANCH   6   7
ATOM      7  C   UNL     1       5.582   0.995 404.102  1.00  0.00     0.000 C 
BRANCH   7   8
ATOM      8  C   UNL     1       6.814   1.404 403.275  1.00  0.00     0.000 C 
BRANCH   8   9
ATOM      9  C   UNL     1       7.658   0.232 402.733  1.00  0.00     0.000 C 
BRANCH   9  10
ATOM     10  C   UNL     1       6.886  -0.790 401.874  1.00  0.00     0.000 C 
BRANCH  10  11
ATOM     11  C   UNL     1       7.677  -1.365 400.685  1.00  0.00     0.000 C 
BRANCH  11  12
ATOM     12  C   UNL     1       8.366  -0.276 399.846  1.00  0.00     0.006 C 
BRANCH  12  13
ATOM     13  C   UNL     1       7.359   0.563 399.049  1.00  0.00     0.053 C 
BRANCH  13  14
ATOM     14  C   UNL     1       7.980   1.156 397.822  1.00  0.00     0.041 C 
ATOM     15  O   UNL     1       8.783   2.121 397.921  1.00  0.00    -0.550 OA
ATOM     16  O   UNL     1       7.700   0.621 396.571  1.00  0.00    -0.550 OA
ENDBRANCH  13  14
ENDBRANCH  12  13
ENDBRANCH  11  12
ENDBRANCH  10  11
ENDBRANCH   9  10
ENDBRANCH   8   9
ENDBRANCH   7   8
ENDBRANCH   6   7
ENDBRANCH   5   6
ENDBRANCH   4   5
ENDBRANCH   3   4
ENDBRANCH   2   3
ENDBRANCH   1   2
BRANCH   1  17
ATOM     17  C   UNL     1       3.607  -2.498 401.250  1.00  0.00     0.000 C 
BRANCH  17  18
ATOM     18  C   UNL     1       3.818  -4.012 401.426  1.00  0.00     0.000 C 
BRANCH  18  19
ATOM     19  C   UNL     1       5.117  -4.417 402.156  1.00  0.00     0.000 C 
BRANCH  19  20
ATOM     20  C   UNL     1       4.918  -5.243 403.441  1.00  0.00     0.000 C 
BRANCH  20  21
ATOM     21  C   UNL     1       5.853  -4.866 404.605  1.00  0.00     0.000 C 
BRANCH  21  22
ATOM     22  C   UNL     1       6.642  -3.560 404.372  1.00  0.00    -0.000 C 
BRANCH  22  23
ATOM     23  C   UNL     1       7.230  -2.987 405.673  1.00  0.00    -0.000 C 
BRANCH  23  24
ATOM     24  C   UNL     1       6.696  -3.703 406.926  1.00  0.00    -0.000 C 
BRANCH  24  25
ATOM     25  C   UNL     1       5.723  -2.826 407.735  1.00  0.00    -0.000 C 
BRANCH  25  26
ATOM     26  C   UNL     1       4.315  -3.434 407.825  1.00  0.00    -0.000 C 
BRANCH  26  27
ATOM     27  C   UNL     1       3.245  -2.559 407.148  1.00  0.00    -0.000 C 
BRANCH  27  28
ATOM     28  C   UNL     1       3.828  -1.660 406.047  1.00  0.00    -0.000 C 
BRANCH  28  29
ATOM     29  C   UNL     1       3.200  -1.927 404.671  1.00  0.00    -0.003 C 
ATOM     30  C   UNL     1       2.232  -3.105 404.728  1.00  0.00     0.004 C 
ENDBRANCH  28  29
ENDBRANCH  27  28
ENDBRANCH  26  27
ENDBRANCH  25  26
ENDBRANCH  24  25
ENDBRANCH  23  24
ENDBRANCH  22  23
ENDBRANCH  21  22
ENDBRANCH  20  21
ENDBRANCH  19  20
ENDBRANCH  18  19
ENDBRANCH  17  18
ENDBRANCH   1  17
TORSDOF 26
ENDMDL
MODEL 5
REMARK VINA RESULT:    -4.326      5.246      9.443
REMARK INTER + INTRA:         -14.588
REMARK INTER:                  -9.264
REMARK INTRA:                  -5.324
REMARK UNBOUND:                -3.687
REMARK SMILES CCCCCCCCCCCCCCCCCCCCCCCCCCCC(=O)[O-]
REMARK SMILES IDX 15 1 16 2 17 3 18 4 19 5 20 6 21 7 22 8 23 9 24 10 25 11
REMARK SMILES IDX 26 12 27 13 28 14 29 15 30 16 14 17 13 18 12 19 11 20 10 21
REMARK SMILES IDX 9 22 8 23 7 24 6 25 5 26 4 27 3 28 2 29 1 30
REMARK H PARENT
REMARK Flexibility Score: inf
ROOT
ATOM      1  C   UNL     1       4.695  -2.679 401.306  1.00  0.00     0.000 C 
ENDROOT
BRANCH   1   2
ATOM      2  C   UNL     1       3.852  -2.277 400.083  1.00  0.00     0.000 C 
BRANCH   2   3
ATOM      3  C   UNL     1       3.850  -0.758 399.838  1.00  0.00     0.000 C 
BRANCH   3   4
ATOM      4  C   UNL     1       5.257  -0.145 399.932  1.00  0.00     0.000 C 
BRANCH   4   5
ATOM      5  C   UNL     1       5.233   1.328 400.377  1.00  0.00     0.000 C 
BRANCH   5   6
ATOM      6  C   UNL     1       3.964   1.687 401.168  1.00  0.00     0.000 C 
BRANCH   6   7
ATOM      7  C   UNL     1       4.217   2.779 402.222  1.00  0.00     0.000 C 
BRANCH   7   8
ATOM      8  C   UNL     1       5.194   2.331 403.325  1.00  0.00     0.000 C 
BRANCH   8   9
ATOM      9  C   UNL     1       4.793   1.043 404.071  1.00  0.00     0.000 C 
BRANCH   9  10
ATOM     10  C   UNL     1       5.938   0.036 404.305  1.00  0.00     0.000 C 
BRANCH  10  11
ATOM     11  C   UNL     1       7.061   0.077 403.252  1.00  0.00     0.000 C 
BRANCH  11  12
ATOM     12  C   UNL     1       7.921  -1.198 403.250  1.00  0.00     0.006 C 
BRANCH  12  13
ATOM     13  C   UNL     1       8.065  -1.795 401.844  1.00  0.00     0.053 C 
BRANCH  13  14
ATOM     14  C   UNL     1       9.209  -1.183 401.097  1.00  0.00     0.041 C 
ATOM     15  O   UNL     1      10.111  -1.912 400.607  1.00  0.00    -0.550 OA
ATOM     16  O   UNL     1       9.262   0.194 400.912  1.00  0.00    -0.550 OA
ENDBRANCH  13  14
ENDBRANCH  12  13
ENDBRANCH  11  12
ENDBRANCH  10  11
ENDBRANCH   9  10
ENDBRANCH   8   9
ENDBRANCH   7   8
ENDBRANCH   6   7
ENDBRANCH   5   6
ENDBRANCH   4   5
ENDBRANCH   3   4
ENDBRANCH   2   3
ENDBRANCH   1   2
BRANCH   1  17
ATOM     17  C   UNL     1       3.977  -2.385 402.634  1.00  0.00     0.000 C 
BRANCH  17  18
ATOM     18  C   UNL     1       3.174  -3.587 403.162  1.00  0.00     0.000 C 
BRANCH  18  19
ATOM     19  C   UNL     1       2.589  -3.419 404.580  1.00  0.00     0.000 C 
BRANCH  19  20
ATOM     20  C   UNL     1       2.915  -2.081 405.271  1.00  0.00     0.000 C 
BRANCH  20  21
ATOM     21  C   UNL     1       3.460  -2.208 406.706  1.00  0.00     0.000 C 
BRANCH  21  22
ATOM     22  C   UNL     1       4.237  -3.517 406.963  1.00  0.00    -0.000 C 
BRANCH  22  23
ATOM     23  C   UNL     1       5.761  -3.306 406.968  1.00  0.00    -0.000 C 
BRANCH  23  24
ATOM     24  C   UNL     1       6.385  -3.483 405.573  1.00  0.00    -0.000 C 
BRANCH  24  25
ATOM     25  C   UNL     1       6.191  -4.905 405.018  1.00  0.00    -0.000 C 
BRANCH  25  26
ATOM     26  C   UNL     1       6.515  -5.004 403.519  1.00  0.00    -0.000 C 
BRANCH  26  27
ATOM     27  C   UNL     1       6.159  -6.378 402.922  1.00  0.00    -0.000 C 
BRANCH  27  28
ATOM     28  C   UNL     1       5.358  -6.264 401.616  1.00  0.00    -0.000 C 
BRANCH  28  29
ATOM     29  C   UNL     1       3.964  -6.899 401.722  1.00  0.00    -0.003 C 
ATOM     30  C   UNL     1       3.984  -8.351 401.255  1.00  0.00     0.004 C 
ENDBRANCH  28  29
ENDBRANCH  27  28
ENDBRANCH  26  27
ENDBRANCH  25  26
ENDBRANCH  24  25
ENDBRANCH  23  24
ENDBRANCH  22  23
ENDBRANCH  21  22
ENDBRANCH  20  21
ENDBRANCH  19  20
ENDBRANCH  18  19
ENDBRANCH  17  18
ENDBRANCH   1  17
TORSDOF 26
ENDMDL
MODEL 6
REMARK VINA RESULT:    -4.321      6.414     10.251
REMARK INTER + INTRA:         -14.576
REMARK INTER:                 -11.304
REMARK INTRA:                  -3.272
REMARK UNBOUND:                -3.687
REMARK SMILES CCCCCCCCCCCCCCCCCCCCCCCCCCCC(=O)[O-]
REMARK SMILES IDX 15 1 16 2 17 3 18 4 19 5 20 6 21 7 22 8 23 9 24 10 25 11
REMARK SMILES IDX 26 12 27 13 28 14 29 15 30 16 14 17 13 18 12 19 11 20 10 21
REMARK SMILES IDX 9 22 8 23 7 24 6 25 5 26 4 27 3 28 2 29 1 30
REMARK H PARENT
REMARK Flexibility Score: inf
ROOT
ATOM      1  C   UNL     1       6.587   3.060 403.479  1.00  0.00     0.000 C 
ENDROOT
BRANCH   1   2
ATOM      2  C   UNL     1       7.007   3.979 404.639  1.00  0.00     0.000 C 
BRANCH   2   3
ATOM      3  C   UNL     1       7.214   5.437 404.194  1.00  0.00     0.000 C 
BRANCH   3   4
ATOM      4  C   UNL     1       5.889   6.157 403.900  1.00  0.00     0.000 C 
BRANCH   4   5
ATOM      5  C   UNL     1       6.093   7.522 403.218  1.00  0.00     0.000 C 
BRANCH   5   6
ATOM      6  C   UNL     1       4.842   7.998 402.462  1.00  0.00     0.000 C 
BRANCH   6   7
ATOM      7  C   UNL     1       3.568   7.264 402.912  1.00  0.00     0.000 C 
BRANCH   7   8
ATOM      8  C   UNL     1       2.591   8.175 403.678  1.00  0.00     0.000 C 
BRANCH   8   9
ATOM      9  C   UNL     1       2.879   8.325 405.185  1.00  0.00     0.000 C 
BRANCH   9  10
ATOM     10  C   UNL     1       3.704   9.568 405.575  1.00  0.00     0.000 C 
BRANCH  10  11
ATOM     11  C   UNL     1       5.009   9.266 406.335  1.00  0.00     0.000 C 
BRANCH  11  12
ATOM     12  C   UNL     1       4.823   9.271 407.862  1.00  0.00     0.006 C 
BRANCH  12  13
ATOM     13  C   UNL     1       4.777   7.851 408.442  1.00  0.00     0.053 C 
BRANCH  13  14
ATOM     14  C   UNL     1       6.002   7.068 408.085  1.00  0.00     0.041 C 
ATOM     15  O   UNL     1       5.903   6.001 407.423  1.00  0.00    -0.550 OA
ATOM     16  O   UNL     1       7.259   7.533 408.453  1.00  0.00    -0.550 OA
ENDBRANCH  13  14
ENDBRANCH  12  13
ENDBRANCH  11  12
ENDBRANCH  10  11
ENDBRANCH   9  10
ENDBRANCH   8   9
ENDBRANCH   7   8
ENDBRANCH   6   7
ENDBRANCH   5   6
ENDBRANCH   4   5
ENDBRANCH   3   4
ENDBRANCH   2   3
ENDBRANCH   1   2
BRANCH   1  17
ATOM     17  C   UNL     1       5.681   1.907 403.944  1.00  0.00     0.000 C 
BRANCH  17  18
ATOM     18  C   UNL     1       4.325   1.878 403.217  1.00  0.00     0.000 C 
BRANCH  18  19
ATOM     19  C   UNL     1       4.066   3.058 402.256  1.00  0.00     0.000 C 
BRANCH  19  20
ATOM     20  C   UNL     1       3.654   2.661 400.825  1.00  0.00     0.000 C 
BRANCH  20  21
ATOM     21  C   UNL     1       3.743   1.155 400.519  1.00  0.00     0.000 C 
BRANCH  21  22
ATOM     22  C   UNL     1       5.153   0.687 400.099  1.00  0.00    -0.000 C 
BRANCH  22  23
ATOM     23  C   UNL     1       5.357  -0.825 400.301  1.00  0.00    -0.000 C 
BRANCH  23  24
ATOM     24  C   UNL     1       4.378  -1.418 401.329  1.00  0.00    -0.000 C 
BRANCH  24  25
ATOM     25  C   UNL     1       3.555  -2.584 400.753  1.00  0.00    -0.000 C 
BRANCH  25  26
ATOM     26  C   UNL     1       3.537  -3.810 401.679  1.00  0.00    -0.000 C 
BRANCH  26  27
ATOM     27  C   UNL     1       4.035  -3.490 403.100  1.00  0.00    -0.000 C 
BRANCH  27  28
ATOM     28  C   UNL     1       2.930  -3.627 404.158  1.00  0.00    -0.000 C 
BRANCH  28  29
ATOM     29  C   UNL     1       2.731  -2.342 404.975  1.00  0.00    -0.003 C 
ATOM     30  C   UNL     1       4.006  -1.504 405.001  1.00  0.00     0.004 C 
ENDBRANCH  28  29
ENDBRANCH  27  28
ENDBRANCH  26  27
ENDBRANCH  25  26
ENDBRANCH  24  25
ENDBRANCH  23  24
ENDBRANCH  22  23
ENDBRANCH  21  22
ENDBRANCH  20  21
ENDBRANCH  19  20
ENDBRANCH  18  19
ENDBRANCH  17  18
ENDBRANCH   1  17
TORSDOF 26
ENDMDL
MODEL 7
REMARK VINA RESULT:    -4.314      3.351      6.042
REMARK INTER + INTRA:         -14.558
REMARK INTER:                  -9.671
REMARK INTRA:                  -4.887
REMARK UNBOUND:                -3.687
REMARK SMILES CCCCCCCCCCCCCCCCCCCCCCCCCCCC(=O)[O-]
REMARK SMILES IDX 15 1 16 2 17 3 18 4 19 5 20 6 21 7 22 8 23 9 24 10 25 11
REMARK SMILES IDX 26 12 27 13 28 14 29 15 30 16 14 17 13 18 12 19 11 20 10 21
REMARK SMILES IDX 9 22 8 23 7 24 6 25 5 26 4 27 3 28 2 29 1 30
REMARK H PARENT
REMARK Flexibility Score: inf
ROOT
ATOM      1  C   UNL     1       6.187   2.100 402.549  1.00  0.00     0.000 C 
ENDROOT
BRANCH   1   2
ATOM      2  C   UNL     1       6.498   1.258 403.798  1.00  0.00     0.000 C 
BRANCH   2   3
ATOM      3  C   UNL     1       5.238   0.926 404.616  1.00  0.00     0.000 C 
BRANCH   3   4
ATOM      4  C   UNL     1       4.921  -0.578 404.624  1.00  0.00     0.000 C 
BRANCH   4   5
ATOM      5  C   UNL     1       6.091  -1.428 405.151  1.00  0.00     0.000 C 
BRANCH   5   6
ATOM      6  C   UNL     1       5.663  -2.398 406.265  1.00  0.00     0.000 C 
BRANCH   6   7
ATOM      7  C   UNL     1       4.145  -2.378 406.511  1.00  0.00     0.000 C 
BRANCH   7   8
ATOM      8  C   UNL     1       3.417  -3.567 405.858  1.00  0.00     0.000 C 
BRANCH   8   9
ATOM      9  C   UNL     1       2.408  -3.193 404.756  1.00  0.00     0.000 C 
BRANCH   9  10
ATOM     10  C   UNL     1       2.914  -3.380 403.311  1.00  0.00     0.000 C 
BRANCH  10  11
ATOM     11  C   UNL     1       4.162  -4.271 403.172  1.00  0.00     0.000 C 
BRANCH  11  12
ATOM     12  C   UNL     1       4.023  -5.320 402.057  1.00  0.00     0.006 C 
BRANCH  12  13
ATOM     13  C   UNL     1       5.090  -6.418 402.160  1.00  0.00     0.053 C 
BRANCH  13  14
ATOM     14  C   UNL     1       4.483  -7.786 402.101  1.00  0.00     0.041 C 
ATOM     15  O   UNL     1       3.901  -8.178 401.055  1.00  0.00    -0.550 OA
ATOM     16  O   UNL     1       4.592  -8.644 403.190  1.00  0.00    -0.550 OA
ENDBRANCH  13  14
ENDBRANCH  12  13
ENDBRANCH  11  12
ENDBRANCH  10  11
ENDBRANCH   9  10
ENDBRANCH   8   9
ENDBRANCH   7   8
ENDBRANCH   6   7
ENDBRANCH   5   6
ENDBRANCH   4   5
ENDBRANCH   3   4
ENDBRANCH   2   3
ENDBRANCH   1   2
BRANCH   1  17
ATOM     17  C   UNL     1       4.915   2.950 402.717  1.00  0.00     0.000 C 
BRANCH  17  18
ATOM     18  C   UNL     1       3.951   2.831 401.523  1.00  0.00     0.000 C 
BRANCH  18  19
ATOM     19  C   UNL     1       4.327   1.760 400.476  1.00  0.00     0.000 C 
BRANCH  19  20
ATOM     20  C   UNL     1       3.354   0.570 400.376  1.00  0.00     0.000 C 
BRANCH  20  21
ATOM     21  C   UNL     1       3.807  -0.701 401.119  1.00  0.00     0.000 C 
BRANCH  21  22
ATOM     22  C   UNL     1       4.142  -1.883 400.184  1.00  0.00    -0.000 C 
BRANCH  22  23
ATOM     23  C   UNL     1       5.592  -2.371 400.349  1.00  0.00    -0.000 C 
BRANCH  23  24
ATOM     24  C   UNL     1       6.333  -1.642 401.484  1.00  0.00    -0.000 C 
BRANCH  24  25
ATOM     25  C   UNL     1       7.791  -1.314 401.118  1.00  0.00    -0.000 C 
BRANCH  25  26
ATOM     26  C   UNL     1       7.945  -0.848 399.661  1.00  0.00    -0.000 C 
BRANCH  26  27
ATOM     27  C   UNL     1       7.545   0.625 399.462  1.00  0.00    -0.000 C 
BRANCH  27  28
ATOM     28  C   UNL     1       7.645   1.069 397.994  1.00  0.00    -0.000 C 
BRANCH  28  29
ATOM     29  C   UNL     1       9.085   1.033 397.463  1.00  0.00    -0.003 C 
ATOM     30  C   UNL     1       9.983   1.994 398.238  1.00  0.00     0.004 C 
ENDBRANCH  28  29
ENDBRANCH  27  28
ENDBRANCH  26  27
ENDBRANCH  25  26
ENDBRANCH  24  25
ENDBRANCH  23  24
ENDBRANCH  22  23
ENDBRANCH  21  22
ENDBRANCH  20  21
ENDBRANCH  19  20
ENDBRANCH  18  19
ENDBRANCH  17  18
ENDBRANCH   1  17
TORSDOF 26
ENDMDL
MODEL 8
REMARK VINA RESULT:    -4.305      5.908      9.067
REMARK INTER + INTRA:         -14.534
REMARK INTER:                  -9.148
REMARK INTRA:                  -5.386
REMARK UNBOUND:                -3.687
REMARK SMILES CCCCCCCCCCCCCCCCCCCCCCCCCCCC(=O)[O-]
REMARK SMILES IDX 15 1 16 2 17 3 18 4 19 5 20 6 21 7 22 8 23 9 24 10 25 11
REMARK SMILES IDX 26 12 27 13 28 14 29 15 30 16 14 17 13 18 12 19 11 20 10 21
REMARK SMILES IDX 9 22 8 23 7 24 6 25 5 26 4 27 3 28 2 29 1 30
REMARK H PARENT
REMARK Flexibility Score: inf
ROOT
ATOM      1  C   UNL     1       4.811   2.161 403.023  1.00  0.00     0.000 C 
ENDROOT
BRANCH   1   2
ATOM      2  C   UNL     1       3.946   1.008 403.562  1.00  0.00     0.000 C 
BRANCH   2   3
ATOM      3  C   UNL     1       4.735   0.052 404.474  1.00  0.00     0.000 C 
BRANCH   3   4
ATOM      4  C   UNL     1       6.183  -0.151 404.000  1.00  0.00     0.000 C 
BRANCH   4   5
ATOM      5  C   UNL     1       6.346  -1.394 403.106  1.00  0.00     0.000 C 
BRANCH   5   6
ATOM      6  C   UNL     1       7.778  -1.952 403.124  1.00  0.00     0.000 C 
BRANCH   6   7
ATOM      7  C   UNL     1       7.899  -3.286 402.367  1.00  0.00     0.000 C 
BRANCH   7   8
ATOM      8  C   UNL     1       7.429  -3.187 400.904  1.00  0.00     0.000 C 
BRANCH   8   9
ATOM      9  C   UNL     1       6.949  -4.513 400.280  1.00  0.00     0.000 C 
BRANCH   9  10
ATOM     10  C   UNL     1       6.742  -5.671 401.277  1.00  0.00     0.000 C 
BRANCH  10  11
ATOM     11  C   UNL     1       5.287  -5.882 401.733  1.00  0.00     0.000 C 
BRANCH  11  12
ATOM     12  C   UNL     1       4.798  -7.324 401.518  1.00  0.00     0.006 C 
BRANCH  12  13
ATOM     13  C   UNL     1       4.565  -8.059 402.844  1.00  0.00     0.053 C 
BRANCH  13  14
ATOM     14  C   UNL     1       5.720  -8.943 403.198  1.00  0.00     0.041 C 
ATOM     15  O   UNL     1       5.780  -9.487 404.332  1.00  0.00    -0.550 OA
ATOM     16  O   UNL     1       6.716  -9.195 402.262  1.00  0.00    -0.550 OA
ENDBRANCH  13  14
ENDBRANCH  12  13
ENDBRANCH  11  12
ENDBRANCH  10  11
ENDBRANCH   9  10
ENDBRANCH   8   9
ENDBRANCH   7   8
ENDBRANCH   6   7
ENDBRANCH   5   6
ENDBRANCH   4   5
ENDBRANCH   3   4
ENDBRANCH   2   3
ENDBRANCH   1   2
BRANCH   1  17
ATOM     17  C   UNL     1       4.185   2.834 401.789  1.00  0.00     0.000 C 
BRANCH  17  18
ATOM     18  C   UNL     1       4.107   1.899 400.569  1.00  0.00     0.000 C 
BRANCH  18  19
ATOM     19  C   UNL     1       5.422   1.176 400.206  1.00  0.00     0.000 C 
BRANCH  19  20
ATOM     20  C   UNL     1       5.281  -0.323 399.880  1.00  0.00     0.000 C 
BRANCH  20  21
ATOM     21  C   UNL     1       3.945  -0.956 400.314  1.00  0.00     0.000 C 
BRANCH  21  22
ATOM     22  C   UNL     1       3.786  -2.430 399.882  1.00  0.00    -0.000 C 
BRANCH  22  23
ATOM     23  C   UNL     1       3.201  -3.311 400.999  1.00  0.00    -0.000 C 
BRANCH  23  24
ATOM     24  C   UNL     1       3.312  -2.655 402.386  1.00  0.00    -0.000 C 
BRANCH  24  25
ATOM     25  C   UNL     1       3.079  -3.656 403.531  1.00  0.00    -0.000 C 
BRANCH  25  26
ATOM     26  C   UNL     1       2.542  -2.983 404.804  1.00  0.00    -0.000 C 
BRANCH  26  27
ATOM     27  C   UNL     1       3.519  -3.087 405.989  1.00  0.00    -0.000 C 
BRANCH  27  28
ATOM     28  C   UNL     1       4.777  -3.900 405.648  1.00  0.00    -0.000 C 
BRANCH  28  29
ATOM     29  C   UNL     1       6.054  -3.290 406.241  1.00  0.00    -0.003 C 
ATOM     30  C   UNL     1       5.723  -2.228 407.286  1.00  0.00     0.004 C 
ENDBRANCH  28  29
ENDBRANCH  27  28
ENDBRANCH  26  27
ENDBRANCH  25  26
ENDBRANCH  24  25
ENDBRANCH  23  24
ENDBRANCH  22  23
ENDBRANCH  21  22
ENDBRANCH  20  21
ENDBRANCH  19  20
ENDBRANCH  18  19
ENDBRANCH  17  18
ENDBRANCH   1  17
TORSDOF 26
ENDMDL
MODEL 9
REMARK VINA RESULT:    -4.278      5.838      7.892
REMARK INTER + INTRA:         -14.467
REMARK INTER:                  -8.788
REMARK INTRA:                  -5.678
REMARK UNBOUND:                -3.687
REMARK SMILES CCCCCCCCCCCCCCCCCCCCCCCCCCCC(=O)[O-]
REMARK SMILES IDX 15 1 16 2 17 3 18 4 19 5 20 6 21 7 22 8 23 9 24 10 25 11
REMARK SMILES IDX 26 12 27 13 28 14 29 15 30 16 14 17 13 18 12 19 11 20 10 21
REMARK SMILES IDX 9 22 8 23 7 24 6 25 5 26 4 27 3 28 2 29 1 30
REMARK H PARENT
REMARK Flexibility Score: inf
ROOT
ATOM      1  C   UNL     1       3.136  -3.189 400.869  1.00  0.00     0.000 C 
ENDROOT
BRANCH   1   2
ATOM      2  C   UNL     1       3.934  -4.280 401.603  1.00  0.00     0.000 C 
BRANCH   2   3
ATOM      3  C   UNL     1       3.732  -4.236 403.128  1.00  0.00     0.000 C 
BRANCH   3   4
ATOM      4  C   UNL     1       3.315  -2.844 403.627  1.00  0.00     0.000 C 
BRANCH   4   5
ATOM      5  C   UNL     1       2.550  -2.896 404.961  1.00  0.00     0.000 C 
BRANCH   5   6
ATOM      6  C   UNL     1       3.245  -2.092 406.072  1.00  0.00     0.000 C 
BRANCH   6   7
ATOM      7  C   UNL     1       4.069  -2.984 407.017  1.00  0.00     0.000 C 
BRANCH   7   8
ATOM      8  C   UNL     1       5.588  -2.813 406.828  1.00  0.00     0.000 C 
BRANCH   8   9
ATOM      9  C   UNL     1       6.246  -3.823 405.868  1.00  0.00     0.000 C 
BRANCH   9  10
ATOM     10  C   UNL     1       5.692  -5.260 405.946  1.00  0.00     0.000 C 
BRANCH  10  11
ATOM     11  C   UNL     1       6.641  -6.351 405.417  1.00  0.00     0.000 C 
BRANCH  11  12
ATOM     12  C   UNL     1       6.432  -6.649 403.923  1.00  0.00     0.006 C 
BRANCH  12  13
ATOM     13  C   UNL     1       5.294  -7.649 403.687  1.00  0.00     0.053 C 
BRANCH  13  14
ATOM     14  C   UNL     1       4.943  -7.757 402.235  1.00  0.00     0.041 C 
ATOM     15  O   UNL     1       5.851  -7.882 401.370  1.00  0.00    -0.550 OA
ATOM     16  O   UNL     1       3.611  -7.753 401.838  1.00  0.00    -0.550 OA
ENDBRANCH  13  14
ENDBRANCH  12  13
ENDBRANCH  11  12
ENDBRANCH  10  11
ENDBRANCH   9  10
ENDBRANCH   8   9
ENDBRANCH   7   8
ENDBRANCH   6   7
ENDBRANCH   5   6
ENDBRANCH   4   5
ENDBRANCH   3   4
ENDBRANCH   2   3
ENDBRANCH   1   2
BRANCH   1  17
ATOM     17  C   UNL     1       4.015  -2.364 399.912  1.00  0.00     0.000 C 
BRANCH  17  18
ATOM     18  C   UNL     1       4.027  -0.863 400.251  1.00  0.00     0.000 C 
BRANCH  18  19
ATOM     19  C   UNL     1       5.407  -0.178 400.163  1.00  0.00     0.000 C 
BRANCH  19  20
ATOM     20  C   UNL     1       5.397   1.350 400.361  1.00  0.00     0.000 C 
BRANCH  20  21
ATOM     21  C   UNL     1       4.029   1.943 400.749  1.00  0.00     0.000 C 
BRANCH  21  22
ATOM     22  C   UNL     1       3.990   2.536 402.174  1.00  0.00    -0.000 C 
BRANCH  22  23
ATOM     23  C   UNL     1       5.230   2.161 403.003  1.00  0.00    -0.000 C 
BRANCH  23  24
ATOM     24  C   UNL     1       4.905   1.171 404.135  1.00  0.00    -0.000 C 
BRANCH  24  25
ATOM     25  C   UNL     1       5.613  -0.183 403.954  1.00  0.00    -0.000 C 
BRANCH  25  26
ATOM     26  C   UNL     1       7.142  -0.046 403.879  1.00  0.00    -0.000 C 
BRANCH  26  27
ATOM     27  C   UNL     1       7.789  -1.099 402.962  1.00  0.00    -0.000 C 
BRANCH  27  28
ATOM     28  C   UNL     1       6.826  -2.240 402.601  1.00  0.00    -0.000 C 
BRANCH  28  29
ATOM     29  C   UNL     1       7.556  -3.561 402.315  1.00  0.00    -0.003 C 
ATOM     30  C   UNL     1       8.767  -3.729 403.228  1.00  0.00     0.004 C 
ENDBRANCH  28  29
ENDBRANCH  27  28
ENDBRANCH  26  27
ENDBRANCH  25  26
ENDBRANCH  24  25
ENDBRANCH  23  24
ENDBRANCH  22  23
ENDBRANCH  21  22
ENDBRANCH  20  21
ENDBRANCH  19  20
ENDBRANCH  18  19
ENDBRANCH  17  18
ENDBRANCH   1  17
TORSDOF 26
ENDMDL
