MODEL 1
REMARK VINA RESULT:    -4.263      0.000      0.000
REMARK INTER + INTRA:          -5.845
REMARK INTER:                  -5.759
REMARK INTRA:                  -0.086
REMARK UNBOUND:                -0.086
REMARK SMILES [NH3+]CCCC[C@H]([NH3+])C(=O)[O-]
REMARK SMILES IDX 4 1 3 2 2 3 1 4 5 8 6 9 7 10 8 14 9 15 10 16
REMARK H PARENT 1 5 1 6 1 7 7 11 7 12 7 13
REMARK Flexibility Score: inf
ROOT
ATOM      1  C   UNL     1     -38.684  20.172 -29.934  1.00  0.00     0.012 C 
ENDROOT
BRANCH   1   2
ATOM      2  C   UNL     1     -39.473  21.024 -28.934  1.00  0.00     0.061 C 
BRANCH   2   3
ATOM      3  C   UNL     1     -38.824  22.401 -28.748  1.00  0.00     0.258 C 
BRANCH   3   4
ATOM      4  N   UNL     1     -39.798  23.379 -28.263  1.00  0.00    -0.358 N 
ATOM      5  H   UNL     1     -40.633  22.889 -27.869  1.00  0.00     0.344 HD
ATOM      6  H   UNL     1     -39.358  23.957 -27.512  1.00  0.00     0.344 HD
ATOM      7  H   UNL     1     -40.093  24.010 -29.045  1.00  0.00     0.344 HD
ENDBRANCH   3   4
ENDBRANCH   2   3
ENDBRANCH   1   2
BRANCH   1   8
ATOM      8  C   UNL     1     -38.934  18.674 -29.699  1.00  0.00     0.072 C 
BRANCH   8   9
ATOM      9  C   UNL     1     -38.176  17.778 -30.704  1.00  0.00     0.227 C 
BRANCH   9  10
ATOM     10  N   UNL     1     -39.084  16.867 -31.416  1.00  0.00    -0.350 N 
ATOM     11  H   UNL     1     -38.536  16.101 -31.872  1.00  0.00     0.345 HD
ATOM     12  H   UNL     1     -39.778  16.444 -30.757  1.00  0.00     0.345 HD
ATOM     13  H   UNL     1     -39.592  17.381 -32.171  1.00  0.00     0.345 HD
ENDBRANCH   9  10
BRANCH   9  14
ATOM     14  C   UNL     1     -37.115  16.992 -29.981  1.00  0.00     0.099 C 
ATOM     15  O   UNL     1     -37.384  15.872 -29.474  1.00  0.00    -0.544 OA
ATOM     16  O   UNL     1     -35.833  17.513 -29.852  1.00  0.00    -0.544 OA
ENDBRANCH   9  14
ENDBRANCH   8   9
ENDBRANCH   1   8
TORSDOF 7
ENDMDL
MODEL 2
REMARK VINA RESULT:    -4.251      3.146      5.287
REMARK INTER + INTRA:          -5.829
REMARK INTER:                  -5.725
REMARK INTRA:                  -0.104
REMARK UNBOUND:                -0.086
REMARK SMILES [NH3+]CCCC[C@H]([NH3+])C(=O)[O-]
REMARK SMILES IDX 4 1 3 2 2 3 1 4 5 8 6 9 7 10 8 14 9 15 10 16
REMARK H PARENT 1 5 1 6 1 7 7 11 7 12 7 13
REMARK Flexibility Score: inf
ROOT
ATOM      1  C   UNL     1     -37.708  18.603 -29.879  1.00  0.00     0.012 C 
ENDROOT
BRANCH   1   2
ATOM      2  C   UNL     1     -37.460  17.099 -30.034  1.00  0.00     0.061 C 
BRANCH   2   3
ATOM      3  C   UNL     1     -35.959  16.783 -30.035  1.00  0.00     0.258 C 
BRANCH   3   4
ATOM      4  N   UNL     1     -35.712  15.413 -30.483  1.00  0.00    -0.358 N 
ATOM      5  H   UNL     1     -36.569  14.829 -30.345  1.00  0.00     0.344 HD
ATOM      6  H   UNL     1     -35.470  15.423 -31.500  1.00  0.00     0.344 HD
ATOM      7  H   UNL     1     -34.912  15.000 -29.950  1.00  0.00     0.344 HD
ENDBRANCH   3   4
ENDBRANCH   2   3
ENDBRANCH   1   2
BRANCH   1   8
ATOM      8  C   UNL     1     -39.203  18.897 -29.679  1.00  0.00     0.072 C 
BRANCH   8   9
ATOM      9  C   UNL     1     -39.466  19.890 -28.524  1.00  0.00     0.227 C 
BRANCH   9  10
ATOM     10  N   UNL     1     -40.799  19.699 -27.933  1.00  0.00    -0.350 N 
ATOM     11  H   UNL     1     -41.507  19.557 -28.690  1.00  0.00     0.345 HD
ATOM     12  H   UNL     1     -40.807  18.868 -27.297  1.00  0.00     0.345 HD
ATOM     13  H   UNL     1     -41.080  20.549 -27.396  1.00  0.00     0.345 HD
ENDBRANCH   9  10
BRANCH   9  14
ATOM     14  C   UNL     1     -39.318  21.301 -29.026  1.00  0.00     0.099 C 
ATOM     15  O   UNL     1     -40.263  21.863 -29.641  1.00  0.00    -0.544 OA
ATOM     16  O   UNL     1     -38.125  21.986 -28.831  1.00  0.00    -0.544 OA
ENDBRANCH   9  14
ENDBRANCH   8   9
ENDBRANCH   1   8
TORSDOF 7
ENDMDL
MODEL 3
REMARK VINA RESULT:    -4.235      1.561      1.780
REMARK INTER + INTRA:          -5.806
REMARK INTER:                  -5.631
REMARK INTRA:                  -0.175
REMARK UNBOUND:                -0.086
REMARK SMILES [NH3+]CCCC[C@H]([NH3+])C(=O)[O-]
REMARK SMILES IDX 4 1 3 2 2 3 1 4 5 8 6 9 7 10 8 14 9 15 10 16
REMARK H PARENT 1 5 1 6 1 7 7 11 7 12 7 13
REMARK Flexibility Score: inf
ROOT
ATOM      1  C   UNL     1     -39.199  19.658 -28.599  1.00  0.00     0.012 C 
ENDROOT
BRANCH   1   2
ATOM      2  C   UNL     1     -39.978  20.944 -28.895  1.00  0.00     0.061 C 
BRANCH   2   3
ATOM      3  C   UNL     1     -39.048  22.165 -28.897  1.00  0.00     0.258 C 
BRANCH   3   4
ATOM      4  N   UNL     1     -39.691  23.314 -28.258  1.00  0.00    -0.358 N 
ATOM      5  H   UNL     1     -40.304  22.993 -27.474  1.00  0.00     0.344 HD
ATOM      6  H   UNL     1     -38.955  23.948 -27.874  1.00  0.00     0.344 HD
ATOM      7  H   UNL     1     -40.260  23.842 -28.960  1.00  0.00     0.344 HD
ENDBRANCH   3   4
ENDBRANCH   2   3
ENDBRANCH   1   2
BRANCH   1   8
ATOM      8  C   UNL     1     -37.740  19.777 -29.068  1.00  0.00     0.072 C 
BRANCH   8   9
ATOM      9  C   UNL     1     -37.483  19.052 -30.408  1.00  0.00     0.227 C 
BRANCH   9  10
ATOM     10  N   UNL     1     -38.102  19.759 -31.539  1.00  0.00    -0.350 N 
ATOM     11  H   UNL     1     -37.522  20.591 -31.799  1.00  0.00     0.345 HD
ATOM     12  H   UNL     1     -38.187  19.129 -32.369  1.00  0.00     0.345 HD
ATOM     13  H   UNL     1     -39.049  20.109 -31.271  1.00  0.00     0.345 HD
ENDBRANCH   9  10
BRANCH   9  14
ATOM     14  C   UNL     1     -38.005  17.643 -30.329  1.00  0.00     0.099 C 
ATOM     15  O   UNL     1     -37.479  16.809 -29.546  1.00  0.00    -0.544 OA
ATOM     16  O   UNL     1     -39.062  17.247 -31.140  1.00  0.00    -0.544 OA
ENDBRANCH   9  14
ENDBRANCH   8   9
ENDBRANCH   1   8
TORSDOF 7
ENDMDL
MODEL 4
REMARK VINA RESULT:    -4.161      2.941      5.108
REMARK INTER + INTRA:          -5.707
REMARK INTER:                  -5.470
REMARK INTRA:                  -0.237
REMARK UNBOUND:                -0.086
REMARK SMILES [NH3+]CCCC[C@H]([NH3+])C(=O)[O-]
REMARK SMILES IDX 4 1 3 2 2 3 1 4 5 8 6 9 7 10 8 14 9 15 10 16
REMARK H PARENT 1 5 1 6 1 7 7 11 7 12 7 13
REMARK Flexibility Score: inf
ROOT
ATOM      1  C   UNL     1     -36.857  19.563 -30.002  1.00  0.00     0.012 C 
ENDROOT
BRANCH   1   2
ATOM      2  C   UNL     1     -37.510  18.178 -30.064  1.00  0.00     0.061 C 
BRANCH   2   3
ATOM      3  C   UNL     1     -38.721  18.180 -31.006  1.00  0.00     0.258 C 
BRANCH   3   4
ATOM      4  N   UNL     1     -39.035  16.824 -31.459  1.00  0.00    -0.358 N 
ATOM      5  H   UNL     1     -40.039  16.605 -31.267  1.00  0.00     0.344 HD
ATOM      6  H   UNL     1     -38.864  16.760 -32.488  1.00  0.00     0.344 HD
ATOM      7  H   UNL     1     -38.421  16.132 -30.971  1.00  0.00     0.344 HD
ENDBRANCH   3   4
ENDBRANCH   2   3
ENDBRANCH   1   2
BRANCH   1   8
ATOM      8  C   UNL     1     -37.417  20.384 -28.829  1.00  0.00     0.072 C 
BRANCH   8   9
ATOM      9  C   UNL     1     -38.217  21.620 -29.296  1.00  0.00     0.227 C 
BRANCH   9  10
ATOM     10  N   UNL     1     -37.860  22.823 -28.529  1.00  0.00    -0.350 N 
ATOM     11  H   UNL     1     -36.819  22.906 -28.462  1.00  0.00     0.345 HD
ATOM     12  H   UNL     1     -38.242  23.683 -28.988  1.00  0.00     0.345 HD
ATOM     13  H   UNL     1     -38.233  22.754 -27.556  1.00  0.00     0.345 HD
ENDBRANCH   9  10
BRANCH   9  14
ATOM     14  C   UNL     1     -39.692  21.346 -29.173  1.00  0.00     0.099 C 
ATOM     15  O   UNL     1     -40.102  20.306 -28.593  1.00  0.00    -0.544 OA
ATOM     16  O   UNL     1     -40.612  22.232 -29.720  1.00  0.00    -0.544 OA
ENDBRANCH   9  14
ENDBRANCH   8   9
ENDBRANCH   1   8
TORSDOF 7
ENDMDL
MODEL 5
REMARK VINA RESULT:    -4.132      2.224      2.530
REMARK INTER + INTRA:          -5.667
REMARK INTER:                  -5.526
REMARK INTRA:                  -0.141
REMARK UNBOUND:                -0.086
REMARK SMILES [NH3+]CCCC[C@H]([NH3+])C(=O)[O-]
REMARK SMILES IDX 4 1 3 2 2 3 1 4 5 8 6 9 7 10 8 14 9 15 10 16
REMARK H PARENT 1 5 1 6 1 7 7 11 7 12 7 13
REMARK Flexibility Score: inf
ROOT
ATOM      1  C   UNL     1     -39.278  19.496 -28.828  1.00  0.00     0.012 C 
ENDROOT
BRANCH   1   2
ATOM      2  C   UNL     1     -39.967  20.862 -28.924  1.00  0.00     0.061 C 
BRANCH   2   3
ATOM      3  C   UNL     1     -38.942  22.003 -28.867  1.00  0.00     0.258 C 
BRANCH   3   4
ATOM      4  N   UNL     1     -39.545  23.222 -28.329  1.00  0.00    -0.358 N 
ATOM      5  H   UNL     1     -38.858  24.010 -28.366  1.00  0.00     0.344 HD
ATOM      6  H   UNL     1     -40.381  23.474 -28.904  1.00  0.00     0.344 HD
ATOM      7  H   UNL     1     -39.851  23.065 -27.340  1.00  0.00     0.344 HD
ENDBRANCH   3   4
ENDBRANCH   2   3
ENDBRANCH   1   2
BRANCH   1   8
ATOM      8  C   UNL     1     -37.848  19.638 -28.282  1.00  0.00     0.072 C 
BRANCH   8   9
ATOM      9  C   UNL     1     -37.308  18.322 -27.678  1.00  0.00     0.227 C 
BRANCH   9  10
ATOM     10  N   UNL     1     -36.388  18.573 -26.559  1.00  0.00    -0.350 N 
ATOM     11  H   UNL     1     -36.425  17.776 -25.882  1.00  0.00     0.345 HD
ATOM     12  H   UNL     1     -35.406  18.682 -26.904  1.00  0.00     0.345 HD
ATOM     13  H   UNL     1     -36.672  19.436 -26.044  1.00  0.00     0.345 HD
ENDBRANCH   9  10
BRANCH   9  14
ATOM     14  C   UNL     1     -36.618  17.520 -28.748  1.00  0.00     0.099 C 
ATOM     15  O   UNL     1     -35.508  17.893 -29.211  1.00  0.00    -0.544 OA
ATOM     16  O   UNL     1     -37.216  16.369 -29.248  1.00  0.00    -0.544 OA
ENDBRANCH   9  14
ENDBRANCH   8   9
ENDBRANCH   1   8
TORSDOF 7
ENDMDL
MODEL 6
REMARK VINA RESULT:    -4.125      3.152      5.197
REMARK INTER + INTRA:          -5.657
REMARK INTER:                  -5.553
REMARK INTRA:                  -0.104
REMARK UNBOUND:                -0.086
REMARK SMILES [NH3+]CCCC[C@H]([NH3+])C(=O)[O-]
REMARK SMILES IDX 4 1 3 2 2 3 1 4 5 8 6 9 7 10 8 14 9 15 10 16
REMARK H PARENT 1 5 1 6 1 7 7 11 7 12 7 13
REMARK Flexibility Score: inf
ROOT
ATOM      1  C   UNL     1     -38.093  17.658 -30.388  1.00  0.00     0.012 C 
ENDROOT
BRANCH   1   2
ATOM      2  C   UNL     1     -37.251  16.621 -29.636  1.00  0.00     0.061 C 
BRANCH   2   3
ATOM      3  C   UNL     1     -35.792  16.645 -30.110  1.00  0.00     0.258 C 
BRANCH   3   4
ATOM      4  N   UNL     1     -35.449  15.409 -30.813  1.00  0.00    -0.358 N 
ATOM      5  H   UNL     1     -34.527  15.513 -31.295  1.00  0.00     0.344 HD
ATOM      6  H   UNL     1     -35.384  14.628 -30.121  1.00  0.00     0.344 HD
ATOM      7  H   UNL     1     -36.191  15.177 -31.514  1.00  0.00     0.344 HD
ENDBRANCH   3   4
ENDBRANCH   2   3
ENDBRANCH   1   2
BRANCH   1   8
ATOM      8  C   UNL     1     -37.368  19.011 -30.457  1.00  0.00     0.072 C 
BRANCH   8   9
ATOM      9  C   UNL     1     -38.262  20.138 -31.020  1.00  0.00     0.227 C 
BRANCH   9  10
ATOM     10  N   UNL     1     -37.593  20.878 -32.100  1.00  0.00    -0.350 N 
ATOM     11  H   UNL     1     -36.639  20.482 -32.264  1.00  0.00     0.345 HD
ATOM     12  H   UNL     1     -38.145  20.819 -32.987  1.00  0.00     0.345 HD
ATOM     13  H   UNL     1     -37.475  21.881 -31.831  1.00  0.00     0.345 HD
ENDBRANCH   9  10
BRANCH   9  14
ATOM     14  C   UNL     1     -38.650  21.078 -29.910  1.00  0.00     0.099 C 
ATOM     15  O   UNL     1     -39.771  21.652 -29.921  1.00  0.00    -0.544 OA
ATOM     16  O   UNL     1     -37.760  21.334 -28.873  1.00  0.00    -0.544 OA
ENDBRANCH   9  14
ENDBRANCH   8   9
ENDBRANCH   1   8
TORSDOF 7
ENDMDL
MODEL 7
REMARK VINA RESULT:    -4.108      2.009      2.265
REMARK INTER + INTRA:          -5.635
REMARK INTER:                  -5.104
REMARK INTRA:                  -0.531
REMARK UNBOUND:                -0.086
REMARK SMILES [NH3+]CCCC[C@H]([NH3+])C(=O)[O-]
REMARK SMILES IDX 4 1 3 2 2 3 1 4 5 8 6 9 7 10 8 14 9 15 10 16
REMARK H PARENT 1 5 1 6 1 7 7 11 7 12 7 13
REMARK Flexibility Score: inf
ROOT
ATOM      1  C   UNL     1     -38.677  20.122 -29.946  1.00  0.00     0.012 C 
ENDROOT
BRANCH   1   2
ATOM      2  C   UNL     1     -38.092  20.360 -31.343  1.00  0.00     0.061 C 
BRANCH   2   3
ATOM      3  C   UNL     1     -36.801  21.186 -31.268  1.00  0.00     0.258 C 
BRANCH   3   4
ATOM      4  N   UNL     1     -35.719  20.412 -30.661  1.00  0.00    -0.358 N 
ATOM      5  H   UNL     1     -36.091  19.824 -29.880  1.00  0.00     0.344 HD
ATOM      6  H   UNL     1     -35.297  19.786 -31.384  1.00  0.00     0.344 HD
ATOM      7  H   UNL     1     -34.977  21.055 -30.298  1.00  0.00     0.344 HD
ENDBRANCH   3   4
ENDBRANCH   2   3
ENDBRANCH   1   2
BRANCH   1   8
ATOM      8  C   UNL     1     -38.925  18.626 -29.700  1.00  0.00     0.072 C 
BRANCH   8   9
ATOM      9  C   UNL     1     -38.202  17.726 -30.728  1.00  0.00     0.227 C 
BRANCH   9  10
ATOM     10  N   UNL     1     -39.132  16.801 -31.393  1.00  0.00    -0.350 N 
ATOM     11  H   UNL     1     -39.730  16.323 -30.680  1.00  0.00     0.345 HD
ATOM     12  H   UNL     1     -39.747  17.314 -32.066  1.00  0.00     0.345 HD
ATOM     13  H   UNL     1     -38.600  16.060 -31.903  1.00  0.00     0.345 HD
ENDBRANCH   9  10
BRANCH   9  14
ATOM     14  C   UNL     1     -37.105  16.955 -30.043  1.00  0.00     0.099 C 
ATOM     15  O   UNL     1     -37.346  15.843 -29.504  1.00  0.00    -0.544 OA
ATOM     16  O   UNL     1     -35.820  17.481 -29.983  1.00  0.00    -0.544 OA
ENDBRANCH   9  14
ENDBRANCH   8   9
ENDBRANCH   1   8
TORSDOF 7
ENDMDL
MODEL 8
REMARK VINA RESULT:    -4.077      3.600      4.437
REMARK INTER + INTRA:          -5.593
REMARK INTER:                  -5.057
REMARK INTRA:                  -0.536
REMARK UNBOUND:                -0.086
REMARK SMILES [NH3+]CCCC[C@H]([NH3+])C(=O)[O-]
REMARK SMILES IDX 4 1 3 2 2 3 1 4 5 8 6 9 7 10 8 14 9 15 10 16
REMARK H PARENT 1 5 1 6 1 7 7 11 7 12 7 13
REMARK Flexibility Score: inf
ROOT
ATOM      1  C   UNL     1     -37.675  18.467 -29.249  1.00  0.00     0.012 C 
ENDROOT
BRANCH   1   2
ATOM      2  C   UNL     1     -37.390  18.266 -27.756  1.00  0.00     0.061 C 
BRANCH   2   3
ATOM      3  C   UNL     1     -36.098  18.982 -27.339  1.00  0.00     0.258 C 
BRANCH   3   4
ATOM      4  N   UNL     1     -35.951  20.253 -28.049  1.00  0.00    -0.358 N 
ATOM      5  H   UNL     1     -36.723  20.906 -27.781  1.00  0.00     0.344 HD
ATOM      6  H   UNL     1     -35.037  20.686 -27.789  1.00  0.00     0.344 HD
ATOM      7  H   UNL     1     -35.967  20.091 -29.082  1.00  0.00     0.344 HD
ENDBRANCH   3   4
ENDBRANCH   2   3
ENDBRANCH   1   2
BRANCH   1   8
ATOM      8  C   UNL     1     -39.128  18.911 -29.476  1.00  0.00     0.072 C 
BRANCH   8   9
ATOM      9  C   UNL     1     -39.614  19.925 -28.417  1.00  0.00     0.227 C 
BRANCH   9  10
ATOM     10  N   UNL     1     -41.002  19.664 -28.007  1.00  0.00    -0.350 N 
ATOM     11  H   UNL     1     -41.617  19.598 -28.851  1.00  0.00     0.345 HD
ATOM     12  H   UNL     1     -41.067  18.769 -27.467  1.00  0.00     0.345 HD
ATOM     13  H   UNL     1     -41.359  20.450 -27.419  1.00  0.00     0.345 HD
ENDBRANCH   9  10
BRANCH   9  14
ATOM     14  C   UNL     1     -39.489  21.324 -28.958  1.00  0.00     0.099 C 
ATOM     15  O   UNL     1     -40.460  21.872 -29.544  1.00  0.00    -0.544 OA
ATOM     16  O   UNL     1     -38.287  22.012 -28.834  1.00  0.00    -0.544 OA
ENDBRANCH   9  14
ENDBRANCH   8   9
ENDBRANCH   1   8
TORSDOF 7
ENDMDL
MODEL 9
REMARK VINA RESULT:    -4.042      1.953      2.175
REMARK INTER + INTRA:          -5.545
REMARK INTER:                  -5.281
REMARK INTRA:                  -0.264
REMARK UNBOUND:                -0.086
REMARK SMILES [NH3+]CCCC[C@H]([NH3+])C(=O)[O-]
REMARK SMILES IDX 4 1 3 2 2 3 1 4 5 8 6 9 7 10 8 14 9 15 10 16
REMARK H PARENT 1 5 1 6 1 7 7 11 7 12 7 13
REMARK Flexibility Score: inf
ROOT
ATOM      1  C   UNL     1     -38.320  19.394 -30.435  1.00  0.00     0.012 C 
ENDROOT
BRANCH   1   2
ATOM      2  C   UNL     1     -39.018  20.269 -29.388  1.00  0.00     0.061 C 
BRANCH   2   3
ATOM      3  C   UNL     1     -39.598  19.417 -28.252  1.00  0.00     0.258 C 
BRANCH   3   4
ATOM      4  N   UNL     1     -40.993  19.770 -27.991  1.00  0.00    -0.358 N 
ATOM      5  H   UNL     1     -41.183  19.753 -26.963  1.00  0.00     0.344 HD
ATOM      6  H   UNL     1     -41.175  20.734 -28.353  1.00  0.00     0.344 HD
ATOM      7  H   UNL     1     -41.631  19.100 -28.481  1.00  0.00     0.344 HD
ENDBRANCH   3   4
ENDBRANCH   2   3
ENDBRANCH   1   2
BRANCH   1   8
ATOM      8  C   UNL     1     -38.474  17.903 -30.096  1.00  0.00     0.072 C 
BRANCH   8   9
ATOM      9  C   UNL     1     -37.118  17.164 -30.033  1.00  0.00     0.227 C 
BRANCH   9  10
ATOM     10  N   UNL     1     -37.294  15.720 -29.819  1.00  0.00    -0.350 N 
ATOM     11  H   UNL     1     -37.967  15.335 -30.522  1.00  0.00     0.345 HD
ATOM     12  H   UNL     1     -36.380  15.217 -29.911  1.00  0.00     0.345 HD
ATOM     13  H   UNL     1     -37.694  15.541 -28.871  1.00  0.00     0.345 HD
ENDBRANCH   9  10
BRANCH   9  14
ATOM     14  C   UNL     1     -36.272  17.751 -28.937  1.00  0.00     0.099 C 
ATOM     15  O   UNL     1     -36.683  17.760 -27.746  1.00  0.00    -0.544 OA
ATOM     16  O   UNL     1     -35.035  18.310 -29.238  1.00  0.00    -0.544 OA
ENDBRANCH   9  14
ENDBRANCH   8   9
ENDBRANCH   1   8
TORSDOF 7
ENDMDL
