MODEL 1
REMARK VINA RESULT:    -5.178      0.000      0.000
REMARK INTER + INTRA:          -5.178
REMARK INTER:                  -5.178
REMARK INTRA:                   0.000
REMARK UNBOUND:                 0.000
REMARK SMILES C=C1CC[C@@H]2C[C@H]1C2(C)C
REMARK SMILES IDX 9 1 8 2 5 3 4 4 3 5 2 6 1 7 7 8 6 9 10 10
REMARK H PARENT
REMARK Flexibility Score: inf
ROOT
ATOM      1  C   UNL     1     107.549 108.932 129.381  1.00  0.00     0.012 C 
ATOM      2  C   UNL     1     106.580 109.758 128.497  1.00  0.00    -0.026 C 
ATOM      3  C   UNL     1     106.079 111.031 129.224  1.00  0.00    -0.004 C 
ATOM      4  C   UNL     1     104.822 111.626 128.512  1.00  0.00     0.008 C 
ATOM      5  C   UNL     1     105.042 111.827 126.964  1.00  0.00     0.031 C 
ATOM      6  C   UNL     1     106.376 111.236 126.483  1.00  0.00    -0.074 C 
ATOM      7  C   UNL     1     106.685 111.180 125.183  1.00  0.00     0.008 C 
ATOM      8  C   UNL     1     107.334 110.722 127.553  1.00  0.00     0.021 C 
ATOM      9  C   UNL     1     107.296 111.785 128.664  1.00  0.00     0.012 C 
ATOM     10  C   UNL     1     105.533 108.789 127.882  1.00  0.00     0.012 C 
ENDROOT
TORSDOF 0
ENDMDL
MODEL 2
REMARK VINA RESULT:    -5.175      4.896      6.627
REMARK INTER + INTRA:          -5.175
REMARK INTER:                  -5.175
REMARK INTRA:                   0.000
REMARK UNBOUND:                 0.000
REMARK SMILES C=C1CC[C@@H]2C[C@H]1C2(C)C
REMARK SMILES IDX 9 1 8 2 5 3 4 4 3 5 2 6 1 7 7 8 6 9 10 10
REMARK H PARENT
REMARK Flexibility Score: inf
ROOT
ATOM      1  C   UNL     1     108.995 104.906 129.419  1.00  0.00     0.012 C 
ATOM      2  C   UNL     1     109.808 105.888 128.538  1.00  0.00    -0.026 C 
ATOM      3  C   UNL     1     111.075 106.404 129.267  1.00  0.00    -0.004 C 
ATOM      4  C   UNL     1     111.653 107.671 128.557  1.00  0.00     0.008 C 
ATOM      5  C   UNL     1     111.858 107.455 127.009  1.00  0.00     0.031 C 
ATOM      6  C   UNL     1     111.285 106.114 126.525  1.00  0.00    -0.074 C 
ATOM      7  C   UNL     1     111.234 105.808 125.225  1.00  0.00     0.008 C 
ATOM      8  C   UNL     1     110.784 105.148 127.593  1.00  0.00     0.021 C 
ATOM      9  C   UNL     1     111.845 105.198 128.705  1.00  0.00     0.012 C 
ATOM     10  C   UNL     1     108.827 106.923 127.924  1.00  0.00     0.012 C 
ENDROOT
TORSDOF 0
ENDMDL
MODEL 3
REMARK VINA RESULT:    -5.153      4.827      6.591
REMARK INTER + INTRA:          -5.153
REMARK INTER:                  -5.153
REMARK INTRA:                   0.000
REMARK UNBOUND:                 0.000
REMARK SMILES C=C1CC[C@@H]2C[C@H]1C2(C)C
REMARK SMILES IDX 9 1 8 2 5 3 4 4 3 5 2 6 1 7 7 8 6 9 10 10
REMARK H PARENT
REMARK Flexibility Score: inf
ROOT
ATOM      1  C   UNL     1     103.587 107.725 129.259  1.00  0.00     0.012 C 
ATOM      2  C   UNL     1     102.767 106.685 128.456  1.00  0.00    -0.026 C 
ATOM      3  C   UNL     1     101.578 106.127 129.278  1.00  0.00    -0.004 C 
ATOM      4  C   UNL     1     101.017 104.817 128.635  1.00  0.00     0.008 C 
ATOM      5  C   UNL     1     100.700 104.985 127.100  1.00  0.00     0.031 C 
ATOM      6  C   UNL     1     101.173 106.340 126.551  1.00  0.00    -0.074 C 
ATOM      7  C   UNL     1     101.123 106.617 125.245  1.00  0.00     0.008 C 
ATOM      8  C   UNL     1     101.696 107.355 127.563  1.00  0.00     0.021 C 
ATOM      9  C   UNL     1     100.714 107.281 128.744  1.00  0.00     0.012 C 
ATOM     10  C   UNL     1     103.755 105.683 127.799  1.00  0.00     0.012 C 
ENDROOT
TORSDOF 0
ENDMDL
MODEL 4
REMARK VINA RESULT:    -5.124      7.455      8.932
REMARK INTER + INTRA:          -5.124
REMARK INTER:                  -5.124
REMARK INTRA:                   0.000
REMARK UNBOUND:                 0.000
REMARK SMILES C=C1CC[C@@H]2C[C@H]1C2(C)C
REMARK SMILES IDX 9 1 8 2 5 3 4 4 3 5 2 6 1 7 7 8 6 9 10 10
REMARK H PARENT
REMARK Flexibility Score: inf
ROOT
ATOM      1  C   UNL     1     107.785 100.421 129.390  1.00  0.00     0.012 C 
ATOM      2  C   UNL     1     106.709 101.200 128.590  1.00  0.00    -0.026 C 
ATOM      3  C   UNL     1     106.954 102.730 128.631  1.00  0.00    -0.004 C 
ATOM      4  C   UNL     1     105.678 103.514 128.185  1.00  0.00     0.008 C 
ATOM      5  C   UNL     1     105.103 103.001 126.810  1.00  0.00     0.031 C 
ATOM      6  C   UNL     1     105.825 101.742 126.308  1.00  0.00    -0.074 C 
ATOM      7  C   UNL     1     105.395 101.074 125.233  1.00  0.00     0.008 C 
ATOM      8  C   UNL     1     107.058 101.292 127.086  1.00  0.00     0.021 C 
ATOM      9  C   UNL     1     107.837 102.584 127.381  1.00  0.00     0.012 C 
ATOM     10  C   UNL     1     105.312 100.657 128.993  1.00  0.00     0.012 C 
ENDROOT
TORSDOF 0
ENDMDL
MODEL 5
REMARK VINA RESULT:    -5.119      5.361      7.042
REMARK INTER + INTRA:          -5.119
REMARK INTER:                  -5.119
REMARK INTRA:                   0.000
REMARK UNBOUND:                 0.000
REMARK SMILES C=C1CC[C@@H]2C[C@H]1C2(C)C
REMARK SMILES IDX 9 1 8 2 5 3 4 4 3 5 2 6 1 7 7 8 6 9 10 10
REMARK H PARENT
REMARK Flexibility Score: inf
ROOT
ATOM      1  C   UNL     1     100.497 107.402 129.569  1.00  0.00     0.012 C 
ATOM      2  C   UNL     1     101.124 106.296 128.683  1.00  0.00    -0.026 C 
ATOM      3  C   UNL     1     101.234 106.735 127.201  1.00  0.00    -0.004 C 
ATOM      4  C   UNL     1     101.476 105.505 126.268  1.00  0.00     0.008 C 
ATOM      5  C   UNL     1     102.677 104.606 126.751  1.00  0.00     0.031 C 
ATOM      6  C   UNL     1     103.224 105.048 128.118  1.00  0.00    -0.074 C 
ATOM      7  C   UNL     1     104.148 104.329 128.763  1.00  0.00     0.008 C 
ATOM      8  C   UNL     1     102.670 106.344 128.701  1.00  0.00     0.021 C 
ATOM      9  C   UNL     1     102.619 107.324 127.517  1.00  0.00     0.012 C 
ATOM     10  C   UNL     1     100.423 104.950 129.012  1.00  0.00     0.012 C 
ENDROOT
TORSDOF 0
ENDMDL
MODEL 6
REMARK VINA RESULT:    -5.104      4.941      6.410
REMARK INTER + INTRA:          -5.104
REMARK INTER:                  -5.104
REMARK INTRA:                   0.000
REMARK UNBOUND:                 0.000
REMARK SMILES C=C1CC[C@@H]2C[C@H]1C2(C)C
REMARK SMILES IDX 9 1 8 2 5 3 4 4 3 5 2 6 1 7 7 8 6 9 10 10
REMARK H PARENT
REMARK Flexibility Score: inf
ROOT
ATOM      1  C   UNL     1     112.043 107.792 129.420  1.00  0.00     0.012 C 
ATOM      2  C   UNL     1     111.269 106.708 128.628  1.00  0.00    -0.026 C 
ATOM      3  C   UNL     1     109.738 106.945 128.667  1.00  0.00    -0.004 C 
ATOM      4  C   UNL     1     108.960 105.662 128.230  1.00  0.00     0.008 C 
ATOM      5  C   UNL     1     109.474 105.082 126.858  1.00  0.00     0.031 C 
ATOM      6  C   UNL     1     110.730 105.807 126.351  1.00  0.00    -0.074 C 
ATOM      7  C   UNL     1     111.400 105.373 125.278  1.00  0.00     0.008 C 
ATOM      8  C   UNL     1     111.175 107.046 127.121  1.00  0.00     0.021 C 
ATOM      9  C   UNL     1     109.879 107.821 127.412  1.00  0.00     0.012 C 
ATOM     10  C   UNL     1     111.819 105.315 129.039  1.00  0.00     0.012 C 
ENDROOT
TORSDOF 0
ENDMDL
MODEL 7
REMARK VINA RESULT:    -5.096      7.168      9.133
REMARK INTER + INTRA:          -5.096
REMARK INTER:                  -5.096
REMARK INTRA:                   0.000
REMARK UNBOUND:                 0.000
REMARK SMILES C=C1CC[C@@H]2C[C@H]1C2(C)C
REMARK SMILES IDX 9 1 8 2 5 3 4 4 3 5 2 6 1 7 7 8 6 9 10 10
REMARK H PARENT
REMARK Flexibility Score: inf
ROOT
ATOM      1  C   UNL     1     105.060 100.469 129.606  1.00  0.00     0.012 C 
ATOM      2  C   UNL     1     106.182 101.072 128.722  1.00  0.00    -0.026 C 
ATOM      3  C   UNL     1     105.761 101.155 127.233  1.00  0.00    -0.004 C 
ATOM      4  C   UNL     1     107.004 101.372 126.310  1.00  0.00     0.008 C 
ATOM      5  C   UNL     1     107.904 102.577 126.781  1.00  0.00     0.031 C 
ATOM      6  C   UNL     1     107.449 103.152 128.131  1.00  0.00    -0.074 C 
ATOM      7  C   UNL     1     108.165 104.085 128.767  1.00  0.00     0.008 C 
ATOM      8  C   UNL     1     106.142 102.618 128.709  1.00  0.00     0.021 C 
ATOM      9  C   UNL     1     105.177 102.549 127.514  1.00  0.00     0.012 C 
ATOM     10  C   UNL     1     107.519 100.370 129.081  1.00  0.00     0.012 C 
ENDROOT
TORSDOF 0
ENDMDL
MODEL 8
REMARK VINA RESULT:    -5.081      4.403      6.413
REMARK INTER + INTRA:          -5.081
REMARK INTER:                  -5.081
REMARK INTRA:                   0.000
REMARK UNBOUND:                 0.000
REMARK SMILES C=C1CC[C@@H]2C[C@H]1C2(C)C
REMARK SMILES IDX 9 1 8 2 5 3 4 4 3 5 2 6 1 7 7 8 6 9 10 10
REMARK H PARENT
REMARK Flexibility Score: inf
ROOT
ATOM      1  C   UNL     1     111.974 105.056 129.602  1.00  0.00     0.012 C 
ATOM      2  C   UNL     1     111.378 106.174 128.709  1.00  0.00    -0.026 C 
ATOM      3  C   UNL     1     111.311 105.750 127.220  1.00  0.00    -0.004 C 
ATOM      4  C   UNL     1     111.102 106.990 126.293  1.00  0.00     0.008 C 
ATOM      5  C   UNL     1     109.890 107.889 126.749  1.00  0.00     0.031 C 
ATOM      6  C   UNL     1     109.301 107.435 128.094  1.00  0.00    -0.074 C 
ATOM      7  C   UNL     1     108.360 108.150 128.718  1.00  0.00     0.008 C 
ATOM      8  C   UNL     1     109.832 106.131 128.680  1.00  0.00     0.021 C 
ATOM      9  C   UNL     1     109.916 105.164 127.488  1.00  0.00     0.012 C 
ATOM     10  C   UNL     1     112.073 107.513 129.073  1.00  0.00     0.012 C 
ENDROOT
TORSDOF 0
ENDMDL
MODEL 9
REMARK VINA RESULT:    -5.049      1.016      2.850
REMARK INTER + INTRA:          -5.049
REMARK INTER:                  -5.049
REMARK INTRA:                   0.000
REMARK UNBOUND:                 0.000
REMARK SMILES C=C1CC[C@@H]2C[C@H]1C2(C)C
REMARK SMILES IDX 9 1 8 2 5 3 4 4 3 5 2 6 1 7 7 8 6 9 10 10
REMARK H PARENT
REMARK Flexibility Score: inf
ROOT
ATOM      1  C   UNL     1     107.410 111.962 129.597  1.00  0.00     0.012 C 
ATOM      2  C   UNL     1     106.301 111.345 128.708  1.00  0.00    -0.026 C 
ATOM      3  C   UNL     1     106.727 111.273 127.219  1.00  0.00    -0.004 C 
ATOM      4  C   UNL     1     105.491 111.041 126.292  1.00  0.00     0.008 C 
ATOM      5  C   UNL     1     104.607 109.821 126.757  1.00  0.00     0.031 C 
ATOM      6  C   UNL     1     105.067 109.248 128.106  1.00  0.00    -0.074 C 
ATOM      7  C   UNL     1     104.363 108.302 128.737  1.00  0.00     0.008 C 
ATOM      8  C   UNL     1     106.363 109.800 128.690  1.00  0.00     0.021 C 
ATOM      9  C   UNL     1     107.331 109.887 127.499  1.00  0.00     0.012 C 
ATOM     10  C   UNL     1     104.952 112.026 129.065  1.00  0.00     0.012 C 
ENDROOT
TORSDOF 0
ENDMDL
