MODEL 1
REMARK VINA RESULT:    -5.899      0.000      0.000
REMARK INTER + INTRA:          -6.342
REMARK INTER:                  -6.244
REMARK INTRA:                  -0.098
REMARK UNBOUND:                -0.098
REMARK SMILES C=C(C)[C@H]1CC=C(C)C(=O)C1
REMARK SMILES IDX 8 1 7 2 6 3 5 4 4 5 11 6 9 7 10 8 2 9 1 10 3 11
REMARK H PARENT
REMARK Flexibility Score: inf
ROOT
ATOM      1  C   UNL     1      -8.867  28.595  22.343  1.00  0.00     0.048 C 
ATOM      2  C   UNL     1      -8.509  30.052  22.438  1.00  0.00    -0.012 C 
ATOM      3  C   UNL     1      -8.973  30.916  21.519  1.00  0.00    -0.019 C 
ATOM      4  C   UNL     1      -8.631  32.382  21.557  1.00  0.00     0.036 C 
ATOM      5  C   UNL     1      -8.461  32.873  23.007  1.00  0.00     0.025 C 
ATOM      6  C   UNL     1      -7.419  32.013  23.745  1.00  0.00     0.089 C 
ATOM      7  C   UNL     1      -7.751  30.552  23.613  1.00  0.00     0.158 C 
ATOM      8  O   UNL     1      -7.346  29.748  24.494  1.00  0.00    -0.295 OA
ENDROOT
BRANCH   5   9
ATOM      9  C   UNL     1      -8.096  34.351  23.055  1.00  0.00    -0.077 C 
ATOM     10  C   UNL     1      -7.579  34.953  21.972  1.00  0.00     0.008 C 
ATOM     11  C   UNL     1      -8.307  35.173  24.304  1.00  0.00     0.039 C 
ENDBRANCH   5   9
TORSDOF 1
ENDMDL
MODEL 2
REMARK VINA RESULT:    -5.852      1.574      4.271
REMARK INTER + INTRA:          -6.292
REMARK INTER:                  -6.203
REMARK INTRA:                  -0.089
REMARK UNBOUND:                -0.098
REMARK SMILES C=C(C)[C@H]1CC=C(C)C(=O)C1
REMARK SMILES IDX 8 1 7 2 6 3 5 4 4 5 11 6 9 7 10 8 2 9 1 10 3 11
REMARK H PARENT
REMARK Flexibility Score: inf
ROOT
ATOM      1  C   UNL     1      -7.864  34.555  21.663  1.00  0.00     0.048 C 
ATOM      2  C   UNL     1      -8.210  33.166  22.124  1.00  0.00    -0.012 C 
ATOM      3  C   UNL     1      -8.752  32.290  21.263  1.00  0.00    -0.019 C 
ATOM      4  C   UNL     1      -9.133  30.894  21.678  1.00  0.00     0.036 C 
ATOM      5  C   UNL     1      -8.182  30.360  22.766  1.00  0.00     0.025 C 
ATOM      6  C   UNL     1      -8.138  31.330  23.960  1.00  0.00     0.089 C 
ATOM      7  C   UNL     1      -7.836  32.728  23.494  1.00  0.00     0.158 C 
ATOM      8  O   UNL     1      -7.295  33.538  24.292  1.00  0.00    -0.295 OA
ENDROOT
BRANCH   5   9
ATOM      9  C   UNL     1      -8.571  28.954  23.205  1.00  0.00    -0.077 C 
ATOM     10  C   UNL     1      -8.249  27.897  22.443  1.00  0.00     0.008 C 
ATOM     11  C   UNL     1      -9.318  28.711  24.494  1.00  0.00     0.039 C 
ENDBRANCH   5   9
TORSDOF 1
ENDMDL
MODEL 3
REMARK VINA RESULT:    -5.763      1.458      2.088
REMARK INTER + INTRA:          -6.198
REMARK INTER:                  -6.103
REMARK INTRA:                  -0.095
REMARK UNBOUND:                -0.098
REMARK SMILES C=C(C)[C@H]1CC=C(C)C(=O)C1
REMARK SMILES IDX 8 1 7 2 6 3 5 4 4 5 11 6 9 7 10 8 2 9 1 10 3 11
REMARK H PARENT
REMARK Flexibility Score: inf
ROOT
ATOM      1  C   UNL     1      -8.548  28.376  22.368  1.00  0.00     0.048 C 
ATOM      2  C   UNL     1      -8.455  29.842  22.686  1.00  0.00    -0.012 C 
ATOM      3  C   UNL     1      -7.709  30.256  23.724  1.00  0.00    -0.019 C 
ATOM      4  C   UNL     1      -7.596  31.710  24.097  1.00  0.00     0.036 C 
ATOM      5  C   UNL     1      -7.682  32.610  22.850  1.00  0.00     0.025 C 
ATOM      6  C   UNL     1      -8.968  32.310  22.062  1.00  0.00     0.089 C 
ATOM      7  C   UNL     1      -9.085  30.837  21.781  1.00  0.00     0.158 C 
ATOM      8  O   UNL     1      -9.756  30.452  20.787  1.00  0.00    -0.295 OA
ENDROOT
BRANCH   5   9
ATOM      9  C   UNL     1      -7.586  34.084  23.220  1.00  0.00    -0.077 C 
ATOM     10  C   UNL     1      -7.536  35.018  22.257  1.00  0.00     0.008 C 
ATOM     11  C   UNL     1      -7.550  34.533  24.661  1.00  0.00     0.039 C 
ENDBRANCH   5   9
TORSDOF 1
ENDMDL
MODEL 4
REMARK VINA RESULT:    -5.758      1.783      4.764
REMARK INTER + INTRA:          -6.193
REMARK INTER:                  -6.095
REMARK INTRA:                  -0.098
REMARK UNBOUND:                -0.098
REMARK SMILES C=C(C)[C@H]1CC=C(C)C(=O)C1
REMARK SMILES IDX 8 1 7 2 6 3 5 4 4 5 11 6 9 7 10 8 2 9 1 10 3 11
REMARK H PARENT
REMARK Flexibility Score: inf
ROOT
ATOM      1  C   UNL     1      -7.704  34.318  23.058  1.00  0.00     0.048 C 
ATOM      2  C   UNL     1      -7.871  32.825  23.063  1.00  0.00    -0.012 C 
ATOM      3  C   UNL     1      -7.504  32.113  24.142  1.00  0.00    -0.019 C 
ATOM      4  C   UNL     1      -7.634  30.614  24.193  1.00  0.00     0.036 C 
ATOM      5  C   UNL     1      -8.850  30.136  23.377  1.00  0.00     0.025 C 
ATOM      6  C   UNL     1      -8.769  30.665  21.934  1.00  0.00     0.089 C 
ATOM      7  C   UNL     1      -8.556  32.154  21.928  1.00  0.00     0.158 C 
ATOM      8  O   UNL     1      -8.933  32.824  20.931  1.00  0.00    -0.295 OA
ENDROOT
BRANCH   5   9
ATOM      9  C   UNL     1      -8.979  28.618  23.407  1.00  0.00    -0.077 C 
ATOM     10  C   UNL     1      -8.415  27.875  22.442  1.00  0.00     0.008 C 
ATOM     11  C   UNL     1      -9.731  27.914  24.511  1.00  0.00     0.039 C 
ENDBRANCH   5   9
TORSDOF 1
ENDMDL
MODEL 5
REMARK VINA RESULT:    -5.710      1.553      2.254
REMARK INTER + INTRA:          -6.142
REMARK INTER:                  -6.045
REMARK INTRA:                  -0.098
REMARK UNBOUND:                -0.098
REMARK SMILES C=C(C)[C@H]1CC=C(C)C(=O)C1
REMARK SMILES IDX 8 1 7 2 6 3 5 4 4 5 11 6 9 7 10 8 2 9 1 10 3 11
REMARK H PARENT
REMARK Flexibility Score: inf
ROOT
ATOM      1  C   UNL     1      -8.962  29.306  25.169  1.00  0.00     0.048 C 
ATOM      2  C   UNL     1      -8.471  30.382  24.241  1.00  0.00    -0.012 C 
ATOM      3  C   UNL     1      -8.353  30.131  22.927  1.00  0.00    -0.019 C 
ATOM      4  C   UNL     1      -7.850  31.167  21.957  1.00  0.00     0.036 C 
ATOM      5  C   UNL     1      -8.259  32.585  22.400  1.00  0.00     0.025 C 
ATOM      6  C   UNL     1      -7.784  32.854  23.839  1.00  0.00     0.089 C 
ATOM      7  C   UNL     1      -8.237  31.754  24.760  1.00  0.00     0.158 C 
ATOM      8  O   UNL     1      -8.381  32.001  25.987  1.00  0.00    -0.295 OA
ENDROOT
BRANCH   5   9
ATOM      9  C   UNL     1      -7.738  33.641  21.435  1.00  0.00    -0.077 C 
ATOM     10  C   UNL     1      -7.614  34.916  21.835  1.00  0.00     0.008 C 
ATOM     11  C   UNL     1      -7.348  33.290  20.019  1.00  0.00     0.039 C 
ENDBRANCH   5   9
TORSDOF 1
ENDMDL
MODEL 6
REMARK VINA RESULT:    -5.700      1.834      4.534
REMARK INTER + INTRA:          -6.131
REMARK INTER:                  -6.040
REMARK INTRA:                  -0.091
REMARK UNBOUND:                -0.098
REMARK SMILES C=C(C)[C@H]1CC=C(C)C(=O)C1
REMARK SMILES IDX 8 1 7 2 6 3 5 4 4 5 11 6 9 7 10 8 2 9 1 10 3 11
REMARK H PARENT
REMARK Flexibility Score: inf
ROOT
ATOM      1  C   UNL     1      -8.576  36.099  25.481  1.00  0.00     0.048 C 
ATOM      2  C   UNL     1      -8.453  34.730  24.874  1.00  0.00    -0.012 C 
ATOM      3  C   UNL     1      -8.225  34.599  23.556  1.00  0.00    -0.019 C 
ATOM      4  C   UNL     1      -8.111  33.251  22.895  1.00  0.00     0.036 C 
ATOM      5  C   UNL     1      -7.494  32.214  23.853  1.00  0.00     0.025 C 
ATOM      6  C   UNL     1      -8.297  32.154  25.164  1.00  0.00     0.089 C 
ATOM      7  C   UNL     1      -8.459  33.530  25.750  1.00  0.00     0.158 C 
ATOM      8  O   UNL     1      -8.637  33.652  26.991  1.00  0.00    -0.295 OA
ENDROOT
BRANCH   5   9
ATOM      9  C   UNL     1      -7.392  30.843  23.198  1.00  0.00    -0.077 C 
ATOM     10  C   UNL     1      -6.458  29.970  23.606  1.00  0.00     0.008 C 
ATOM     11  C   UNL     1      -8.329  30.429  22.089  1.00  0.00     0.039 C 
ENDBRANCH   5   9
TORSDOF 1
ENDMDL
MODEL 7
REMARK VINA RESULT:    -5.698      1.907      3.193
REMARK INTER + INTRA:          -6.129
REMARK INTER:                  -6.034
REMARK INTRA:                  -0.095
REMARK UNBOUND:                -0.098
REMARK SMILES C=C(C)[C@H]1CC=C(C)C(=O)C1
REMARK SMILES IDX 8 1 7 2 6 3 5 4 4 5 11 6 9 7 10 8 2 9 1 10 3 11
REMARK H PARENT
REMARK Flexibility Score: inf
ROOT
ATOM      1  C   UNL     1      -7.776  32.930  20.106  1.00  0.00     0.048 C 
ATOM      2  C   UNL     1      -7.791  33.314  21.559  1.00  0.00    -0.012 C 
ATOM      3  C   UNL     1      -7.852  34.611  21.908  1.00  0.00    -0.019 C 
ATOM      4  C   UNL     1      -7.851  35.051  23.348  1.00  0.00     0.036 C 
ATOM      5  C   UNL     1      -8.555  34.015  24.244  1.00  0.00     0.025 C 
ATOM      6  C   UNL     1      -7.918  32.627  24.060  1.00  0.00     0.089 C 
ATOM      7  C   UNL     1      -7.863  32.260  22.602  1.00  0.00     0.158 C 
ATOM      8  O   UNL     1      -7.841  31.043  22.276  1.00  0.00    -0.295 OA
ENDROOT
BRANCH   5   9
ATOM      9  C   UNL     1      -8.543  34.444  25.706  1.00  0.00    -0.077 C 
ATOM     10  C   UNL     1      -8.702  35.737  26.030  1.00  0.00     0.008 C 
ATOM     11  C   UNL     1      -8.358  33.440  26.818  1.00  0.00     0.039 C 
ENDBRANCH   5   9
TORSDOF 1
ENDMDL
MODEL 8
REMARK VINA RESULT:    -5.680      2.027      4.713
REMARK INTER + INTRA:          -6.111
REMARK INTER:                  -6.013
REMARK INTRA:                  -0.097
REMARK UNBOUND:                -0.098
REMARK SMILES C=C(C)[C@H]1CC=C(C)C(=O)C1
REMARK SMILES IDX 8 1 7 2 6 3 5 4 4 5 11 6 9 7 10 8 2 9 1 10 3 11
REMARK H PARENT
REMARK Flexibility Score: inf
ROOT
ATOM      1  C   UNL     1      -8.628  35.528  24.708  1.00  0.00     0.048 C 
ATOM      2  C   UNL     1      -8.266  34.147  24.236  1.00  0.00    -0.012 C 
ATOM      3  C   UNL     1      -8.209  33.132  25.115  1.00  0.00    -0.019 C 
ATOM      4  C   UNL     1      -7.834  31.735  24.698  1.00  0.00     0.036 C 
ATOM      5  C   UNL     1      -8.312  31.438  23.264  1.00  0.00     0.025 C 
ATOM      6  C   UNL     1      -7.773  32.500  22.290  1.00  0.00     0.089 C 
ATOM      7  C   UNL     1      -8.096  33.883  22.784  1.00  0.00     0.158 C 
ATOM      8  O   UNL     1      -8.184  34.827  21.954  1.00  0.00    -0.295 OA
ENDROOT
BRANCH   5   9
ATOM      9  C   UNL     1      -7.921  30.032  22.827  1.00  0.00    -0.077 C 
ATOM     10  C   UNL     1      -6.716  29.538  23.149  1.00  0.00     0.008 C 
ATOM     11  C   UNL     1      -8.867  29.164  22.033  1.00  0.00     0.039 C 
ENDBRANCH   5   9
TORSDOF 1
ENDMDL
MODEL 9
REMARK VINA RESULT:    -5.663      2.055      4.035
REMARK INTER + INTRA:          -6.093
REMARK INTER:                  -5.994
REMARK INTRA:                  -0.099
REMARK UNBOUND:                -0.098
REMARK SMILES C=C(C)[C@H]1CC=C(C)C(=O)C1
REMARK SMILES IDX 8 1 7 2 6 3 5 4 4 5 11 6 9 7 10 8 2 9 1 10 3 11
REMARK H PARENT
REMARK Flexibility Score: inf
ROOT
ATOM      1  C   UNL     1      -8.045  34.509  26.732  1.00  0.00     0.048 C 
ATOM      2  C   UNL     1      -8.246  34.141  25.289  1.00  0.00    -0.012 C 
ATOM      3  C   UNL     1      -7.659  34.869  24.324  1.00  0.00    -0.019 C 
ATOM      4  C   UNL     1      -7.841  34.555  22.863  1.00  0.00     0.036 C 
ATOM      5  C   UNL     1      -8.011  33.041  22.639  1.00  0.00     0.025 C 
ATOM      6  C   UNL     1      -9.165  32.498  23.500  1.00  0.00     0.089 C 
ATOM      7  C   UNL     1      -8.988  32.903  24.937  1.00  0.00     0.158 C 
ATOM      8  O   UNL     1      -9.510  32.199  25.842  1.00  0.00    -0.295 OA
ENDROOT
BRANCH   5   9
ATOM      9  C   UNL     1      -8.214  32.715  21.165  1.00  0.00    -0.077 C 
ATOM     10  C   UNL     1      -9.273  31.988  20.776  1.00  0.00     0.008 C 
ATOM     11  C   UNL     1      -7.247  33.199  20.111  1.00  0.00     0.039 C 
ENDBRANCH   5   9
TORSDOF 1
ENDMDL
