MODEL 1
REMARK VINA RESULT:    -4.398      0.000      0.000
REMARK INTER + INTRA:          -8.513
REMARK INTER:                  -6.841
REMARK INTRA:                  -1.673
REMARK UNBOUND:                -1.673
REMARK SMILES COc1cc(CNC(=O)CCCCC=CC(C)C)ccc1O
REMARK SMILES IDX 11 1 12 2 13 3 14 4 15 5 16 6 17 7 18 8 10 9 8 10 9 11 7 12
REMARK SMILES IDX 6 14 5 15 4 16 19 17 3 18 20 19 21 20 2 21 1 22 22 23
REMARK H PARENT 7 13 22 24
REMARK Flexibility Score: inf
ROOT
ATOM      1  C   UNL     1      -0.512  16.389  -8.480  1.00  0.00     0.010 C 
ENDROOT
BRANCH   1   2
ATOM      2  C   UNL     1      -0.822  15.961  -7.039  1.00  0.00     0.005 C 
BRANCH   2   3
ATOM      3  C   UNL     1      -1.852  14.823  -6.971  1.00  0.00     0.027 C 
BRANCH   3   4
ATOM      4  C   UNL     1      -2.779  14.882  -8.156  1.00  0.00    -0.031 C 
ATOM      5  C   UNL     1      -3.702  13.959  -8.507  1.00  0.00    -0.028 C 
BRANCH   5   6
ATOM      6  C   UNL     1      -3.970  12.606  -7.868  1.00  0.00     0.005 C 
ATOM      7  C   UNL     1      -5.257  12.594  -7.034  1.00  0.00     0.012 C 
ATOM      8  C   UNL     1      -3.897  11.431  -8.853  1.00  0.00     0.012 C 
ENDBRANCH   5   6
ENDBRANCH   3   4
ENDBRANCH   2   3
ENDBRANCH   1   2
BRANCH   1   9
ATOM      9  C   UNL     1       0.960  16.780  -8.673  1.00  0.00     0.100 C 
BRANCH   9  10
ATOM     10  C   UNL     1       1.848  15.601  -8.416  1.00  0.00     0.220 C 
ATOM     11  O   UNL     1       2.660  15.637  -7.449  1.00  0.00    -0.275 OA
ATOM     12  N   UNL     1       1.743  14.427  -9.234  1.00  0.00    -0.352 N 
ATOM     13  H   UNL     1       1.041  14.409 -10.009  1.00  0.00     0.163 HD
BRANCH  12  14
ATOM     14  C   UNL     1       2.542  13.227  -8.994  1.00  0.00     0.151 C 
BRANCH  14  15
ATOM     15  C   UNL     1       1.689  12.133  -8.406  1.00  0.00    -0.025 A 
ATOM     16  C   UNL     1       2.279  10.930  -7.984  1.00  0.00     0.056 A 
ATOM     17  C   UNL     1       0.306  12.311  -8.257  1.00  0.00     0.009 A 
ATOM     18  C   UNL     1       1.494   9.906  -7.418  1.00  0.00     0.160 A 
ATOM     19  C   UNL     1      -0.477  11.302  -7.696  1.00  0.00     0.050 A 
ATOM     20  C   UNL     1       0.108  10.101  -7.278  1.00  0.00     0.157 A 
BRANCH  18  21
ATOM     21  O   UNL     1       2.055   8.692  -6.984  1.00  0.00    -0.493 OA
ATOM     22  C   UNL     1       3.046   8.577  -5.968  1.00  0.00     0.278 C 
ENDBRANCH  18  21
BRANCH  20  23
ATOM     23  O   UNL     1      -0.709   9.112  -6.728  1.00  0.00    -0.504 OA
ATOM     24  H   UNL     1      -1.069   8.339  -7.277  1.00  0.00     0.293 HD
ENDBRANCH  20  23
ENDBRANCH  14  15
ENDBRANCH  12  14
ENDBRANCH   9  10
ENDBRANCH   1   9
TORSDOF 10
ENDMDL
MODEL 2
REMARK VINA RESULT:    -4.318     16.792     19.224
REMARK INTER + INTRA:          -8.389
REMARK INTER:                  -7.331
REMARK INTRA:                  -1.058
REMARK UNBOUND:                -1.673
REMARK SMILES COc1cc(CNC(=O)CCCCC=CC(C)C)ccc1O
REMARK SMILES IDX 11 1 12 2 13 3 14 4 15 5 16 6 17 7 18 8 10 9 8 10 9 11 7 12
REMARK SMILES IDX 6 14 5 15 4 16 19 17 3 18 20 19 21 20 2 21 1 22 22 23
REMARK H PARENT 7 13 22 24
REMARK Flexibility Score: inf
ROOT
ATOM      1  C   UNL     1     -14.736  12.469 -21.383  1.00  0.00     0.010 C 
ENDROOT
BRANCH   1   2
ATOM      2  C   UNL     1     -15.515  12.037 -20.133  1.00  0.00     0.005 C 
BRANCH   2   3
ATOM      3  C   UNL     1     -16.782  11.238 -20.475  1.00  0.00     0.027 C 
BRANCH   3   4
ATOM      4  C   UNL     1     -16.681   9.836 -19.935  1.00  0.00    -0.031 C 
ATOM      5  C   UNL     1     -16.192   8.755 -20.581  1.00  0.00    -0.028 C 
BRANCH   5   6
ATOM      6  C   UNL     1     -15.718   8.654 -22.021  1.00  0.00     0.005 C 
ATOM      7  C   UNL     1     -14.190   8.682 -22.141  1.00  0.00     0.012 C 
ATOM      8  C   UNL     1     -16.346   7.489 -22.799  1.00  0.00     0.012 C 
ENDBRANCH   5   6
ENDBRANCH   3   4
ENDBRANCH   2   3
ENDBRANCH   1   2
BRANCH   1   9
ATOM      9  C   UNL     1     -15.156  13.857 -21.887  1.00  0.00     0.100 C 
BRANCH   9  10
ATOM     10  C   UNL     1     -13.964  14.603 -22.406  1.00  0.00     0.220 C 
ATOM     11  O   UNL     1     -13.820  14.749 -23.652  1.00  0.00    -0.275 OA
ATOM     12  N   UNL     1     -13.024  15.185 -21.493  1.00  0.00    -0.352 N 
ATOM     13  H   UNL     1     -13.182  15.078 -20.464  1.00  0.00     0.163 HD
BRANCH  12  14
ATOM     14  C   UNL     1     -11.877  15.972 -21.939  1.00  0.00     0.151 C 
BRANCH  14  15
ATOM     15  C   UNL     1     -10.669  15.090 -22.122  1.00  0.00    -0.025 A 
ATOM     16  C   UNL     1     -10.589  13.856 -21.456  1.00  0.00     0.056 A 
ATOM     17  C   UNL     1      -9.624  15.482 -22.973  1.00  0.00     0.009 A 
ATOM     18  C   UNL     1      -9.472  13.016 -21.633  1.00  0.00     0.160 A 
ATOM     19  C   UNL     1      -8.515  14.655 -23.153  1.00  0.00     0.050 A 
ATOM     20  C   UNL     1      -8.432  13.427 -22.487  1.00  0.00     0.157 A 
BRANCH  18  21
ATOM     21  O   UNL     1      -9.363  11.775 -20.982  1.00  0.00    -0.493 OA
ATOM     22  C   UNL     1     -10.262  11.306 -19.982  1.00  0.00     0.278 C 
ENDBRANCH  18  21
BRANCH  20  23
ATOM     23  O   UNL     1      -7.304  12.630 -22.687  1.00  0.00    -0.504 OA
ATOM     24  H   UNL     1      -7.319  11.810 -23.284  1.00  0.00     0.293 HD
ENDBRANCH  20  23
ENDBRANCH  14  15
ENDBRANCH  12  14
ENDBRANCH   9  10
ENDBRANCH   1   9
TORSDOF 10
ENDMDL
MODEL 3
REMARK VINA RESULT:    -4.268     15.306     18.131
REMARK INTER + INTRA:          -8.311
REMARK INTER:                  -6.663
REMARK INTRA:                  -1.648
REMARK UNBOUND:                -1.673
REMARK SMILES COc1cc(CNC(=O)CCCCC=CC(C)C)ccc1O
REMARK SMILES IDX 11 1 12 2 13 3 14 4 15 5 16 6 17 7 18 8 10 9 8 10 9 11 7 12
REMARK SMILES IDX 6 14 5 15 4 16 19 17 3 18 20 19 21 20 2 21 1 22 22 23
REMARK H PARENT 7 13 22 24
REMARK Flexibility Score: inf
ROOT
ATOM      1  C   UNL     1      -8.363  11.402 -18.329  1.00  0.00     0.010 C 
ENDROOT
BRANCH   1   2
ATOM      2  C   UNL     1      -8.468  12.736 -19.081  1.00  0.00     0.005 C 
BRANCH   2   3
ATOM      3  C   UNL     1      -7.326  12.937 -20.088  1.00  0.00     0.027 C 
BRANCH   3   4
ATOM      4  C   UNL     1      -7.742  12.464 -21.456  1.00  0.00    -0.031 C 
ATOM      5  C   UNL     1      -7.719  13.181 -22.601  1.00  0.00    -0.028 C 
BRANCH   5   6
ATOM      6  C   UNL     1      -7.367  14.648 -22.786  1.00  0.00     0.005 C 
ATOM      7  C   UNL     1      -5.861  14.875 -22.960  1.00  0.00     0.012 C 
ATOM      8  C   UNL     1      -8.196  15.351 -23.869  1.00  0.00     0.012 C 
ENDBRANCH   5   6
ENDBRANCH   3   4
ENDBRANCH   2   3
ENDBRANCH   1   2
BRANCH   1   9
ATOM      9  C   UNL     1      -9.240  10.306 -18.951  1.00  0.00     0.100 C 
BRANCH   9  10
ATOM     10  C   UNL     1     -10.645  10.799 -19.120  1.00  0.00     0.220 C 
ATOM     11  O   UNL     1     -11.352  11.019 -18.096  1.00  0.00    -0.275 OA
ATOM     12  N   UNL     1     -11.164  11.061 -20.431  1.00  0.00    -0.352 N 
ATOM     13  H   UNL     1     -10.549  10.901 -21.262  1.00  0.00     0.163 HD
BRANCH  12  14
ATOM     14  C   UNL     1     -12.505  11.597 -20.654  1.00  0.00     0.151 C 
BRANCH  14  15
ATOM     15  C   UNL     1     -12.435  13.046 -21.062  1.00  0.00    -0.025 A 
ATOM     16  C   UNL     1     -13.614  13.797 -21.199  1.00  0.00     0.056 A 
ATOM     17  C   UNL     1     -11.195  13.662 -21.289  1.00  0.00     0.009 A 
ATOM     18  C   UNL     1     -13.559  15.157 -21.564  1.00  0.00     0.160 A 
ATOM     19  C   UNL     1     -11.134  15.008 -21.649  1.00  0.00     0.050 A 
ATOM     20  C   UNL     1     -12.307  15.758 -21.791  1.00  0.00     0.157 A 
BRANCH  18  21
ATOM     21  O   UNL     1     -14.720  15.936 -21.708  1.00  0.00    -0.493 OA
ATOM     22  C   UNL     1     -16.022  15.530 -21.296  1.00  0.00     0.278 C 
ENDBRANCH  18  21
BRANCH  20  23
ATOM     23  O   UNL     1     -12.207  17.100 -22.159  1.00  0.00    -0.504 OA
ATOM     24  H   UNL     1     -12.525  17.440 -23.060  1.00  0.00     0.293 HD
ENDBRANCH  20  23
ENDBRANCH  14  15
ENDBRANCH  12  14
ENDBRANCH   9  10
ENDBRANCH   1   9
TORSDOF 10
ENDMDL
MODEL 4
REMARK VINA RESULT:    -4.261      2.271      5.349
REMARK INTER + INTRA:          -8.301
REMARK INTER:                  -6.781
REMARK INTRA:                  -1.520
REMARK UNBOUND:                -1.673
REMARK SMILES COc1cc(CNC(=O)CCCCC=CC(C)C)ccc1O
REMARK SMILES IDX 11 1 12 2 13 3 14 4 15 5 16 6 17 7 18 8 10 9 8 10 9 11 7 12
REMARK SMILES IDX 6 14 5 15 4 16 19 17 3 18 20 19 21 20 2 21 1 22 22 23
REMARK H PARENT 7 13 22 24
REMARK Flexibility Score: inf
ROOT
ATOM      1  C   UNL     1       1.912  15.347  -9.019  1.00  0.00     0.010 C 
ENDROOT
BRANCH   1   2
ATOM      2  C   UNL     1       2.894  14.749  -8.002  1.00  0.00     0.005 C 
BRANCH   2   3
ATOM      3  C   UNL     1       2.658  13.249  -7.767  1.00  0.00     0.027 C 
BRANCH   3   4
ATOM      4  C   UNL     1       1.539  13.042  -6.781  1.00  0.00    -0.031 C 
ATOM      5  C   UNL     1       0.920  11.875  -6.495  1.00  0.00    -0.028 C 
BRANCH   5   6
ATOM      6  C   UNL     1       1.120  10.518  -7.149  1.00  0.00     0.005 C 
ATOM      7  C   UNL     1       2.411   9.829  -6.692  1.00  0.00     0.012 C 
ATOM      8  C   UNL     1      -0.105   9.598  -7.051  1.00  0.00     0.012 C 
ENDBRANCH   5   6
ENDBRANCH   3   4
ENDBRANCH   2   3
ENDBRANCH   1   2
BRANCH   1   9
ATOM      9  C   UNL     1       1.268  16.648  -8.520  1.00  0.00     0.100 C 
BRANCH   9  10
ATOM     10  C   UNL     1       0.057  16.343  -7.690  1.00  0.00     0.220 C 
ATOM     11  O   UNL     1      -0.208  17.068  -6.691  1.00  0.00    -0.275 OA
ATOM     12  N   UNL     1      -0.814  15.264  -8.057  1.00  0.00    -0.352 N 
ATOM     13  H   UNL     1      -0.591  14.697  -8.908  1.00  0.00     0.163 HD
BRANCH  12  14
ATOM     14  C   UNL     1      -2.039  14.957  -7.322  1.00  0.00     0.151 C 
BRANCH  14  15
ATOM     15  C   UNL     1      -2.653  13.677  -7.827  1.00  0.00    -0.025 A 
ATOM     16  C   UNL     1      -4.004  13.395  -7.569  1.00  0.00     0.056 A 
ATOM     17  C   UNL     1      -1.890  12.768  -8.574  1.00  0.00     0.009 A 
ATOM     18  C   UNL     1      -4.594  12.209  -8.051  1.00  0.00     0.160 A 
ATOM     19  C   UNL     1      -2.468  11.593  -9.055  1.00  0.00     0.050 A 
ATOM     20  C   UNL     1      -3.812  11.307  -8.796  1.00  0.00     0.157 A 
BRANCH  18  21
ATOM     21  O   UNL     1      -5.944  11.899  -7.812  1.00  0.00    -0.493 OA
ATOM     22  C   UNL     1      -7.047  12.582  -8.399  1.00  0.00     0.278 C 
ENDBRANCH  18  21
BRANCH  20  23
ATOM     23  O   UNL     1      -4.354  10.118  -9.288  1.00  0.00    -0.504 OA
ATOM     24  H   UNL     1      -4.820  10.066 -10.187  1.00  0.00     0.293 HD
ENDBRANCH  20  23
ENDBRANCH  14  15
ENDBRANCH  12  14
ENDBRANCH   9  10
ENDBRANCH   1   9
TORSDOF 10
ENDMDL
MODEL 5
REMARK VINA RESULT:    -4.205     16.098     18.893
REMARK INTER + INTRA:          -8.212
REMARK INTER:                  -6.844
REMARK INTRA:                  -1.368
REMARK UNBOUND:                -1.673
REMARK SMILES COc1cc(CNC(=O)CCCCC=CC(C)C)ccc1O
REMARK SMILES IDX 11 1 12 2 13 3 14 4 15 5 16 6 17 7 18 8 10 9 8 10 9 11 7 12
REMARK SMILES IDX 6 14 5 15 4 16 19 17 3 18 20 19 21 20 2 21 1 22 22 23
REMARK H PARENT 7 13 22 24
REMARK Flexibility Score: inf
ROOT
ATOM      1  C   UNL     1      -9.220  12.368 -19.486  1.00  0.00     0.010 C 
ENDROOT
BRANCH   1   2
ATOM      2  C   UNL     1      -9.469  13.402 -20.594  1.00  0.00     0.005 C 
BRANCH   2   3
ATOM      3  C   UNL     1      -9.155  12.852 -21.994  1.00  0.00     0.027 C 
BRANCH   3   4
ATOM      4  C   UNL     1      -7.715  13.112 -22.350  1.00  0.00    -0.031 C 
ATOM      5  C   UNL     1      -7.218  14.216 -22.951  1.00  0.00    -0.028 C 
BRANCH   5   6
ATOM      6  C   UNL     1      -7.978  15.413 -23.498  1.00  0.00     0.005 C 
ATOM      7  C   UNL     1      -8.135  16.534 -22.465  1.00  0.00     0.012 C 
ATOM      8  C   UNL     1      -7.442  15.923 -24.843  1.00  0.00     0.012 C 
ENDBRANCH   5   6
ENDBRANCH   3   4
ENDBRANCH   2   3
ENDBRANCH   1   2
BRANCH   1   9
ATOM      9  C   UNL     1      -9.790  10.986 -19.833  1.00  0.00     0.100 C 
BRANCH   9  10
ATOM     10  C   UNL     1     -11.276  10.974 -19.642  1.00  0.00     0.220 C 
ATOM     11  O   UNL     1     -11.751  10.994 -18.472  1.00  0.00    -0.275 OA
ATOM     12  N   UNL     1     -12.149  10.986 -20.781  1.00  0.00    -0.352 N 
ATOM     13  H   UNL     1     -11.733  11.002 -21.740  1.00  0.00     0.163 HD
BRANCH  12  14
ATOM     14  C   UNL     1     -13.604  11.034 -20.656  1.00  0.00     0.151 C 
BRANCH  14  15
ATOM     15  C   UNL     1     -14.112  12.429 -20.911  1.00  0.00    -0.025 A 
ATOM     16  C   UNL     1     -13.367  13.316 -21.704  1.00  0.00     0.056 A 
ATOM     17  C   UNL     1     -15.341  12.847 -20.378  1.00  0.00     0.009 A 
ATOM     18  C   UNL     1     -13.840  14.618 -21.964  1.00  0.00     0.160 A 
ATOM     19  C   UNL     1     -15.816  14.134 -20.632  1.00  0.00     0.050 A 
ATOM     20  C   UNL     1     -15.073  15.021 -21.418  1.00  0.00     0.157 A 
BRANCH  18  21
ATOM     21  O   UNL     1     -13.119  15.529 -22.754  1.00  0.00    -0.493 OA
ATOM     22  C   UNL     1     -11.726  15.793 -22.616  1.00  0.00     0.278 C 
ENDBRANCH  18  21
BRANCH  20  23
ATOM     23  O   UNL     1     -15.578  16.303 -21.644  1.00  0.00    -0.504 OA
ATOM     24  H   UNL     1     -16.177  16.518 -22.434  1.00  0.00     0.293 HD
ENDBRANCH  20  23
ENDBRANCH  14  15
ENDBRANCH  12  14
ENDBRANCH   9  10
ENDBRANCH   1   9
TORSDOF 10
ENDMDL
MODEL 6
REMARK VINA RESULT:    -4.205     16.520     19.164
REMARK INTER + INTRA:          -8.212
REMARK INTER:                  -6.661
REMARK INTRA:                  -1.551
REMARK UNBOUND:                -1.673
REMARK SMILES COc1cc(CNC(=O)CCCCC=CC(C)C)ccc1O
REMARK SMILES IDX 11 1 12 2 13 3 14 4 15 5 16 6 17 7 18 8 10 9 8 10 9 11 7 12
REMARK SMILES IDX 6 14 5 15 4 16 19 17 3 18 20 19 21 20 2 21 1 22 22 23
REMARK H PARENT 7 13 22 24
REMARK Flexibility Score: inf
ROOT
ATOM      1  C   UNL     1      -8.021  12.819 -21.091  1.00  0.00     0.010 C 
ENDROOT
BRANCH   1   2
ATOM      2  C   UNL     1      -6.905  13.097 -22.109  1.00  0.00     0.005 C 
BRANCH   2   3
ATOM      3  C   UNL     1      -6.763  14.592 -22.434  1.00  0.00     0.027 C 
BRANCH   3   4
ATOM      4  C   UNL     1      -7.625  14.958 -23.613  1.00  0.00    -0.031 C 
ATOM      5  C   UNL     1      -8.833  15.563 -23.574  1.00  0.00    -0.028 C 
BRANCH   5   6
ATOM      6  C   UNL     1      -9.660  15.935 -22.354  1.00  0.00     0.005 C 
ATOM      7  C   UNL     1      -9.438  17.386 -21.912  1.00  0.00     0.012 C 
ATOM      8  C   UNL     1     -11.148  15.583 -22.487  1.00  0.00     0.012 C 
ENDBRANCH   5   6
ENDBRANCH   3   4
ENDBRANCH   2   3
ENDBRANCH   1   2
BRANCH   1   9
ATOM      9  C   UNL     1      -9.260  12.184 -21.737  1.00  0.00     0.100 C 
BRANCH   9  10
ATOM     10  C   UNL     1     -10.433  12.273 -20.807  1.00  0.00     0.220 C 
ATOM     11  O   UNL     1     -10.427  13.133 -19.883  1.00  0.00    -0.275 OA
ATOM     12  N   UNL     1     -11.568  11.417 -20.996  1.00  0.00    -0.352 N 
ATOM     13  H   UNL     1     -11.563  10.733 -21.788  1.00  0.00     0.163 HD
BRANCH  12  14
ATOM     14  C   UNL     1     -12.762  11.497 -20.158  1.00  0.00     0.151 C 
BRANCH  14  15
ATOM     15  C   UNL     1     -13.887  12.169 -20.902  1.00  0.00    -0.025 A 
ATOM     16  C   UNL     1     -13.909  13.567 -21.034  1.00  0.00     0.056 A 
ATOM     17  C   UNL     1     -14.910  11.406 -21.485  1.00  0.00     0.009 A 
ATOM     18  C   UNL     1     -14.947  14.204 -21.742  1.00  0.00     0.160 A 
ATOM     19  C   UNL     1     -15.940  12.030 -22.188  1.00  0.00     0.050 A 
ATOM     20  C   UNL     1     -15.966  13.423 -22.318  1.00  0.00     0.157 A 
BRANCH  18  21
ATOM     21  O   UNL     1     -14.997  15.601 -21.893  1.00  0.00    -0.493 OA
ATOM     22  C   UNL     1     -14.523  16.536 -20.929  1.00  0.00     0.278 C 
ENDBRANCH  18  21
BRANCH  20  23
ATOM     23  O   UNL     1     -17.017  14.013 -23.023  1.00  0.00    -0.504 OA
ATOM     24  H   UNL     1     -17.763  13.467 -23.440  1.00  0.00     0.293 HD
ENDBRANCH  20  23
ENDBRANCH  14  15
ENDBRANCH  12  14
ENDBRANCH   9  10
ENDBRANCH   1   9
TORSDOF 10
ENDMDL
MODEL 7
REMARK VINA RESULT:    -4.176     17.100     19.385
REMARK INTER + INTRA:          -8.168
REMARK INTER:                  -7.158
REMARK INTRA:                  -1.009
REMARK UNBOUND:                -1.673
REMARK SMILES COc1cc(CNC(=O)CCCCC=CC(C)C)ccc1O
REMARK SMILES IDX 11 1 12 2 13 3 14 4 15 5 16 6 17 7 18 8 10 9 8 10 9 11 7 12
REMARK SMILES IDX 6 14 5 15 4 16 19 17 3 18 20 19 21 20 2 21 1 22 22 23
REMARK H PARENT 7 13 22 24
REMARK Flexibility Score: inf
ROOT
ATOM      1  C   UNL     1     -14.834  12.982 -20.842  1.00  0.00     0.010 C 
ENDROOT
BRANCH   1   2
ATOM      2  C   UNL     1     -14.053  11.751 -21.325  1.00  0.00     0.005 C 
BRANCH   2   3
ATOM      3  C   UNL     1     -14.721  11.065 -22.527  1.00  0.00     0.027 C 
BRANCH   3   4
ATOM      4  C   UNL     1     -16.175  10.799 -22.239  1.00  0.00    -0.031 C 
ATOM      5  C   UNL     1     -16.682   9.769 -21.527  1.00  0.00    -0.028 C 
BRANCH   5   6
ATOM      6  C   UNL     1     -15.943   8.586 -20.925  1.00  0.00     0.005 C 
ATOM      7  C   UNL     1     -15.569   8.810 -19.456  1.00  0.00     0.012 C 
ATOM      8  C   UNL     1     -16.641   7.238 -21.156  1.00  0.00     0.012 C 
ENDBRANCH   5   6
ENDBRANCH   3   4
ENDBRANCH   2   3
ENDBRANCH   1   2
BRANCH   1   9
ATOM      9  C   UNL     1     -15.165  13.954 -21.982  1.00  0.00     0.100 C 
BRANCH   9  10
ATOM     10  C   UNL     1     -13.929  14.677 -22.424  1.00  0.00     0.220 C 
ATOM     11  O   UNL     1     -13.708  14.829 -23.658  1.00  0.00    -0.275 OA
ATOM     12  N   UNL     1     -13.030  15.229 -21.452  1.00  0.00    -0.352 N 
ATOM     13  H   UNL     1     -13.251  15.117 -20.435  1.00  0.00     0.163 HD
BRANCH  12  14
ATOM     14  C   UNL     1     -11.842  15.993 -21.823  1.00  0.00     0.151 C 
BRANCH  14  15
ATOM     15  C   UNL     1     -10.667  15.074 -22.038  1.00  0.00    -0.025 A 
ATOM     16  C   UNL     1      -9.586  15.487 -22.833  1.00  0.00     0.056 A 
ATOM     17  C   UNL     1     -10.633  13.810 -21.432  1.00  0.00     0.009 A 
ATOM     18  C   UNL     1      -8.474  14.643 -23.028  1.00  0.00     0.160 A 
ATOM     19  C   UNL     1      -9.535  12.969 -21.619  1.00  0.00     0.050 A 
ATOM     20  C   UNL     1      -8.459  13.377 -22.414  1.00  0.00     0.157 A 
BRANCH  18  21
ATOM     21  O   UNL     1      -7.377  15.027 -23.816  1.00  0.00    -0.493 OA
ATOM     22  C   UNL     1      -7.418  16.033 -24.824  1.00  0.00     0.278 C 
ENDBRANCH  18  21
BRANCH  20  23
ATOM     23  O   UNL     1      -7.381  12.506 -22.584  1.00  0.00    -0.504 OA
ATOM     24  H   UNL     1      -6.745  12.577 -23.371  1.00  0.00     0.293 HD
ENDBRANCH  20  23
ENDBRANCH  14  15
ENDBRANCH  12  14
ENDBRANCH   9  10
ENDBRANCH   1   9
TORSDOF 10
ENDMDL
MODEL 8
REMARK VINA RESULT:    -4.160     16.555     18.778
REMARK INTER + INTRA:          -8.143
REMARK INTER:                  -6.526
REMARK INTRA:                  -1.618
REMARK UNBOUND:                -1.673
REMARK SMILES COc1cc(CNC(=O)CCCCC=CC(C)C)ccc1O
REMARK SMILES IDX 11 1 12 2 13 3 14 4 15 5 16 6 17 7 18 8 10 9 8 10 9 11 7 12
REMARK SMILES IDX 6 14 5 15 4 16 19 17 3 18 20 19 21 20 2 21 1 22 22 23
REMARK H PARENT 7 13 22 24
REMARK Flexibility Score: inf
ROOT
ATOM      1  C   UNL     1     -13.775  10.467 -21.830  1.00  0.00     0.010 C 
ENDROOT
BRANCH   1   2
ATOM      2  C   UNL     1     -15.144  10.847 -22.411  1.00  0.00     0.005 C 
BRANCH   2   3
ATOM      3  C   UNL     1     -15.517  12.311 -22.130  1.00  0.00     0.027 C 
BRANCH   3   4
ATOM      4  C   UNL     1     -14.517  13.240 -22.764  1.00  0.00    -0.031 C 
ATOM      5  C   UNL     1     -13.980  14.349 -22.211  1.00  0.00    -0.028 C 
BRANCH   5   6
ATOM      6  C   UNL     1     -14.311  14.988 -20.872  1.00  0.00     0.005 C 
ATOM      7  C   UNL     1     -13.273  14.662 -19.791  1.00  0.00     0.012 C 
ATOM      8  C   UNL     1     -14.614  16.490 -20.962  1.00  0.00     0.012 C 
ENDBRANCH   5   6
ENDBRANCH   3   4
ENDBRANCH   2   3
ENDBRANCH   1   2
BRANCH   1   9
ATOM      9  C   UNL     1     -13.691  10.707 -20.316  1.00  0.00     0.100 C 
BRANCH   9  10
ATOM     10  C   UNL     1     -12.296  11.094 -19.928  1.00  0.00     0.220 C 
ATOM     11  O   UNL     1     -11.979  11.122 -18.706  1.00  0.00    -0.275 OA
ATOM     12  N   UNL     1     -11.322  11.386 -20.939  1.00  0.00    -0.352 N 
ATOM     13  H   UNL     1     -11.600  11.326 -21.946  1.00  0.00     0.163 HD
BRANCH  12  14
ATOM     14  C   UNL     1      -9.933  11.712 -20.622  1.00  0.00     0.151 C 
BRANCH  14  15
ATOM     15  C   UNL     1      -9.439  12.833 -21.499  1.00  0.00    -0.025 A 
ATOM     16  C   UNL     1     -10.265  13.938 -21.761  1.00  0.00     0.056 A 
ATOM     17  C   UNL     1      -8.147  12.795 -22.043  1.00  0.00     0.009 A 
ATOM     18  C   UNL     1      -9.808  15.001 -22.566  1.00  0.00     0.160 A 
ATOM     19  C   UNL     1      -7.687  13.844 -22.840  1.00  0.00     0.050 A 
ATOM     20  C   UNL     1      -8.509  14.944 -23.106  1.00  0.00     0.157 A 
BRANCH  18  21
ATOM     21  O   UNL     1     -10.609  16.121 -22.846  1.00  0.00    -0.493 OA
ATOM     22  C   UNL     1     -10.609  17.326 -22.085  1.00  0.00     0.278 C 
ENDBRANCH  18  21
BRANCH  20  23
ATOM     23  O   UNL     1      -8.017  15.971 -23.913  1.00  0.00    -0.504 OA
ATOM     24  H   UNL     1      -7.829  15.841 -24.901  1.00  0.00     0.293 HD
ENDBRANCH  20  23
ENDBRANCH  14  15
ENDBRANCH  12  14
ENDBRANCH   9  10
ENDBRANCH   1   9
TORSDOF 10
ENDMDL
MODEL 9
REMARK VINA RESULT:    -4.145     16.454     18.695
REMARK INTER + INTRA:          -8.119
REMARK INTER:                  -6.049
REMARK INTRA:                  -2.071
REMARK UNBOUND:                -1.673
REMARK SMILES COc1cc(CNC(=O)CCCCC=CC(C)C)ccc1O
REMARK SMILES IDX 11 1 12 2 13 3 14 4 15 5 16 6 17 7 18 8 10 9 8 10 9 11 7 12
REMARK SMILES IDX 6 14 5 15 4 16 19 17 3 18 20 19 21 20 2 21 1 22 22 23
REMARK H PARENT 7 13 22 24
REMARK Flexibility Score: inf
ROOT
ATOM      1  C   UNL     1      -9.237  15.632 -23.211  1.00  0.00     0.010 C 
ENDROOT
BRANCH   1   2
ATOM      2  C   UNL     1      -8.074  14.814 -22.631  1.00  0.00     0.005 C 
BRANCH   2   3
ATOM      3  C   UNL     1      -8.285  13.300 -22.785  1.00  0.00     0.027 C 
BRANCH   3   4
ATOM      4  C   UNL     1      -7.969  12.591 -21.494  1.00  0.00    -0.031 C 
ATOM      5  C   UNL     1      -8.842  12.271 -20.513  1.00  0.00    -0.028 C 
BRANCH   5   6
ATOM      6  C   UNL     1     -10.318  12.621 -20.416  1.00  0.00     0.005 C 
ATOM      7  C   UNL     1     -11.193  11.401 -20.110  1.00  0.00     0.012 C 
ATOM      8  C   UNL     1     -10.612  13.805 -19.483  1.00  0.00     0.012 C 
ENDBRANCH   5   6
ENDBRANCH   3   4
ENDBRANCH   2   3
ENDBRANCH   1   2
BRANCH   1   9
ATOM      9  C   UNL     1      -9.980  16.439 -22.138  1.00  0.00     0.100 C 
BRANCH   9  10
ATOM     10  C   UNL     1     -11.461  16.264 -22.289  1.00  0.00     0.220 C 
ATOM     11  O   UNL     1     -12.219  17.267 -22.168  1.00  0.00    -0.275 OA
ATOM     12  N   UNL     1     -12.005  14.977 -22.614  1.00  0.00    -0.352 N 
ATOM     13  H   UNL     1     -11.355  14.168 -22.741  1.00  0.00     0.163 HD
BRANCH  12  14
ATOM     14  C   UNL     1     -13.433  14.759 -22.830  1.00  0.00     0.151 C 
BRANCH  14  15
ATOM     15  C   UNL     1     -13.962  13.723 -21.873  1.00  0.00    -0.025 A 
ATOM     16  C   UNL     1     -14.304  12.443 -22.339  1.00  0.00     0.056 A 
ATOM     17  C   UNL     1     -14.098  14.018 -20.508  1.00  0.00     0.009 A 
ATOM     18  C   UNL     1     -14.784  11.460 -21.450  1.00  0.00     0.160 A 
ATOM     19  C   UNL     1     -14.571  13.050 -19.622  1.00  0.00     0.050 A 
ATOM     20  C   UNL     1     -14.917  11.776 -20.085  1.00  0.00     0.157 A 
BRANCH  18  21
ATOM     21  O   UNL     1     -15.133  10.170 -21.884  1.00  0.00    -0.493 OA
ATOM     22  C   UNL     1     -14.215   9.092 -22.035  1.00  0.00     0.278 C 
ENDBRANCH  18  21
BRANCH  20  23
ATOM     23  O   UNL     1     -15.393  10.835 -19.170  1.00  0.00    -0.504 OA
ATOM     24  H   UNL     1     -16.112  11.056 -18.489  1.00  0.00     0.293 HD
ENDBRANCH  20  23
ENDBRANCH  14  15
ENDBRANCH  12  14
ENDBRANCH   9  10
ENDBRANCH   1   9
TORSDOF 10
ENDMDL
