MODEL 1
REMARK VINA RESULT:    -3.834      0.000      0.000
REMARK INTER + INTRA:          -5.336
REMARK INTER:                  -5.179
REMARK INTRA:                  -0.158
REMARK UNBOUND:                -0.158
REMARK SMILES CCCCCCCC(=O)[O-]
REMARK SMILES IDX 5 1 6 2 7 3 8 4 9 5 10 6 4 7 3 8 2 9 1 10
REMARK H PARENT
REMARK Flexibility Score: inf
ROOT
ATOM      1  C   UNL     1      43.685  11.977 -34.988  1.00  0.00     0.000 C 
ENDROOT
BRANCH   1   2
ATOM      2  C   UNL     1      42.189  11.961 -35.339  1.00  0.00     0.006 C 
BRANCH   2   3
ATOM      3  C   UNL     1      41.826  13.025 -36.383  1.00  0.00     0.053 C 
BRANCH   3   4
ATOM      4  C   UNL     1      40.938  14.087 -35.809  1.00  0.00     0.041 C 
ATOM      5  O   UNL     1      41.423  15.192 -35.449  1.00  0.00    -0.550 OA
ATOM      6  O   UNL     1      39.570  13.869 -35.704  1.00  0.00    -0.550 OA
ENDBRANCH   3   4
ENDBRANCH   2   3
ENDBRANCH   1   2
BRANCH   1   7
ATOM      7  C   UNL     1      43.903  12.393 -33.529  1.00  0.00     0.000 C 
BRANCH   7   8
ATOM      8  C   UNL     1      45.400  12.461 -33.195  1.00  0.00    -0.000 C 
BRANCH   8   9
ATOM      9  C   UNL     1      45.662  12.793 -31.718  1.00  0.00    -0.003 C 
ATOM     10  C   UNL     1      46.457  11.704 -30.999  1.00  0.00     0.004 C 
ENDBRANCH   8   9
ENDBRANCH   7   8
ENDBRANCH   1   7
TORSDOF 6
ENDMDL
MODEL 2
REMARK VINA RESULT:    -3.769      0.955      1.620
REMARK INTER + INTRA:          -5.249
REMARK INTER:                  -5.118
REMARK INTRA:                  -0.132
REMARK UNBOUND:                -0.158
REMARK SMILES CCCCCCCC(=O)[O-]
REMARK SMILES IDX 5 1 6 2 7 3 8 4 9 5 10 6 4 7 3 8 2 9 1 10
REMARK H PARENT
REMARK Flexibility Score: inf
ROOT
ATOM      1  C   UNL     1      43.962  12.344 -33.432  1.00  0.00     0.000 C 
ENDROOT
BRANCH   1   2
ATOM      2  C   UNL     1      43.750  12.135 -34.939  1.00  0.00     0.006 C 
BRANCH   2   3
ATOM      3  C   UNL     1      42.278  11.877 -35.289  1.00  0.00     0.053 C 
BRANCH   3   4
ATOM      4  C   UNL     1      41.658  13.049 -35.987  1.00  0.00     0.041 C 
ATOM      5  O   UNL     1      42.215  13.552 -36.997  1.00  0.00    -0.550 OA
ATOM      6  O   UNL     1      40.447  13.562 -35.541  1.00  0.00    -0.550 OA
ENDBRANCH   3   4
ENDBRANCH   2   3
ENDBRANCH   1   2
BRANCH   1   7
ATOM      7  C   UNL     1      45.425  12.682 -33.125  1.00  0.00     0.000 C 
BRANCH   7   8
ATOM      8  C   UNL     1      45.674  12.720 -31.610  1.00  0.00    -0.000 C 
BRANCH   8   9
ATOM      9  C   UNL     1      46.481  11.510 -31.113  1.00  0.00    -0.003 C 
ATOM     10  C   UNL     1      46.284  11.241 -29.621  1.00  0.00     0.004 C 
ENDBRANCH   8   9
ENDBRANCH   7   8
ENDBRANCH   1   7
TORSDOF 6
ENDMDL
MODEL 3
REMARK VINA RESULT:    -3.427     19.485     20.642
REMARK INTER + INTRA:          -4.786
REMARK INTER:                  -4.565
REMARK INTRA:                  -0.221
REMARK UNBOUND:                -0.158
REMARK SMILES CCCCCCCC(=O)[O-]
REMARK SMILES IDX 5 1 6 2 7 3 8 4 9 5 10 6 4 7 3 8 2 9 1 10
REMARK H PARENT
REMARK Flexibility Score: inf
ROOT
ATOM      1  C   UNL     1      55.657  27.524 -35.492  1.00  0.00     0.000 C 
ENDROOT
BRANCH   1   2
ATOM      2  C   UNL     1      56.398  27.169 -34.195  1.00  0.00     0.006 C 
BRANCH   2   3
ATOM      3  C   UNL     1      56.819  28.415 -33.405  1.00  0.00     0.053 C 
BRANCH   3   4
ATOM      4  C   UNL     1      56.242  28.419 -32.022  1.00  0.00     0.041 C 
ATOM      5  O   UNL     1      56.350  27.403 -31.288  1.00  0.00    -0.550 OA
ATOM      6  O   UNL     1      55.615  29.558 -31.533  1.00  0.00    -0.550 OA
ENDBRANCH   3   4
ENDBRANCH   2   3
ENDBRANCH   1   2
BRANCH   1   7
ATOM      7  C   UNL     1      56.235  28.795 -36.125  1.00  0.00     0.000 C 
BRANCH   7   8
ATOM      8  C   UNL     1      55.228  29.437 -37.089  1.00  0.00    -0.000 C 
BRANCH   8   9
ATOM      9  C   UNL     1      55.309  28.850 -38.507  1.00  0.00    -0.003 C 
ATOM     10  C   UNL     1      54.179  27.864 -38.803  1.00  0.00     0.004 C 
ENDBRANCH   8   9
ENDBRANCH   7   8
ENDBRANCH   1   7
TORSDOF 6
ENDMDL
MODEL 4
REMARK VINA RESULT:    -3.331      3.680      6.037
REMARK INTER + INTRA:          -4.657
REMARK INTER:                  -4.487
REMARK INTRA:                  -0.170
REMARK UNBOUND:                -0.158
REMARK SMILES CCCCCCCC(=O)[O-]
REMARK SMILES IDX 5 1 6 2 7 3 8 4 9 5 10 6 4 7 3 8 2 9 1 10
REMARK H PARENT
REMARK Flexibility Score: inf
ROOT
ATOM      1  C   UNL     1      43.588  12.021 -33.723  1.00  0.00     0.000 C 
ENDROOT
BRANCH   1   2
ATOM      2  C   UNL     1      44.897  12.639 -33.208  1.00  0.00     0.006 C 
BRANCH   2   3
ATOM      3  C   UNL     1      44.952  12.692 -31.676  1.00  0.00     0.053 C 
BRANCH   3   4
ATOM      4  C   UNL     1      46.145  11.962 -31.137  1.00  0.00     0.041 C 
ATOM      5  O   UNL     1      47.080  11.622 -31.907  1.00  0.00    -0.550 OA
ATOM      6  O   UNL     1      46.238  11.690 -29.778  1.00  0.00    -0.550 OA
ENDBRANCH   3   4
ENDBRANCH   2   3
ENDBRANCH   1   2
BRANCH   1   7
ATOM      7  C   UNL     1      43.555  12.001 -35.255  1.00  0.00     0.000 C 
BRANCH   7   8
ATOM      8  C   UNL     1      42.111  12.058 -35.774  1.00  0.00    -0.000 C 
BRANCH   8   9
ATOM      9  C   UNL     1      41.707  13.464 -36.245  1.00  0.00    -0.003 C 
ATOM     10  C   UNL     1      40.288  13.843 -35.825  1.00  0.00     0.004 C 
ENDBRANCH   8   9
ENDBRANCH   7   8
ENDBRANCH   1   7
TORSDOF 6
ENDMDL
MODEL 5
REMARK VINA RESULT:    -3.252     19.902     20.633
REMARK INTER + INTRA:          -4.551
REMARK INTER:                  -4.135
REMARK INTRA:                  -0.416
REMARK UNBOUND:                -0.158
REMARK SMILES CCCCCCCC(=O)[O-]
REMARK SMILES IDX 5 1 6 2 7 3 8 4 9 5 10 6 4 7 3 8 2 9 1 10
REMARK H PARENT
REMARK Flexibility Score: inf
ROOT
ATOM      1  C   UNL     1      56.009  27.725 -35.038  1.00  0.00     0.000 C 
ENDROOT
BRANCH   1   2
ATOM      2  C   UNL     1      56.799  28.815 -35.779  1.00  0.00     0.006 C 
BRANCH   2   3
ATOM      3  C   UNL     1      55.925  30.023 -36.140  1.00  0.00     0.053 C 
BRANCH   3   4
ATOM      4  C   UNL     1      55.145  29.791 -37.398  1.00  0.00     0.041 C 
ATOM      5  O   UNL     1      54.121  30.480 -37.644  1.00  0.00    -0.550 OA
ATOM      6  O   UNL     1      55.571  28.837 -38.314  1.00  0.00    -0.550 OA
ENDBRANCH   3   4
ENDBRANCH   2   3
ENDBRANCH   1   2
BRANCH   1   7
ATOM      7  C   UNL     1      56.871  27.060 -33.959  1.00  0.00     0.000 C 
BRANCH   7   8
ATOM      8  C   UNL     1      56.382  27.440 -32.554  1.00  0.00    -0.000 C 
BRANCH   8   9
ATOM      9  C   UNL     1      56.996  28.756 -32.051  1.00  0.00    -0.003 C 
ATOM     10  C   UNL     1      55.969  29.882 -31.940  1.00  0.00     0.004 C 
ENDBRANCH   8   9
ENDBRANCH   7   8
ENDBRANCH   1   7
TORSDOF 6
ENDMDL
MODEL 6
REMARK VINA RESULT:    -3.247      2.043      3.303
REMARK INTER + INTRA:          -4.544
REMARK INTER:                  -4.247
REMARK INTRA:                  -0.297
REMARK UNBOUND:                -0.158
REMARK SMILES CCCCCCCC(=O)[O-]
REMARK SMILES IDX 5 1 6 2 7 3 8 4 9 5 10 6 4 7 3 8 2 9 1 10
REMARK H PARENT
REMARK Flexibility Score: inf
ROOT
ATOM      1  C   UNL     1      46.154  12.587 -32.638  1.00  0.00     0.000 C 
ENDROOT
BRANCH   1   2
ATOM      2  C   UNL     1      45.529  12.369 -34.024  1.00  0.00     0.006 C 
BRANCH   2   3
ATOM      3  C   UNL     1      43.996  12.394 -33.981  1.00  0.00     0.053 C 
BRANCH   3   4
ATOM      4  C   UNL     1      43.396  11.986 -35.293  1.00  0.00     0.041 C 
ATOM      5  O   UNL     1      42.151  11.832 -35.398  1.00  0.00    -0.550 OA
ATOM      6  O   UNL     1      44.208  11.812 -36.406  1.00  0.00    -0.550 OA
ENDBRANCH   3   4
ENDBRANCH   2   3
ENDBRANCH   1   2
BRANCH   1   7
ATOM      7  C   UNL     1      45.074  12.864 -31.586  1.00  0.00     0.000 C 
BRANCH   7   8
ATOM      8  C   UNL     1      45.382  12.126 -30.275  1.00  0.00    -0.000 C 
BRANCH   8   9
ATOM      9  C   UNL     1      46.624  11.227 -30.380  1.00  0.00    -0.003 C 
ATOM     10  C   UNL     1      47.215  10.875 -29.016  1.00  0.00     0.004 C 
ENDBRANCH   8   9
ENDBRANCH   7   8
ENDBRANCH   1   7
TORSDOF 6
ENDMDL
MODEL 7
REMARK VINA RESULT:    -3.196     19.610     20.718
REMARK INTER + INTRA:          -4.474
REMARK INTER:                  -4.149
REMARK INTRA:                  -0.325
REMARK UNBOUND:                -0.158
REMARK SMILES CCCCCCCC(=O)[O-]
REMARK SMILES IDX 5 1 6 2 7 3 8 4 9 5 10 6 4 7 3 8 2 9 1 10
REMARK H PARENT
REMARK Flexibility Score: inf
ROOT
ATOM      1  C   UNL     1      56.239  27.710 -31.929  1.00  0.00     0.000 C 
ENDROOT
BRANCH   1   2
ATOM      2  C   UNL     1      57.111  27.407 -33.157  1.00  0.00     0.006 C 
BRANCH   2   3
ATOM      3  C   UNL     1      56.875  28.405 -34.298  1.00  0.00     0.053 C 
BRANCH   3   4
ATOM      4  C   UNL     1      55.951  27.850 -35.340  1.00  0.00     0.041 C 
ATOM      5  O   UNL     1      55.651  28.538 -36.351  1.00  0.00    -0.550 OA
ATOM      6  O   UNL     1      55.450  26.561 -35.210  1.00  0.00    -0.550 OA
ENDBRANCH   3   4
ENDBRANCH   2   3
ENDBRANCH   1   2
BRANCH   1   7
ATOM      7  C   UNL     1      57.100  28.144 -30.737  1.00  0.00     0.000 C 
BRANCH   7   8
ATOM      8  C   UNL     1      56.395  29.234 -29.917  1.00  0.00    -0.000 C 
BRANCH   8   9
ATOM      9  C   UNL     1      56.538  30.630 -30.543  1.00  0.00    -0.003 C 
ATOM     10  C   UNL     1      55.258  31.102 -31.232  1.00  0.00     0.004 C 
ENDBRANCH   8   9
ENDBRANCH   7   8
ENDBRANCH   1   7
TORSDOF 6
ENDMDL
MODEL 8
REMARK VINA RESULT:    -3.193     19.529     20.758
REMARK INTER + INTRA:          -4.471
REMARK INTER:                  -4.004
REMARK INTRA:                  -0.467
REMARK UNBOUND:                -0.158
REMARK SMILES CCCCCCCC(=O)[O-]
REMARK SMILES IDX 5 1 6 2 7 3 8 4 9 5 10 6 4 7 3 8 2 9 1 10
REMARK H PARENT
REMARK Flexibility Score: inf
ROOT
ATOM      1  C   UNL     1      56.050  27.007 -33.513  1.00  0.00     0.000 C 
ENDROOT
BRANCH   1   2
ATOM      2  C   UNL     1      55.967  27.384 -34.999  1.00  0.00     0.006 C 
BRANCH   2   3
ATOM      3  C   UNL     1      56.732  28.676 -35.315  1.00  0.00     0.053 C 
BRANCH   3   4
ATOM      4  C   UNL     1      55.955  29.573 -36.230  1.00  0.00     0.041 C 
ATOM      5  O   UNL     1      55.962  30.819 -36.050  1.00  0.00    -0.550 OA
ATOM      6  O   UNL     1      55.252  29.035 -37.301  1.00  0.00    -0.550 OA
ENDBRANCH   3   4
ENDBRANCH   2   3
ENDBRANCH   1   2
BRANCH   1   7
ATOM      7  C   UNL     1      56.976  27.964 -32.754  1.00  0.00     0.000 C 
BRANCH   7   8
ATOM      8  C   UNL     1      56.410  28.290 -31.365  1.00  0.00    -0.000 C 
BRANCH   8   9
ATOM      9  C   UNL     1      55.682  29.643 -31.325  1.00  0.00    -0.003 C 
ATOM     10  C   UNL     1      56.300  30.674 -32.269  1.00  0.00     0.004 C 
ENDBRANCH   8   9
ENDBRANCH   7   8
ENDBRANCH   1   7
TORSDOF 6
ENDMDL
MODEL 9
REMARK VINA RESULT:    -3.104     19.850     21.193
REMARK INTER + INTRA:          -4.350
REMARK INTER:                  -3.963
REMARK INTRA:                  -0.387
REMARK UNBOUND:                -0.158
REMARK SMILES CCCCCCCC(=O)[O-]
REMARK SMILES IDX 5 1 6 2 7 3 8 4 9 5 10 6 4 7 3 8 2 9 1 10
REMARK H PARENT
REMARK Flexibility Score: inf
ROOT
ATOM      1  C   UNL     1      56.069  27.159 -34.351  1.00  0.00     0.000 C 
ENDROOT
BRANCH   1   2
ATOM      2  C   UNL     1      56.958  27.723 -33.232  1.00  0.00     0.006 C 
BRANCH   2   3
ATOM      3  C   UNL     1      56.304  27.596 -31.850  1.00  0.00     0.053 C 
BRANCH   3   4
ATOM      4  C   UNL     1      56.069  28.936 -31.221  1.00  0.00     0.041 C 
ATOM      5  O   UNL     1      55.647  29.897 -31.916  1.00  0.00    -0.550 OA
ATOM      6  O   UNL     1      56.284  29.113 -29.860  1.00  0.00    -0.550 OA
ENDBRANCH   3   4
ENDBRANCH   2   3
ENDBRANCH   1   2
BRANCH   1   7
ATOM      7  C   UNL     1      55.990  28.131 -35.533  1.00  0.00     0.000 C 
BRANCH   7   8
ATOM      8  C   UNL     1      57.032  29.250 -35.396  1.00  0.00    -0.000 C 
BRANCH   8   9
ATOM      9  C   UNL     1      56.396  30.648 -35.340  1.00  0.00    -0.003 C 
ATOM     10  C   UNL     1      55.433  30.905 -36.498  1.00  0.00     0.004 C 
ENDBRANCH   8   9
ENDBRANCH   7   8
ENDBRANCH   1   7
TORSDOF 6
ENDMDL
