MODEL 1
REMARK VINA RESULT:     0.586      0.000      0.000
REMARK INTER + INTRA:          -0.198
REMARK INTER:                   1.339
REMARK INTRA:                  -1.538
REMARK UNBOUND:                -1.538
REMARK SMILES CCCCCCCCCCCCCCCCCCCCCCCC(=O)[O-]
REMARK SMILES IDX 13 1 14 2 15 3 16 4 17 5 18 6 19 7 20 8 21 9 22 10 23 11
REMARK SMILES IDX 24 12 25 13 26 14 12 15 11 16 10 17 9 18 8 19 7 20 6 21 5 22
REMARK SMILES IDX 4 23 3 24 2 25 1 26
REMARK H PARENT
REMARK Flexibility Score: inf
ROOT
ATOM      1  C   UNL     1       5.032 -37.249  19.307  1.00  0.00     0.000 C 
ENDROOT
BRANCH   1   2
ATOM      2  C   UNL     1       5.265 -35.777  19.685  1.00  0.00     0.000 C 
BRANCH   2   3
ATOM      3  C   UNL     1       6.125 -35.627  20.952  1.00  0.00     0.000 C 
BRANCH   3   4
ATOM      4  C   UNL     1       5.281 -35.552  22.237  1.00  0.00     0.000 C 
BRANCH   4   5
ATOM      5  C   UNL     1       6.053 -35.091  23.491  1.00  0.00     0.000 C 
BRANCH   5   6
ATOM      6  C   UNL     1       5.254 -35.145  24.809  1.00  0.00     0.000 C 
BRANCH   6   7
ATOM      7  C   UNL     1       5.376 -36.467  25.589  1.00  0.00     0.000 C 
BRANCH   7   8
ATOM      8  C   UNL     1       5.657 -37.672  24.679  1.00  0.00     0.000 C 
BRANCH   8   9
ATOM      9  C   UNL     1       5.169 -38.975  25.328  1.00  0.00     0.000 C 
BRANCH   9  10
ATOM     10  C   UNL     1       5.376 -40.210  24.431  1.00  0.00     0.006 C 
BRANCH  10  11
ATOM     11  C   UNL     1       5.638 -39.872  22.953  1.00  0.00     0.053 C 
BRANCH  11  12
ATOM     12  C   UNL     1       5.876 -41.093  22.118  1.00  0.00     0.041 C 
ATOM     13  O   UNL     1       6.124 -40.982  20.888  1.00  0.00    -0.550 OA
ATOM     14  O   UNL     1       5.783 -42.359  22.686  1.00  0.00    -0.550 OA
ENDBRANCH  11  12
ENDBRANCH  10  11
ENDBRANCH   9  10
ENDBRANCH   8   9
ENDBRANCH   7   8
ENDBRANCH   6   7
ENDBRANCH   5   6
ENDBRANCH   4   5
ENDBRANCH   3   4
ENDBRANCH   2   3
ENDBRANCH   1   2
BRANCH   1  15
ATOM     15  C   UNL     1       3.741 -37.815  19.923  1.00  0.00     0.000 C 
BRANCH  15  16
ATOM     16  C   UNL     1       2.472 -37.223  19.288  1.00  0.00     0.000 C 
BRANCH  16  17
ATOM     17  C   UNL     1       1.709 -38.250  18.432  1.00  0.00     0.000 C 
BRANCH  17  18
ATOM     18  C   UNL     1       2.028 -38.121  16.933  1.00  0.00    -0.000 C 
BRANCH  18  19
ATOM     19  C   UNL     1       1.839 -36.686  16.412  1.00  0.00    -0.000 C 
BRANCH  19  20
ATOM     20  C   UNL     1       1.830 -36.606  14.874  1.00  0.00    -0.000 C 
BRANCH  20  21
ATOM     21  C   UNL     1       3.128 -36.065  14.240  1.00  0.00    -0.000 C 
BRANCH  21  22
ATOM     22  C   UNL     1       4.290 -37.075  14.157  1.00  0.00    -0.000 C 
BRANCH  22  23
ATOM     23  C   UNL     1       3.873 -38.530  13.876  1.00  0.00    -0.000 C 
BRANCH  23  24
ATOM     24  C   UNL     1       5.051 -39.515  13.958  1.00  0.00    -0.000 C 
BRANCH  24  25
ATOM     25  C   UNL     1       4.623 -40.902  14.462  1.00  0.00    -0.003 C 
ATOM     26  C   UNL     1       5.664 -41.984  14.178  1.00  0.00     0.004 C 
ENDBRANCH  24  25
ENDBRANCH  23  24
ENDBRANCH  22  23
ENDBRANCH  21  22
ENDBRANCH  20  21
ENDBRANCH  19  20
ENDBRANCH  18  19
ENDBRANCH  17  18
ENDBRANCH  16  17
ENDBRANCH  15  16
ENDBRANCH   1  15
TORSDOF 22
ENDMDL
MODEL 2
REMARK VINA RESULT:     0.594      2.260      4.963
REMARK INTER + INTRA:          -0.181
REMARK INTER:                   1.721
REMARK INTRA:                  -1.902
REMARK UNBOUND:                -1.538
REMARK SMILES CCCCCCCCCCCCCCCCCCCCCCCC(=O)[O-]
REMARK SMILES IDX 13 1 14 2 15 3 16 4 17 5 18 6 19 7 20 8 21 9 22 10 23 11
REMARK SMILES IDX 24 12 25 13 26 14 12 15 11 16 10 17 9 18 8 19 7 20 6 21 5 22
REMARK SMILES IDX 4 23 3 24 2 25 1 26
REMARK H PARENT
REMARK Flexibility Score: inf
ROOT
ATOM      1  C   UNL     1       6.050 -35.252  25.054  1.00  0.00     0.000 C 
ENDROOT
BRANCH   1   2
ATOM      2  C   UNL     1       5.219 -36.543  24.979  1.00  0.00     0.000 C 
BRANCH   2   3
ATOM      3  C   UNL     1       5.716 -37.618  25.961  1.00  0.00     0.000 C 
BRANCH   3   4
ATOM      4  C   UNL     1       4.828 -38.875  25.967  1.00  0.00     0.000 C 
BRANCH   4   5
ATOM      5  C   UNL     1       4.396 -39.369  24.571  1.00  0.00     0.000 C 
BRANCH   5   6
ATOM      6  C   UNL     1       5.537 -39.910  23.685  1.00  0.00     0.000 C 
BRANCH   6   7
ATOM      7  C   UNL     1       5.118 -40.303  22.256  1.00  0.00     0.000 C 
BRANCH   7   8
ATOM      8  C   UNL     1       5.977 -39.629  21.177  1.00  0.00     0.000 C 
BRANCH   8   9
ATOM      9  C   UNL     1       5.214 -38.476  20.510  1.00  0.00     0.000 C 
BRANCH   9  10
ATOM     10  C   UNL     1       3.688 -38.687  20.500  1.00  0.00     0.006 C 
BRANCH  10  11
ATOM     11  C   UNL     1       2.977 -38.051  19.293  1.00  0.00     0.053 C 
BRANCH  11  12
ATOM     12  C   UNL     1       1.607 -37.547  19.633  1.00  0.00     0.041 C 
ATOM     13  O   UNL     1       1.425 -36.855  20.670  1.00  0.00    -0.550 OA
ATOM     14  O   UNL     1       0.522 -37.873  18.828  1.00  0.00    -0.550 OA
ENDBRANCH  11  12
ENDBRANCH  10  11
ENDBRANCH   9  10
ENDBRANCH   8   9
ENDBRANCH   7   8
ENDBRANCH   6   7
ENDBRANCH   5   6
ENDBRANCH   4   5
ENDBRANCH   3   4
ENDBRANCH   2   3
ENDBRANCH   1   2
BRANCH   1  15
ATOM     15  C   UNL     1       6.125 -34.523  23.702  1.00  0.00     0.000 C 
BRANCH  15  16
ATOM     16  C   UNL     1       5.919 -35.469  22.507  1.00  0.00     0.000 C 
BRANCH  16  17
ATOM     17  C   UNL     1       4.519 -35.331  21.882  1.00  0.00     0.000 C 
BRANCH  17  18
ATOM     18  C   UNL     1       4.552 -34.644  20.507  1.00  0.00    -0.000 C 
BRANCH  18  19
ATOM     19  C   UNL     1       5.281 -35.485  19.445  1.00  0.00    -0.000 C 
BRANCH  19  20
ATOM     20  C   UNL     1       5.023 -34.987  18.010  1.00  0.00    -0.000 C 
BRANCH  20  21
ATOM     21  C   UNL     1       3.597 -35.240  17.478  1.00  0.00    -0.000 C 
BRANCH  21  22
ATOM     22  C   UNL     1       3.434 -36.506  16.612  1.00  0.00    -0.000 C 
BRANCH  22  23
ATOM     23  C   UNL     1       2.274 -36.462  15.601  1.00  0.00    -0.000 C 
BRANCH  23  24
ATOM     24  C   UNL     1       2.632 -37.112  14.254  1.00  0.00    -0.000 C 
BRANCH  24  25
ATOM     25  C   UNL     1       4.134 -37.411  14.127  1.00  0.00    -0.003 C 
ATOM     26  C   UNL     1       4.430 -38.903  13.977  1.00  0.00     0.004 C 
ENDBRANCH  24  25
ENDBRANCH  23  24
ENDBRANCH  22  23
ENDBRANCH  21  22
ENDBRANCH  20  21
ENDBRANCH  19  20
ENDBRANCH  18  19
ENDBRANCH  17  18
ENDBRANCH  16  17
ENDBRANCH  15  16
ENDBRANCH   1  15
TORSDOF 22
ENDMDL
MODEL 3
REMARK VINA RESULT:     0.969      1.976      6.741
REMARK INTER + INTRA:           0.677
REMARK INTER:                   1.557
REMARK INTRA:                  -0.880
REMARK UNBOUND:                -1.538
REMARK SMILES CCCCCCCCCCCCCCCCCCCCCCCC(=O)[O-]
REMARK SMILES IDX 13 1 14 2 15 3 16 4 17 5 18 6 19 7 20 8 21 9 22 10 23 11
REMARK SMILES IDX 24 12 25 13 26 14 12 15 11 16 10 17 9 18 8 19 7 20 6 21 5 22
REMARK SMILES IDX 4 23 3 24 2 25 1 26
REMARK H PARENT
REMARK Flexibility Score: inf
ROOT
ATOM      1  C   UNL     1       0.969 -36.691  17.150  1.00  0.00     0.000 C 
ENDROOT
BRANCH   1   2
ATOM      2  C   UNL     1       1.623 -36.901  15.774  1.00  0.00     0.000 C 
BRANCH   2   3
ATOM      3  C   UNL     1       3.045 -37.478  15.882  1.00  0.00     0.000 C 
BRANCH   3   4
ATOM      4  C   UNL     1       4.081 -36.427  16.318  1.00  0.00     0.000 C 
BRANCH   4   5
ATOM      5  C   UNL     1       3.825 -35.801  17.705  1.00  0.00     0.000 C 
BRANCH   5   6
ATOM      6  C   UNL     1       4.930 -34.852  18.211  1.00  0.00     0.000 C 
BRANCH   6   7
ATOM      7  C   UNL     1       6.096 -35.545  18.939  1.00  0.00     0.000 C 
BRANCH   7   8
ATOM      8  C   UNL     1       5.640 -36.347  20.167  1.00  0.00     0.000 C 
BRANCH   8   9
ATOM      9  C   UNL     1       5.710 -37.855  19.893  1.00  0.00     0.000 C 
BRANCH   9  10
ATOM     10  C   UNL     1       5.372 -38.710  21.129  1.00  0.00     0.006 C 
BRANCH  10  11
ATOM     11  C   UNL     1       5.947 -40.136  21.078  1.00  0.00     0.053 C 
BRANCH  11  12
ATOM     12  C   UNL     1       5.756 -40.879  22.366  1.00  0.00     0.041 C 
ATOM     13  O   UNL     1       5.948 -42.123  22.415  1.00  0.00    -0.550 OA
ATOM     14  O   UNL     1       5.326 -40.207  23.504  1.00  0.00    -0.550 OA
ENDBRANCH  11  12
ENDBRANCH  10  11
ENDBRANCH   9  10
ENDBRANCH   8   9
ENDBRANCH   7   8
ENDBRANCH   6   7
ENDBRANCH   5   6
ENDBRANCH   4   5
ENDBRANCH   3   4
ENDBRANCH   2   3
ENDBRANCH   1   2
BRANCH   1  15
ATOM     15  C   UNL     1       0.786 -38.010  17.920  1.00  0.00     0.000 C 
BRANCH  15  16
ATOM     16  C   UNL     1       0.847 -37.819  19.444  1.00  0.00     0.000 C 
BRANCH  16  17
ATOM     17  C   UNL     1       2.229 -37.339  19.922  1.00  0.00     0.000 C 
BRANCH  17  18
ATOM     18  C   UNL     1       2.134 -36.254  21.006  1.00  0.00    -0.000 C 
BRANCH  18  19
ATOM     19  C   UNL     1       3.511 -35.685  21.393  1.00  0.00    -0.000 C 
BRANCH  19  20
ATOM     20  C   UNL     1       3.415 -34.529  22.405  1.00  0.00    -0.000 C 
BRANCH  20  21
ATOM     21  C   UNL     1       4.753 -33.833  22.731  1.00  0.00    -0.000 C 
BRANCH  21  22
ATOM     22  C   UNL     1       5.941 -34.782  22.990  1.00  0.00    -0.000 C 
BRANCH  22  23
ATOM     23  C   UNL     1       6.011 -35.370  24.411  1.00  0.00    -0.000 C 
BRANCH  23  24
ATOM     24  C   UNL     1       5.464 -36.805  24.491  1.00  0.00    -0.000 C 
BRANCH  24  25
ATOM     25  C   UNL     1       5.515 -37.374  25.917  1.00  0.00    -0.003 C 
ATOM     26  C   UNL     1       4.315 -38.264  26.243  1.00  0.00     0.004 C 
ENDBRANCH  24  25
ENDBRANCH  23  24
ENDBRANCH  22  23
ENDBRANCH  21  22
ENDBRANCH  20  21
ENDBRANCH  19  20
ENDBRANCH  18  19
ENDBRANCH  17  18
ENDBRANCH  16  17
ENDBRANCH  15  16
ENDBRANCH   1  15
TORSDOF 22
ENDMDL
MODEL 4
REMARK VINA RESULT:     1.233      2.705      7.980
REMARK INTER + INTRA:           1.280
REMARK INTER:                   3.197
REMARK INTRA:                  -1.917
REMARK UNBOUND:                -1.538
REMARK SMILES CCCCCCCCCCCCCCCCCCCCCCCC(=O)[O-]
REMARK SMILES IDX 13 1 14 2 15 3 16 4 17 5 18 6 19 7 20 8 21 9 22 10 23 11
REMARK SMILES IDX 24 12 25 13 26 14 12 15 11 16 10 17 9 18 8 19 7 20 6 21 5 22
REMARK SMILES IDX 4 23 3 24 2 25 1 26
REMARK H PARENT
REMARK Flexibility Score: inf
ROOT
ATOM      1  C   UNL     1       2.103 -36.610  20.961  1.00  0.00     0.000 C 
ENDROOT
BRANCH   1   2
ATOM      2  C   UNL     1       2.950 -37.323  19.894  1.00  0.00     0.000 C 
BRANCH   2   3
ATOM      3  C   UNL     1       4.215 -37.969  20.485  1.00  0.00     0.000 C 
BRANCH   3   4
ATOM      4  C   UNL     1       5.504 -37.498  19.789  1.00  0.00     0.000 C 
BRANCH   4   5
ATOM      5  C   UNL     1       5.801 -35.990  19.928  1.00  0.00     0.000 C 
BRANCH   5   6
ATOM      6  C   UNL     1       5.616 -35.163  18.639  1.00  0.00     0.000 C 
BRANCH   6   7
ATOM      7  C   UNL     1       4.154 -34.954  18.206  1.00  0.00     0.000 C 
BRANCH   7   8
ATOM      8  C   UNL     1       3.878 -35.448  16.779  1.00  0.00     0.000 C 
BRANCH   8   9
ATOM      9  C   UNL     1       2.845 -36.584  16.783  1.00  0.00     0.000 C 
BRANCH   9  10
ATOM     10  C   UNL     1       2.000 -36.636  15.496  1.00  0.00     0.006 C 
BRANCH  10  11
ATOM     11  C   UNL     1       2.834 -36.699  14.204  1.00  0.00     0.053 C 
BRANCH  11  12
ATOM     12  C   UNL     1       4.004 -37.629  14.320  1.00  0.00     0.041 C 
ATOM     13  O   UNL     1       5.167 -37.220  14.061  1.00  0.00    -0.550 OA
ATOM     14  O   UNL     1       3.808 -38.959  14.673  1.00  0.00    -0.550 OA
ENDBRANCH  11  12
ENDBRANCH  10  11
ENDBRANCH   9  10
ENDBRANCH   8   9
ENDBRANCH   7   8
ENDBRANCH   6   7
ENDBRANCH   5   6
ENDBRANCH   4   5
ENDBRANCH   3   4
ENDBRANCH   2   3
ENDBRANCH   1   2
BRANCH   1  15
ATOM     15  C   UNL     1       2.663 -35.223  21.323  1.00  0.00     0.000 C 
BRANCH  15  16
ATOM     16  C   UNL     1       3.587 -35.259  22.551  1.00  0.00     0.000 C 
BRANCH  16  17
ATOM     17  C   UNL     1       4.487 -34.014  22.646  1.00  0.00     0.000 C 
BRANCH  17  18
ATOM     18  C   UNL     1       5.739 -34.255  23.504  1.00  0.00    -0.000 C 
BRANCH  18  19
ATOM     19  C   UNL     1       6.125 -35.743  23.579  1.00  0.00    -0.000 C 
BRANCH  19  20
ATOM     20  C   UNL     1       6.068 -36.302  25.013  1.00  0.00    -0.000 C 
BRANCH  20  21
ATOM     21  C   UNL     1       4.947 -37.330  25.269  1.00  0.00    -0.000 C 
BRANCH  21  22
ATOM     22  C   UNL     1       5.265 -38.772  24.825  1.00  0.00    -0.000 C 
BRANCH  22  23
ATOM     23  C   UNL     1       4.766 -39.149  23.417  1.00  0.00    -0.000 C 
BRANCH  23  24
ATOM     24  C   UNL     1       5.292 -40.514  22.943  1.00  0.00    -0.000 C 
BRANCH  24  25
ATOM     25  C   UNL     1       5.814 -41.377  24.103  1.00  0.00    -0.003 C 
ATOM     26  C   UNL     1       6.124 -42.812  23.681  1.00  0.00     0.004 C 
ENDBRANCH  24  25
ENDBRANCH  23  24
ENDBRANCH  22  23
ENDBRANCH  21  22
ENDBRANCH  20  21
ENDBRANCH  19  20
ENDBRANCH  18  19
ENDBRANCH  17  18
ENDBRANCH  16  17
ENDBRANCH  15  16
ENDBRANCH   1  15
TORSDOF 22
ENDMDL
MODEL 5
REMARK VINA RESULT:     1.300      2.825      8.283
REMARK INTER + INTRA:           1.433
REMARK INTER:                   1.584
REMARK INTRA:                  -0.151
REMARK UNBOUND:                -1.538
REMARK SMILES CCCCCCCCCCCCCCCCCCCCCCCC(=O)[O-]
REMARK SMILES IDX 13 1 14 2 15 3 16 4 17 5 18 6 19 7 20 8 21 9 22 10 23 11
REMARK SMILES IDX 24 12 25 13 26 14 12 15 11 16 10 17 9 18 8 19 7 20 6 21 5 22
REMARK SMILES IDX 4 23 3 24 2 25 1 26
REMARK H PARENT
REMARK Flexibility Score: inf
ROOT
ATOM      1  C   UNL     1       3.694 -38.127  20.794  1.00  0.00     0.000 C 
ENDROOT
BRANCH   1   2
ATOM      2  C   UNL     1       2.757 -37.429  19.795  1.00  0.00     0.000 C 
BRANCH   2   3
ATOM      3  C   UNL     1       1.280 -37.795  20.021  1.00  0.00     0.000 C 
BRANCH   3   4
ATOM      4  C   UNL     1       0.462 -37.801  18.718  1.00  0.00     0.000 C 
BRANCH   4   5
ATOM      5  C   UNL     1       1.290 -37.582  17.434  1.00  0.00     0.000 C 
BRANCH   5   6
ATOM      6  C   UNL     1       0.904 -36.338  16.608  1.00  0.00     0.000 C 
BRANCH   6   7
ATOM      7  C   UNL     1       1.599 -36.227  15.239  1.00  0.00     0.000 C 
BRANCH   7   8
ATOM      8  C   UNL     1       2.557 -37.394  14.960  1.00  0.00     0.000 C 
BRANCH   8   9
ATOM      9  C   UNL     1       3.737 -37.381  15.942  1.00  0.00     0.000 C 
BRANCH   9  10
ATOM     10  C   UNL     1       3.721 -36.167  16.890  1.00  0.00     0.006 C 
BRANCH  10  11
ATOM     11  C   UNL     1       5.056 -35.922  17.614  1.00  0.00     0.053 C 
BRANCH  11  12
ATOM     12  C   UNL     1       5.025 -34.699  18.480  1.00  0.00     0.041 C 
ATOM     13  O   UNL     1       5.965 -33.862  18.429  1.00  0.00    -0.550 OA
ATOM     14  O   UNL     1       3.979 -34.501  19.373  1.00  0.00    -0.550 OA
ENDBRANCH  11  12
ENDBRANCH  10  11
ENDBRANCH   9  10
ENDBRANCH   8   9
ENDBRANCH   7   8
ENDBRANCH   6   7
ENDBRANCH   5   6
ENDBRANCH   4   5
ENDBRANCH   3   4
ENDBRANCH   2   3
ENDBRANCH   1   2
BRANCH   1  15
ATOM     15  C   UNL     1       5.172 -37.775  20.557  1.00  0.00     0.000 C 
BRANCH  15  16
ATOM     16  C   UNL     1       5.814 -37.068  21.762  1.00  0.00     0.000 C 
BRANCH  16  17
ATOM     17  C   UNL     1       5.347 -35.609  21.905  1.00  0.00     0.000 C 
BRANCH  17  18
ATOM     18  C   UNL     1       5.252 -35.160  23.373  1.00  0.00    -0.000 C 
BRANCH  18  19
ATOM     19  C   UNL     1       5.870 -36.183  24.342  1.00  0.00    -0.000 C 
BRANCH  19  20
ATOM     20  C   UNL     1       4.837 -36.782  25.315  1.00  0.00    -0.000 C 
BRANCH  20  21
ATOM     21  C   UNL     1       4.964 -38.301  25.549  1.00  0.00    -0.000 C 
BRANCH  21  22
ATOM     22  C   UNL     1       5.680 -39.081  24.428  1.00  0.00    -0.000 C 
BRANCH  22  23
ATOM     23  C   UNL     1       4.920 -40.312  23.900  1.00  0.00    -0.000 C 
BRANCH  23  24
ATOM     24  C   UNL     1       5.570 -40.921  22.647  1.00  0.00    -0.000 C 
BRANCH  24  25
ATOM     25  C   UNL     1       6.124 -42.332  22.900  1.00  0.00    -0.003 C 
ATOM     26  C   UNL     1       6.120 -42.714  24.380  1.00  0.00     0.004 C 
ENDBRANCH  24  25
ENDBRANCH  23  24
ENDBRANCH  22  23
ENDBRANCH  21  22
ENDBRANCH  20  21
ENDBRANCH  19  20
ENDBRANCH  18  19
ENDBRANCH  17  18
ENDBRANCH  16  17
ENDBRANCH  15  16
ENDBRANCH   1  15
TORSDOF 22
ENDMDL
MODEL 6
REMARK VINA RESULT:     2.050      2.736      8.182
REMARK INTER + INTRA:           3.148
REMARK INTER:                   3.286
REMARK INTRA:                  -0.138
REMARK UNBOUND:                -1.538
REMARK SMILES CCCCCCCCCCCCCCCCCCCCCCCC(=O)[O-]
REMARK SMILES IDX 13 1 14 2 15 3 16 4 17 5 18 6 19 7 20 8 21 9 22 10 23 11
REMARK SMILES IDX 24 12 25 13 26 14 12 15 11 16 10 17 9 18 8 19 7 20 6 21 5 22
REMARK SMILES IDX 4 23 3 24 2 25 1 26
REMARK H PARENT
REMARK Flexibility Score: inf
ROOT
ATOM      1  C   UNL     1       4.678 -36.963  21.206  1.00  0.00     0.000 C 
ENDROOT
BRANCH   1   2
ATOM      2  C   UNL     1       4.513 -35.439  21.089  1.00  0.00     0.000 C 
BRANCH   2   3
ATOM      3  C   UNL     1       5.759 -34.758  20.498  1.00  0.00     0.000 C 
BRANCH   3   4
ATOM      4  C   UNL     1       5.988 -35.118  19.019  1.00  0.00     0.000 C 
BRANCH   4   5
ATOM      5  C   UNL     1       5.305 -34.171  18.010  1.00  0.00     0.000 C 
BRANCH   5   6
ATOM      6  C   UNL     1       4.073 -34.757  17.291  1.00  0.00     0.000 C 
BRANCH   6   7
ATOM      7  C   UNL     1       3.931 -36.287  17.388  1.00  0.00     0.000 C 
BRANCH   7   8
ATOM      8  C   UNL     1       3.534 -36.935  16.054  1.00  0.00     0.000 C 
BRANCH   8   9
ATOM      9  C   UNL     1       2.090 -36.572  15.677  1.00  0.00     0.000 C 
BRANCH   9  10
ATOM     10  C   UNL     1       1.083 -36.849  16.808  1.00  0.00     0.006 C 
BRANCH  10  11
ATOM     11  C   UNL     1       1.735 -37.077  18.183  1.00  0.00     0.053 C 
BRANCH  11  12
ATOM     12  C   UNL     1       0.909 -37.956  19.073  1.00  0.00     0.041 C 
ATOM     13  O   UNL     1       0.535 -39.090  18.673  1.00  0.00    -0.550 OA
ATOM     14  O   UNL     1       0.516 -37.509  20.329  1.00  0.00    -0.550 OA
ENDBRANCH  11  12
ENDBRANCH  10  11
ENDBRANCH   9  10
ENDBRANCH   8   9
ENDBRANCH   7   8
ENDBRANCH   6   7
ENDBRANCH   5   6
ENDBRANCH   4   5
ENDBRANCH   3   4
ENDBRANCH   2   3
ENDBRANCH   1   2
BRANCH   1  15
ATOM     15  C   UNL     1       4.577 -37.670  19.844  1.00  0.00     0.000 C 
BRANCH  15  16
ATOM     16  C   UNL     1       5.243 -39.056  19.844  1.00  0.00     0.000 C 
BRANCH  16  17
ATOM     17  C   UNL     1       6.119 -39.286  21.089  1.00  0.00     0.000 C 
BRANCH  17  18
ATOM     18  C   UNL     1       6.031 -40.729  21.613  1.00  0.00    -0.000 C 
BRANCH  18  19
ATOM     19  C   UNL     1       4.838 -40.940  22.562  1.00  0.00    -0.000 C 
BRANCH  19  20
ATOM     20  C   UNL     1       5.259 -41.499  23.934  1.00  0.00    -0.000 C 
BRANCH  20  21
ATOM     21  C   UNL     1       5.514 -40.437  25.022  1.00  0.00    -0.000 C 
BRANCH  21  22
ATOM     22  C   UNL     1       4.699 -39.136  24.874  1.00  0.00    -0.000 C 
BRANCH  22  23
ATOM     23  C   UNL     1       4.664 -38.240  26.125  1.00  0.00    -0.000 C 
BRANCH  23  24
ATOM     24  C   UNL     1       4.916 -36.757  25.805  1.00  0.00    -0.000 C 
BRANCH  24  25
ATOM     25  C   UNL     1       6.125 -36.555  24.877  1.00  0.00    -0.003 C 
ATOM     26  C   UNL     1       6.099 -35.207  24.156  1.00  0.00     0.004 C 
ENDBRANCH  24  25
ENDBRANCH  23  24
ENDBRANCH  22  23
ENDBRANCH  21  22
ENDBRANCH  20  21
ENDBRANCH  19  20
ENDBRANCH  18  19
ENDBRANCH  17  18
ENDBRANCH  16  17
ENDBRANCH  15  16
ENDBRANCH   1  15
TORSDOF 22
ENDMDL
