MODEL 1
REMARK VINA RESULT:    -6.284      0.000      0.000
REMARK INTER + INTRA:          -6.284
REMARK INTER:                  -6.284
REMARK INTRA:                   0.000
REMARK UNBOUND:                 0.000
REMARK SMILES C=C1CCC[C@]2(C)CC(=O)C(=C(C)C)C[C@@H]12
REMARK SMILES IDX 13 1 12 2 11 3 15 4 16 5 2 6 1 7 3 8 4 9 5 10 6 11 8 12 9 13
REMARK SMILES IDX 10 14 7 15 14 16
REMARK H PARENT
REMARK Flexibility Score: inf
ROOT
ATOM      1  C   UNL     1     -11.745  12.895 -26.405  1.00  0.00     0.039 C 
ATOM      2  C   UNL     1     -12.231  13.036 -27.830  1.00  0.00    -0.070 C 
ATOM      3  C   UNL     1     -13.457  12.575 -28.221  1.00  0.00    -0.006 C 
ATOM      4  C   UNL     1     -13.957  12.778 -29.645  1.00  0.00     0.047 C 
ATOM      5  C   UNL     1     -15.498  12.900 -29.728  1.00  0.00     0.025 C 
ATOM      6  C   UNL     1     -16.062  13.065 -31.139  1.00  0.00    -0.073 C 
ATOM      7  C   UNL     1     -15.307  13.096 -32.254  1.00  0.00     0.008 C 
ATOM      8  C   UNL     1     -17.558  13.247 -31.243  1.00  0.00     0.031 C 
ATOM      9  C   UNL     1     -18.284  12.118 -30.506  1.00  0.00     0.005 C 
ATOM     10  C   UNL     1     -17.768  11.957 -29.065  1.00  0.00     0.008 C 
ATOM     11  C   UNL     1     -16.227  11.733 -28.991  1.00  0.00    -0.018 C 
ATOM     12  C   UNL     1     -15.810  11.753 -27.499  1.00  0.00     0.088 C 
ATOM     13  C   UNL     1     -14.318  11.746 -27.329  1.00  0.00     0.159 C 
ATOM     14  O   UNL     1     -13.818  11.017 -26.430  1.00  0.00    -0.295 OA
ATOM     15  C   UNL     1     -15.872  10.350 -29.605  1.00  0.00     0.012 C 
ATOM     16  C   UNL     1     -11.313  13.746 -28.798  1.00  0.00     0.039 C 
ENDROOT
TORSDOF 0
ENDMDL
MODEL 2
REMARK VINA RESULT:    -6.225      2.567      3.731
REMARK INTER + INTRA:          -6.225
REMARK INTER:                  -6.225
REMARK INTRA:                   0.000
REMARK UNBOUND:                 0.000
REMARK SMILES C=C1CCC[C@]2(C)CC(=O)C(=C(C)C)C[C@@H]12
REMARK SMILES IDX 13 1 12 2 11 3 15 4 16 5 2 6 1 7 3 8 4 9 5 10 6 11 8 12 9 13
REMARK SMILES IDX 10 14 7 15 14 16
REMARK H PARENT
REMARK Flexibility Score: inf
ROOT
ATOM      1  C   UNL     1     -12.084  13.625 -32.213  1.00  0.00     0.039 C 
ATOM      2  C   UNL     1     -12.741  12.755 -31.165  1.00  0.00    -0.070 C 
ATOM      3  C   UNL     1     -14.057  12.902 -30.830  1.00  0.00    -0.006 C 
ATOM      4  C   UNL     1     -14.720  11.978 -29.816  1.00  0.00     0.047 C 
ATOM      5  C   UNL     1     -16.230  11.771 -30.091  1.00  0.00     0.025 C 
ATOM      6  C   UNL     1     -16.958  10.884 -29.081  1.00  0.00    -0.073 C 
ATOM      7  C   UNL     1     -16.368  10.316 -28.012  1.00  0.00     0.008 C 
ATOM      8  C   UNL     1     -18.419  10.617 -29.358  1.00  0.00     0.031 C 
ATOM      9  C   UNL     1     -19.173  11.935 -29.555  1.00  0.00     0.005 C 
ATOM     10  C   UNL     1     -18.487  12.831 -30.600  1.00  0.00     0.008 C 
ATOM     11  C   UNL     1     -16.993  13.122 -30.268  1.00  0.00    -0.018 C 
ATOM     12  C   UNL     1     -16.373  13.886 -31.465  1.00  0.00     0.088 C 
ATOM     13  C   UNL     1     -14.885  14.037 -31.331  1.00  0.00     0.159 C 
ATOM     14  O   UNL     1     -14.363  15.142 -31.638  1.00  0.00    -0.295 OA
ATOM     15  C   UNL     1     -16.904  14.007 -28.993  1.00  0.00     0.012 C 
ATOM     16  C   UNL     1     -11.883  11.685 -30.529  1.00  0.00     0.039 C 
ENDROOT
TORSDOF 0
ENDMDL
MODEL 3
REMARK VINA RESULT:    -6.065      2.147      5.314
REMARK INTER + INTRA:          -6.065
REMARK INTER:                  -6.065
REMARK INTRA:                   0.000
REMARK UNBOUND:                 0.000
REMARK SMILES C=C1CCC[C@]2(C)CC(=O)C(=C(C)C)C[C@@H]12
REMARK SMILES IDX 13 1 12 2 11 3 15 4 16 5 2 6 1 7 3 8 4 9 5 10 6 11 8 12 9 13
REMARK SMILES IDX 10 14 7 15 14 16
REMARK H PARENT
REMARK Flexibility Score: inf
ROOT
ATOM      1  C   UNL     1     -19.481  12.321 -29.860  1.00  0.00     0.039 C 
ATOM      2  C   UNL     1     -18.156  11.701 -29.475  1.00  0.00    -0.070 C 
ATOM      3  C   UNL     1     -16.965  12.269 -29.829  1.00  0.00    -0.006 C 
ATOM      4  C   UNL     1     -15.640  11.665 -29.383  1.00  0.00     0.047 C 
ATOM      5  C   UNL     1     -14.528  12.726 -29.202  1.00  0.00     0.025 C 
ATOM      6  C   UNL     1     -13.162  12.173 -28.793  1.00  0.00    -0.073 C 
ATOM      7  C   UNL     1     -12.904  10.865 -28.605  1.00  0.00     0.008 C 
ATOM      8  C   UNL     1     -12.074  13.192 -28.552  1.00  0.00     0.031 C 
ATOM      9  C   UNL     1     -11.935  14.119 -29.764  1.00  0.00     0.005 C 
ATOM     10  C   UNL     1     -13.288  14.727 -30.172  1.00  0.00     0.008 C 
ATOM     11  C   UNL     1     -14.380  13.651 -30.451  1.00  0.00    -0.018 C 
ATOM     12  C   UNL     1     -15.726  14.382 -30.687  1.00  0.00     0.088 C 
ATOM     13  C   UNL     1     -16.882  13.427 -30.766  1.00  0.00     0.159 C 
ATOM     14  O   UNL     1     -17.764  13.621 -31.646  1.00  0.00    -0.295 OA
ATOM     15  C   UNL     1     -14.004  12.846 -31.726  1.00  0.00     0.012 C 
ATOM     16  C   UNL     1     -18.208  10.439 -28.645  1.00  0.00     0.039 C 
ENDROOT
TORSDOF 0
ENDMDL
MODEL 4
REMARK VINA RESULT:    -5.625      2.029      5.502
REMARK INTER + INTRA:          -5.625
REMARK INTER:                  -5.625
REMARK INTRA:                   0.000
REMARK UNBOUND:                 0.000
REMARK SMILES C=C1CCC[C@]2(C)CC(=O)C(=C(C)C)C[C@@H]12
REMARK SMILES IDX 13 1 12 2 11 3 15 4 16 5 2 6 1 7 3 8 4 9 5 10 6 11 8 12 9 13
REMARK SMILES IDX 10 14 7 15 14 16
REMARK H PARENT
REMARK Flexibility Score: inf
ROOT
ATOM      1  C   UNL     1     -17.190  13.987 -31.987  1.00  0.00     0.039 C 
ATOM      2  C   UNL     1     -16.729  13.021 -30.919  1.00  0.00    -0.070 C 
ATOM      3  C   UNL     1     -15.448  13.034 -30.441  1.00  0.00    -0.006 C 
ATOM      4  C   UNL     1     -15.015  12.095 -29.324  1.00  0.00     0.047 C 
ATOM      5  C   UNL     1     -13.895  12.694 -28.437  1.00  0.00     0.025 C 
ATOM      6  C   UNL     1     -13.391  11.778 -27.322  1.00  0.00    -0.073 C 
ATOM      7  C   UNL     1     -13.853  10.533 -27.100  1.00  0.00     0.008 C 
ATOM      8  C   UNL     1     -12.340  12.360 -26.405  1.00  0.00     0.031 C 
ATOM      9  C   UNL     1     -11.165  12.906 -27.221  1.00  0.00     0.005 C 
ATOM     10  C   UNL     1     -11.639  13.867 -28.325  1.00  0.00     0.008 C 
ATOM     11  C   UNL     1     -12.693  13.228 -29.279  1.00  0.00    -0.018 C 
ATOM     12  C   UNL     1     -13.211  14.333 -30.233  1.00  0.00     0.088 C 
ATOM     13  C   UNL     1     -14.376  13.867 -31.059  1.00  0.00     0.159 C 
ATOM     14  O   UNL     1     -14.415  14.185 -32.278  1.00  0.00    -0.295 OA
ATOM     15  C   UNL     1     -12.025  12.100 -30.113  1.00  0.00     0.012 C 
ATOM     16  C   UNL     1     -17.760  12.060 -30.374  1.00  0.00     0.039 C 
ENDROOT
TORSDOF 0
ENDMDL
MODEL 5
REMARK VINA RESULT:    -5.514      1.829      4.596
REMARK INTER + INTRA:          -5.514
REMARK INTER:                  -5.514
REMARK INTRA:                   0.000
REMARK UNBOUND:                 0.000
REMARK SMILES C=C1CCC[C@]2(C)CC(=O)C(=C(C)C)C[C@@H]12
REMARK SMILES IDX 13 1 12 2 11 3 15 4 16 5 2 6 1 7 3 8 4 9 5 10 6 11 8 12 9 13
REMARK SMILES IDX 10 14 7 15 14 16
REMARK H PARENT
REMARK Flexibility Score: inf
ROOT
ATOM      1  C   UNL     1     -18.479  10.406 -29.130  1.00  0.00     0.039 C 
ATOM      2  C   UNL     1     -17.856  11.743 -29.461  1.00  0.00    -0.070 C 
ATOM      3  C   UNL     1     -16.501  11.904 -29.549  1.00  0.00    -0.006 C 
ATOM      4  C   UNL     1     -15.891  13.243 -29.943  1.00  0.00     0.047 C 
ATOM      5  C   UNL     1     -14.545  13.091 -30.692  1.00  0.00     0.025 C 
ATOM      6  C   UNL     1     -13.864  14.405 -31.077  1.00  0.00    -0.073 C 
ATOM      7  C   UNL     1     -14.362  15.624 -30.795  1.00  0.00     0.008 C 
ATOM      8  C   UNL     1     -12.579  14.286 -31.862  1.00  0.00     0.031 C 
ATOM      9  C   UNL     1     -11.594  13.366 -31.134  1.00  0.00     0.005 C 
ATOM     10  C   UNL     1     -12.239  12.017 -30.772  1.00  0.00     0.008 C 
ATOM     11  C   UNL     1     -13.541  12.169 -29.930  1.00  0.00    -0.018 C 
ATOM     12  C   UNL     1     -14.180  10.767 -29.774  1.00  0.00     0.088 C 
ATOM     13  C   UNL     1     -15.544  10.832 -29.150  1.00  0.00     0.159 C 
ATOM     14  O   UNL     1     -15.849   9.975 -28.278  1.00  0.00    -0.295 OA
ATOM     15  C   UNL     1     -13.190  12.734 -28.525  1.00  0.00     0.012 C 
ATOM     16  C   UNL     1     -18.802  12.891 -29.728  1.00  0.00     0.039 C 
ENDROOT
TORSDOF 0
ENDMDL
MODEL 6
REMARK VINA RESULT:    -5.478      2.011      2.763
REMARK INTER + INTRA:          -5.478
REMARK INTER:                  -5.478
REMARK INTRA:                   0.000
REMARK UNBOUND:                 0.000
REMARK SMILES C=C1CCC[C@]2(C)CC(=O)C(=C(C)C)C[C@@H]12
REMARK SMILES IDX 13 1 12 2 11 3 15 4 16 5 2 6 1 7 3 8 4 9 5 10 6 11 8 12 9 13
REMARK SMILES IDX 10 14 7 15 14 16
REMARK H PARENT
REMARK Flexibility Score: inf
ROOT
ATOM      1  C   UNL     1     -10.092  13.791 -31.003  1.00  0.00     0.039 C 
ATOM      2  C   UNL     1     -11.514  13.902 -31.507  1.00  0.00    -0.070 C 
ATOM      3  C   UNL     1     -12.561  13.334 -30.838  1.00  0.00    -0.006 C 
ATOM      4  C   UNL     1     -13.994  13.506 -31.327  1.00  0.00     0.047 C 
ATOM      5  C   UNL     1     -15.027  13.487 -30.173  1.00  0.00     0.025 C 
ATOM      6  C   UNL     1     -16.487  13.614 -30.607  1.00  0.00    -0.073 C 
ATOM      7  C   UNL     1     -16.886  13.726 -31.888  1.00  0.00     0.008 C 
ATOM      8  C   UNL     1     -17.512  13.659 -29.498  1.00  0.00     0.031 C 
ATOM      9  C   UNL     1     -17.334  12.461 -28.561  1.00  0.00     0.005 C 
ATOM     10  C   UNL     1     -15.882  12.333 -28.071  1.00  0.00     0.008 C 
ATOM     11  C   UNL     1     -14.850  12.250 -29.237  1.00  0.00    -0.018 C 
ATOM     12  C   UNL     1     -13.428  12.293 -28.625  1.00  0.00     0.088 C 
ATOM     13  C   UNL     1     -12.363  12.421 -29.676  1.00  0.00     0.159 C 
ATOM     14  O   UNL     1     -11.314  11.731 -29.557  1.00  0.00    -0.295 OA
ATOM     15  C   UNL     1     -15.039  10.912 -30.005  1.00  0.00     0.012 C 
ATOM     16  C   UNL     1     -11.731  14.703 -32.771  1.00  0.00     0.039 C 
ENDROOT
TORSDOF 0
ENDMDL
MODEL 7
REMARK VINA RESULT:    -5.449      2.137      5.063
REMARK INTER + INTRA:          -5.449
REMARK INTER:                  -5.449
REMARK INTRA:                   0.000
REMARK UNBOUND:                 0.000
REMARK SMILES C=C1CCC[C@]2(C)CC(=O)C(=C(C)C)C[C@@H]12
REMARK SMILES IDX 13 1 12 2 11 3 15 4 16 5 2 6 1 7 3 8 4 9 5 10 6 11 8 12 9 13
REMARK SMILES IDX 10 14 7 15 14 16
REMARK H PARENT
REMARK Flexibility Score: inf
ROOT
ATOM      1  C   UNL     1     -17.612  12.558 -29.952  1.00  0.00     0.039 C 
ATOM      2  C   UNL     1     -16.525  13.204 -30.781  1.00  0.00    -0.070 C 
ATOM      3  C   UNL     1     -15.207  13.118 -30.431  1.00  0.00    -0.006 C 
ATOM      4  C   UNL     1     -14.119  13.723 -31.309  1.00  0.00     0.047 C 
ATOM      5  C   UNL     1     -12.778  12.952 -31.218  1.00  0.00     0.025 C 
ATOM      6  C   UNL     1     -11.635  13.538 -32.048  1.00  0.00    -0.073 C 
ATOM      7  C   UNL     1     -11.743  14.645 -32.806  1.00  0.00     0.008 C 
ATOM      8  C   UNL     1     -10.333  12.772 -32.025  1.00  0.00     0.031 C 
ATOM      9  C   UNL     1      -9.880  12.536 -30.580  1.00  0.00     0.005 C 
ATOM     10  C   UNL     1     -10.997  11.905 -29.731  1.00  0.00     0.008 C 
ATOM     11  C   UNL     1     -12.316  12.736 -29.743  1.00  0.00    -0.018 C 
ATOM     12  C   UNL     1     -13.404  11.923 -28.998  1.00  0.00     0.088 C 
ATOM     13  C   UNL     1     -14.764  12.546 -29.127  1.00  0.00     0.159 C 
ATOM     14  O   UNL     1     -15.507  12.585 -28.110  1.00  0.00    -0.295 OA
ATOM     15  C   UNL     1     -12.087  14.085 -29.005  1.00  0.00     0.012 C 
ATOM     16  C   UNL     1     -16.959  13.921 -32.039  1.00  0.00     0.039 C 
ENDROOT
TORSDOF 0
ENDMDL
MODEL 8
REMARK VINA RESULT:    -5.431      2.049      3.312
REMARK INTER + INTRA:          -5.431
REMARK INTER:                  -5.431
REMARK INTRA:                   0.000
REMARK UNBOUND:                 0.000
REMARK SMILES C=C1CCC[C@]2(C)CC(=O)C(=C(C)C)C[C@@H]12
REMARK SMILES IDX 13 1 12 2 11 3 15 4 16 5 2 6 1 7 3 8 4 9 5 10 6 11 8 12 9 13
REMARK SMILES IDX 10 14 7 15 14 16
REMARK H PARENT
REMARK Flexibility Score: inf
ROOT
ATOM      1  C   UNL     1     -10.484  11.119 -28.683  1.00  0.00     0.039 C 
ATOM      2  C   UNL     1     -11.885  11.524 -28.282  1.00  0.00    -0.070 C 
ATOM      3  C   UNL     1     -12.715  12.190 -29.139  1.00  0.00    -0.006 C 
ATOM      4  C   UNL     1     -14.143  12.538 -28.741  1.00  0.00     0.047 C 
ATOM      5  C   UNL     1     -15.110  12.576 -29.950  1.00  0.00     0.025 C 
ATOM      6  C   UNL     1     -16.552  12.961 -29.616  1.00  0.00    -0.073 C 
ATOM      7  C   UNL     1     -16.986  13.261 -28.378  1.00  0.00     0.008 C 
ATOM      8  C   UNL     1     -17.530  12.947 -30.768  1.00  0.00     0.031 C 
ATOM      9  C   UNL     1     -17.002  13.801 -31.924  1.00  0.00     0.005 C 
ATOM     10  C   UNL     1     -15.567  13.407 -32.312  1.00  0.00     0.008 C 
ATOM     11  C   UNL     1     -14.572  13.467 -31.114  1.00  0.00    -0.018 C 
ATOM     12  C   UNL     1     -13.213  12.893 -31.587  1.00  0.00     0.088 C 
ATOM     13  C   UNL     1     -12.245  12.721 -30.451  1.00  0.00     0.159 C 
ATOM     14  O   UNL     1     -11.041  13.047 -30.632  1.00  0.00    -0.295 OA
ATOM     15  C   UNL     1     -14.380  14.944 -30.670  1.00  0.00     0.012 C 
ATOM     16  C   UNL     1     -12.341  11.127 -26.896  1.00  0.00     0.039 C 
ENDROOT
TORSDOF 0
ENDMDL
MODEL 9
REMARK VINA RESULT:    -5.305      1.224      1.697
REMARK INTER + INTRA:          -5.305
REMARK INTER:                  -5.305
REMARK INTRA:                   0.000
REMARK UNBOUND:                 0.000
REMARK SMILES C=C1CCC[C@]2(C)CC(=O)C(=C(C)C)C[C@@H]12
REMARK SMILES IDX 13 1 12 2 11 3 15 4 16 5 2 6 1 7 3 8 4 9 5 10 6 11 8 12 9 13
REMARK SMILES IDX 10 14 7 15 14 16
REMARK H PARENT
REMARK Flexibility Score: inf
ROOT
ATOM      1  C   UNL     1     -11.450  13.535 -28.184  1.00  0.00     0.039 C 
ATOM      2  C   UNL     1     -12.658  13.624 -29.089  1.00  0.00    -0.070 C 
ATOM      3  C   UNL     1     -13.693  12.736 -28.998  1.00  0.00    -0.006 C 
ATOM      4  C   UNL     1     -14.930  12.875 -29.876  1.00  0.00     0.047 C 
ATOM      5  C   UNL     1     -16.212  12.339 -29.193  1.00  0.00     0.025 C 
ATOM      6  C   UNL     1     -17.481  12.415 -30.043  1.00  0.00    -0.073 C 
ATOM      7  C   UNL     1     -17.518  12.896 -31.300  1.00  0.00     0.008 C 
ATOM      8  C   UNL     1     -18.757  11.954 -29.380  1.00  0.00     0.031 C 
ATOM      9  C   UNL     1     -18.581  10.545 -28.807  1.00  0.00     0.005 C 
ATOM     10  C   UNL     1     -17.335  10.449 -27.909  1.00  0.00     0.008 C 
ATOM     11  C   UNL     1     -16.028  10.894 -28.631  1.00  0.00    -0.018 C 
ATOM     12  C   UNL     1     -14.884  10.912 -27.587  1.00  0.00     0.088 C 
ATOM     13  C   UNL     1     -13.625  11.520 -28.137  1.00  0.00     0.159 C 
ATOM     14  O   UNL     1     -12.523  10.971 -27.864  1.00  0.00    -0.295 OA
ATOM     15  C   UNL     1     -15.681   9.877 -29.755  1.00  0.00     0.012 C 
ATOM     16  C   UNL     1     -12.689  14.766 -30.078  1.00  0.00     0.039 C 
ENDROOT
TORSDOF 0
ENDMDL
