MODEL 1
REMARK VINA RESULT:    31.674      0.000      0.000
REMARK INTER + INTRA:          44.482
REMARK INTER:                  44.636
REMARK INTRA:                  -0.154
REMARK UNBOUND:                -0.154
REMARK SMILES O=C(C=Cc1ccc(O)cc1)CC(=O)C=Cc1ccc(O)cc1
REMARK SMILES IDX 12 1 2 2 1 3 3 4 4 5 5 6 6 7 7 8 8 9 11 10 10 11 9 12 13 14
REMARK SMILES IDX 14 15 15 16 16 17 17 18 18 19 23 20 19 21 22 22 20 23 21 24
REMARK H PARENT 9 13 21 25
REMARK Flexibility Score: inf
ROOT
ATOM      1  C   UNL     1       0.836  -2.087  -0.159  1.00  0.00     0.160 C 
ENDROOT
BRANCH   1   2
ATOM      2  C   UNL     1      -0.143  -1.695  -1.242  1.00  0.00     0.163 C 
ATOM      3  O   UNL     1      -0.329  -2.455  -2.230  1.00  0.00    -0.294 OA
BRANCH   2   4
ATOM      4  C   UNL     1      -0.912  -0.432  -1.183  1.00  0.00     0.048 C 
ATOM      5  C   UNL     1      -0.469   0.673  -0.564  1.00  0.00     0.012 C 
BRANCH   5   6
ATOM      6  C   UNL     1      -1.242   1.938  -0.492  1.00  0.00    -0.025 A 
ATOM      7  C   UNL     1      -1.267   2.872  -1.548  1.00  0.00     0.012 A 
ATOM      8  C   UNL     1      -2.001   4.056  -1.428  1.00  0.00     0.047 A 
ATOM      9  C   UNL     1      -2.708   4.331  -0.250  1.00  0.00     0.115 A 
ATOM     10  C   UNL     1      -1.941   2.233   0.691  1.00  0.00     0.012 A 
ATOM     11  C   UNL     1      -2.673   3.418   0.806  1.00  0.00     0.047 A 
BRANCH   9  12
ATOM     12  O   UNL     1      -3.442   5.508  -0.121  1.00  0.00    -0.508 OA
ATOM     13  H   UNL     1      -3.134   6.375  -0.547  1.00  0.00     0.293 HD
ENDBRANCH   9  12
ENDBRANCH   5   6
ENDBRANCH   2   4
ENDBRANCH   1   2
BRANCH   1  14
ATOM     14  C   UNL     1       0.207  -2.097   1.206  1.00  0.00     0.163 C 
ATOM     15  O   UNL     1      -0.417  -3.125   1.586  1.00  0.00    -0.294 OA
BRANCH  14  16
ATOM     16  C   UNL     1       0.348  -0.918   2.091  1.00  0.00     0.048 C 
ATOM     17  C   UNL     1       1.473  -0.210   2.277  1.00  0.00     0.012 C 
BRANCH  17  18
ATOM     18  C   UNL     1       2.813  -0.586   1.779  1.00  0.00    -0.025 A 
ATOM     19  C   UNL     1       3.213  -0.284   0.465  1.00  0.00     0.012 A 
ATOM     20  C   UNL     1       3.662  -1.345   2.598  1.00  0.00     0.012 A 
ATOM     21  C   UNL     1       4.466  -0.693  -0.002  1.00  0.00     0.047 A 
ATOM     22  C   UNL     1       4.914  -1.753   2.130  1.00  0.00     0.047 A 
ATOM     23  C   UNL     1       5.323  -1.426   0.832  1.00  0.00     0.115 A 
BRANCH  23  24
ATOM     24  O   UNL     1       6.574  -1.838   0.379  1.00  0.00    -0.508 OA
ATOM     25  H   UNL     1       7.294  -1.170   0.133  1.00  0.00     0.293 HD
ENDBRANCH  23  24
ENDBRANCH  17  18
ENDBRANCH  14  16
ENDBRANCH   1  14
TORSDOF 8
ENDMDL
MODEL 2
REMARK VINA RESULT:    31.975      2.651      6.293
REMARK INTER + INTRA:          44.906
REMARK INTER:                  43.400
REMARK INTRA:                   1.506
REMARK UNBOUND:                -0.154
REMARK SMILES O=C(C=Cc1ccc(O)cc1)CC(=O)C=Cc1ccc(O)cc1
REMARK SMILES IDX 12 1 2 2 1 3 3 4 4 5 5 6 6 7 7 8 8 9 11 10 10 11 9 12 13 14
REMARK SMILES IDX 14 15 15 16 16 17 17 18 18 19 23 20 19 21 22 22 20 23 21 24
REMARK H PARENT 9 13 21 25
REMARK Flexibility Score: inf
ROOT
ATOM      1  C   UNL     1      -0.567  -0.764  -2.645  1.00  0.00     0.160 C 
ENDROOT
BRANCH   1   2
ATOM      2  C   UNL     1       0.134  -0.085  -1.491  1.00  0.00     0.163 C 
ATOM      3  O   UNL     1      -0.333   0.983  -1.010  1.00  0.00    -0.294 OA
BRANCH   2   4
ATOM      4  C   UNL     1       1.366  -0.638  -0.888  1.00  0.00     0.048 C 
ATOM      5  C   UNL     1       2.125   0.035  -0.010  1.00  0.00     0.012 C 
BRANCH   5   6
ATOM      6  C   UNL     1       3.367  -0.511   0.589  1.00  0.00    -0.025 A 
ATOM      7  C   UNL     1       3.510  -0.725   1.975  1.00  0.00     0.012 A 
ATOM      8  C   UNL     1       4.706  -1.231   2.494  1.00  0.00     0.047 A 
ATOM      9  C   UNL     1       5.779  -1.517   1.640  1.00  0.00     0.115 A 
ATOM     10  C   UNL     1       4.457  -0.786  -0.255  1.00  0.00     0.012 A 
ATOM     11  C   UNL     1       5.651  -1.291   0.268  1.00  0.00     0.047 A 
BRANCH   9  12
ATOM     12  O   UNL     1       6.974  -2.022   2.147  1.00  0.00    -0.508 OA
ATOM     13  H   UNL     1       7.702  -1.410   2.497  1.00  0.00     0.293 HD
ENDBRANCH   9  12
ENDBRANCH   5   6
ENDBRANCH   2   4
ENDBRANCH   1   2
BRANCH   1  14
ATOM     14  C   UNL     1      -0.393  -2.258  -2.623  1.00  0.00     0.163 C 
ATOM     15  O   UNL     1       0.649  -2.761  -3.125  1.00  0.00    -0.294 OA
BRANCH  14  16
ATOM     16  C   UNL     1      -1.428  -3.111  -1.995  1.00  0.00     0.048 C 
ATOM     17  C   UNL     1      -1.745  -3.124  -0.691  1.00  0.00     0.012 C 
BRANCH  17  18
ATOM     18  C   UNL     1      -0.998  -2.428   0.378  1.00  0.00    -0.025 A 
ATOM     19  C   UNL     1       0.039  -3.069   1.078  1.00  0.00     0.012 A 
ATOM     20  C   UNL     1      -1.397  -1.141   0.769  1.00  0.00     0.012 A 
ATOM     21  C   UNL     1       0.700  -2.409   2.119  1.00  0.00     0.047 A 
ATOM     22  C   UNL     1      -0.736  -0.484   1.810  1.00  0.00     0.047 A 
ATOM     23  C   UNL     1       0.315  -1.112   2.485  1.00  0.00     0.115 A 
BRANCH  23  24
ATOM     24  O   UNL     1       0.967  -0.444   3.520  1.00  0.00    -0.508 OA
ATOM     25  H   UNL     1       1.581  -0.932   4.161  1.00  0.00     0.293 HD
ENDBRANCH  23  24
ENDBRANCH  17  18
ENDBRANCH  14  16
ENDBRANCH   1  14
TORSDOF 8
ENDMDL
MODEL 3
REMARK VINA RESULT:    32.762      1.271      2.540
REMARK INTER + INTRA:          46.014
REMARK INTER:                  46.004
REMARK INTRA:                   0.010
REMARK UNBOUND:                -0.154
REMARK SMILES O=C(C=Cc1ccc(O)cc1)CC(=O)C=Cc1ccc(O)cc1
REMARK SMILES IDX 12 1 2 2 1 3 3 4 4 5 5 6 6 7 7 8 8 9 11 10 10 11 9 12 13 14
REMARK SMILES IDX 14 15 15 16 16 17 17 18 18 19 23 20 19 21 22 22 20 23 21 24
REMARK H PARENT 9 13 21 25
REMARK Flexibility Score: inf
ROOT
ATOM      1  C   UNL     1      -0.289  -2.059   1.057  1.00  0.00     0.160 C 
ENDROOT
BRANCH   1   2
ATOM      2  C   UNL     1      -0.408  -0.739   1.783  1.00  0.00     0.163 C 
ATOM      3  O   UNL     1       0.031  -0.623   2.959  1.00  0.00    -0.294 OA
BRANCH   2   4
ATOM      4  C   UNL     1      -1.027   0.448   1.153  1.00  0.00     0.048 C 
ATOM      5  C   UNL     1      -1.486   1.499   1.850  1.00  0.00     0.012 C 
BRANCH   5   6
ATOM      6  C   UNL     1      -2.118   2.686   1.224  1.00  0.00    -0.025 A 
ATOM      7  C   UNL     1      -2.866   3.625   1.963  1.00  0.00     0.012 A 
ATOM      8  C   UNL     1      -3.453   4.723   1.324  1.00  0.00     0.047 A 
ATOM      9  C   UNL     1      -3.311   4.892  -0.059  1.00  0.00     0.115 A 
ATOM     10  C   UNL     1      -1.997   2.858  -0.166  1.00  0.00     0.012 A 
ATOM     11  C   UNL     1      -2.585   3.957  -0.800  1.00  0.00     0.047 A 
BRANCH   9  12
ATOM     12  O   UNL     1      -3.891   5.982  -0.704  1.00  0.00    -0.508 OA
ATOM     13  H   UNL     1      -4.695   5.873  -1.311  1.00  0.00     0.293 HD
ENDBRANCH   9  12
ENDBRANCH   5   6
ENDBRANCH   2   4
ENDBRANCH   1   2
BRANCH   1  14
ATOM     14  C   UNL     1       0.456  -1.933  -0.243  1.00  0.00     0.163 C 
ATOM     15  O   UNL     1       0.689  -2.972  -0.919  1.00  0.00    -0.294 OA
BRANCH  14  16
ATOM     16  C   UNL     1       0.883  -0.599  -0.722  1.00  0.00     0.048 C 
ATOM     17  C   UNL     1       2.087  -0.043  -0.517  1.00  0.00     0.012 C 
BRANCH  17  18
ATOM     18  C   UNL     1       3.136  -0.579   0.375  1.00  0.00    -0.025 A 
ATOM     19  C   UNL     1       2.943  -0.653   1.766  1.00  0.00     0.012 A 
ATOM     20  C   UNL     1       4.384  -0.927  -0.164  1.00  0.00     0.012 A 
ATOM     21  C   UNL     1       3.968  -1.118   2.596  1.00  0.00     0.047 A 
ATOM     22  C   UNL     1       5.407  -1.391   0.667  1.00  0.00     0.047 A 
ATOM     23  C   UNL     1       5.203  -1.492   2.047  1.00  0.00     0.115 A 
BRANCH  23  24
ATOM     24  O   UNL     1       6.230  -1.958   2.864  1.00  0.00    -0.508 OA
ATOM     25  H   UNL     1       7.196  -1.701   2.699  1.00  0.00     0.293 HD
ENDBRANCH  23  24
ENDBRANCH  17  18
ENDBRANCH  14  16
ENDBRANCH   1  14
TORSDOF 8
ENDMDL
