MODEL 1
REMARK VINA RESULT:    -4.198      0.000      0.000
REMARK INTER + INTRA:          -5.082
REMARK INTER:                  -6.407
REMARK INTRA:                   1.325
REMARK UNBOUND:                 1.325
REMARK SMILES CC1=CCC[C@@H](C)C(=O)C[C@H](C(C)C)C(=O)C1
REMARK SMILES IDX 8 1 9 2 6 3 7 4 5 5 4 6 3 7 2 8 1 9 10 11 11 12 15 13 16 14
REMARK SMILES IDX 17 15 12 17 13 18 14 19
REMARK H PARENT
REMARK Flexibility Score: 70.00
ROOT
ATOM      1  C   UNL     1      -3.498  28.172  30.527  1.00  0.00     0.136 C 
ATOM      2  O   UNL     1      -3.441  29.122  31.296  1.00  0.00    -0.299 OA
ENDROOT
BRANCH   1   3
ATOM      3  C   UNL     1      -4.831  27.502  30.262  1.00  0.00     0.053 C 
ATOM      4  C   UNL     1      -4.601  26.042  29.860  1.00  0.00     0.016 C 
BRANCH   3   5
ATOM      5  C   UNL     1      -5.637  28.237  29.170  1.00  0.00     0.015 C 
BRANCH   5   6
ATOM      6  C   UNL     1      -6.101  29.651  29.562  1.00  0.00     0.028 C 
BRANCH   6   7
ATOM      7  C   UNL     1      -5.289  30.756  28.925  1.00  0.00    -0.028 C 
ATOM      8  C   UNL     1      -4.453  30.672  27.858  1.00  0.00    -0.070 CG0
ATOM      9  C   UNL     1      -3.843  31.967  27.373  1.00  0.00     0.039 C 
ATOM     10  G   UNL     1      -4.013  29.381  27.174  1.00  0.00     0.000 G0
ENDBRANCH   6   7
ENDBRANCH   5   6
ENDBRANCH   3   5
ENDBRANCH   1   3
BRANCH   1  11
ATOM     11  C   UNL     1      -2.240  27.717  29.833  1.00  0.00     0.087 C 
BRANCH  11  12
ATOM     12  C   UNL     1      -2.423  27.577  28.297  1.00  0.00     0.066 C 
BRANCH  12  13
ATOM     13  C   UNL     1      -2.653  28.895  27.555  1.00  0.00     0.140 C 
ATOM     14  O   UNL     1      -1.688  29.613  27.334  1.00  0.00    -0.299 OA
BRANCH  13  15
ATOM     15  C   UNL     1      -4.024  29.402  27.170  1.00  0.00     0.106 CG0
ATOM     16  G   UNL     1      -4.459  30.686  27.869  1.00  0.00     0.000 G0
ENDBRANCH  13  15
ENDBRANCH  12  13
BRANCH  12  17
ATOM     17  C   UNL     1      -1.275  26.731  27.663  1.00  0.00    -0.006 C 
ATOM     18  C   UNL     1      -1.728  25.345  27.175  1.00  0.00     0.008 C 
ATOM     19  C   UNL     1      -0.078  26.587  28.617  1.00  0.00     0.008 C 
ENDBRANCH  12  17
ENDBRANCH  11  12
ENDBRANCH   1  11
TORSDOF 1
ENDMDL
MODEL 2
REMARK VINA RESULT:    -3.339      1.806      3.325
REMARK INTER + INTRA:          -3.771
REMARK INTER:                  -4.971
REMARK INTRA:                   1.200
REMARK UNBOUND:                 1.325
REMARK SMILES CC1=CCC[C@@H](C)C(=O)C[C@H](C(C)C)C(=O)C1
REMARK SMILES IDX 8 1 9 2 6 3 7 4 5 5 4 6 3 7 2 8 1 9 10 11 11 12 15 13 16 14
REMARK SMILES IDX 17 15 12 17 13 18 14 19
REMARK H PARENT
REMARK Flexibility Score: 70.00
ROOT
ATOM      1  C   UNL     1      -3.369  29.397  27.529  1.00  0.00     0.136 C 
ATOM      2  O   UNL     1      -2.427  30.107  27.854  1.00  0.00    -0.299 OA
ENDROOT
BRANCH   1   3
ATOM      3  C   UNL     1      -4.697  30.031  27.168  1.00  0.00     0.053 C 
ATOM      4  C   UNL     1      -4.470  31.481  26.728  1.00  0.00     0.016 C 
BRANCH   3   5
ATOM      5  C   UNL     1      -5.697  29.978  28.342  1.00  0.00     0.015 C 
BRANCH   5   6
ATOM      6  C   UNL     1      -5.409  28.875  29.376  1.00  0.00     0.028 C 
BRANCH   6   7
ATOM      7  C   UNL     1      -4.498  29.317  30.499  1.00  0.00    -0.028 C 
ATOM      8  C   UNL     1      -3.347  28.732  30.921  1.00  0.00    -0.070 CG0
ATOM      9  C   UNL     1      -2.583  29.449  32.010  1.00  0.00     0.039 C 
ATOM     10  G   UNL     1      -2.814  27.380  30.455  1.00  0.00     0.000 G0
ENDBRANCH   6   7
ENDBRANCH   5   6
ENDBRANCH   3   5
ENDBRANCH   1   3
BRANCH   1  11
ATOM     11  C   UNL     1      -3.167  27.905  27.462  1.00  0.00     0.087 C 
BRANCH  11  12
ATOM     12  C   UNL     1      -1.773  27.467  27.988  1.00  0.00     0.066 C 
BRANCH  12  13
ATOM     13  C   UNL     1      -1.635  27.460  29.512  1.00  0.00     0.140 C 
ATOM     14  O   UNL     1      -0.511  27.433  29.994  1.00  0.00    -0.299 OA
BRANCH  13  15
ATOM     15  C   UNL     1      -2.817  27.387  30.451  1.00  0.00     0.106 CG0
ATOM     16  G   UNL     1      -3.354  28.736  30.922  1.00  0.00     0.000 G0
ENDBRANCH  13  15
ENDBRANCH  12  13
BRANCH  12  17
ATOM     17  C   UNL     1      -1.321  26.119  27.345  1.00  0.00    -0.006 C 
ATOM     18  C   UNL     1      -2.347  24.985  27.507  1.00  0.00     0.008 C 
ATOM     19  C   UNL     1       0.049  25.665  27.872  1.00  0.00     0.008 C 
ENDBRANCH  12  17
ENDBRANCH  11  12
ENDBRANCH   1  11
TORSDOF 1
ENDMDL
MODEL 3
REMARK VINA RESULT:    -3.124      1.774      4.425
REMARK INTER + INTRA:          -3.442
REMARK INTER:                  -4.008
REMARK INTRA:                   0.566
REMARK UNBOUND:                 1.325
REMARK SMILES CC1=CCC[C@@H](C)C(=O)C[C@H](C(C)C)C(=O)C1
REMARK SMILES IDX 8 1 9 2 6 3 7 4 5 5 4 6 3 7 2 8 1 9 10 11 11 12 15 13 16 14
REMARK SMILES IDX 17 15 12 17 13 18 14 19
REMARK H PARENT
REMARK Flexibility Score: 70.00
ROOT
ATOM      1  C   UNL     1      -2.383  27.985  27.346  1.00  0.00     0.136 C 
ATOM      2  O   UNL     1      -2.322  27.669  26.165  1.00  0.00    -0.299 OA
ENDROOT
BRANCH   1   3
ATOM      3  C   UNL     1      -2.055  26.960  28.413  1.00  0.00     0.053 C 
ATOM      4  C   UNL     1      -0.939  26.037  27.913  1.00  0.00     0.016 C 
BRANCH   3   5
ATOM      5  C   UNL     1      -3.295  26.133  28.814  1.00  0.00     0.015 C 
BRANCH   5   6
ATOM      6  C   UNL     1      -4.026  26.646  30.067  1.00  0.00     0.028 C 
BRANCH   6   7
ATOM      7  C   UNL     1      -3.241  27.670  30.854  1.00  0.00    -0.028 C 
ATOM      8  C   UNL     1      -3.522  28.987  31.026  1.00  0.00    -0.070 CG0
ATOM      9  C   UNL     1      -2.608  29.759  31.950  1.00  0.00     0.039 C 
ATOM     10  G   UNL     1      -4.617  29.765  30.302  1.00  0.00     0.000 G0
ENDBRANCH   6   7
ENDBRANCH   5   6
ENDBRANCH   3   5
ENDBRANCH   1   3
BRANCH   1  11
ATOM     11  C   UNL     1      -2.749  29.402  27.704  1.00  0.00     0.087 C 
BRANCH  11  12
ATOM     12  C   UNL     1      -4.281  29.653  27.653  1.00  0.00     0.066 C 
BRANCH  12  13
ATOM     13  C   UNL     1      -5.033  29.288  28.935  1.00  0.00     0.140 C 
ATOM     14  O   UNL     1      -6.057  28.625  28.839  1.00  0.00    -0.299 OA
BRANCH  13  15
ATOM     15  C   UNL     1      -4.631  29.786  30.304  1.00  0.00     0.106 CG0
ATOM     16  G   UNL     1      -3.546  28.968  30.997  1.00  0.00     0.000 G0
ENDBRANCH  13  15
ENDBRANCH  12  13
BRANCH  12  17
ATOM     17  C   UNL     1      -4.604  31.101  27.168  1.00  0.00    -0.006 C 
ATOM     18  C   UNL     1      -3.504  32.122  27.503  1.00  0.00     0.008 C 
ATOM     19  C   UNL     1      -5.958  31.594  27.701  1.00  0.00     0.008 C 
ENDBRANCH  12  17
ENDBRANCH  11  12
ENDBRANCH   1  11
TORSDOF 1
ENDMDL
MODEL 4
REMARK VINA RESULT:    -2.497      1.481      4.396
REMARK INTER + INTRA:          -2.485
REMARK INTER:                  -3.833
REMARK INTRA:                   1.348
REMARK UNBOUND:                 1.325
REMARK SMILES CC1=CCC[C@@H](C)C(=O)C[C@H](C(C)C)C(=O)C1
REMARK SMILES IDX 8 1 9 2 6 3 7 4 5 5 4 6 3 7 2 8 1 9 10 11 11 12 15 13 16 14
REMARK SMILES IDX 17 15 12 17 13 18 14 19
REMARK H PARENT
REMARK Flexibility Score: 70.00
ROOT
ATOM      1  C   UNL     1      -4.425  27.870  30.130  1.00  0.00     0.136 C 
ATOM      2  O   UNL     1      -4.659  26.680  29.972  1.00  0.00    -0.299 OA
ENDROOT
BRANCH   1   3
ATOM      3  C   UNL     1      -3.515  28.311  31.258  1.00  0.00     0.053 C 
ATOM      4  C   UNL     1      -3.274  29.821  31.163  1.00  0.00     0.016 C 
BRANCH   3   5
ATOM      5  C   UNL     1      -2.170  27.553  31.241  1.00  0.00     0.015 C 
BRANCH   5   6
ATOM      6  C   UNL     1      -1.210  27.982  30.119  1.00  0.00     0.028 C 
BRANCH   6   7
ATOM      7  C   UNL     1      -0.988  26.919  29.067  1.00  0.00    -0.028 C 
ATOM      8  C   UNL     1      -1.664  26.742  27.903  1.00  0.00    -0.070 CG0
ATOM      9  C   UNL     1      -1.161  25.648  26.988  1.00  0.00     0.039 C 
ATOM     10  G   UNL     1      -2.930  27.485  27.487  1.00  0.00     0.000 G0
ENDBRANCH   6   7
ENDBRANCH   5   6
ENDBRANCH   3   5
ENDBRANCH   1   3
BRANCH   1  11
ATOM     11  C   UNL     1      -5.025  28.866  29.171  1.00  0.00     0.087 C 
BRANCH  11  12
ATOM     12  C   UNL     1      -3.951  29.753  28.483  1.00  0.00     0.066 C 
BRANCH  12  13
ATOM     13  C   UNL     1      -2.918  28.984  27.657  1.00  0.00     0.140 C 
ATOM     14  O   UNL     1      -2.078  29.622  27.038  1.00  0.00    -0.299 OA
BRANCH  13  15
ATOM     15  C   UNL     1      -2.942  27.482  27.488  1.00  0.00     0.106 CG0
ATOM     16  G   UNL     1      -1.663  26.763  27.907  1.00  0.00     0.000 G0
ENDBRANCH  13  15
ENDBRANCH  12  13
BRANCH  12  17
ATOM     17  C   UNL     1      -4.607  30.917  27.678  1.00  0.00    -0.006 C 
ATOM     18  C   UNL     1      -3.873  32.260  27.829  1.00  0.00     0.008 C 
ATOM     19  C   UNL     1      -6.093  31.089  28.030  1.00  0.00     0.008 C 
ENDBRANCH  12  17
ENDBRANCH  11  12
ENDBRANCH   1  11
TORSDOF 1
ENDMDL
MODEL 5
REMARK VINA RESULT:    -2.070      2.133      4.656
REMARK INTER + INTRA:          -1.834
REMARK INTER:                  -2.679
REMARK INTRA:                   0.845
REMARK UNBOUND:                 1.325
REMARK SMILES CC1=CCC[C@@H](C)C(=O)C[C@H](C(C)C)C(=O)C1
REMARK SMILES IDX 8 1 9 2 6 3 7 4 5 5 4 6 3 7 2 8 1 9 10 11 11 12 15 13 16 14
REMARK SMILES IDX 17 15 12 17 13 18 14 19
REMARK H PARENT
REMARK Flexibility Score: 70.00
ROOT
ATOM      1  C   UNL     1      -1.843  26.788  27.396  1.00  0.00     0.136 C 
ATOM      2  O   UNL     1      -2.558  25.978  26.822  1.00  0.00    -0.299 OA
ENDROOT
BRANCH   1   3
ATOM      3  C   UNL     1      -0.436  26.394  27.797  1.00  0.00     0.053 C 
ATOM      4  C   UNL     1      -0.364  24.875  27.992  1.00  0.00     0.016 C 
BRANCH   3   5
ATOM      5  C   UNL     1       0.021  27.120  29.081  1.00  0.00     0.015 C 
BRANCH   5   6
ATOM      6  C   UNL     1      -0.933  26.959  30.277  1.00  0.00     0.028 C 
BRANCH   6   7
ATOM      7  C   UNL     1      -1.373  28.271  30.886  1.00  0.00    -0.028 C 
ATOM      8  C   UNL     1      -2.628  28.652  31.235  1.00  0.00    -0.070 CG0
ATOM      9  C   UNL     1      -2.764  29.993  31.918  1.00  0.00     0.039 C 
ATOM     10  G   UNL     1      -3.910  27.887  30.916  1.00  0.00     0.000 G0
ENDBRANCH   6   7
ENDBRANCH   5   6
ENDBRANCH   3   5
ENDBRANCH   1   3
BRANCH   1  11
ATOM     11  C   UNL     1      -2.373  28.175  27.655  1.00  0.00     0.087 C 
BRANCH  11  12
ATOM     12  C   UNL     1      -3.817  28.163  28.228  1.00  0.00     0.066 C 
BRANCH  12  13
ATOM     13  C   UNL     1      -3.997  27.325  29.495  1.00  0.00     0.140 C 
ATOM     14  O   UNL     1      -4.291  26.144  29.374  1.00  0.00    -0.299 OA
BRANCH  13  15
ATOM     15  C   UNL     1      -3.927  27.904  30.890  1.00  0.00     0.106 CG0
ATOM     16  G   UNL     1      -2.627  28.630  31.224  1.00  0.00     0.000 G0
ENDBRANCH  13  15
ENDBRANCH  12  13
BRANCH  12  17
ATOM     17  C   UNL     1      -4.376  29.611  28.389  1.00  0.00    -0.006 C 
ATOM     18  C   UNL     1      -5.869  29.658  28.750  1.00  0.00     0.008 C 
ATOM     19  C   UNL     1      -4.109  30.469  27.142  1.00  0.00     0.008 C 
ENDBRANCH  12  17
ENDBRANCH  11  12
ENDBRANCH   1  11
TORSDOF 1
ENDMDL
