MODEL 1
REMARK VINA RESULT:     7.496      0.000      0.000
REMARK INTER + INTRA:           8.541
REMARK INTER:                   8.811
REMARK INTRA:                  -0.270
REMARK UNBOUND:                -0.270
REMARK SMILES O=c1cc(-c2ccc(O)c(O)c2)oc2cc(O)cc(O)c12
REMARK SMILES IDX 4 1 3 2 2 3 1 4 21 5 19 6 18 7 16 8 15 9 14 10 13 11 5 12
REMARK SMILES IDX 6 13 7 14 8 15 12 16 10 17 9 18 11 20 20 22 17 24
REMARK H PARENT 9 19 11 21 20 23 17 25
REMARK Flexibility Score: inf
ROOT
ATOM      1  C   UNL     1     142.059 174.071 174.106  1.00  0.00     0.138 A 
ATOM      2  C   UNL     1     141.963 174.905 175.228  1.00  0.00     0.100 A 
ATOM      3  C   UNL     1     141.771 174.344 176.491  1.00  0.00     0.197 A 
ATOM      4  O   UNL     1     141.627 175.120 177.471  1.00  0.00    -0.289 OA
ATOM      5  C   UNL     1     141.708 172.937 176.634  1.00  0.00     0.107 A 
ATOM      6  C   UNL     1     141.556 172.252 177.877  1.00  0.00     0.134 A 
ATOM      7  C   UNL     1     141.388 170.862 177.882  1.00  0.00     0.093 A 
ATOM      8  C   UNL     1     141.428 170.126 176.699  1.00  0.00     0.123 A 
ATOM      9  C   UNL     1     141.629 170.780 175.482  1.00  0.00     0.094 A 
ATOM     10  C   UNL     1     141.765 172.170 175.440  1.00  0.00     0.146 A 
ATOM     11  O   UNL     1     141.941 172.756 174.260  1.00  0.00    -0.456 OA
ENDROOT
BRANCH   1  12
ATOM     12  C   UNL     1     142.264 174.615 172.740  1.00  0.00     0.021 A 
ATOM     13  C   UNL     1     143.510 175.114 172.323  1.00  0.00     0.016 A 
ATOM     14  C   UNL     1     143.676 175.609 171.028  1.00  0.00     0.051 A 
ATOM     15  C   UNL     1     142.611 175.613 170.121  1.00  0.00     0.157 A 
ATOM     16  C   UNL     1     141.198 174.604 171.823  1.00  0.00     0.062 A 
ATOM     17  C   UNL     1     141.356 175.100 170.524  1.00  0.00     0.158 A 
BRANCH  15  18
ATOM     18  O   UNL     1     142.844 176.124 168.843  1.00  0.00    -0.504 OA
ATOM     19  H   UNL     1     143.603 176.751 168.616  1.00  0.00     0.293 HD
ENDBRANCH  15  18
BRANCH  17  20
ATOM     20  O   UNL     1     140.249 175.065 169.673  1.00  0.00    -0.504 OA
ATOM     21  H   UNL     1     140.039 174.298 169.051  1.00  0.00     0.293 HD
ENDBRANCH  17  20
ENDBRANCH   1  12
BRANCH   6  22
ATOM     22  O   UNL     1     141.588 172.882 179.125  1.00  0.00    -0.507 OA
ATOM     23  H   UNL     1     142.427 173.173 179.602  1.00  0.00     0.293 HD
ENDBRANCH   6  22
BRANCH   8  24
ATOM     24  O   UNL     1     141.272 168.742 176.744  1.00  0.00    -0.508 OA
ATOM     25  H   UNL     1     141.262 168.182 175.899  1.00  0.00     0.293 HD
ENDBRANCH   8  24
TORSDOF 5
ENDMDL
