MODEL 1
REMARK VINA RESULT:    -4.584      0.000      0.000
REMARK INTER + INTRA:          -6.352
REMARK INTER:                  -5.925
REMARK INTRA:                  -0.428
REMARK UNBOUND:                -0.428
REMARK SMILES CCO[C@H]1O[C@H](CO)[C@@H](O)[C@H](O)[C@H]1O
REMARK SMILES IDX 4 1 13 2 11 3 9 4 6 5 5 6 3 7 2 8 1 9 14 10 12 12 7 14 8 15
REMARK SMILES IDX 10 17
REMARK H PARENT 14 11 12 13 8 16 10 18
REMARK Flexibility Score: inf
ROOT
ATOM      1  C   UNL     1      38.158   4.652  43.061  1.00  0.00     0.281 C 
ATOM      2  C   UNL     1      38.424   5.913  42.209  1.00  0.00     0.202 C 
ATOM      3  C   UNL     1      38.146   7.192  43.021  1.00  0.00     0.179 C 
ATOM      4  C   UNL     1      36.745   7.102  43.651  1.00  0.00     0.177 C 
ATOM      5  C   UNL     1      36.592   5.766  44.420  1.00  0.00     0.178 C 
ATOM      6  O   UNL     1      36.827   4.661  43.558  1.00  0.00    -0.341 OA
ENDROOT
BRANCH   1   7
ATOM      7  O   UNL     1      39.103   4.562  44.121  1.00  0.00    -0.350 OA
BRANCH   7   8
ATOM      8  C   UNL     1      39.779   3.317  44.127  1.00  0.00     0.160 C 
ATOM      9  C   UNL     1      39.405   2.472  42.911  1.00  0.00     0.035 C 
ENDBRANCH   7   8
ENDBRANCH   1   7
BRANCH   2  10
ATOM     10  O   UNL     1      39.731   5.905  41.691  1.00  0.00    -0.385 OA
ATOM     11  H   UNL     1      40.077   6.835  41.718  1.00  0.00     0.211 HD
ENDBRANCH   2  10
BRANCH   3  12
ATOM     12  O   UNL     1      38.204   8.317  42.182  1.00  0.00    -0.387 OA
ATOM     13  H   UNL     1      37.780   8.058  41.324  1.00  0.00     0.211 HD
ENDBRANCH   3  12
BRANCH   5  14
ATOM     14  C   UNL     1      35.176   5.634  44.997  1.00  0.00     0.191 C 
BRANCH  14  15
ATOM     15  O   UNL     1      35.112   6.280  46.238  1.00  0.00    -0.394 OA
ATOM     16  H   UNL     1      34.371   6.936  46.169  1.00  0.00     0.210 HD
ENDBRANCH  14  15
ENDBRANCH   5  14
BRANCH   4  17
ATOM     17  O   UNL     1      36.512   8.208  44.488  1.00  0.00    -0.387 OA
ATOM     18  H   UNL     1      37.024   8.977  44.122  1.00  0.00     0.211 HD
ENDBRANCH   4  17
TORSDOF 7
ENDMDL
MODEL 2
REMARK VINA RESULT:    -4.535     15.007     17.032
REMARK INTER + INTRA:          -6.289
REMARK INTER:                  -5.866
REMARK INTRA:                  -0.423
REMARK UNBOUND:                -0.428
REMARK SMILES CCO[C@H]1O[C@H](CO)[C@@H](O)[C@H](O)[C@H]1O
REMARK SMILES IDX 4 1 13 2 11 3 9 4 6 5 5 6 3 7 2 8 1 9 14 10 12 12 7 14 8 15
REMARK SMILES IDX 10 17
REMARK H PARENT 14 11 12 13 8 16 10 18
REMARK Flexibility Score: inf
ROOT
ATOM      1  C   UNL     1      21.477   3.590  41.220  1.00  0.00     0.281 C 
ATOM      2  C   UNL     1      21.089   2.342  42.043  1.00  0.00     0.202 C 
ATOM      3  C   UNL     1      20.433   2.747  43.377  1.00  0.00     0.179 C 
ATOM      4  C   UNL     1      21.333   3.763  44.101  1.00  0.00     0.177 C 
ATOM      5  C   UNL     1      21.697   4.927  43.146  1.00  0.00     0.178 C 
ATOM      6  O   UNL     1      22.335   4.434  41.975  1.00  0.00    -0.341 OA
ENDROOT
BRANCH   1   7
ATOM      7  O   UNL     1      20.311   4.287  40.798  1.00  0.00    -0.350 OA
BRANCH   7   8
ATOM      8  C   UNL     1      20.239   4.397  39.387  1.00  0.00     0.160 C 
ATOM      9  C   UNL     1      21.476   3.804  38.717  1.00  0.00     0.035 C 
ENDBRANCH   7   8
ENDBRANCH   1   7
BRANCH   2  10
ATOM     10  O   UNL     1      20.258   1.485  41.299  1.00  0.00    -0.385 OA
ATOM     11  H   UNL     1      20.621   0.564  41.375  1.00  0.00     0.211 HD
ENDBRANCH   2  10
BRANCH   3  12
ATOM     12  O   UNL     1      20.263   1.616  44.193  1.00  0.00    -0.387 OA
ATOM     13  H   UNL     1      21.134   1.448  44.638  1.00  0.00     0.211 HD
ENDBRANCH   3  12
BRANCH   5  14
ATOM     14  C   UNL     1      22.649   5.913  43.835  1.00  0.00     0.191 C 
BRANCH  14  15
ATOM     15  O   UNL     1      23.366   5.251  44.840  1.00  0.00    -0.394 OA
ATOM     16  H   UNL     1      23.860   4.518  44.388  1.00  0.00     0.210 HD
ENDBRANCH  14  15
ENDBRANCH   5  14
BRANCH   4  17
ATOM     17  O   UNL     1      20.703   4.232  45.268  1.00  0.00    -0.387 OA
ATOM     18  H   UNL     1      20.304   3.449  45.732  1.00  0.00     0.211 HD
ENDBRANCH   4  17
TORSDOF 7
ENDMDL
MODEL 3
REMARK VINA RESULT:    -4.489      2.180      4.225
REMARK INTER + INTRA:          -6.228
REMARK INTER:                  -5.797
REMARK INTRA:                  -0.431
REMARK UNBOUND:                -0.428
REMARK SMILES CCO[C@H]1O[C@H](CO)[C@@H](O)[C@H](O)[C@H]1O
REMARK SMILES IDX 4 1 13 2 11 3 9 4 6 5 5 6 3 7 2 8 1 9 14 10 12 12 7 14 8 15
REMARK SMILES IDX 10 17
REMARK H PARENT 14 11 12 13 8 16 10 18
REMARK Flexibility Score: inf
ROOT
ATOM      1  C   UNL     1      38.717   6.266  41.217  1.00  0.00     0.281 C 
ATOM      2  C   UNL     1      38.231   7.026  42.471  1.00  0.00     0.202 C 
ATOM      3  C   UNL     1      39.117   6.700  43.688  1.00  0.00     0.179 C 
ATOM      4  C   UNL     1      39.230   5.173  43.842  1.00  0.00     0.177 C 
ATOM      5  C   UNL     1      39.664   4.533  42.499  1.00  0.00     0.178 C 
ATOM      6  O   UNL     1      38.747   4.867  41.466  1.00  0.00    -0.341 OA
ENDROOT
BRANCH   1   7
ATOM      7  O   UNL     1      39.994   6.745  40.813  1.00  0.00    -0.350 OA
BRANCH   7   8
ATOM      8  C   UNL     1      40.064   6.957  39.413  1.00  0.00     0.160 C 
ATOM      9  C   UNL     1      39.056   8.009  38.957  1.00  0.00     0.035 C 
ENDBRANCH   7   8
ENDBRANCH   1   7
BRANCH   2  10
ATOM     10  O   UNL     1      38.173   8.411  42.231  1.00  0.00    -0.385 OA
ATOM     11  H   UNL     1      38.099   8.548  41.251  1.00  0.00     0.211 HD
ENDBRANCH   2  10
BRANCH   3  12
ATOM     12  O   UNL     1      38.552   7.241  44.855  1.00  0.00    -0.387 OA
ATOM     13  H   UNL     1      38.935   6.739  45.620  1.00  0.00     0.211 HD
ENDBRANCH   3  12
BRANCH   5  14
ATOM     14  C   UNL     1      39.716   3.005  42.621  1.00  0.00     0.191 C 
BRANCH  14  15
ATOM     15  O   UNL     1      38.843   2.583  43.633  1.00  0.00    -0.394 OA
ATOM     16  H   UNL     1      38.334   1.819  43.257  1.00  0.00     0.210 HD
ENDBRANCH  14  15
ENDBRANCH   5  14
BRANCH   4  17
ATOM     17  O   UNL     1      40.125   4.850  44.879  1.00  0.00    -0.387 OA
ATOM     18  H   UNL     1      40.208   5.648  45.466  1.00  0.00     0.211 HD
ENDBRANCH   4  17
TORSDOF 7
ENDMDL
MODEL 4
REMARK VINA RESULT:    -4.476      1.782      3.159
REMARK INTER + INTRA:          -6.212
REMARK INTER:                  -5.758
REMARK INTRA:                  -0.453
REMARK UNBOUND:                -0.428
REMARK SMILES CCO[C@H]1O[C@H](CO)[C@@H](O)[C@H](O)[C@H]1O
REMARK SMILES IDX 4 1 13 2 11 3 9 4 6 5 5 6 3 7 2 8 1 9 14 10 12 12 7 14 8 15
REMARK SMILES IDX 10 17
REMARK H PARENT 14 11 12 13 8 16 10 18
REMARK Flexibility Score: inf
ROOT
ATOM      1  C   UNL     1      37.644   3.675  43.580  1.00  0.00     0.281 C 
ATOM      2  C   UNL     1      36.295   4.401  43.777  1.00  0.00     0.202 C 
ATOM      3  C   UNL     1      36.345   5.822  43.184  1.00  0.00     0.179 C 
ATOM      4  C   UNL     1      37.580   6.560  43.729  1.00  0.00     0.177 C 
ATOM      5  C   UNL     1      38.850   5.696  43.524  1.00  0.00     0.178 C 
ATOM      6  O   UNL     1      38.702   4.430  44.153  1.00  0.00    -0.341 OA
ENDROOT
BRANCH   1   7
ATOM      7  O   UNL     1      37.877   3.429  42.198  1.00  0.00    -0.350 OA
BRANCH   7   8
ATOM      8  C   UNL     1      38.403   2.133  41.969  1.00  0.00     0.160 C 
ATOM      9  C   UNL     1      37.823   1.115  42.946  1.00  0.00     0.035 C 
ENDBRANCH   7   8
ENDBRANCH   1   7
BRANCH   2  10
ATOM     10  O   UNL     1      35.235   3.652  43.235  1.00  0.00    -0.385 OA
ATOM     11  H   UNL     1      34.408   4.197  43.305  1.00  0.00     0.211 HD
ENDBRANCH   2  10
BRANCH   3  12
ATOM     12  O   UNL     1      35.187   6.533  43.538  1.00  0.00    -0.387 OA
ATOM     13  H   UNL     1      34.571   6.485  42.761  1.00  0.00     0.211 HD
ENDBRANCH   3  12
BRANCH   5  14
ATOM     14  C   UNL     1      40.078   6.392  44.124  1.00  0.00     0.191 C 
BRANCH  14  15
ATOM     15  O   UNL     1      39.665   7.406  44.998  1.00  0.00    -0.394 OA
ATOM     16  H   UNL     1      38.769   7.693  44.683  1.00  0.00     0.210 HD
ENDBRANCH  14  15
ENDBRANCH   5  14
BRANCH   4  17
ATOM     17  O   UNL     1      37.709   7.819  43.116  1.00  0.00    -0.387 OA
ATOM     18  H   UNL     1      38.549   7.811  42.585  1.00  0.00     0.211 HD
ENDBRANCH   4  17
TORSDOF 7
ENDMDL
MODEL 5
REMARK VINA RESULT:    -4.448      1.589      2.295
REMARK INTER + INTRA:          -6.175
REMARK INTER:                  -5.836
REMARK INTRA:                  -0.339
REMARK UNBOUND:                -0.428
REMARK SMILES CCO[C@H]1O[C@H](CO)[C@@H](O)[C@H](O)[C@H]1O
REMARK SMILES IDX 4 1 13 2 11 3 9 4 6 5 5 6 3 7 2 8 1 9 14 10 12 12 7 14 8 15
REMARK SMILES IDX 10 17
REMARK H PARENT 14 11 12 13 8 16 10 18
REMARK Flexibility Score: inf
ROOT
ATOM      1  C   UNL     1      38.878   5.694  43.303  1.00  0.00     0.281 C 
ATOM      2  C   UNL     1      38.542   7.064  43.933  1.00  0.00     0.202 C 
ATOM      3  C   UNL     1      37.240   6.987  44.753  1.00  0.00     0.179 C 
ATOM      4  C   UNL     1      36.129   6.365  43.889  1.00  0.00     0.177 C 
ATOM      5  C   UNL     1      36.619   5.032  43.270  1.00  0.00     0.178 C 
ATOM      6  O   UNL     1      37.797   5.238  42.502  1.00  0.00    -0.341 OA
ENDROOT
BRANCH   1   7
ATOM      7  O   UNL     1      39.201   4.750  44.317  1.00  0.00    -0.350 OA
BRANCH   7   8
ATOM      8  C   UNL     1      40.121   3.773  43.860  1.00  0.00     0.160 C 
ATOM      9  C   UNL     1      39.691   2.366  44.267  1.00  0.00     0.035 C 
ENDBRANCH   7   8
ENDBRANCH   1   7
BRANCH   2  10
ATOM     10  O   UNL     1      39.614   7.539  44.710  1.00  0.00    -0.385 OA
ATOM     11  H   UNL     1      40.279   7.947  44.097  1.00  0.00     0.211 HD
ENDBRANCH   2  10
BRANCH   3  12
ATOM     12  O   UNL     1      36.847   8.274  45.155  1.00  0.00    -0.387 OA
ATOM     13  H   UNL     1      37.553   8.900  44.847  1.00  0.00     0.211 HD
ENDBRANCH   3  12
BRANCH   5  14
ATOM     14  C   UNL     1      35.544   4.435  42.353  1.00  0.00     0.191 C 
BRANCH  14  15
ATOM     15  O   UNL     1      34.872   3.404  43.023  1.00  0.00    -0.394 OA
ATOM     16  H   UNL     1      35.271   2.557  42.695  1.00  0.00     0.210 HD
ENDBRANCH  14  15
ENDBRANCH   5  14
BRANCH   4  17
ATOM     17  O   UNL     1      34.961   6.181  44.651  1.00  0.00    -0.387 OA
ATOM     18  H   UNL     1      34.725   5.216  44.613  1.00  0.00     0.211 HD
ENDBRANCH   4  17
TORSDOF 7
ENDMDL
MODEL 6
REMARK VINA RESULT:    -4.395      1.893      3.925
REMARK INTER + INTRA:          -6.107
REMARK INTER:                  -5.635
REMARK INTRA:                  -0.472
REMARK UNBOUND:                -0.428
REMARK SMILES CCO[C@H]1O[C@H](CO)[C@@H](O)[C@H](O)[C@H]1O
REMARK SMILES IDX 4 1 13 2 11 3 9 4 6 5 5 6 3 7 2 8 1 9 14 10 12 12 7 14 8 15
REMARK SMILES IDX 10 17
REMARK H PARENT 14 11 12 13 8 16 10 18
REMARK Flexibility Score: inf
ROOT
ATOM      1  C   UNL     1      37.577   3.833  42.334  1.00  0.00     0.281 C 
ATOM      2  C   UNL     1      37.202   4.392  43.725  1.00  0.00     0.202 C 
ATOM      3  C   UNL     1      36.940   5.908  43.655  1.00  0.00     0.179 C 
ATOM      4  C   UNL     1      38.127   6.600  42.962  1.00  0.00     0.177 C 
ATOM      5  C   UNL     1      38.435   5.904  41.612  1.00  0.00     0.178 C 
ATOM      6  O   UNL     1      38.704   4.523  41.811  1.00  0.00    -0.341 OA
ENDROOT
BRANCH   1   7
ATOM      7  O   UNL     1      36.465   3.919  41.451  1.00  0.00    -0.350 OA
BRANCH   7   8
ATOM      8  C   UNL     1      36.365   2.783  40.610  1.00  0.00     0.160 C 
ATOM      9  C   UNL     1      36.796   1.511  41.336  1.00  0.00     0.035 C 
ENDBRANCH   7   8
ENDBRANCH   1   7
BRANCH   2  10
ATOM     10  O   UNL     1      36.102   3.703  44.266  1.00  0.00    -0.385 OA
ATOM     11  H   UNL     1      35.744   4.241  45.020  1.00  0.00     0.211 HD
ENDBRANCH   2  10
BRANCH   3  12
ATOM     12  O   UNL     1      36.792   6.432  44.950  1.00  0.00    -0.387 OA
ATOM     13  H   UNL     1      36.613   7.403  44.849  1.00  0.00     0.211 HD
ENDBRANCH   3  12
BRANCH   5  14
ATOM     14  C   UNL     1      39.658   6.542  40.942  1.00  0.00     0.191 C 
BRANCH  14  15
ATOM     15  O   UNL     1      39.269   7.701  40.258  1.00  0.00    -0.394 OA
ATOM     16  H   UNL     1      39.714   7.660  39.372  1.00  0.00     0.210 HD
ENDBRANCH  14  15
ENDBRANCH   5  14
BRANCH   4  17
ATOM     17  O   UNL     1      37.861   7.970  42.785  1.00  0.00    -0.387 OA
ATOM     18  H   UNL     1      37.259   8.258  43.522  1.00  0.00     0.211 HD
ENDBRANCH   4  17
TORSDOF 7
ENDMDL
MODEL 7
REMARK VINA RESULT:    -4.374     15.318     16.822
REMARK INTER + INTRA:          -6.080
REMARK INTER:                  -5.819
REMARK INTRA:                  -0.261
REMARK UNBOUND:                -0.428
REMARK SMILES CCO[C@H]1O[C@H](CO)[C@@H](O)[C@H](O)[C@H]1O
REMARK SMILES IDX 4 1 13 2 11 3 9 4 6 5 5 6 3 7 2 8 1 9 14 10 12 12 7 14 8 15
REMARK SMILES IDX 10 17
REMARK H PARENT 14 11 12 13 8 16 10 18
REMARK Flexibility Score: inf
ROOT
ATOM      1  C   UNL     1      22.146   4.112  42.546  1.00  0.00     0.281 C 
ATOM      2  C   UNL     1      22.527   4.617  41.137  1.00  0.00     0.202 C 
ATOM      3  C   UNL     1      21.395   4.336  40.129  1.00  0.00     0.179 C 
ATOM      4  C   UNL     1      20.992   2.854  40.215  1.00  0.00     0.177 C 
ATOM      5  C   UNL     1      20.700   2.465  41.686  1.00  0.00     0.178 C 
ATOM      6  O   UNL     1      21.830   2.727  42.508  1.00  0.00    -0.341 OA
ENDROOT
BRANCH   1   7
ATOM      7  O   UNL     1      21.064   4.873  43.069  1.00  0.00    -0.350 OA
BRANCH   7   8
ATOM      8  C   UNL     1      21.249   5.189  44.438  1.00  0.00     0.160 C 
ATOM      9  C   UNL     1      22.577   5.905  44.672  1.00  0.00     0.035 C 
ENDBRANCH   7   8
ENDBRANCH   1   7
BRANCH   2  10
ATOM     10  O   UNL     1      22.865   5.982  41.164  1.00  0.00    -0.385 OA
ATOM     11  H   UNL     1      22.280   6.429  41.830  1.00  0.00     0.211 HD
ENDBRANCH   2  10
BRANCH   3  12
ATOM     12  O   UNL     1      21.829   4.623  38.825  1.00  0.00    -0.387 OA
ATOM     13  H   UNL     1      22.058   3.755  38.401  1.00  0.00     0.211 HD
ENDBRANCH   3  12
BRANCH   5  14
ATOM     14  C   UNL     1      20.362   0.973  41.794  1.00  0.00     0.191 C 
BRANCH  14  15
ATOM     15  O   UNL     1      21.342   0.322  42.555  1.00  0.00    -0.394 OA
ATOM     16  H   UNL     1      20.961   0.220  43.465  1.00  0.00     0.210 HD
ENDBRANCH  14  15
ENDBRANCH   5  14
BRANCH   4  17
ATOM     17  O   UNL     1      19.886   2.597  39.385  1.00  0.00    -0.387 OA
ATOM     18  H   UNL     1      19.451   1.764  39.710  1.00  0.00     0.211 HD
ENDBRANCH   4  17
TORSDOF 7
ENDMDL
MODEL 8
REMARK VINA RESULT:    -4.335     14.803     16.408
REMARK INTER + INTRA:          -6.030
REMARK INTER:                  -5.859
REMARK INTRA:                  -0.171
REMARK UNBOUND:                -0.428
REMARK SMILES CCO[C@H]1O[C@H](CO)[C@@H](O)[C@H](O)[C@H]1O
REMARK SMILES IDX 4 1 13 2 11 3 9 4 6 5 5 6 3 7 2 8 1 9 14 10 12 12 7 14 8 15
REMARK SMILES IDX 10 17
REMARK H PARENT 14 11 12 13 8 16 10 18
REMARK Flexibility Score: inf
ROOT
ATOM      1  C   UNL     1      20.763   3.628  42.061  1.00  0.00     0.281 C 
ATOM      2  C   UNL     1      21.819   4.521  41.372  1.00  0.00     0.202 C 
ATOM      3  C   UNL     1      22.843   5.050  42.394  1.00  0.00     0.179 C 
ATOM      4  C   UNL     1      22.098   5.696  43.575  1.00  0.00     0.177 C 
ATOM      5  C   UNL     1      21.030   4.720  44.130  1.00  0.00     0.178 C 
ATOM      6  O   UNL     1      20.118   4.341  43.108  1.00  0.00    -0.341 OA
ENDROOT
BRANCH   1   7
ATOM      7  O   UNL     1      21.366   2.435  42.547  1.00  0.00    -0.350 OA
BRANCH   7   8
ATOM      8  C   UNL     1      20.434   1.372  42.648  1.00  0.00     0.160 C 
ATOM      9  C   UNL     1      20.919   0.131  41.903  1.00  0.00     0.035 C 
ENDBRANCH   7   8
ENDBRANCH   1   7
BRANCH   2  10
ATOM     10  O   UNL     1      22.448   3.836  40.318  1.00  0.00    -0.385 OA
ATOM     11  H   UNL     1      21.746   3.547  39.678  1.00  0.00     0.211 HD
ENDBRANCH   2  10
BRANCH   3  12
ATOM     12  O   UNL     1      23.675   6.008  41.792  1.00  0.00    -0.387 OA
ATOM     13  H   UNL     1      23.809   6.731  42.458  1.00  0.00     0.211 HD
ENDBRANCH   3  12
BRANCH   5  14
ATOM     14  C   UNL     1      20.235   5.378  45.265  1.00  0.00     0.191 C 
BRANCH  14  15
ATOM     15  O   UNL     1      20.186   4.515  46.367  1.00  0.00    -0.394 OA
ATOM     16  H   UNL     1      19.227   4.435  46.611  1.00  0.00     0.210 HD
ENDBRANCH  14  15
ENDBRANCH   5  14
BRANCH   4  17
ATOM     17  O   UNL     1      23.008   6.086  44.575  1.00  0.00    -0.387 OA
ATOM     18  H   UNL     1      23.916   6.095  44.170  1.00  0.00     0.211 HD
ENDBRANCH   4  17
TORSDOF 7
ENDMDL
MODEL 9
REMARK VINA RESULT:    -4.301      1.699      2.043
REMARK INTER + INTRA:          -5.986
REMARK INTER:                  -5.546
REMARK INTRA:                  -0.439
REMARK UNBOUND:                -0.428
REMARK SMILES CCO[C@H]1O[C@H](CO)[C@@H](O)[C@H](O)[C@H]1O
REMARK SMILES IDX 4 1 13 2 11 3 9 4 6 5 5 6 3 7 2 8 1 9 14 10 12 12 7 14 8 15
REMARK SMILES IDX 10 17
REMARK H PARENT 14 11 12 13 8 16 10 18
REMARK Flexibility Score: inf
ROOT
ATOM      1  C   UNL     1      37.260   3.828  42.958  1.00  0.00     0.281 C 
ATOM      2  C   UNL     1      38.505   4.462  42.299  1.00  0.00     0.202 C 
ATOM      3  C   UNL     1      39.118   5.543  43.209  1.00  0.00     0.179 C 
ATOM      4  C   UNL     1      38.021   6.532  43.638  1.00  0.00     0.177 C 
ATOM      5  C   UNL     1      36.809   5.763  44.222  1.00  0.00     0.178 C 
ATOM      6  O   UNL     1      36.304   4.830  43.277  1.00  0.00    -0.341 OA
ENDROOT
BRANCH   1   7
ATOM      7  O   UNL     1      37.634   3.089  44.115  1.00  0.00    -0.350 OA
BRANCH   7   8
ATOM      8  C   UNL     1      37.143   1.760  44.078  1.00  0.00     0.160 C 
ATOM      9  C   UNL     1      38.282   0.743  44.069  1.00  0.00     0.035 C 
ENDBRANCH   7   8
ENDBRANCH   1   7
BRANCH   2  10
ATOM     10  O   UNL     1      39.450   3.478  41.957  1.00  0.00    -0.385 OA
ATOM     11  H   UNL     1      40.129   3.898  41.366  1.00  0.00     0.211 HD
ENDBRANCH   2  10
BRANCH   3  12
ATOM     12  O   UNL     1      40.125   6.239  42.520  1.00  0.00    -0.387 OA
ATOM     13  H   UNL     1      40.088   5.937  41.575  1.00  0.00     0.211 HD
ENDBRANCH   3  12
BRANCH   5  14
ATOM     14  C   UNL     1      35.681   6.734  44.592  1.00  0.00     0.191 C 
BRANCH  14  15
ATOM     15  O   UNL     1      35.780   7.891  43.808  1.00  0.00    -0.394 OA
ATOM     16  H   UNL     1      35.342   7.677  42.944  1.00  0.00     0.210 HD
ENDBRANCH  14  15
ENDBRANCH   5  14
BRANCH   4  17
ATOM     17  O   UNL     1      38.533   7.463  44.560  1.00  0.00    -0.387 OA
ATOM     18  H   UNL     1      39.287   7.029  45.040  1.00  0.00     0.211 HD
ENDBRANCH   4  17
TORSDOF 7
ENDMDL
