MODEL 1
REMARK VINA RESULT:    -5.756      0.000      0.000
REMARK INTER + INTRA:         -18.093
REMARK INTER:                 -14.504
REMARK INTRA:                  -3.588
REMARK UNBOUND:                -3.588
REMARK SMILES CCCCCCCCCCCCCCCCCCCCCCCCCCCC(=O)[O-]
REMARK SMILES IDX 15 1 16 2 17 3 18 4 19 5 20 6 21 7 22 8 23 9 24 10 25 11
REMARK SMILES IDX 26 12 27 13 28 14 29 15 30 16 14 17 13 18 12 19 11 20 10 21
REMARK SMILES IDX 9 22 8 23 7 24 6 25 5 26 4 27 3 28 2 29 1 30
REMARK H PARENT
REMARK Flexibility Score: inf
ROOT
ATOM      1  C   UNL     1      17.499  43.091   8.178  1.00  0.00     0.000 C 
ENDROOT
BRANCH   1   2
ATOM      2  C   UNL     1      16.099  43.225   8.800  1.00  0.00     0.000 C 
BRANCH   2   3
ATOM      3  C   UNL     1      15.314  41.903   8.770  1.00  0.00     0.000 C 
BRANCH   3   4
ATOM      4  C   UNL     1      16.227  40.671   8.855  1.00  0.00     0.000 C 
BRANCH   4   5
ATOM      5  C   UNL     1      15.543  39.538   9.637  1.00  0.00     0.000 C 
BRANCH   5   6
ATOM      6  C   UNL     1      14.016  39.703   9.704  1.00  0.00     0.000 C 
BRANCH   6   7
ATOM      7  C   UNL     1      13.320  38.506  10.376  1.00  0.00     0.000 C 
BRANCH   7   8
ATOM      8  C   UNL     1      13.842  38.251  11.806  1.00  0.00     0.000 C 
BRANCH   8   9
ATOM      9  C   UNL     1      13.887  36.760  12.198  1.00  0.00     0.000 C 
BRANCH   9  10
ATOM     10  C   UNL     1      12.510  36.084  12.323  1.00  0.00     0.000 C 
BRANCH  10  11
ATOM     11  C   UNL     1      12.486  34.982  13.397  1.00  0.00     0.000 C 
BRANCH  11  12
ATOM     12  C   UNL     1      11.744  33.713  12.939  1.00  0.00     0.006 C 
BRANCH  12  13
ATOM     13  C   UNL     1      12.493  32.911  11.858  1.00  0.00     0.053 C 
BRANCH  13  14
ATOM     14  C   UNL     1      13.933  32.679  12.209  1.00  0.00     0.041 C 
ATOM     15  O   UNL     1      14.238  31.928  13.173  1.00  0.00    -0.550 OA
ATOM     16  O   UNL     1      14.939  33.315  11.494  1.00  0.00    -0.550 OA
ENDBRANCH  13  14
ENDBRANCH  12  13
ENDBRANCH  11  12
ENDBRANCH  10  11
ENDBRANCH   9  10
ENDBRANCH   8   9
ENDBRANCH   7   8
ENDBRANCH   6   7
ENDBRANCH   5   6
ENDBRANCH   4   5
ENDBRANCH   3   4
ENDBRANCH   2   3
ENDBRANCH   1   2
BRANCH   1  17
ATOM     17  C   UNL     1      17.738  44.077   7.024  1.00  0.00     0.000 C 
BRANCH  17  18
ATOM     18  C   UNL     1      16.517  44.214   6.096  1.00  0.00     0.000 C 
BRANCH  18  19
ATOM     19  C   UNL     1      16.652  43.388   4.802  1.00  0.00     0.000 C 
BRANCH  19  20
ATOM     20  C   UNL     1      15.576  43.662   3.729  1.00  0.00     0.000 C 
BRANCH  20  21
ATOM     21  C   UNL     1      14.971  45.078   3.751  1.00  0.00     0.000 C 
BRANCH  21  22
ATOM     22  C   UNL     1      13.436  45.123   3.870  1.00  0.00    -0.000 C 
BRANCH  22  23
ATOM     23  C   UNL     1      12.770  43.731   3.837  1.00  0.00    -0.000 C 
BRANCH  23  24
ATOM     24  C   UNL     1      12.028  43.398   5.145  1.00  0.00    -0.000 C 
BRANCH  24  25
ATOM     25  C   UNL     1      12.987  43.286   6.350  1.00  0.00    -0.000 C 
BRANCH  25  26
ATOM     26  C   UNL     1      12.636  44.234   7.509  1.00  0.00    -0.000 C 
BRANCH  26  27
ATOM     27  C   UNL     1      13.422  45.556   7.459  1.00  0.00    -0.000 C 
BRANCH  27  28
ATOM     28  C   UNL     1      12.507  46.791   7.501  1.00  0.00    -0.000 C 
BRANCH  28  29
ATOM     29  C   UNL     1      11.100  46.502   6.961  1.00  0.00    -0.003 C 
ATOM     30  C   UNL     1      10.866  47.213   5.631  1.00  0.00     0.004 C 
ENDBRANCH  28  29
ENDBRANCH  27  28
ENDBRANCH  26  27
ENDBRANCH  25  26
ENDBRANCH  24  25
ENDBRANCH  23  24
ENDBRANCH  22  23
ENDBRANCH  21  22
ENDBRANCH  20  21
ENDBRANCH  19  20
ENDBRANCH  18  19
ENDBRANCH  17  18
ENDBRANCH   1  17
TORSDOF 26
ENDMDL
MODEL 2
REMARK VINA RESULT:    -5.692      5.827      8.263
REMARK INTER + INTRA:         -17.933
REMARK INTER:                 -13.119
REMARK INTRA:                  -4.814
REMARK UNBOUND:                -3.588
REMARK SMILES CCCCCCCCCCCCCCCCCCCCCCCCCCCC(=O)[O-]
REMARK SMILES IDX 15 1 16 2 17 3 18 4 19 5 20 6 21 7 22 8 23 9 24 10 25 11
REMARK SMILES IDX 26 12 27 13 28 14 29 15 30 16 14 17 13 18 12 19 11 20 10 21
REMARK SMILES IDX 9 22 8 23 7 24 6 25 5 26 4 27 3 28 2 29 1 30
REMARK H PARENT
REMARK Flexibility Score: inf
ROOT
ATOM      1  C   UNL     1      12.600  46.683   7.527  1.00  0.00     0.000 C 
ENDROOT
BRANCH   1   2
ATOM      2  C   UNL     1      11.139  46.499   7.083  1.00  0.00     0.000 C 
BRANCH   2   3
ATOM      3  C   UNL     1      10.786  47.356   5.856  1.00  0.00     0.000 C 
BRANCH   3   4
ATOM      4  C   UNL     1       9.473  48.133   6.035  1.00  0.00     0.000 C 
BRANCH   4   5
ATOM      5  C   UNL     1       8.815  47.788   7.381  1.00  0.00     0.000 C 
BRANCH   5   6
ATOM      6  C   UNL     1       7.324  47.445   7.240  1.00  0.00     0.000 C 
BRANCH   6   7
ATOM      7  C   UNL     1       6.783  46.648   8.440  1.00  0.00     0.000 C 
BRANCH   7   8
ATOM      8  C   UNL     1       6.474  45.180   8.079  1.00  0.00     0.000 C 
BRANCH   8   9
ATOM      9  C   UNL     1       7.453  44.570   7.055  1.00  0.00     0.000 C 
BRANCH   9  10
ATOM     10  C   UNL     1       8.641  43.810   7.672  1.00  0.00     0.000 C 
BRANCH  10  11
ATOM     11  C   UNL     1       8.585  43.769   9.210  1.00  0.00     0.000 C 
BRANCH  11  12
ATOM     12  C   UNL     1       9.657  44.653   9.873  1.00  0.00     0.006 C 
BRANCH  12  13
ATOM     13  C   UNL     1      10.490  43.924  10.944  1.00  0.00     0.053 C 
BRANCH  13  14
ATOM     14  C   UNL     1       9.960  44.141  12.330  1.00  0.00     0.041 C 
ATOM     15  O   UNL     1      10.423  43.480  13.297  1.00  0.00    -0.550 OA
ATOM     16  O   UNL     1       8.933  45.049  12.553  1.00  0.00    -0.550 OA
ENDBRANCH  13  14
ENDBRANCH  12  13
ENDBRANCH  11  12
ENDBRANCH  10  11
ENDBRANCH   9  10
ENDBRANCH   8   9
ENDBRANCH   7   8
ENDBRANCH   6   7
ENDBRANCH   5   6
ENDBRANCH   4   5
ENDBRANCH   3   4
ENDBRANCH   2   3
ENDBRANCH   1   2
BRANCH   1  17
ATOM     17  C   UNL     1      13.209  45.404   8.122  1.00  0.00     0.000 C 
BRANCH  17  18
ATOM     18  C   UNL     1      12.555  44.122   7.574  1.00  0.00     0.000 C 
BRANCH  18  19
ATOM     19  C   UNL     1      13.570  43.161   6.927  1.00  0.00     0.000 C 
BRANCH  19  20
ATOM     20  C   UNL     1      13.001  42.246   5.821  1.00  0.00     0.000 C 
BRANCH  20  21
ATOM     21  C   UNL     1      11.954  42.901   4.900  1.00  0.00     0.000 C 
BRANCH  21  22
ATOM     22  C   UNL     1      12.539  43.665   3.697  1.00  0.00    -0.000 C 
BRANCH  22  23
ATOM     23  C   UNL     1      12.837  45.151   3.991  1.00  0.00    -0.000 C 
BRANCH  23  24
ATOM     24  C   UNL     1      14.334  45.490   3.867  1.00  0.00    -0.000 C 
BRANCH  24  25
ATOM     25  C   UNL     1      15.203  44.234   3.641  1.00  0.00    -0.000 C 
BRANCH  25  26
ATOM     26  C   UNL     1      16.580  44.303   4.321  1.00  0.00    -0.000 C 
BRANCH  26  27
ATOM     27  C   UNL     1      16.920  43.032   5.117  1.00  0.00    -0.000 C 
BRANCH  27  28
ATOM     28  C   UNL     1      16.991  43.282   6.632  1.00  0.00    -0.000 C 
BRANCH  28  29
ATOM     29  C   UNL     1      16.895  44.772   6.990  1.00  0.00    -0.003 C 
ATOM     30  C   UNL     1      16.875  44.973   8.502  1.00  0.00     0.004 C 
ENDBRANCH  28  29
ENDBRANCH  27  28
ENDBRANCH  26  27
ENDBRANCH  25  26
ENDBRANCH  24  25
ENDBRANCH  23  24
ENDBRANCH  22  23
ENDBRANCH  21  22
ENDBRANCH  20  21
ENDBRANCH  19  20
ENDBRANCH  18  19
ENDBRANCH  17  18
ENDBRANCH   1  17
TORSDOF 26
ENDMDL
MODEL 3
REMARK VINA RESULT:    -5.687      3.702      9.319
REMARK INTER + INTRA:         -17.919
REMARK INTER:                 -14.738
REMARK INTRA:                  -3.180
REMARK UNBOUND:                -3.588
REMARK SMILES CCCCCCCCCCCCCCCCCCCCCCCCCCCC(=O)[O-]
REMARK SMILES IDX 15 1 16 2 17 3 18 4 19 5 20 6 21 7 22 8 23 9 24 10 25 11
REMARK SMILES IDX 26 12 27 13 28 14 29 15 30 16 14 17 13 18 12 19 11 20 10 21
REMARK SMILES IDX 9 22 8 23 7 24 6 25 5 26 4 27 3 28 2 29 1 30
REMARK H PARENT
REMARK Flexibility Score: inf
ROOT
ATOM      1  C   UNL     1      17.501  44.140   6.563  1.00  0.00     0.000 C 
ENDROOT
BRANCH   1   2
ATOM      2  C   UNL     1      16.752  43.055   5.769  1.00  0.00     0.000 C 
BRANCH   2   3
ATOM      3  C   UNL     1      16.607  43.412   4.281  1.00  0.00     0.000 C 
BRANCH   3   4
ATOM      4  C   UNL     1      15.152  43.702   3.881  1.00  0.00     0.000 C 
BRANCH   4   5
ATOM      5  C   UNL     1      14.911  45.217   3.765  1.00  0.00     0.000 C 
BRANCH   5   6
ATOM      6  C   UNL     1      13.591  45.657   4.417  1.00  0.00     0.000 C 
BRANCH   6   7
ATOM      7  C   UNL     1      13.788  46.780   5.451  1.00  0.00     0.000 C 
BRANCH   7   8
ATOM      8  C   UNL     1      12.554  46.962   6.361  1.00  0.00     0.000 C 
BRANCH   8   9
ATOM      9  C   UNL     1      11.829  45.645   6.701  1.00  0.00     0.000 C 
BRANCH   9  10
ATOM     10  C   UNL     1      11.146  45.622   8.080  1.00  0.00     0.000 C 
BRANCH  10  11
ATOM     11  C   UNL     1      11.787  44.606   9.042  1.00  0.00     0.000 C 
BRANCH  11  12
ATOM     12  C   UNL     1      10.811  44.101  10.121  1.00  0.00     0.006 C 
BRANCH  12  13
ATOM     13  C   UNL     1       9.503  44.910  10.203  1.00  0.00     0.053 C 
BRANCH  13  14
ATOM     14  C   UNL     1       8.290  44.069   9.931  1.00  0.00     0.041 C 
ATOM     15  O   UNL     1       7.858  43.277  10.809  1.00  0.00    -0.550 OA
ATOM     16  O   UNL     1       7.654  44.136   8.699  1.00  0.00    -0.550 OA
ENDBRANCH  13  14
ENDBRANCH  12  13
ENDBRANCH  11  12
ENDBRANCH  10  11
ENDBRANCH   9  10
ENDBRANCH   8   9
ENDBRANCH   7   8
ENDBRANCH   6   7
ENDBRANCH   5   6
ENDBRANCH   4   5
ENDBRANCH   3   4
ENDBRANCH   2   3
ENDBRANCH   1   2
BRANCH   1  17
ATOM     17  C   UNL     1      16.579  44.940   7.496  1.00  0.00     0.000 C 
BRANCH  17  18
ATOM     18  C   UNL     1      15.223  44.250   7.729  1.00  0.00     0.000 C 
BRANCH  18  19
ATOM     19  C   UNL     1      15.212  43.358   8.985  1.00  0.00     0.000 C 
BRANCH  19  20
ATOM     20  C   UNL     1      14.835  41.881   8.744  1.00  0.00     0.000 C 
BRANCH  20  21
ATOM     21  C   UNL     1      16.006  40.883   8.822  1.00  0.00     0.000 C 
BRANCH  21  22
ATOM     22  C   UNL     1      15.670  39.544   9.505  1.00  0.00    -0.000 C 
BRANCH  22  23
ATOM     23  C   UNL     1      14.356  39.572  10.314  1.00  0.00    -0.000 C 
BRANCH  23  24
ATOM     24  C   UNL     1      13.365  38.480   9.871  1.00  0.00    -0.000 C 
BRANCH  24  25
ATOM     25  C   UNL     1      12.796  37.686  11.067  1.00  0.00    -0.000 C 
BRANCH  25  26
ATOM     26  C   UNL     1      13.618  37.839  12.358  1.00  0.00    -0.000 C 
BRANCH  26  27
ATOM     27  C   UNL     1      13.933  36.493  13.031  1.00  0.00    -0.000 C 
BRANCH  27  28
ATOM     28  C   UNL     1      15.263  35.888  12.553  1.00  0.00    -0.000 C 
BRANCH  28  29
ATOM     29  C   UNL     1      15.157  34.386  12.258  1.00  0.00    -0.003 C 
ATOM     30  C   UNL     1      13.752  34.016  11.792  1.00  0.00     0.004 C 
ENDBRANCH  28  29
ENDBRANCH  27  28
ENDBRANCH  26  27
ENDBRANCH  25  26
ENDBRANCH  24  25
ENDBRANCH  23  24
ENDBRANCH  22  23
ENDBRANCH  21  22
ENDBRANCH  20  21
ENDBRANCH  19  20
ENDBRANCH  18  19
ENDBRANCH  17  18
ENDBRANCH   1  17
TORSDOF 26
ENDMDL
MODEL 4
REMARK VINA RESULT:    -5.683      3.776     10.234
REMARK INTER + INTRA:         -17.909
REMARK INTER:                 -14.984
REMARK INTRA:                  -2.925
REMARK UNBOUND:                -3.588
REMARK SMILES CCCCCCCCCCCCCCCCCCCCCCCCCCCC(=O)[O-]
REMARK SMILES IDX 15 1 16 2 17 3 18 4 19 5 20 6 21 7 22 8 23 9 24 10 25 11
REMARK SMILES IDX 26 12 27 13 28 14 29 15 30 16 14 17 13 18 12 19 11 20 10 21
REMARK SMILES IDX 9 22 8 23 7 24 6 25 5 26 4 27 3 28 2 29 1 30
REMARK H PARENT
REMARK Flexibility Score: inf
ROOT
ATOM      1  C   UNL     1      16.589  45.093   8.349  1.00  0.00     0.000 C 
ENDROOT
BRANCH   1   2
ATOM      2  C   UNL     1      17.143  45.107   6.914  1.00  0.00     0.000 C 
BRANCH   2   3
ATOM      3  C   UNL     1      17.667  43.731   6.474  1.00  0.00     0.000 C 
BRANCH   3   4
ATOM      4  C   UNL     1      16.655  42.961   5.612  1.00  0.00     0.000 C 
BRANCH   4   5
ATOM      5  C   UNL     1      16.710  43.437   4.151  1.00  0.00     0.000 C 
BRANCH   5   6
ATOM      6  C   UNL     1      15.316  43.714   3.566  1.00  0.00     0.000 C 
BRANCH   6   7
ATOM      7  C   UNL     1      14.943  45.207   3.604  1.00  0.00     0.000 C 
BRANCH   7   8
ATOM      8  C   UNL     1      13.694  45.477   4.468  1.00  0.00     0.000 C 
BRANCH   8   9
ATOM      9  C   UNL     1      13.969  46.351   5.708  1.00  0.00     0.000 C 
BRANCH   9  10
ATOM     10  C   UNL     1      12.738  46.621   6.592  1.00  0.00     0.000 C 
BRANCH  10  11
ATOM     11  C   UNL     1      12.894  46.054   8.015  1.00  0.00     0.000 C 
BRANCH  11  12
ATOM     12  C   UNL     1      11.862  44.959   8.341  1.00  0.00     0.006 C 
BRANCH  12  13
ATOM     13  C   UNL     1      11.025  44.512   7.127  1.00  0.00     0.053 C 
BRANCH  13  14
ATOM     14  C   UNL     1       9.566  44.824   7.289  1.00  0.00     0.041 C 
ATOM     15  O   UNL     1       8.784  43.966   7.774  1.00  0.00    -0.550 OA
ATOM     16  O   UNL     1       9.064  46.052   6.877  1.00  0.00    -0.550 OA
ENDBRANCH  13  14
ENDBRANCH  12  13
ENDBRANCH  11  12
ENDBRANCH  10  11
ENDBRANCH   9  10
ENDBRANCH   8   9
ENDBRANCH   7   8
ENDBRANCH   6   7
ENDBRANCH   5   6
ENDBRANCH   4   5
ENDBRANCH   3   4
ENDBRANCH   2   3
ENDBRANCH   1   2
BRANCH   1  17
ATOM     17  C   UNL     1      16.484  43.676   8.936  1.00  0.00     0.000 C 
BRANCH  17  18
ATOM     18  C   UNL     1      15.026  43.218   9.127  1.00  0.00     0.000 C 
BRANCH  18  19
ATOM     19  C   UNL     1      14.763  41.807   8.569  1.00  0.00     0.000 C 
BRANCH  19  20
ATOM     20  C   UNL     1      15.858  40.762   8.873  1.00  0.00     0.000 C 
BRANCH  20  21
ATOM     21  C   UNL     1      15.411  39.578   9.751  1.00  0.00     0.000 C 
BRANCH  21  22
ATOM     22  C   UNL     1      13.888  39.455   9.943  1.00  0.00    -0.000 C 
BRANCH  22  23
ATOM     23  C   UNL     1      13.468  38.259  10.825  1.00  0.00    -0.000 C 
BRANCH  23  24
ATOM     24  C   UNL     1      14.544  37.880  11.858  1.00  0.00    -0.000 C 
BRANCH  24  25
ATOM     25  C   UNL     1      13.944  37.194  13.105  1.00  0.00    -0.000 C 
BRANCH  25  26
ATOM     26  C   UNL     1      14.659  35.891  13.498  1.00  0.00    -0.000 C 
BRANCH  26  27
ATOM     27  C   UNL     1      14.320  34.716  12.565  1.00  0.00    -0.000 C 
BRANCH  27  28
ATOM     28  C   UNL     1      15.571  33.978  12.063  1.00  0.00    -0.000 C 
BRANCH  28  29
ATOM     29  C   UNL     1      15.718  32.579  12.679  1.00  0.00    -0.003 C 
ATOM     30  C   UNL     1      14.361  32.016  13.090  1.00  0.00     0.004 C 
ENDBRANCH  28  29
ENDBRANCH  27  28
ENDBRANCH  26  27
ENDBRANCH  25  26
ENDBRANCH  24  25
ENDBRANCH  23  24
ENDBRANCH  22  23
ENDBRANCH  21  22
ENDBRANCH  20  21
ENDBRANCH  19  20
ENDBRANCH  18  19
ENDBRANCH  17  18
ENDBRANCH   1  17
TORSDOF 26
ENDMDL
MODEL 5
REMARK VINA RESULT:    -5.676      4.630      8.383
REMARK INTER + INTRA:         -17.892
REMARK INTER:                 -13.763
REMARK INTRA:                  -4.129
REMARK UNBOUND:                -3.588
REMARK SMILES CCCCCCCCCCCCCCCCCCCCCCCCCCCC(=O)[O-]
REMARK SMILES IDX 15 1 16 2 17 3 18 4 19 5 20 6 21 7 22 8 23 9 24 10 25 11
REMARK SMILES IDX 26 12 27 13 28 14 29 15 30 16 14 17 13 18 12 19 11 20 10 21
REMARK SMILES IDX 9 22 8 23 7 24 6 25 5 26 4 27 3 28 2 29 1 30
REMARK H PARENT
REMARK Flexibility Score: inf
ROOT
ATOM      1  C   UNL     1      13.696  45.153   7.322  1.00  0.00     0.000 C 
ENDROOT
BRANCH   1   2
ATOM      2  C   UNL     1      12.811  46.372   7.633  1.00  0.00     0.000 C 
BRANCH   2   3
ATOM      3  C   UNL     1      11.941  46.787   6.435  1.00  0.00     0.000 C 
BRANCH   3   4
ATOM      4  C   UNL     1      10.440  46.773   6.760  1.00  0.00     0.000 C 
BRANCH   4   5
ATOM      5  C   UNL     1       9.729  47.967   6.103  1.00  0.00     0.000 C 
BRANCH   5   6
ATOM      6  C   UNL     1       8.620  48.556   6.989  1.00  0.00     0.000 C 
BRANCH   6   7
ATOM      7  C   UNL     1       7.476  47.559   7.246  1.00  0.00     0.000 C 
BRANCH   7   8
ATOM      8  C   UNL     1       7.115  47.452   8.742  1.00  0.00     0.000 C 
BRANCH   8   9
ATOM      9  C   UNL     1       7.840  46.307   9.478  1.00  0.00     0.000 C 
BRANCH   9  10
ATOM     10  C   UNL     1       7.601  44.906   8.887  1.00  0.00     0.000 C 
BRANCH  10  11
ATOM     11  C   UNL     1       8.889  44.067   8.809  1.00  0.00     0.000 C 
BRANCH  11  12
ATOM     12  C   UNL     1      10.058  44.687   9.597  1.00  0.00     0.006 C 
BRANCH  12  13
ATOM     13  C   UNL     1      10.464  43.882  10.845  1.00  0.00     0.053 C 
BRANCH  13  14
ATOM     14  C   UNL     1       9.453  43.985  11.949  1.00  0.00     0.041 C 
ATOM     15  O   UNL     1       8.585  43.086  12.100  1.00  0.00    -0.550 OA
ATOM     16  O   UNL     1       9.448  45.089  12.792  1.00  0.00    -0.550 OA
ENDBRANCH  13  14
ENDBRANCH  12  13
ENDBRANCH  11  12
ENDBRANCH  10  11
ENDBRANCH   9  10
ENDBRANCH   8   9
ENDBRANCH   7   8
ENDBRANCH   6   7
ENDBRANCH   5   6
ENDBRANCH   4   5
ENDBRANCH   3   4
ENDBRANCH   2   3
ENDBRANCH   1   2
BRANCH   1  17
ATOM     17  C   UNL     1      12.950  43.818   7.468  1.00  0.00     0.000 C 
BRANCH  17  18
ATOM     18  C   UNL     1      13.062  42.933   6.213  1.00  0.00     0.000 C 
BRANCH  18  19
ATOM     19  C   UNL     1      12.180  43.427   5.051  1.00  0.00     0.000 C 
BRANCH  19  20
ATOM     20  C   UNL     1      12.630  42.980   3.644  1.00  0.00     0.000 C 
BRANCH  20  21
ATOM     21  C   UNL     1      14.074  43.360   3.264  1.00  0.00     0.000 C 
BRANCH  21  22
ATOM     22  C   UNL     1      14.503  44.777   3.692  1.00  0.00    -0.000 C 
BRANCH  22  23
ATOM     23  C   UNL     1      15.979  44.872   4.133  1.00  0.00    -0.000 C 
BRANCH  23  24
ATOM     24  C   UNL     1      16.637  43.489   4.300  1.00  0.00    -0.000 C 
BRANCH  24  25
ATOM     25  C   UNL     1      16.560  42.975   5.753  1.00  0.00    -0.000 C 
BRANCH  25  26
ATOM     26  C   UNL     1      17.535  43.681   6.711  1.00  0.00    -0.000 C 
BRANCH  26  27
ATOM     27  C   UNL     1      17.199  43.439   8.193  1.00  0.00    -0.000 C 
BRANCH  27  28
ATOM     28  C   UNL     1      16.168  42.317   8.391  1.00  0.00    -0.000 C 
BRANCH  28  29
ATOM     29  C   UNL     1      16.798  41.024   8.927  1.00  0.00    -0.003 C 
ATOM     30  C   UNL     1      15.727  39.989   9.261  1.00  0.00     0.004 C 
ENDBRANCH  28  29
ENDBRANCH  27  28
ENDBRANCH  26  27
ENDBRANCH  25  26
ENDBRANCH  24  25
ENDBRANCH  23  24
ENDBRANCH  22  23
ENDBRANCH  21  22
ENDBRANCH  20  21
ENDBRANCH  19  20
ENDBRANCH  18  19
ENDBRANCH  17  18
ENDBRANCH   1  17
TORSDOF 26
ENDMDL
MODEL 6
REMARK VINA RESULT:    -5.662      5.845      8.736
REMARK INTER + INTRA:         -17.856
REMARK INTER:                 -12.977
REMARK INTRA:                  -4.879
REMARK UNBOUND:                -3.588
REMARK SMILES CCCCCCCCCCCCCCCCCCCCCCCCCCCC(=O)[O-]
REMARK SMILES IDX 15 1 16 2 17 3 18 4 19 5 20 6 21 7 22 8 23 9 24 10 25 11
REMARK SMILES IDX 26 12 27 13 28 14 29 15 30 16 14 17 13 18 12 19 11 20 10 21
REMARK SMILES IDX 9 22 8 23 7 24 6 25 5 26 4 27 3 28 2 29 1 30
REMARK H PARENT
REMARK Flexibility Score: inf
ROOT
ATOM      1  C   UNL     1      11.813  46.220   6.708  1.00  0.00     0.000 C 
ENDROOT
BRANCH   1   2
ATOM      2  C   UNL     1      13.346  46.225   6.836  1.00  0.00     0.000 C 
BRANCH   2   3
ATOM      3  C   UNL     1      13.898  44.881   7.337  1.00  0.00     0.000 C 
BRANCH   3   4
ATOM      4  C   UNL     1      12.871  43.744   7.233  1.00  0.00     0.000 C 
BRANCH   4   5
ATOM      5  C   UNL     1      13.232  42.786   6.085  1.00  0.00     0.000 C 
BRANCH   5   6
ATOM      6  C   UNL     1      12.109  42.658   5.045  1.00  0.00     0.000 C 
BRANCH   6   7
ATOM      7  C   UNL     1      12.468  43.318   3.701  1.00  0.00     0.000 C 
BRANCH   7   8
ATOM      8  C   UNL     1      13.993  43.395   3.475  1.00  0.00     0.000 C 
BRANCH   8   9
ATOM      9  C   UNL     1      14.562  44.827   3.544  1.00  0.00     0.000 C 
BRANCH   9  10
ATOM     10  C   UNL     1      15.913  44.949   4.272  1.00  0.00     0.000 C 
BRANCH  10  11
ATOM     11  C   UNL     1      16.719  43.639   4.251  1.00  0.00     0.000 C 
BRANCH  11  12
ATOM     12  C   UNL     1      16.693  42.896   5.600  1.00  0.00     0.006 C 
BRANCH  12  13
ATOM     13  C   UNL     1      17.373  43.666   6.747  1.00  0.00     0.053 C 
BRANCH  13  14
ATOM     14  C   UNL     1      17.105  43.052   8.089  1.00  0.00     0.041 C 
ATOM     15  O   UNL     1      17.845  43.323   9.071  1.00  0.00    -0.550 OA
ATOM     16  O   UNL     1      16.056  42.156   8.252  1.00  0.00    -0.550 OA
ENDBRANCH  13  14
ENDBRANCH  12  13
ENDBRANCH  11  12
ENDBRANCH  10  11
ENDBRANCH   9  10
ENDBRANCH   8   9
ENDBRANCH   7   8
ENDBRANCH   6   7
ENDBRANCH   5   6
ENDBRANCH   4   5
ENDBRANCH   3   4
ENDBRANCH   2   3
ENDBRANCH   1   2
BRANCH   1  17
ATOM     17  C   UNL     1      11.312  47.004   5.485  1.00  0.00     0.000 C 
BRANCH  17  18
ATOM     18  C   UNL     1       9.873  47.523   5.660  1.00  0.00     0.000 C 
BRANCH  18  19
ATOM     19  C   UNL     1       9.434  47.587   7.135  1.00  0.00     0.000 C 
BRANCH  19  20
ATOM     20  C   UNL     1       8.160  48.414   7.410  1.00  0.00     0.000 C 
BRANCH  20  21
ATOM     21  C   UNL     1       7.013  47.646   8.095  1.00  0.00     0.000 C 
BRANCH  21  22
ATOM     22  C   UNL     1       6.572  48.221   9.454  1.00  0.00    -0.000 C 
BRANCH  22  23
ATOM     23  C   UNL     1       6.489  47.165  10.577  1.00  0.00    -0.000 C 
BRANCH  23  24
ATOM     24  C   UNL     1       6.165  45.757  10.043  1.00  0.00    -0.000 C 
BRANCH  24  25
ATOM     25  C   UNL     1       7.061  44.670  10.675  1.00  0.00    -0.000 C 
BRANCH  25  26
ATOM     26  C   UNL     1       8.522  45.110  10.870  1.00  0.00    -0.000 C 
BRANCH  26  27
ATOM     27  C   UNL     1       9.382  44.904   9.612  1.00  0.00    -0.000 C 
BRANCH  27  28
ATOM     28  C   UNL     1       8.895  43.731   8.746  1.00  0.00    -0.000 C 
BRANCH  28  29
ATOM     29  C   UNL     1       8.681  44.128   7.279  1.00  0.00    -0.003 C 
ATOM     30  C   UNL     1       7.197  44.138   6.925  1.00  0.00     0.004 C 
ENDBRANCH  28  29
ENDBRANCH  27  28
ENDBRANCH  26  27
ENDBRANCH  25  26
ENDBRANCH  24  25
ENDBRANCH  23  24
ENDBRANCH  22  23
ENDBRANCH  21  22
ENDBRANCH  20  21
ENDBRANCH  19  20
ENDBRANCH  18  19
ENDBRANCH  17  18
ENDBRANCH   1  17
TORSDOF 26
ENDMDL
MODEL 7
REMARK VINA RESULT:    -5.629      5.664      8.765
REMARK INTER + INTRA:         -17.774
REMARK INTER:                 -12.900
REMARK INTRA:                  -4.874
REMARK UNBOUND:                -3.588
REMARK SMILES CCCCCCCCCCCCCCCCCCCCCCCCCCCC(=O)[O-]
REMARK SMILES IDX 15 1 16 2 17 3 18 4 19 5 20 6 21 7 22 8 23 9 24 10 25 11
REMARK SMILES IDX 26 12 27 13 28 14 29 15 30 16 14 17 13 18 12 19 11 20 10 21
REMARK SMILES IDX 9 22 8 23 7 24 6 25 5 26 4 27 3 28 2 29 1 30
REMARK H PARENT
REMARK Flexibility Score: inf
ROOT
ATOM      1  C   UNL     1      11.601  47.517   6.093  1.00  0.00     0.000 C 
ENDROOT
BRANCH   1   2
ATOM      2  C   UNL     1      12.493  46.312   5.751  1.00  0.00     0.000 C 
BRANCH   2   3
ATOM      3  C   UNL     1      13.123  45.675   7.000  1.00  0.00     0.000 C 
BRANCH   3   4
ATOM      4  C   UNL     1      12.743  44.196   7.166  1.00  0.00     0.000 C 
BRANCH   4   5
ATOM      5  C   UNL     1      12.010  43.679   5.917  1.00  0.00     0.000 C 
BRANCH   5   6
ATOM      6  C   UNL     1      12.838  42.654   5.127  1.00  0.00     0.000 C 
BRANCH   6   7
ATOM      7  C   UNL     1      12.950  43.008   3.633  1.00  0.00     0.000 C 
BRANCH   7   8
ATOM      8  C   UNL     1      14.397  43.350   3.218  1.00  0.00     0.000 C 
BRANCH   8   9
ATOM      9  C   UNL     1      14.830  44.783   3.587  1.00  0.00     0.000 C 
BRANCH   9  10
ATOM     10  C   UNL     1      15.909  44.869   4.682  1.00  0.00     0.000 C 
BRANCH  10  11
ATOM     11  C   UNL     1      16.615  43.524   4.926  1.00  0.00     0.000 C 
BRANCH  11  12
ATOM     12  C   UNL     1      17.499  43.530   6.187  1.00  0.00     0.006 C 
BRANCH  12  13
ATOM     13  C   UNL     1      16.803  44.114   7.431  1.00  0.00     0.053 C 
BRANCH  13  14
ATOM     14  C   UNL     1      16.170  43.055   8.285  1.00  0.00     0.041 C 
ATOM     15  O   UNL     1      15.472  43.378   9.282  1.00  0.00    -0.550 OA
ATOM     16  O   UNL     1      16.374  41.712   8.000  1.00  0.00    -0.550 OA
ENDBRANCH  13  14
ENDBRANCH  12  13
ENDBRANCH  11  12
ENDBRANCH  10  11
ENDBRANCH   9  10
ENDBRANCH   8   9
ENDBRANCH   7   8
ENDBRANCH   6   7
ENDBRANCH   5   6
ENDBRANCH   4   5
ENDBRANCH   3   4
ENDBRANCH   2   3
ENDBRANCH   1   2
BRANCH   1  17
ATOM     17  C   UNL     1      10.437  47.154   7.029  1.00  0.00     0.000 C 
BRANCH  17  18
ATOM     18  C   UNL     1       9.065  47.557   6.457  1.00  0.00     0.000 C 
BRANCH  18  19
ATOM     19  C   UNL     1       8.182  48.292   7.481  1.00  0.00     0.000 C 
BRANCH  19  20
ATOM     20  C   UNL     1       7.812  47.479   8.740  1.00  0.00     0.000 C 
BRANCH  20  21
ATOM     21  C   UNL     1       6.316  47.141   8.887  1.00  0.00     0.000 C 
BRANCH  21  22
ATOM     22  C   UNL     1       5.742  46.248   7.771  1.00  0.00    -0.000 C 
BRANCH  22  23
ATOM     23  C   UNL     1       6.041  44.746   7.963  1.00  0.00    -0.000 C 
BRANCH  23  24
ATOM     24  C   UNL     1       6.949  44.177   6.856  1.00  0.00    -0.000 C 
BRANCH  24  25
ATOM     25  C   UNL     1       8.430  44.112   7.288  1.00  0.00    -0.000 C 
BRANCH  25  26
ATOM     26  C   UNL     1       8.628  43.696   8.756  1.00  0.00    -0.000 C 
BRANCH  26  27
ATOM     27  C   UNL     1       9.805  44.420   9.430  1.00  0.00    -0.000 C 
BRANCH  27  28
ATOM     28  C   UNL     1       9.710  44.404  10.964  1.00  0.00    -0.000 C 
BRANCH  28  29
ATOM     29  C   UNL     1       8.277  44.614  11.470  1.00  0.00    -0.003 C 
ATOM     30  C   UNL     1       8.181  45.862  12.343  1.00  0.00     0.004 C 
ENDBRANCH  28  29
ENDBRANCH  27  28
ENDBRANCH  26  27
ENDBRANCH  25  26
ENDBRANCH  24  25
ENDBRANCH  23  24
ENDBRANCH  22  23
ENDBRANCH  21  22
ENDBRANCH  20  21
ENDBRANCH  19  20
ENDBRANCH  18  19
ENDBRANCH  17  18
ENDBRANCH   1  17
TORSDOF 26
ENDMDL
MODEL 8
REMARK VINA RESULT:    -5.627      5.809      8.764
REMARK INTER + INTRA:         -17.768
REMARK INTER:                 -13.329
REMARK INTRA:                  -4.440
REMARK UNBOUND:                -3.588
REMARK SMILES CCCCCCCCCCCCCCCCCCCCCCCCCCCC(=O)[O-]
REMARK SMILES IDX 15 1 16 2 17 3 18 4 19 5 20 6 21 7 22 8 23 9 24 10 25 11
REMARK SMILES IDX 26 12 27 13 28 14 29 15 30 16 14 17 13 18 12 19 11 20 10 21
REMARK SMILES IDX 9 22 8 23 7 24 6 25 5 26 4 27 3 28 2 29 1 30
REMARK H PARENT
REMARK Flexibility Score: inf
ROOT
ATOM      1  C   UNL     1      11.883  46.502   5.707  1.00  0.00     0.000 C 
ENDROOT
BRANCH   1   2
ATOM      2  C   UNL     1      12.502  45.921   6.989  1.00  0.00     0.000 C 
BRANCH   2   3
ATOM      3  C   UNL     1      12.634  44.390   6.936  1.00  0.00     0.000 C 
BRANCH   3   4
ATOM      4  C   UNL     1      11.690  43.751   5.906  1.00  0.00     0.000 C 
BRANCH   4   5
ATOM      5  C   UNL     1      12.415  42.652   5.111  1.00  0.00     0.000 C 
BRANCH   5   6
ATOM      6  C   UNL     1      12.612  43.023   3.634  1.00  0.00     0.000 C 
BRANCH   6   7
ATOM      7  C   UNL     1      14.078  43.343   3.294  1.00  0.00     0.000 C 
BRANCH   7   8
ATOM      8  C   UNL     1      14.474  44.779   3.694  1.00  0.00     0.000 C 
BRANCH   8   9
ATOM      9  C   UNL     1      15.879  44.889   4.320  1.00  0.00     0.000 C 
BRANCH   9  10
ATOM     10  C   UNL     1      16.645  43.558   4.422  1.00  0.00     0.000 C 
BRANCH  10  11
ATOM     11  C   UNL     1      17.151  43.272   5.847  1.00  0.00     0.000 C 
BRANCH  11  12
ATOM     12  C   UNL     1      16.185  42.393   6.662  1.00  0.00     0.006 C 
BRANCH  12  13
ATOM     13  C   UNL     1      15.657  43.070   7.941  1.00  0.00     0.053 C 
BRANCH  13  14
ATOM     14  C   UNL     1      16.668  43.986   8.566  1.00  0.00     0.041 C 
ATOM     15  O   UNL     1      17.677  43.512   9.151  1.00  0.00    -0.550 OA
ATOM     16  O   UNL     1      16.482  45.361   8.529  1.00  0.00    -0.550 OA
ENDBRANCH  13  14
ENDBRANCH  12  13
ENDBRANCH  11  12
ENDBRANCH  10  11
ENDBRANCH   9  10
ENDBRANCH   8   9
ENDBRANCH   7   8
ENDBRANCH   6   7
ENDBRANCH   5   6
ENDBRANCH   4   5
ENDBRANCH   3   4
ENDBRANCH   2   3
ENDBRANCH   1   2
BRANCH   1  17
ATOM     17  C   UNL     1      11.083  47.789   5.959  1.00  0.00     0.000 C 
BRANCH  17  18
ATOM     18  C   UNL     1       9.560  47.558   5.932  1.00  0.00     0.000 C 
BRANCH  18  19
ATOM     19  C   UNL     1       8.895  47.783   7.303  1.00  0.00     0.000 C 
BRANCH  19  20
ATOM     20  C   UNL     1       8.862  46.550   8.231  1.00  0.00     0.000 C 
BRANCH  20  21
ATOM     21  C   UNL     1       8.593  45.206   7.528  1.00  0.00     0.000 C 
BRANCH  21  22
ATOM     22  C   UNL     1       8.957  43.959   8.356  1.00  0.00    -0.000 C 
BRANCH  22  23
ATOM     23  C   UNL     1      10.018  44.226   9.446  1.00  0.00    -0.000 C 
BRANCH  23  24
ATOM     24  C   UNL     1       9.482  43.973  10.868  1.00  0.00    -0.000 C 
BRANCH  24  25
ATOM     25  C   UNL     1       8.052  43.390  10.860  1.00  0.00    -0.000 C 
BRANCH  25  26
ATOM     26  C   UNL     1       7.010  44.301  11.531  1.00  0.00    -0.000 C 
BRANCH  26  27
ATOM     27  C   UNL     1       7.500  45.750  11.698  1.00  0.00    -0.000 C 
BRANCH  27  28
ATOM     28  C   UNL     1       6.581  46.769  11.005  1.00  0.00    -0.000 C 
BRANCH  28  29
ATOM     29  C   UNL     1       6.598  48.142  11.691  1.00  0.00    -0.003 C 
ATOM     30  C   UNL     1       7.453  48.113  12.954  1.00  0.00     0.004 C 
ENDBRANCH  28  29
ENDBRANCH  27  28
ENDBRANCH  26  27
ENDBRANCH  25  26
ENDBRANCH  24  25
ENDBRANCH  23  24
ENDBRANCH  22  23
ENDBRANCH  21  22
ENDBRANCH  20  21
ENDBRANCH  19  20
ENDBRANCH  18  19
ENDBRANCH  17  18
ENDBRANCH   1  17
TORSDOF 26
ENDMDL
MODEL 9
REMARK VINA RESULT:    -5.589      2.316      5.265
REMARK INTER + INTRA:         -17.672
REMARK INTER:                 -14.231
REMARK INTRA:                  -3.442
REMARK UNBOUND:                -3.588
REMARK SMILES CCCCCCCCCCCCCCCCCCCCCCCCCCCC(=O)[O-]
REMARK SMILES IDX 15 1 16 2 17 3 18 4 19 5 20 6 21 7 22 8 23 9 24 10 25 11
REMARK SMILES IDX 26 12 27 13 28 14 29 15 30 16 14 17 13 18 12 19 11 20 10 21
REMARK SMILES IDX 9 22 8 23 7 24 6 25 5 26 4 27 3 28 2 29 1 30
REMARK H PARENT
REMARK Flexibility Score: inf
ROOT
ATOM      1  C   UNL     1      13.029  44.399   4.162  1.00  0.00     0.000 C 
ENDROOT
BRANCH   1   2
ATOM      2  C   UNL     1      14.090  43.444   3.591  1.00  0.00     0.000 C 
BRANCH   2   3
ATOM      3  C   UNL     1      15.497  44.064   3.588  1.00  0.00     0.000 C 
BRANCH   3   4
ATOM      4  C   UNL     1      16.455  43.361   4.562  1.00  0.00     0.000 C 
BRANCH   4   5
ATOM      5  C   UNL     1      16.818  44.289   5.734  1.00  0.00     0.000 C 
BRANCH   5   6
ATOM      6  C   UNL     1      16.729  43.584   7.096  1.00  0.00     0.000 C 
BRANCH   6   7
ATOM      7  C   UNL     1      15.719  42.422   7.096  1.00  0.00     0.000 C 
BRANCH   7   8
ATOM      8  C   UNL     1      15.455  41.874   8.514  1.00  0.00     0.000 C 
BRANCH   8   9
ATOM      9  C   UNL     1      16.338  40.668   8.892  1.00  0.00     0.000 C 
BRANCH   9  10
ATOM     10  C   UNL     1      15.577  39.476   9.502  1.00  0.00     0.000 C 
BRANCH  10  11
ATOM     11  C   UNL     1      14.089  39.784   9.742  1.00  0.00     0.000 C 
BRANCH  11  12
ATOM     12  C   UNL     1      13.288  38.553  10.205  1.00  0.00     0.006 C 
BRANCH  12  13
ATOM     13  C   UNL     1      13.479  38.211  11.694  1.00  0.00     0.053 C 
BRANCH  13  14
ATOM     14  C   UNL     1      12.658  37.030  12.122  1.00  0.00     0.041 C 
ATOM     15  O   UNL     1      11.411  37.028  11.947  1.00  0.00    -0.550 OA
ATOM     16  O   UNL     1      13.263  35.945  12.743  1.00  0.00    -0.550 OA
ENDBRANCH  13  14
ENDBRANCH  12  13
ENDBRANCH  11  12
ENDBRANCH  10  11
ENDBRANCH   9  10
ENDBRANCH   8   9
ENDBRANCH   7   8
ENDBRANCH   6   7
ENDBRANCH   5   6
ENDBRANCH   4   5
ENDBRANCH   3   4
ENDBRANCH   2   3
ENDBRANCH   1   2
BRANCH   1  17
ATOM     17  C   UNL     1      13.536  45.843   4.301  1.00  0.00     0.000 C 
BRANCH  17  18
ATOM     18  C   UNL     1      13.465  46.362   5.749  1.00  0.00     0.000 C 
BRANCH  18  19
ATOM     19  C   UNL     1      13.418  45.228   6.791  1.00  0.00     0.000 C 
BRANCH  19  20
ATOM     20  C   UNL     1      12.800  45.607   8.154  1.00  0.00     0.000 C 
BRANCH  20  21
ATOM     21  C   UNL     1      11.279  45.854   8.139  1.00  0.00     0.000 C 
BRANCH  21  22
ATOM     22  C   UNL     1      10.469  44.851   7.296  1.00  0.00    -0.000 C 
BRANCH  22  23
ATOM     23  C   UNL     1       9.349  44.139   8.085  1.00  0.00    -0.000 C 
BRANCH  23  24
ATOM     24  C   UNL     1       9.550  44.230   9.610  1.00  0.00    -0.000 C 
BRANCH  24  25
ATOM     25  C   UNL     1       8.528  45.174  10.279  1.00  0.00    -0.000 C 
BRANCH  25  26
ATOM     26  C   UNL     1       7.446  45.695   9.319  1.00  0.00    -0.000 C 
BRANCH  26  27
ATOM     27  C   UNL     1       7.650  47.170   8.930  1.00  0.00    -0.000 C 
BRANCH  27  28
ATOM     28  C   UNL     1       7.721  47.377   7.408  1.00  0.00    -0.000 C 
BRANCH  28  29
ATOM     29  C   UNL     1       8.521  48.628   7.019  1.00  0.00    -0.003 C 
ATOM     30  C   UNL     1       9.632  48.284   6.032  1.00  0.00     0.004 C 
ENDBRANCH  28  29
ENDBRANCH  27  28
ENDBRANCH  26  27
ENDBRANCH  25  26
ENDBRANCH  24  25
ENDBRANCH  23  24
ENDBRANCH  22  23
ENDBRANCH  21  22
ENDBRANCH  20  21
ENDBRANCH  19  20
ENDBRANCH  18  19
ENDBRANCH  17  18
ENDBRANCH   1  17
TORSDOF 26
ENDMDL
