MODEL 1
REMARK VINA RESULT:    -3.099      0.000      0.000
REMARK INTER + INTRA:          -5.656
REMARK INTER:                  -4.911
REMARK INTRA:                  -0.744
REMARK UNBOUND:                -0.744
REMARK SMILES CCCCCCCCCCCC(=O)[O-]
REMARK SMILES IDX 7 1 8 2 9 3 10 4 11 5 12 6 13 7 14 8 6 9 5 10 4 11 3 12 2 13
REMARK SMILES IDX 1 14
REMARK H PARENT
REMARK Flexibility Score: inf
ROOT
ATOM      1  C   UNL     1      33.211  37.105   1.962  1.00  0.00     0.000 C 
ENDROOT
BRANCH   1   2
ATOM      2  C   UNL     1      34.536  36.807   2.686  1.00  0.00     0.000 C 
BRANCH   2   3
ATOM      3  C   UNL     1      35.042  38.005   3.504  1.00  0.00     0.000 C 
BRANCH   3   4
ATOM      4  C   UNL     1      34.752  37.860   5.008  1.00  0.00     0.006 C 
BRANCH   4   5
ATOM      5  C   UNL     1      34.013  39.078   5.576  1.00  0.00     0.053 C 
BRANCH   5   6
ATOM      6  C   UNL     1      33.597  38.859   7.000  1.00  0.00     0.041 C 
ATOM      7  O   UNL     1      32.377  38.860   7.311  1.00  0.00    -0.550 OA
ATOM      8  O   UNL     1      34.556  38.619   7.974  1.00  0.00    -0.550 OA
ENDBRANCH   5   6
ENDBRANCH   4   5
ENDBRANCH   3   4
ENDBRANCH   2   3
ENDBRANCH   1   2
BRANCH   1   9
ATOM      9  C   UNL     1      32.904  38.609   1.892  1.00  0.00     0.000 C 
BRANCH   9  10
ATOM     10  C   UNL     1      32.812  39.125   0.445  1.00  0.00    -0.000 C 
BRANCH  10  11
ATOM     11  C   UNL     1      33.940  38.580  -0.447  1.00  0.00    -0.000 C 
BRANCH  11  12
ATOM     12  C   UNL     1      33.408  37.917  -1.730  1.00  0.00    -0.000 C 
BRANCH  12  13
ATOM     13  C   UNL     1      33.105  36.424  -1.537  1.00  0.00    -0.003 C 
ATOM     14  C   UNL     1      32.190  35.862  -2.625  1.00  0.00     0.004 C 
ENDBRANCH  12  13
ENDBRANCH  11  12
ENDBRANCH  10  11
ENDBRANCH   9  10
ENDBRANCH   1   9
TORSDOF 10
ENDMDL
MODEL 2
REMARK VINA RESULT:    -2.410      4.782      7.716
REMARK INTER + INTRA:          -4.564
REMARK INTER:                  -4.431
REMARK INTRA:                  -0.133
REMARK UNBOUND:                -0.744
REMARK SMILES CCCCCCCCCCCC(=O)[O-]
REMARK SMILES IDX 7 1 8 2 9 3 10 4 11 5 12 6 13 7 14 8 6 9 5 10 4 11 3 12 2 13
REMARK SMILES IDX 1 14
REMARK H PARENT
REMARK Flexibility Score: inf
ROOT
ATOM      1  C   UNL     1      33.176  36.671   1.138  1.00  0.00     0.000 C 
ENDROOT
BRANCH   1   2
ATOM      2  C   UNL     1      33.807  36.908  -0.246  1.00  0.00     0.000 C 
BRANCH   2   3
ATOM      3  C   UNL     1      34.438  38.303  -0.374  1.00  0.00     0.000 C 
BRANCH   3   4
ATOM      4  C   UNL     1      34.111  38.979  -1.717  1.00  0.00     0.006 C 
BRANCH   4   5
ATOM      5  C   UNL     1      33.128  38.154  -2.557  1.00  0.00     0.053 C 
BRANCH   5   6
ATOM      6  C   UNL     1      33.463  38.213  -4.017  1.00  0.00     0.041 C 
ATOM      7  O   UNL     1      32.783  37.557  -4.850  1.00  0.00    -0.550 OA
ATOM      8  O   UNL     1      34.503  39.019  -4.459  1.00  0.00    -0.550 OA
ENDBRANCH   5   6
ENDBRANCH   4   5
ENDBRANCH   3   4
ENDBRANCH   2   3
ENDBRANCH   1   2
BRANCH   1   9
ATOM      9  C   UNL     1      34.225  36.363   2.218  1.00  0.00     0.000 C 
BRANCH   9  10
ATOM     10  C   UNL     1      34.983  37.620   2.678  1.00  0.00    -0.000 C 
BRANCH  10  11
ATOM     11  C   UNL     1      35.125  37.696   4.207  1.00  0.00    -0.000 C 
BRANCH  11  12
ATOM     12  C   UNL     1      34.222  38.777   4.829  1.00  0.00    -0.000 C 
BRANCH  12  13
ATOM     13  C   UNL     1      33.764  38.414   6.250  1.00  0.00    -0.003 C 
ATOM     14  C   UNL     1      34.704  38.953   7.328  1.00  0.00     0.004 C 
ENDBRANCH  12  13
ENDBRANCH  11  12
ENDBRANCH  10  11
ENDBRANCH   9  10
ENDBRANCH   1   9
TORSDOF 10
ENDMDL
MODEL 3
REMARK VINA RESULT:    -2.260      5.068      6.925
REMARK INTER + INTRA:          -4.325
REMARK INTER:                  -3.162
REMARK INTRA:                  -1.164
REMARK UNBOUND:                -0.744
REMARK SMILES CCCCCCCCCCCC(=O)[O-]
REMARK SMILES IDX 7 1 8 2 9 3 10 4 11 5 12 6 13 7 14 8 6 9 5 10 4 11 3 12 2 13
REMARK SMILES IDX 1 14
REMARK H PARENT
REMARK Flexibility Score: inf
ROOT
ATOM      1  C   UNL     1      32.622  39.049   1.458  1.00  0.00     0.000 C 
ENDROOT
BRANCH   1   2
ATOM      2  C   UNL     1      32.904  39.125  -0.053  1.00  0.00     0.000 C 
BRANCH   2   3
ATOM      3  C   UNL     1      34.222  38.436  -0.442  1.00  0.00     0.000 C 
BRANCH   3   4
ATOM      4  C   UNL     1      34.582  38.641  -1.924  1.00  0.00     0.006 C 
BRANCH   4   5
ATOM      5  C   UNL     1      33.341  38.877  -2.794  1.00  0.00     0.053 C 
BRANCH   5   6
ATOM      6  C   UNL     1      33.669  38.808  -4.255  1.00  0.00     0.041 C 
ATOM      7  O   UNL     1      32.765  38.559  -5.097  1.00  0.00    -0.550 OA
ATOM      8  O   UNL     1      34.965  39.054  -4.689  1.00  0.00    -0.550 OA
ENDBRANCH   5   6
ENDBRANCH   4   5
ENDBRANCH   3   4
ENDBRANCH   2   3
ENDBRANCH   1   2
BRANCH   1   9
ATOM      9  C   UNL     1      33.910  38.975   2.293  1.00  0.00     0.000 C 
BRANCH   9  10
ATOM     10  C   UNL     1      33.850  37.878   3.371  1.00  0.00    -0.000 C 
BRANCH  10  11
ATOM     11  C   UNL     1      34.941  36.809   3.185  1.00  0.00    -0.000 C 
BRANCH  11  12
ATOM     12  C   UNL     1      34.654  35.877   1.994  1.00  0.00    -0.000 C 
BRANCH  12  13
ATOM     13  C   UNL     1      33.216  35.337   2.003  1.00  0.00    -0.003 C 
ATOM     14  C   UNL     1      32.552  35.406   0.628  1.00  0.00     0.004 C 
ENDBRANCH  12  13
ENDBRANCH  11  12
ENDBRANCH  10  11
ENDBRANCH   9  10
ENDBRANCH   1   9
TORSDOF 10
ENDMDL
MODEL 4
REMARK VINA RESULT:    -1.939      3.276      4.216
REMARK INTER + INTRA:          -3.817
REMARK INTER:                  -3.472
REMARK INTRA:                  -0.345
REMARK UNBOUND:                -0.744
REMARK SMILES CCCCCCCCCCCC(=O)[O-]
REMARK SMILES IDX 7 1 8 2 9 3 10 4 11 5 12 6 13 7 14 8 6 9 5 10 4 11 3 12 2 13
REMARK SMILES IDX 1 14
REMARK H PARENT
REMARK Flexibility Score: inf
ROOT
ATOM      1  C   UNL     1      35.112  37.767   1.323  1.00  0.00     0.000 C 
ENDROOT
BRANCH   1   2
ATOM      2  C   UNL     1      34.626  38.398   2.640  1.00  0.00     0.000 C 
BRANCH   2   3
ATOM      3  C   UNL     1      33.461  37.620   3.271  1.00  0.00     0.000 C 
BRANCH   3   4
ATOM      4  C   UNL     1      32.236  37.533   2.344  1.00  0.00     0.006 C 
BRANCH   4   5
ATOM      5  C   UNL     1      31.777  36.086   2.125  1.00  0.00     0.053 C 
BRANCH   5   6
ATOM      6  C   UNL     1      32.729  35.330   1.247  1.00  0.00     0.041 C 
ATOM      7  O   UNL     1      32.667  35.450  -0.005  1.00  0.00    -0.550 OA
ATOM      8  O   UNL     1      33.704  34.522   1.815  1.00  0.00    -0.550 OA
ENDBRANCH   5   6
ENDBRANCH   4   5
ENDBRANCH   3   4
ENDBRANCH   2   3
ENDBRANCH   1   2
BRANCH   1   9
ATOM      9  C   UNL     1      34.810  38.651   0.101  1.00  0.00     0.000 C 
BRANCH   9  10
ATOM     10  C   UNL     1      33.335  39.087   0.041  1.00  0.00    -0.000 C 
BRANCH  10  11
ATOM     11  C   UNL     1      32.789  39.119  -1.396  1.00  0.00    -0.000 C 
BRANCH  11  12
ATOM     12  C   UNL     1      33.247  37.906  -2.226  1.00  0.00    -0.000 C 
BRANCH  12  13
ATOM     13  C   UNL     1      33.873  38.316  -3.568  1.00  0.00    -0.003 C 
ATOM     14  C   UNL     1      32.913  39.119  -4.446  1.00  0.00     0.004 C 
ENDBRANCH  12  13
ENDBRANCH  11  12
ENDBRANCH  10  11
ENDBRANCH   9  10
ENDBRANCH   1   9
TORSDOF 10
ENDMDL
MODEL 5
REMARK VINA RESULT:    -1.930      1.838      2.804
REMARK INTER + INTRA:          -3.803
REMARK INTER:                  -3.818
REMARK INTRA:                   0.015
REMARK UNBOUND:                -0.744
REMARK SMILES CCCCCCCCCCCC(=O)[O-]
REMARK SMILES IDX 7 1 8 2 9 3 10 4 11 5 12 6 13 7 14 8 6 9 5 10 4 11 3 12 2 13
REMARK SMILES IDX 1 14
REMARK H PARENT
REMARK Flexibility Score: inf
ROOT
ATOM      1  C   UNL     1      33.444  36.596   0.212  1.00  0.00     0.000 C 
ENDROOT
BRANCH   1   2
ATOM      2  C   UNL     1      34.767  37.372   0.337  1.00  0.00     0.000 C 
BRANCH   2   3
ATOM      3  C   UNL     1      34.930  38.039   1.712  1.00  0.00     0.000 C 
BRANCH   3   4
ATOM      4  C   UNL     1      33.719  37.803   2.632  1.00  0.00     0.006 C 
BRANCH   4   5
ATOM      5  C   UNL     1      33.562  38.913   3.679  1.00  0.00     0.053 C 
BRANCH   5   6
ATOM      6  C   UNL     1      33.928  38.434   5.051  1.00  0.00     0.041 C 
ATOM      7  O   UNL     1      35.088  38.000   5.284  1.00  0.00    -0.550 OA
ATOM      8  O   UNL     1      33.000  38.501   6.081  1.00  0.00    -0.550 OA
ENDBRANCH   5   6
ENDBRANCH   4   5
ENDBRANCH   3   4
ENDBRANCH   2   3
ENDBRANCH   1   2
BRANCH   1   9
ATOM      9  C   UNL     1      33.216  36.047  -1.206  1.00  0.00     0.000 C 
BRANCH   9  10
ATOM     10  C   UNL     1      32.477  37.048  -2.112  1.00  0.00    -0.000 C 
BRANCH  10  11
ATOM     11  C   UNL     1      33.115  38.447  -2.087  1.00  0.00    -0.000 C 
BRANCH  11  12
ATOM     12  C   UNL     1      34.480  38.484  -2.796  1.00  0.00    -0.000 C 
BRANCH  12  13
ATOM     13  C   UNL     1      34.401  39.125  -4.190  1.00  0.00    -0.003 C 
ATOM     14  C   UNL     1      33.001  39.042  -4.799  1.00  0.00     0.004 C 
ENDBRANCH  12  13
ENDBRANCH  11  12
ENDBRANCH  10  11
ENDBRANCH   9  10
ENDBRANCH   1   9
TORSDOF 10
ENDMDL
MODEL 6
REMARK VINA RESULT:    -0.104      3.763      6.621
REMARK INTER + INTRA:          -0.910
REMARK INTER:                  -2.336
REMARK INTRA:                   1.427
REMARK UNBOUND:                -0.744
REMARK SMILES CCCCCCCCCCCC(=O)[O-]
REMARK SMILES IDX 7 1 8 2 9 3 10 4 11 5 12 6 13 7 14 8 6 9 5 10 4 11 3 12 2 13
REMARK SMILES IDX 1 14
REMARK H PARENT
REMARK Flexibility Score: inf
ROOT
ATOM      1  C   UNL     1      32.292  38.461   2.182  1.00  0.00     0.000 C 
ENDROOT
BRANCH   1   2
ATOM      2  C   UNL     1      32.355  39.044   0.759  1.00  0.00     0.000 C 
BRANCH   2   3
ATOM      3  C   UNL     1      33.776  39.015   0.173  1.00  0.00     0.000 C 
BRANCH   3   4
ATOM      4  C   UNL     1      33.802  38.550  -1.294  1.00  0.00     0.006 C 
BRANCH   4   5
ATOM      5  C   UNL     1      32.511  37.825  -1.695  1.00  0.00     0.053 C 
BRANCH   5   6
ATOM      6  C   UNL     1      32.704  36.340  -1.751  1.00  0.00     0.041 C 
ATOM      7  O   UNL     1      33.093  35.712  -0.731  1.00  0.00    -0.550 OA
ATOM      8  O   UNL     1      32.421  35.647  -2.920  1.00  0.00    -0.550 OA
ENDBRANCH   5   6
ENDBRANCH   4   5
ENDBRANCH   3   4
ENDBRANCH   2   3
ENDBRANCH   1   2
BRANCH   1   9
ATOM      9  C   UNL     1      33.013  37.108   2.295  1.00  0.00     0.000 C 
BRANCH   9  10
ATOM     10  C   UNL     1      34.540  37.241   2.158  1.00  0.00    -0.000 C 
BRANCH  10  11
ATOM     11  C   UNL     1      35.125  38.309   3.097  1.00  0.00    -0.000 C 
BRANCH  11  12
ATOM     12  C   UNL     1      34.033  39.125   3.812  1.00  0.00    -0.000 C 
BRANCH  12  13
ATOM     13  C   UNL     1      34.187  39.099   5.341  1.00  0.00    -0.003 C 
ATOM     14  C   UNL     1      33.201  38.146   6.016  1.00  0.00     0.004 C 
ENDBRANCH  12  13
ENDBRANCH  11  12
ENDBRANCH  10  11
ENDBRANCH   9  10
ENDBRANCH   1   9
TORSDOF 10
ENDMDL
