MODEL 1
REMARK VINA RESULT:    -2.870      0.000      0.000
REMARK INTER + INTRA:          -3.472
REMARK INTER:                  -3.373
REMARK INTRA:                  -0.098
REMARK UNBOUND:                -0.098
REMARK SMILES CCCCC(=O)[O-]
REMARK SMILES IDX 4 1 5 2 6 3 7 4 3 5 2 6 1 7
REMARK H PARENT
REMARK Flexibility Score: inf
ROOT
ATOM      1  C   UNL     1      -2.310   1.049 -23.358  1.00  0.00     0.053 C 
ENDROOT
BRANCH   1   2
ATOM      2  C   UNL     1      -0.943   1.447 -23.817  1.00  0.00     0.041 C 
ATOM      3  O   UNL     1      -0.053   0.574 -23.992  1.00  0.00    -0.550 OA
ATOM      4  O   UNL     1      -0.636   2.788 -24.006  1.00  0.00    -0.550 OA
ENDBRANCH   1   2
BRANCH   1   5
ATOM      5  C   UNL     1      -2.477   1.333 -21.862  1.00  0.00     0.006 C 
BRANCH   5   6
ATOM      6  C   UNL     1      -3.332   2.584 -21.632  1.00  0.00    -0.003 C 
ATOM      7  C   UNL     1      -4.192   2.897 -22.853  1.00  0.00     0.004 C 
ENDBRANCH   5   6
ENDBRANCH   1   5
TORSDOF 3
ENDMDL
MODEL 2
REMARK VINA RESULT:    -2.825     10.190     11.589
REMARK INTER + INTRA:          -3.419
REMARK INTER:                  -3.385
REMARK INTRA:                  -0.033
REMARK UNBOUND:                -0.098
REMARK SMILES CCCCC(=O)[O-]
REMARK SMILES IDX 4 1 5 2 6 3 7 4 3 5 2 6 1 7
REMARK H PARENT
REMARK Flexibility Score: inf
ROOT
ATOM      1  C   UNL     1     -11.212   7.150 -19.191  1.00  0.00     0.053 C 
ENDROOT
BRANCH   1   2
ATOM      2  C   UNL     1      -9.813   7.124 -18.663  1.00  0.00     0.041 C 
ATOM      3  O   UNL     1      -9.417   8.020 -17.870  1.00  0.00    -0.550 OA
ATOM      4  O   UNL     1      -8.929   6.138 -19.082  1.00  0.00    -0.550 OA
ENDBRANCH   1   2
BRANCH   1   5
ATOM      5  C   UNL     1     -11.722   8.591 -19.287  1.00  0.00     0.006 C 
BRANCH   5   6
ATOM      6  C   UNL     1     -13.069   8.651 -20.017  1.00  0.00    -0.003 C 
ATOM      7  C   UNL     1     -13.043   7.814 -21.292  1.00  0.00     0.004 C 
ENDBRANCH   5   6
ENDBRANCH   1   5
TORSDOF 3
ENDMDL
MODEL 3
REMARK VINA RESULT:    -2.819     10.988     11.860
REMARK INTER + INTRA:          -3.411
REMARK INTER:                  -3.376
REMARK INTRA:                  -0.035
REMARK UNBOUND:                -0.098
REMARK SMILES CCCCC(=O)[O-]
REMARK SMILES IDX 4 1 5 2 6 3 7 4 3 5 2 6 1 7
REMARK H PARENT
REMARK Flexibility Score: inf
ROOT
ATOM      1  C   UNL     1     -10.462   8.794 -18.737  1.00  0.00     0.053 C 
ENDROOT
BRANCH   1   2
ATOM      2  C   UNL     1      -9.274   8.581 -17.853  1.00  0.00     0.041 C 
ATOM      3  O   UNL     1      -8.358   7.790 -18.201  1.00  0.00    -0.550 OA
ATOM      4  O   UNL     1      -9.201   9.219 -16.622  1.00  0.00    -0.550 OA
ENDBRANCH   1   2
BRANCH   1   5
ATOM      5  C   UNL     1     -11.048   7.450 -19.180  1.00  0.00     0.006 C 
BRANCH   5   6
ATOM      6  C   UNL     1     -12.400   7.643 -19.878  1.00  0.00    -0.003 C 
ATOM      7  C   UNL     1     -13.145   8.848 -19.313  1.00  0.00     0.004 C 
ENDBRANCH   5   6
ENDBRANCH   1   5
TORSDOF 3
ENDMDL
MODEL 4
REMARK VINA RESULT:    -2.811     11.870     12.426
REMARK INTER + INTRA:          -3.402
REMARK INTER:                  -3.334
REMARK INTRA:                  -0.069
REMARK UNBOUND:                -0.098
REMARK SMILES CCCCC(=O)[O-]
REMARK SMILES IDX 4 1 5 2 6 3 7 4 3 5 2 6 1 7
REMARK H PARENT
REMARK Flexibility Score: inf
ROOT
ATOM      1  C   UNL     1     -12.447   8.488 -19.446  1.00  0.00     0.053 C 
ENDROOT
BRANCH   1   2
ATOM      2  C   UNL     1     -11.234   9.363 -19.390  1.00  0.00     0.041 C 
ATOM      3  O   UNL     1     -10.847   9.977 -20.418  1.00  0.00    -0.550 OA
ATOM      4  O   UNL     1     -10.503   9.463 -18.213  1.00  0.00    -0.550 OA
ENDBRANCH   1   2
BRANCH   1   5
ATOM      5  C   UNL     1     -12.041   7.012 -19.487  1.00  0.00     0.006 C 
BRANCH   5   6
ATOM      6  C   UNL     1     -12.321   6.402 -20.865  1.00  0.00    -0.003 C 
ATOM      7  C   UNL     1     -13.113   7.366 -21.744  1.00  0.00     0.004 C 
ENDBRANCH   5   6
ENDBRANCH   1   5
TORSDOF 3
ENDMDL
MODEL 5
REMARK VINA RESULT:    -2.755     11.310     12.099
REMARK INTER + INTRA:          -3.337
REMARK INTER:                  -3.275
REMARK INTRA:                  -0.061
REMARK UNBOUND:                -0.098
REMARK SMILES CCCCC(=O)[O-]
REMARK SMILES IDX 4 1 5 2 6 3 7 4 3 5 2 6 1 7
REMARK H PARENT
REMARK Flexibility Score: inf
ROOT
ATOM      1  C   UNL     1     -12.063   7.051 -19.650  1.00  0.00     0.053 C 
ENDROOT
BRANCH   1   2
ATOM      2  C   UNL     1     -12.479   6.618 -21.020  1.00  0.00     0.041 C 
ATOM      3  O   UNL     1     -12.058   5.533 -21.498  1.00  0.00    -0.550 OA
ATOM      4  O   UNL     1     -13.296   7.437 -21.789  1.00  0.00    -0.550 OA
ENDBRANCH   1   2
BRANCH   1   5
ATOM      5  C   UNL     1     -12.375   8.535 -19.438  1.00  0.00     0.006 C 
BRANCH   5   6
ATOM      6  C   UNL     1     -11.143   9.289 -18.925  1.00  0.00    -0.003 C 
ATOM      7  C   UNL     1     -10.007   8.327 -18.592  1.00  0.00     0.004 C 
ENDBRANCH   5   6
ENDBRANCH   1   5
TORSDOF 3
ENDMDL
MODEL 6
REMARK VINA RESULT:    -2.697     10.434     11.699
REMARK INTER + INTRA:          -3.268
REMARK INTER:                  -3.195
REMARK INTRA:                  -0.072
REMARK UNBOUND:                -0.098
REMARK SMILES CCCCC(=O)[O-]
REMARK SMILES IDX 4 1 5 2 6 3 7 4 3 5 2 6 1 7
REMARK H PARENT
REMARK Flexibility Score: inf
ROOT
ATOM      1  C   UNL     1     -11.955   6.747 -22.312  1.00  0.00     0.053 C 
ENDROOT
BRANCH   1   2
ATOM      2  C   UNL     1     -11.783   5.392 -21.701  1.00  0.00     0.041 C 
ATOM      3  O   UNL     1     -11.362   4.431 -22.398  1.00  0.00    -0.550 OA
ATOM      4  O   UNL     1     -12.131   5.178 -20.374  1.00  0.00    -0.550 OA
ENDBRANCH   1   2
BRANCH   1   5
ATOM      5  C   UNL     1     -13.052   7.527 -21.583  1.00  0.00     0.006 C 
BRANCH   5   6
ATOM      6  C   UNL     1     -12.451   8.626 -20.700  1.00  0.00    -0.003 C 
ATOM      7  C   UNL     1     -13.176   8.716 -19.361  1.00  0.00     0.004 C 
ENDBRANCH   5   6
ENDBRANCH   1   5
TORSDOF 3
ENDMDL
MODEL 7
REMARK VINA RESULT:    -2.689     11.523     12.414
REMARK INTER + INTRA:          -3.258
REMARK INTER:                  -3.167
REMARK INTRA:                  -0.091
REMARK UNBOUND:                -0.098
REMARK SMILES CCCCC(=O)[O-]
REMARK SMILES IDX 4 1 5 2 6 3 7 4 3 5 2 6 1 7
REMARK H PARENT
REMARK Flexibility Score: inf
ROOT
ATOM      1  C   UNL     1     -11.935   7.021 -19.269  1.00  0.00     0.053 C 
ENDROOT
BRANCH   1   2
ATOM      2  C   UNL     1     -12.759   8.079 -19.931  1.00  0.00     0.041 C 
ATOM      3  O   UNL     1     -13.384   8.924 -19.237  1.00  0.00    -0.550 OA
ATOM      4  O   UNL     1     -12.877   8.106 -21.315  1.00  0.00    -0.550 OA
ENDBRANCH   1   2
BRANCH   1   5
ATOM      5  C   UNL     1     -10.443   7.299 -19.473  1.00  0.00     0.006 C 
BRANCH   5   6
ATOM      6  C   UNL     1      -9.783   7.745 -18.164  1.00  0.00    -0.003 C 
ATOM      7  C   UNL     1      -9.751   9.266 -18.053  1.00  0.00     0.004 C 
ENDBRANCH   5   6
ENDBRANCH   1   5
TORSDOF 3
ENDMDL
MODEL 8
REMARK VINA RESULT:    -2.656     11.113     11.748
REMARK INTER + INTRA:          -3.220
REMARK INTER:                  -3.086
REMARK INTRA:                  -0.134
REMARK UNBOUND:                -0.098
REMARK SMILES CCCCC(=O)[O-]
REMARK SMILES IDX 4 1 5 2 6 3 7 4 3 5 2 6 1 7
REMARK H PARENT
REMARK Flexibility Score: inf
ROOT
ATOM      1  C   UNL     1     -13.105   7.595 -21.567  1.00  0.00     0.053 C 
ENDROOT
BRANCH   1   2
ATOM      2  C   UNL     1     -11.894   7.495 -22.440  1.00  0.00     0.041 C 
ATOM      3  O   UNL     1     -11.677   6.449 -23.106  1.00  0.00    -0.550 OA
ATOM      4  O   UNL     1     -10.979   8.538 -22.481  1.00  0.00    -0.550 OA
ENDBRANCH   1   2
BRANCH   1   5
ATOM      5  C   UNL     1     -12.725   8.125 -20.181  1.00  0.00     0.006 C 
BRANCH   5   6
ATOM      6  C   UNL     1     -12.039   7.037 -19.346  1.00  0.00    -0.003 C 
ATOM      7  C   UNL     1     -10.631   7.459 -18.941  1.00  0.00     0.004 C 
ENDBRANCH   5   6
ENDBRANCH   1   5
TORSDOF 3
ENDMDL
MODEL 9
REMARK VINA RESULT:    -2.591      2.445      3.015
REMARK INTER + INTRA:          -3.144
REMARK INTER:                  -3.108
REMARK INTRA:                  -0.036
REMARK UNBOUND:                -0.098
REMARK SMILES CCCCC(=O)[O-]
REMARK SMILES IDX 4 1 5 2 6 3 7 4 3 5 2 6 1 7
REMARK H PARENT
REMARK Flexibility Score: inf
ROOT
ATOM      1  C   UNL     1      -1.637   4.614 -23.138  1.00  0.00     0.053 C 
ENDROOT
BRANCH   1   2
ATOM      2  C   UNL     1      -0.281   4.919 -23.691  1.00  0.00     0.041 C 
ATOM      3  O   UNL     1       0.545   3.991 -23.896  1.00  0.00    -0.550 OA
ATOM      4  O   UNL     1       0.090   6.235 -23.936  1.00  0.00    -0.550 OA
ENDBRANCH   1   2
BRANCH   1   5
ATOM      5  C   UNL     1      -1.944   3.119 -23.268  1.00  0.00     0.006 C 
BRANCH   5   6
ATOM      6  C   UNL     1      -2.611   2.582 -21.997  1.00  0.00    -0.003 C 
ATOM      7  C   UNL     1      -2.443   1.071 -21.882  1.00  0.00     0.004 C 
ENDBRANCH   5   6
ENDBRANCH   1   5
TORSDOF 3
ENDMDL
