MODEL 1
REMARK VINA RESULT:    -6.358      0.000      0.000
REMARK INTER + INTRA:          -9.785
REMARK INTER:                  -8.773
REMARK INTRA:                  -1.011
REMARK UNBOUND:                -1.011
REMARK SMILES O=C([O-])[C@@H]1O[C@H](Oc2cc3oc(-c4ccccc4)cc(=O)c3c(O)c2O)[C@@H](O)[C@@H](O)[C@@H]1O
REMARK SMILES IDX 7 1 6 2 4 3 31 4 5 5 29 6 27 7 2 8 1 9 3 10 32 11 30 13
REMARK SMILES IDX 28 15 8 17 25 18 9 19 23 20 10 21 22 22 11 23 20 24 12 25
REMARK SMILES IDX 19 26 21 27 26 28 24 30 13 32 14 33 18 34 15 35 17 36 16 37
REMARK H PARENT 32 12 30 14 28 16 26 29 24 31
REMARK Flexibility Score: inf
ROOT
ATOM      1  O   UNL     1      -1.016  24.719  36.393  1.00  0.00    -0.458 OA
ENDROOT
BRANCH   1   2
ATOM      2  C   UNL     1      -0.734  24.790  37.792  1.00  0.00     0.339 C 
ATOM      3  C   UNL     1      -1.714  25.287  39.848  1.00  0.00     0.199 C 
ATOM      4  C   UNL     1      -1.283  23.961  40.511  1.00  0.00     0.180 C 
ATOM      5  O   UNL     1      -1.945  25.093  38.463  1.00  0.00    -0.328 OA
ATOM      6  C   UNL     1      -0.025  23.399  39.812  1.00  0.00     0.181 C 
ATOM      7  C   UNL     1      -0.176  23.431  38.273  1.00  0.00     0.214 C 
BRANCH   3   8
ATOM      8  C   UNL     1      -2.971  25.802  40.488  1.00  0.00     0.073 C 
ATOM      9  O   UNL     1      -2.964  26.908  41.091  1.00  0.00    -0.547 OA
ATOM     10  O   UNL     1      -4.135  25.041  40.464  1.00  0.00    -0.547 OA
ENDBRANCH   3   8
BRANCH   4  11
ATOM     11  O   UNL     1      -2.331  23.028  40.422  1.00  0.00    -0.387 OA
ATOM     12  H   UNL     1      -2.126  22.301  41.067  1.00  0.00     0.211 HD
ENDBRANCH   4  11
BRANCH   6  13
ATOM     13  O   UNL     1       1.136  24.068  40.244  1.00  0.00    -0.387 OA
ATOM     14  H   UNL     1       1.466  24.639  39.506  1.00  0.00     0.211 HD
ENDBRANCH   6  13
BRANCH   7  15
ATOM     15  O   UNL     1       1.072  23.179  37.678  1.00  0.00    -0.384 OA
ATOM     16  H   UNL     1       1.360  22.274  37.965  1.00  0.00     0.211 HD
ENDBRANCH   7  15
ENDBRANCH   1   2
BRANCH   1  17
ATOM     17  C   UNL     1      -0.757  25.767  35.502  1.00  0.00     0.172 A 
ATOM     18  C   UNL     1      -1.266  27.063  35.712  1.00  0.00     0.201 A 
ATOM     19  C   UNL     1      -0.004  25.498  34.359  1.00  0.00     0.098 A 
ATOM     20  C   UNL     1      -0.940  28.106  34.830  1.00  0.00     0.176 A 
ATOM     21  C   UNL     1       0.343  26.523  33.478  1.00  0.00     0.146 A 
ATOM     22  C   UNL     1      -0.084  27.854  33.719  1.00  0.00     0.111 A 
ATOM     23  O   UNL     1       1.089  26.228  32.418  1.00  0.00    -0.456 OA
ATOM     24  C   UNL     1       0.400  28.848  32.836  1.00  0.00     0.197 A 
ATOM     25  C   UNL     1       1.497  27.133  31.536  1.00  0.00     0.138 A 
ATOM     26  C   UNL     1       1.172  28.482  31.734  1.00  0.00     0.100 A 
ATOM     27  O   UNL     1       0.187  30.073  33.032  1.00  0.00    -0.289 OA
BRANCH  18  28
ATOM     28  O   UNL     1      -2.148  27.330  36.763  1.00  0.00    -0.502 OA
ATOM     29  H   UNL     1      -2.943  26.741  36.970  1.00  0.00     0.293 HD
ENDBRANCH  18  28
BRANCH  20  30
ATOM     30  O   UNL     1      -1.532  29.350  35.077  1.00  0.00    -0.504 OA
ATOM     31  H   UNL     1      -2.424  29.641  34.709  1.00  0.00     0.293 HD
ENDBRANCH  20  30
BRANCH  25  32
ATOM     32  C   UNL     1       2.312  26.688  30.379  1.00  0.00     0.017 A 
ATOM     33  C   UNL     1       1.920  27.046  29.078  1.00  0.00     0.012 A 
ATOM     34  C   UNL     1       3.492  25.939  30.552  1.00  0.00     0.012 A 
ATOM     35  C   UNL     1       2.677  26.643  27.972  1.00  0.00     0.001 A 
ATOM     36  C   UNL     1       4.247  25.542  29.443  1.00  0.00     0.001 A 
ATOM     37  C   UNL     1       3.837  25.890  28.154  1.00  0.00     0.000 A 
ENDBRANCH  25  32
ENDBRANCH   1  17
TORSDOF 9
ENDMDL
MODEL 2
REMARK VINA RESULT:    -6.231      1.387      2.617
REMARK INTER + INTRA:          -9.610
REMARK INTER:                  -8.513
REMARK INTRA:                  -1.097
REMARK UNBOUND:                -1.011
REMARK SMILES O=C([O-])[C@@H]1O[C@H](Oc2cc3oc(-c4ccccc4)cc(=O)c3c(O)c2O)[C@@H](O)[C@@H](O)[C@@H]1O
REMARK SMILES IDX 7 1 6 2 4 3 31 4 5 5 29 6 27 7 2 8 1 9 3 10 32 11 30 13
REMARK SMILES IDX 28 15 8 17 25 18 9 19 23 20 10 21 22 22 11 23 20 24 12 25
REMARK SMILES IDX 19 26 21 27 26 28 24 30 13 32 14 33 18 34 15 35 17 36 16 37
REMARK H PARENT 32 12 30 14 28 16 26 29 24 31
REMARK Flexibility Score: inf
ROOT
ATOM      1  O   UNL     1      -1.769  24.406  35.828  1.00  0.00    -0.458 OA
ENDROOT
BRANCH   1   2
ATOM      2  C   UNL     1      -1.081  23.803  36.926  1.00  0.00     0.339 C 
ATOM      3  C   UNL     1       0.959  23.815  38.055  1.00  0.00     0.199 C 
ATOM      4  C   UNL     1       0.325  24.039  39.445  1.00  0.00     0.180 C 
ATOM      5  O   UNL     1       0.178  24.442  37.052  1.00  0.00    -0.328 OA
ATOM      6  C   UNL     1      -1.126  23.510  39.461  1.00  0.00     0.181 C 
ATOM      7  C   UNL     1      -1.910  23.986  38.216  1.00  0.00     0.214 C 
BRANCH   3   8
ATOM      8  C   UNL     1       2.349  24.383  38.021  1.00  0.00     0.073 C 
ATOM      9  O   UNL     1       2.519  25.627  37.912  1.00  0.00    -0.547 OA
ATOM     10  O   UNL     1       3.455  23.540  38.057  1.00  0.00    -0.547 OA
ENDBRANCH   3   8
BRANCH   4  11
ATOM     11  O   UNL     1       0.334  25.411  39.752  1.00  0.00    -0.387 OA
ATOM     12  H   UNL     1      -0.463  25.584  40.319  1.00  0.00     0.211 HD
ENDBRANCH   4  11
BRANCH   6  13
ATOM     13  O   UNL     1      -1.153  22.110  39.601  1.00  0.00    -0.387 OA
ATOM     14  H   UNL     1      -0.733  21.703  38.803  1.00  0.00     0.211 HD
ENDBRANCH   6  13
BRANCH   7  15
ATOM     15  O   UNL     1      -3.117  23.270  38.125  1.00  0.00    -0.384 OA
ATOM     16  H   UNL     1      -3.181  22.915  37.201  1.00  0.00     0.211 HD
ENDBRANCH   7  15
ENDBRANCH   1   2
BRANCH   1  17
ATOM     17  C   UNL     1      -1.301  25.543  35.159  1.00  0.00     0.172 A 
ATOM     18  C   UNL     1      -1.567  26.844  35.630  1.00  0.00     0.201 A 
ATOM     19  C   UNL     1      -0.585  25.371  33.974  1.00  0.00     0.098 A 
ATOM     20  C   UNL     1      -1.035  27.961  34.967  1.00  0.00     0.176 A 
ATOM     21  C   UNL     1      -0.036  26.467  33.309  1.00  0.00     0.146 A 
ATOM     22  C   UNL     1      -0.215  27.780  33.815  1.00  0.00     0.111 A 
ATOM     23  O   UNL     1       0.666  26.254  32.201  1.00  0.00    -0.456 OA
ATOM     24  C   UNL     1       0.463  28.822  33.139  1.00  0.00     0.197 A 
ATOM     25  C   UNL     1       1.253  27.225  31.509  1.00  0.00     0.138 A 
ATOM     26  C   UNL     1       1.178  28.544  31.975  1.00  0.00     0.100 A 
ATOM     27  O   UNL     1       0.475  30.002  33.577  1.00  0.00    -0.289 OA
BRANCH  18  28
ATOM     28  O   UNL     1      -2.407  27.057  36.726  1.00  0.00    -0.502 OA
ATOM     29  H   UNL     1      -2.682  27.981  37.030  1.00  0.00     0.293 HD
ENDBRANCH  18  28
BRANCH  20  30
ATOM     30  O   UNL     1      -1.392  29.220  35.464  1.00  0.00    -0.504 OA
ATOM     31  H   UNL     1      -1.104  29.582  36.360  1.00  0.00     0.293 HD
ENDBRANCH  20  30
BRANCH  25  32
ATOM     32  C   UNL     1       1.997  26.873  30.275  1.00  0.00     0.017 A 
ATOM     33  C   UNL     1       1.602  27.429  29.046  1.00  0.00     0.012 A 
ATOM     34  C   UNL     1       3.116  26.018  30.305  1.00  0.00     0.012 A 
ATOM     35  C   UNL     1       2.293  27.118  27.870  1.00  0.00     0.001 A 
ATOM     36  C   UNL     1       3.805  25.713  29.126  1.00  0.00     0.001 A 
ATOM     37  C   UNL     1       3.392  26.259  27.909  1.00  0.00     0.000 A 
ENDBRANCH  25  32
ENDBRANCH   1  17
TORSDOF 9
ENDMDL
MODEL 3
REMARK VINA RESULT:    -6.216      1.759      3.387
REMARK INTER + INTRA:          -9.590
REMARK INTER:                  -8.486
REMARK INTRA:                  -1.104
REMARK UNBOUND:                -1.011
REMARK SMILES O=C([O-])[C@@H]1O[C@H](Oc2cc3oc(-c4ccccc4)cc(=O)c3c(O)c2O)[C@@H](O)[C@@H](O)[C@@H]1O
REMARK SMILES IDX 7 1 6 2 4 3 31 4 5 5 29 6 27 7 2 8 1 9 3 10 32 11 30 13
REMARK SMILES IDX 28 15 8 17 25 18 9 19 23 20 10 21 22 22 11 23 20 24 12 25
REMARK SMILES IDX 19 26 21 27 26 28 24 30 13 32 14 33 18 34 15 35 17 36 16 37
REMARK H PARENT 32 12 30 14 28 16 26 29 24 31
REMARK Flexibility Score: inf
ROOT
ATOM      1  O   UNL     1      -1.852  26.451  34.200  1.00  0.00    -0.458 OA
ENDROOT
BRANCH   1   2
ATOM      2  C   UNL     1      -1.704  25.735  35.429  1.00  0.00     0.339 C 
ATOM      3  C   UNL     1      -0.112  25.086  37.004  1.00  0.00     0.199 C 
ATOM      4  C   UNL     1      -0.894  25.655  38.207  1.00  0.00     0.180 C 
ATOM      5  O   UNL     1      -0.355  25.866  35.846  1.00  0.00    -0.328 OA
ATOM      6  C   UNL     1      -2.404  25.712  37.883  1.00  0.00     0.181 C 
ATOM      7  C   UNL     1      -2.656  26.332  36.489  1.00  0.00     0.214 C 
BRANCH   3   8
ATOM      8  C   UNL     1       1.361  25.087  37.295  1.00  0.00     0.073 C 
ATOM      9  O   UNL     1       2.190  25.198  36.353  1.00  0.00    -0.547 OA
ATOM     10  O   UNL     1       1.821  24.913  38.597  1.00  0.00    -0.547 OA
ENDBRANCH   3   8
BRANCH   4  11
ATOM     11  O   UNL     1      -0.425  26.946  38.506  1.00  0.00    -0.387 OA
ATOM     12  H   UNL     1      -1.002  27.302  39.232  1.00  0.00     0.211 HD
ENDBRANCH   4  11
BRANCH   6  13
ATOM     13  O   UNL     1      -2.998  24.442  38.014  1.00  0.00    -0.387 OA
ATOM     14  H   UNL     1      -2.314  23.805  38.340  1.00  0.00     0.211 HD
ENDBRANCH   6  13
BRANCH   7  15
ATOM     15  O   UNL     1      -3.994  26.114  36.119  1.00  0.00    -0.384 OA
ATOM     16  H   UNL     1      -4.189  25.152  36.262  1.00  0.00     0.211 HD
ENDBRANCH   7  15
ENDBRANCH   1   2
BRANCH   1  17
ATOM     17  C   UNL     1      -0.805  27.147  33.584  1.00  0.00     0.172 A 
ATOM     18  C   UNL     1      -0.529  28.495  33.889  1.00  0.00     0.201 A 
ATOM     19  C   UNL     1      -0.046  26.489  32.617  1.00  0.00     0.098 A 
ATOM     20  C   UNL     1       0.564  29.147  33.296  1.00  0.00     0.176 A 
ATOM     21  C   UNL     1       1.052  27.114  32.027  1.00  0.00     0.146 A 
ATOM     22  C   UNL     1       1.403  28.441  32.386  1.00  0.00     0.111 A 
ATOM     23  O   UNL     1       1.767  26.439  31.134  1.00  0.00    -0.456 OA
ATOM     24  C   UNL     1       2.591  28.962  31.820  1.00  0.00     0.197 A 
ATOM     25  C   UNL     1       2.846  26.932  30.536  1.00  0.00     0.138 A 
ATOM     26  C   UNL     1       3.298  28.213  30.880  1.00  0.00     0.100 A 
ATOM     27  O   UNL     1       3.060  30.077  32.167  1.00  0.00    -0.289 OA
BRANCH  18  28
ATOM     28  O   UNL     1      -1.362  29.228  34.738  1.00  0.00    -0.502 OA
ATOM     29  H   UNL     1      -1.135  30.162  35.051  1.00  0.00     0.293 HD
ENDBRANCH  18  28
BRANCH  20  30
ATOM     30  O   UNL     1       0.736  30.500  33.608  1.00  0.00    -0.504 OA
ATOM     31  H   UNL     1       1.234  30.841  34.416  1.00  0.00     0.293 HD
ENDBRANCH  20  30
BRANCH  25  32
ATOM     32  C   UNL     1       3.558  26.094  29.539  1.00  0.00     0.017 A 
ATOM     33  C   UNL     1       3.170  26.145  28.190  1.00  0.00     0.012 A 
ATOM     34  C   UNL     1       4.638  25.268  29.906  1.00  0.00     0.012 A 
ATOM     35  C   UNL     1       3.831  25.369  27.231  1.00  0.00     0.001 A 
ATOM     36  C   UNL     1       5.298  24.497  28.942  1.00  0.00     0.001 A 
ATOM     37  C   UNL     1       4.892  24.544  27.607  1.00  0.00     0.000 A 
ENDBRANCH  25  32
ENDBRANCH   1  17
TORSDOF 9
ENDMDL
MODEL 4
REMARK VINA RESULT:    -6.013      1.923      3.022
REMARK INTER + INTRA:          -9.309
REMARK INTER:                  -8.027
REMARK INTRA:                  -1.282
REMARK UNBOUND:                -1.011
REMARK SMILES O=C([O-])[C@@H]1O[C@H](Oc2cc3oc(-c4ccccc4)cc(=O)c3c(O)c2O)[C@@H](O)[C@@H](O)[C@@H]1O
REMARK SMILES IDX 7 1 6 2 4 3 31 4 5 5 29 6 27 7 2 8 1 9 3 10 32 11 30 13
REMARK SMILES IDX 28 15 8 17 25 18 9 19 23 20 10 21 22 22 11 23 20 24 12 25
REMARK SMILES IDX 19 26 21 27 26 28 24 30 13 32 14 33 18 34 15 35 17 36 16 37
REMARK H PARENT 32 12 30 14 28 16 26 29 24 31
REMARK Flexibility Score: inf
ROOT
ATOM      1  O   UNL     1      -1.797  26.099  34.017  1.00  0.00    -0.458 OA
ENDROOT
BRANCH   1   2
ATOM      2  C   UNL     1      -1.580  25.517  35.304  1.00  0.00     0.339 C 
ATOM      3  C   UNL     1      -1.419  26.055  37.567  1.00  0.00     0.199 C 
ATOM      4  C   UNL     1      -2.465  25.011  38.014  1.00  0.00     0.180 C 
ATOM      5  O   UNL     1      -1.731  26.541  36.273  1.00  0.00    -0.328 OA
ATOM      6  C   UNL     1      -2.537  23.856  36.989  1.00  0.00     0.181 C 
ATOM      7  C   UNL     1      -2.615  24.394  35.542  1.00  0.00     0.214 C 
BRANCH   3   8
ATOM      8  C   UNL     1      -1.392  27.206  38.530  1.00  0.00     0.073 C 
ATOM      9  O   UNL     1      -1.107  28.363  38.121  1.00  0.00    -0.547 OA
ATOM     10  O   UNL     1      -1.627  26.997  39.885  1.00  0.00    -0.547 OA
ENDBRANCH   3   8
BRANCH   4  11
ATOM     11  O   UNL     1      -3.725  25.625  38.125  1.00  0.00    -0.387 OA
ATOM     12  H   UNL     1      -4.401  24.897  38.132  1.00  0.00     0.211 HD
ENDBRANCH   4  11
BRANCH   6  13
ATOM     13  O   UNL     1      -1.469  22.957  37.165  1.00  0.00    -0.387 OA
ATOM     14  H   UNL     1      -0.888  23.292  37.893  1.00  0.00     0.211 HD
ENDBRANCH   6  13
BRANCH   7  15
ATOM     15  O   UNL     1      -2.400  23.336  34.641  1.00  0.00    -0.384 OA
ATOM     16  H   UNL     1      -3.060  22.627  34.855  1.00  0.00     0.211 HD
ENDBRANCH   7  15
ENDBRANCH   1   2
BRANCH   1  17
ATOM     17  C   UNL     1      -0.788  26.723  33.275  1.00  0.00     0.172 A 
ATOM     18  C   UNL     1      -0.318  28.012  33.597  1.00  0.00     0.201 A 
ATOM     19  C   UNL     1      -0.267  26.057  32.166  1.00  0.00     0.098 A 
ATOM     20  C   UNL     1       0.735  28.587  32.869  1.00  0.00     0.176 A 
ATOM     21  C   UNL     1       0.790  26.604  31.438  1.00  0.00     0.146 A 
ATOM     22  C   UNL     1       1.338  27.861  31.801  1.00  0.00     0.111 A 
ATOM     23  O   UNL     1       1.277  25.920  30.408  1.00  0.00    -0.456 OA
ATOM     24  C   UNL     1       2.475  28.294  31.077  1.00  0.00     0.197 A 
ATOM     25  C   UNL     1       2.298  26.339  29.669  1.00  0.00     0.138 A 
ATOM     26  C   UNL     1       2.939  27.540  29.998  1.00  0.00     0.100 A 
ATOM     27  O   UNL     1       3.114  29.329  31.398  1.00  0.00    -0.289 OA
BRANCH  18  28
ATOM     28  O   UNL     1      -0.922  28.769  34.605  1.00  0.00    -0.502 OA
ATOM     29  H   UNL     1      -0.391  29.238  35.326  1.00  0.00     0.293 HD
ENDBRANCH  18  28
BRANCH  20  30
ATOM     30  O   UNL     1       1.104  29.892  33.215  1.00  0.00    -0.504 OA
ATOM     31  H   UNL     1       1.506  30.155  34.102  1.00  0.00     0.293 HD
ENDBRANCH  20  30
BRANCH  25  32
ATOM     32  C   UNL     1       2.748  25.501  28.530  1.00  0.00     0.017 A 
ATOM     33  C   UNL     1       4.056  25.647  28.037  1.00  0.00     0.012 A 
ATOM     34  C   UNL     1       1.905  24.534  27.947  1.00  0.00     0.012 A 
ATOM     35  C   UNL     1       4.504  24.862  26.969  1.00  0.00     0.001 A 
ATOM     36  C   UNL     1       2.361  23.750  26.881  1.00  0.00     0.001 A 
ATOM     37  C   UNL     1       3.657  23.917  26.389  1.00  0.00     0.000 A 
ENDBRANCH  25  32
ENDBRANCH   1  17
TORSDOF 9
ENDMDL
MODEL 5
REMARK VINA RESULT:    -6.003      3.793      5.185
REMARK INTER + INTRA:          -9.296
REMARK INTER:                  -7.903
REMARK INTRA:                  -1.393
REMARK UNBOUND:                -1.011
REMARK SMILES O=C([O-])[C@@H]1O[C@H](Oc2cc3oc(-c4ccccc4)cc(=O)c3c(O)c2O)[C@@H](O)[C@@H](O)[C@@H]1O
REMARK SMILES IDX 7 1 6 2 4 3 31 4 5 5 29 6 27 7 2 8 1 9 3 10 32 11 30 13
REMARK SMILES IDX 28 15 8 17 25 18 9 19 23 20 10 21 22 22 11 23 20 24 12 25
REMARK SMILES IDX 19 26 21 27 26 28 24 30 13 32 14 33 18 34 15 35 17 36 16 37
REMARK H PARENT 32 12 30 14 28 16 26 29 24 31
REMARK Flexibility Score: inf
ROOT
ATOM      1  O   UNL     1      -1.786  26.304  34.214  1.00  0.00    -0.458 OA
ENDROOT
BRANCH   1   2
ATOM      2  C   UNL     1      -3.176  26.360  33.885  1.00  0.00     0.339 C 
ATOM      3  C   UNL     1      -4.906  25.096  32.965  1.00  0.00     0.199 C 
ATOM      4  C   UNL     1      -5.865  25.321  34.153  1.00  0.00     0.180 C 
ATOM      5  O   UNL     1      -3.561  25.080  33.413  1.00  0.00    -0.328 OA
ATOM      6  C   UNL     1      -5.508  26.635  34.885  1.00  0.00     0.181 C 
ATOM      7  C   UNL     1      -3.988  26.737  35.144  1.00  0.00     0.214 C 
BRANCH   3   8
ATOM      8  C   UNL     1      -5.213  23.790  32.290  1.00  0.00     0.073 C 
ATOM      9  O   UNL     1      -4.331  23.215  31.599  1.00  0.00    -0.547 OA
ATOM     10  O   UNL     1      -6.485  23.234  32.379  1.00  0.00    -0.547 OA
ENDBRANCH   3   8
BRANCH   4  11
ATOM     11  O   UNL     1      -5.770  24.240  35.046  1.00  0.00    -0.387 OA
ATOM     12  H   UNL     1      -5.325  24.582  35.866  1.00  0.00     0.211 HD
ENDBRANCH   4  11
BRANCH   6  13
ATOM     13  O   UNL     1      -6.004  27.753  34.188  1.00  0.00    -0.387 OA
ATOM     14  H   UNL     1      -6.619  27.437  33.479  1.00  0.00     0.211 HD
ENDBRANCH   6  13
BRANCH   7  15
ATOM     15  O   UNL     1      -3.673  28.046  35.552  1.00  0.00    -0.384 OA
ATOM     16  H   UNL     1      -3.520  28.583  34.732  1.00  0.00     0.211 HD
ENDBRANCH   7  15
ENDBRANCH   1   2
BRANCH   1  17
ATOM     17  C   UNL     1      -0.787  26.898  33.434  1.00  0.00     0.172 A 
ATOM     18  C   UNL     1      -0.309  28.196  33.701  1.00  0.00     0.201 A 
ATOM     19  C   UNL     1      -0.285  26.189  32.343  1.00  0.00     0.098 A 
ATOM     20  C   UNL     1       0.734  28.740  32.935  1.00  0.00     0.176 A 
ATOM     21  C   UNL     1       0.761  26.706  31.579  1.00  0.00     0.146 A 
ATOM     22  C   UNL     1       1.319  27.974  31.886  1.00  0.00     0.111 A 
ATOM     23  O   UNL     1       1.231  25.982  30.567  1.00  0.00    -0.456 OA
ATOM     24  C   UNL     1       2.445  28.376  31.129  1.00  0.00     0.197 A 
ATOM     25  C   UNL     1       2.242  26.371  29.797  1.00  0.00     0.138 A 
ATOM     26  C   UNL     1       2.890  27.582  30.072  1.00  0.00     0.100 A 
ATOM     27  O   UNL     1       3.092  29.420  31.402  1.00  0.00    -0.289 OA
BRANCH  18  28
ATOM     28  O   UNL     1      -0.896  28.992  34.689  1.00  0.00    -0.502 OA
ATOM     29  H   UNL     1      -0.903  28.730  35.666  1.00  0.00     0.293 HD
ENDBRANCH  18  28
BRANCH  20  30
ATOM     30  O   UNL     1       1.111  30.056  33.227  1.00  0.00    -0.504 OA
ATOM     31  H   UNL     1       2.024  30.442  33.042  1.00  0.00     0.293 HD
ENDBRANCH  20  30
BRANCH  25  32
ATOM     32  C   UNL     1       2.672  25.490  28.684  1.00  0.00     0.017 A 
ATOM     33  C   UNL     1       1.953  24.312  28.416  1.00  0.00     0.012 A 
ATOM     34  C   UNL     1       3.768  25.819  27.863  1.00  0.00     0.012 A 
ATOM     35  C   UNL     1       2.335  23.470  27.367  1.00  0.00     0.001 A 
ATOM     36  C   UNL     1       4.144  24.974  26.813  1.00  0.00     0.001 A 
ATOM     37  C   UNL     1       3.431  23.798  26.567  1.00  0.00     0.000 A 
ENDBRANCH  25  32
ENDBRANCH   1  17
TORSDOF 9
ENDMDL
MODEL 6
REMARK VINA RESULT:    -5.951      1.529      2.683
REMARK INTER + INTRA:          -9.223
REMARK INTER:                  -8.894
REMARK INTRA:                  -0.329
REMARK UNBOUND:                -1.011
REMARK SMILES O=C([O-])[C@@H]1O[C@H](Oc2cc3oc(-c4ccccc4)cc(=O)c3c(O)c2O)[C@@H](O)[C@@H](O)[C@@H]1O
REMARK SMILES IDX 7 1 6 2 4 3 31 4 5 5 29 6 27 7 2 8 1 9 3 10 32 11 30 13
REMARK SMILES IDX 28 15 8 17 25 18 9 19 23 20 10 21 22 22 11 23 20 24 12 25
REMARK SMILES IDX 19 26 21 27 26 28 24 30 13 32 14 33 18 34 15 35 17 36 16 37
REMARK H PARENT 32 12 30 14 28 16 26 29 24 31
REMARK Flexibility Score: inf
ROOT
ATOM      1  O   UNL     1      -2.686  24.696  35.096  1.00  0.00    -0.458 OA
ENDROOT
BRANCH   1   2
ATOM      2  C   UNL     1      -2.732  24.373  36.487  1.00  0.00     0.339 C 
ATOM      3  C   UNL     1      -1.539  24.611  38.476  1.00  0.00     0.199 C 
ATOM      4  C   UNL     1      -2.729  25.204  39.260  1.00  0.00     0.180 C 
ATOM      5  O   UNL     1      -1.615  24.983  37.111  1.00  0.00    -0.328 OA
ATOM      6  C   UNL     1      -4.064  24.744  38.633  1.00  0.00     0.181 C 
ATOM      7  C   UNL     1      -4.048  24.909  37.096  1.00  0.00     0.214 C 
BRANCH   3   8
ATOM      8  C   UNL     1      -0.242  25.106  39.048  1.00  0.00     0.073 C 
ATOM      9  O   UNL     1       0.756  25.269  38.297  1.00  0.00    -0.547 OA
ATOM     10  O   UNL     1      -0.118  25.338  40.414  1.00  0.00    -0.547 OA
ENDBRANCH   3   8
BRANCH   4  11
ATOM     11  O   UNL     1      -2.654  26.608  39.239  1.00  0.00    -0.387 OA
ATOM     12  H   UNL     1      -2.967  26.927  40.126  1.00  0.00     0.211 HD
ENDBRANCH   4  11
BRANCH   6  13
ATOM     13  O   UNL     1      -4.379  23.428  39.022  1.00  0.00    -0.387 OA
ATOM     14  H   UNL     1      -4.378  22.851  38.218  1.00  0.00     0.211 HD
ENDBRANCH   6  13
BRANCH   7  15
ATOM     15  O   UNL     1      -5.150  24.232  36.545  1.00  0.00    -0.384 OA
ATOM     16  H   UNL     1      -4.808  23.397  36.131  1.00  0.00     0.211 HD
ENDBRANCH   7  15
ENDBRANCH   1   2
BRANCH   1  17
ATOM     17  C   UNL     1      -1.965  25.780  34.581  1.00  0.00     0.172 A 
ATOM     18  C   UNL     1      -2.039  27.063  35.159  1.00  0.00     0.201 A 
ATOM     19  C   UNL     1      -1.184  25.579  33.443  1.00  0.00     0.098 A 
ATOM     20  C   UNL     1      -1.259  28.115  34.654  1.00  0.00     0.176 A 
ATOM     21  C   UNL     1      -0.390  26.608  32.935  1.00  0.00     0.146 A 
ATOM     22  C   UNL     1      -0.381  27.883  33.555  1.00  0.00     0.111 A 
ATOM     23  O   UNL     1       0.363  26.364  31.867  1.00  0.00    -0.456 OA
ATOM     24  C   UNL     1       0.531  28.836  33.041  1.00  0.00     0.197 A 
ATOM     25  C   UNL     1       1.174  27.264  31.323  1.00  0.00     0.138 A 
ATOM     26  C   UNL     1       1.291  28.530  31.912  1.00  0.00     0.100 A 
ATOM     27  O   UNL     1       0.710  29.952  33.594  1.00  0.00    -0.289 OA
BRANCH  18  28
ATOM     28  O   UNL     1      -2.927  27.333  36.203  1.00  0.00    -0.502 OA
ATOM     29  H   UNL     1      -2.621  27.681  37.102  1.00  0.00     0.293 HD
ENDBRANCH  18  28
BRANCH  20  30
ATOM     30  O   UNL     1      -1.433  29.371  35.246  1.00  0.00    -0.504 OA
ATOM     31  H   UNL     1      -2.076  29.563  35.999  1.00  0.00     0.293 HD
ENDBRANCH  20  30
BRANCH  25  32
ATOM     32  C   UNL     1       1.956  26.888  30.120  1.00  0.00     0.017 A 
ATOM     33  C   UNL     1       3.012  25.968  30.241  1.00  0.00     0.012 A 
ATOM     34  C   UNL     1       1.648  27.406  28.847  1.00  0.00     0.012 A 
ATOM     35  C   UNL     1       3.758  25.592  29.118  1.00  0.00     0.001 A 
ATOM     36  C   UNL     1       2.396  27.024  27.728  1.00  0.00     0.001 A 
ATOM     37  C   UNL     1       3.453  26.121  27.864  1.00  0.00     0.000 A 
ENDBRANCH  25  32
ENDBRANCH   1  17
TORSDOF 9
ENDMDL
MODEL 7
REMARK VINA RESULT:    -5.944      1.538      2.088
REMARK INTER + INTRA:          -9.214
REMARK INTER:                  -8.764
REMARK INTRA:                  -0.450
REMARK UNBOUND:                -1.011
REMARK SMILES O=C([O-])[C@@H]1O[C@H](Oc2cc3oc(-c4ccccc4)cc(=O)c3c(O)c2O)[C@@H](O)[C@@H](O)[C@@H]1O
REMARK SMILES IDX 7 1 6 2 4 3 31 4 5 5 29 6 27 7 2 8 1 9 3 10 32 11 30 13
REMARK SMILES IDX 28 15 8 17 25 18 9 19 23 20 10 21 22 22 11 23 20 24 12 25
REMARK SMILES IDX 19 26 21 27 26 28 24 30 13 32 14 33 18 34 15 35 17 36 16 37
REMARK H PARENT 32 12 30 14 28 16 26 29 24 31
REMARK Flexibility Score: inf
ROOT
ATOM      1  O   UNL     1      -0.708  25.271  37.268  1.00  0.00    -0.458 OA
ENDROOT
BRANCH   1   2
ATOM      2  C   UNL     1      -1.792  25.382  38.193  1.00  0.00     0.339 C 
ATOM      3  C   UNL     1      -4.019  24.770  38.506  1.00  0.00     0.199 C 
ATOM      4  C   UNL     1      -3.779  24.143  39.896  1.00  0.00     0.180 C 
ATOM      5  O   UNL     1      -2.872  24.614  37.689  1.00  0.00    -0.328 OA
ATOM      6  C   UNL     1      -2.536  24.779  40.559  1.00  0.00     0.181 C 
ATOM      7  C   UNL     1      -1.347  24.847  39.573  1.00  0.00     0.214 C 
BRANCH   3   8
ATOM      8  C   UNL     1      -5.191  24.112  37.835  1.00  0.00     0.073 C 
ATOM      9  O   UNL     1      -6.282  24.731  37.721  1.00  0.00    -0.547 OA
ATOM     10  O   UNL     1      -5.097  22.799  37.384  1.00  0.00    -0.547 OA
ENDBRANCH   3   8
BRANCH   4  11
ATOM     11  O   UNL     1      -3.588  22.757  39.760  1.00  0.00    -0.387 OA
ATOM     12  H   UNL     1      -2.644  22.571  40.006  1.00  0.00     0.211 HD
ENDBRANCH   4  11
BRANCH   6  13
ATOM     13  O   UNL     1      -2.843  26.038  41.107  1.00  0.00    -0.387 OA
ATOM     14  H   UNL     1      -2.329  26.152  41.946  1.00  0.00     0.211 HD
ENDBRANCH   6  13
BRANCH   7  15
ATOM     15  O   UNL     1      -0.342  25.669  40.113  1.00  0.00    -0.384 OA
ATOM     16  H   UNL     1       0.479  25.118  40.195  1.00  0.00     0.211 HD
ENDBRANCH   7  15
ENDBRANCH   1   2
BRANCH   1  17
ATOM     17  C   UNL     1      -0.529  26.139  36.185  1.00  0.00     0.172 A 
ATOM     18  C   UNL     1      -1.242  27.350  36.078  1.00  0.00     0.201 A 
ATOM     19  C   UNL     1       0.355  25.767  35.172  1.00  0.00     0.098 A 
ATOM     20  C   UNL     1      -0.997  28.225  35.008  1.00  0.00     0.176 A 
ATOM     21  C   UNL     1       0.622  26.629  34.109  1.00  0.00     0.146 A 
ATOM     22  C   UNL     1      -0.017  27.893  34.028  1.00  0.00     0.111 A 
ATOM     23  O   UNL     1       1.495  26.247  33.182  1.00  0.00    -0.456 OA
ATOM     24  C   UNL     1       0.390  28.748  32.977  1.00  0.00     0.197 A 
ATOM     25  C   UNL     1       1.841  27.005  32.146  1.00  0.00     0.138 A 
ATOM     26  C   UNL     1       1.303  28.293  32.026  1.00  0.00     0.100 A 
ATOM     27  O   UNL     1      -0.020  29.935  32.888  1.00  0.00    -0.289 OA
BRANCH  18  28
ATOM     28  O   UNL     1      -2.244  27.680  36.994  1.00  0.00    -0.502 OA
ATOM     29  H   UNL     1      -3.162  27.991  36.708  1.00  0.00     0.293 HD
ENDBRANCH  18  28
BRANCH  20  30
ATOM     30  O   UNL     1      -1.787  29.379  34.944  1.00  0.00    -0.504 OA
ATOM     31  H   UNL     1      -1.975  29.986  35.727  1.00  0.00     0.293 HD
ENDBRANCH  20  30
BRANCH  25  32
ATOM     32  C   UNL     1       2.813  26.469  31.162  1.00  0.00     0.017 A 
ATOM     33  C   UNL     1       2.486  26.471  29.795  1.00  0.00     0.012 A 
ATOM     34  C   UNL     1       4.075  25.985  31.559  1.00  0.00     0.012 A 
ATOM     35  C   UNL     1       3.390  25.978  28.848  1.00  0.00     0.001 A 
ATOM     36  C   UNL     1       4.976  25.496  30.607  1.00  0.00     0.001 A 
ATOM     37  C   UNL     1       4.632  25.488  29.253  1.00  0.00     0.000 A 
ENDBRANCH  25  32
ENDBRANCH   1  17
TORSDOF 9
ENDMDL
MODEL 8
REMARK VINA RESULT:    -5.900      2.177      3.127
REMARK INTER + INTRA:          -9.153
REMARK INTER:                  -8.219
REMARK INTRA:                  -0.934
REMARK UNBOUND:                -1.011
REMARK SMILES O=C([O-])[C@@H]1O[C@H](Oc2cc3oc(-c4ccccc4)cc(=O)c3c(O)c2O)[C@@H](O)[C@@H](O)[C@@H]1O
REMARK SMILES IDX 7 1 6 2 4 3 31 4 5 5 29 6 27 7 2 8 1 9 3 10 32 11 30 13
REMARK SMILES IDX 28 15 8 17 25 18 9 19 23 20 10 21 22 22 11 23 20 24 12 25
REMARK SMILES IDX 19 26 21 27 26 28 24 30 13 32 14 33 18 34 15 35 17 36 16 37
REMARK H PARENT 32 12 30 14 28 16 26 29 24 31
REMARK Flexibility Score: inf
ROOT
ATOM      1  O   UNL     1      -1.698  26.486  39.306  1.00  0.00    -0.458 OA
ENDROOT
BRANCH   1   2
ATOM      2  C   UNL     1      -1.579  25.453  40.287  1.00  0.00     0.339 C 
ATOM      3  C   UNL     1      -2.774  23.726  41.300  1.00  0.00     0.199 C 
ATOM      4  C   UNL     1      -1.702  22.654  41.014  1.00  0.00     0.180 C 
ATOM      5  O   UNL     1      -2.781  24.702  40.272  1.00  0.00    -0.328 OA
ATOM      6  C   UNL     1      -0.313  23.314  40.866  1.00  0.00     0.181 C 
ATOM      7  C   UNL     1      -0.375  24.550  39.939  1.00  0.00     0.214 C 
BRANCH   3   8
ATOM      8  C   UNL     1      -4.133  23.093  41.384  1.00  0.00     0.073 C 
ATOM      9  O   UNL     1      -4.540  22.618  42.478  1.00  0.00    -0.547 OA
ATOM     10  O   UNL     1      -4.928  22.978  40.248  1.00  0.00    -0.547 OA
ENDBRANCH   3   8
BRANCH   4  11
ATOM     11  O   UNL     1      -2.028  21.965  39.832  1.00  0.00    -0.387 OA
ATOM     12  H   UNL     1      -2.517  21.145  40.102  1.00  0.00     0.211 HD
ENDBRANCH   4  11
BRANCH   6  13
ATOM     13  O   UNL     1       0.238  23.622  42.124  1.00  0.00    -0.387 OA
ATOM     14  H   UNL     1       1.156  23.256  42.167  1.00  0.00     0.211 HD
ENDBRANCH   6  13
BRANCH   7  15
ATOM     15  O   UNL     1       0.825  25.274  40.049  1.00  0.00    -0.384 OA
ATOM     16  H   UNL     1       1.278  24.971  40.878  1.00  0.00     0.211 HD
ENDBRANCH   7  15
ENDBRANCH   1   2
BRANCH   1  17
ATOM     17  C   UNL     1      -1.806  26.234  37.933  1.00  0.00     0.172 A 
ATOM     18  C   UNL     1      -2.993  25.736  37.361  1.00  0.00     0.201 A 
ATOM     19  C   UNL     1      -0.689  26.452  37.126  1.00  0.00     0.098 A 
ATOM     20  C   UNL     1      -3.087  25.549  35.973  1.00  0.00     0.176 A 
ATOM     21  C   UNL     1      -0.767  26.286  35.744  1.00  0.00     0.146 A 
ATOM     22  C   UNL     1      -1.980  25.871  35.136  1.00  0.00     0.111 A 
ATOM     23  O   UNL     1       0.313  26.535  35.010  1.00  0.00    -0.456 OA
ATOM     24  C   UNL     1      -2.003  25.830  33.721  1.00  0.00     0.197 A 
ATOM     25  C   UNL     1       0.336  26.435  33.685  1.00  0.00     0.138 A 
ATOM     26  C   UNL     1      -0.838  26.092  33.001  1.00  0.00     0.100 A 
ATOM     27  O   UNL     1      -3.060  25.599  33.079  1.00  0.00    -0.289 OA
BRANCH  18  28
ATOM     28  O   UNL     1      -4.078  25.364  38.159  1.00  0.00    -0.502 OA
ATOM     29  H   UNL     1      -5.029  25.358  37.817  1.00  0.00     0.293 HD
ENDBRANCH  18  28
BRANCH  20  30
ATOM     30  O   UNL     1      -4.280  24.997  35.490  1.00  0.00    -0.504 OA
ATOM     31  H   UNL     1      -4.358  24.464  34.637  1.00  0.00     0.293 HD
ENDBRANCH  20  30
BRANCH  25  32
ATOM     32  C   UNL     1       1.603  26.720  32.968  1.00  0.00     0.017 A 
ATOM     33  C   UNL     1       1.725  27.906  32.224  1.00  0.00     0.012 A 
ATOM     34  C   UNL     1       2.704  25.845  33.039  1.00  0.00     0.012 A 
ATOM     35  C   UNL     1       2.914  28.199  31.546  1.00  0.00     0.001 A 
ATOM     36  C   UNL     1       3.891  26.146  32.362  1.00  0.00     0.001 A 
ATOM     37  C   UNL     1       3.994  27.319  31.612  1.00  0.00     0.000 A 
ENDBRANCH  25  32
ENDBRANCH   1  17
TORSDOF 9
ENDMDL
MODEL 9
REMARK VINA RESULT:    -5.806      3.309      8.870
REMARK INTER + INTRA:          -9.024
REMARK INTER:                  -7.907
REMARK INTRA:                  -1.117
REMARK UNBOUND:                -1.011
REMARK SMILES O=C([O-])[C@@H]1O[C@H](Oc2cc3oc(-c4ccccc4)cc(=O)c3c(O)c2O)[C@@H](O)[C@@H](O)[C@@H]1O
REMARK SMILES IDX 7 1 6 2 4 3 31 4 5 5 29 6 27 7 2 8 1 9 3 10 32 11 30 13
REMARK SMILES IDX 28 15 8 17 25 18 9 19 23 20 10 21 22 22 11 23 20 24 12 25
REMARK SMILES IDX 19 26 21 27 26 28 24 30 13 32 14 33 18 34 15 35 17 36 16 37
REMARK H PARENT 32 12 30 14 28 16 26 29 24 31
REMARK Flexibility Score: inf
ROOT
ATOM      1  O   UNL     1       2.429  24.579  30.668  1.00  0.00    -0.458 OA
ENDROOT
BRANCH   1   2
ATOM      2  C   UNL     1       1.727  23.962  29.587  1.00  0.00     0.339 C 
ATOM      3  C   UNL     1      -0.376  23.832  28.589  1.00  0.00     0.199 C 
ATOM      4  C   UNL     1       0.140  24.175  27.175  1.00  0.00     0.180 C 
ATOM      5  O   UNL     1       0.409  24.485  29.571  1.00  0.00    -0.328 OA
ATOM      6  C   UNL     1       1.630  23.785  27.043  1.00  0.00     0.181 C 
ATOM      7  C   UNL     1       2.448  24.278  28.258  1.00  0.00     0.214 C 
BRANCH   3   8
ATOM      8  C   UNL     1      -1.807  24.265  28.738  1.00  0.00     0.073 C 
ATOM      9  O   UNL     1      -2.738  23.442  28.534  1.00  0.00    -0.547 OA
ATOM     10  O   UNL     1      -2.113  25.586  29.049  1.00  0.00    -0.547 OA
ENDBRANCH   3   8
BRANCH   4  11
ATOM     11  O   UNL     1      -0.013  25.552  26.938  1.00  0.00    -0.387 OA
ATOM     12  H   UNL     1      -0.468  25.932  27.735  1.00  0.00     0.211 HD
ENDBRANCH   4  11
BRANCH   6  13
ATOM     13  O   UNL     1       1.774  22.401  26.832  1.00  0.00    -0.387 OA
ATOM     14  H   UNL     1       2.468  22.257  26.140  1.00  0.00     0.211 HD
ENDBRANCH   6  13
BRANCH   7  15
ATOM     15  O   UNL     1       3.718  23.675  28.238  1.00  0.00    -0.384 OA
ATOM     16  H   UNL     1       4.384  24.392  28.070  1.00  0.00     0.211 HD
ENDBRANCH   7  15
ENDBRANCH   1   2
BRANCH   1  17
ATOM     17  C   UNL     1       1.922  25.661  31.397  1.00  0.00     0.172 A 
ATOM     18  C   UNL     1       2.139  26.994  30.994  1.00  0.00     0.201 A 
ATOM     19  C   UNL     1       1.216  25.401  32.571  1.00  0.00     0.098 A 
ATOM     20  C   UNL     1       1.568  28.055  31.715  1.00  0.00     0.176 A 
ATOM     21  C   UNL     1       0.629  26.441  33.293  1.00  0.00     0.146 A 
ATOM     22  C   UNL     1       0.758  27.784  32.856  1.00  0.00     0.111 A 
ATOM     23  O   UNL     1      -0.062  26.145  34.389  1.00  0.00    -0.456 OA
ATOM     24  C   UNL     1       0.045  28.764  33.586  1.00  0.00     0.197 A 
ATOM     25  C   UNL     1      -0.683  27.056  35.131  1.00  0.00     0.138 A 
ATOM     26  C   UNL     1      -0.658  28.399  34.734  1.00  0.00     0.100 A 
ATOM     27  O   UNL     1      -0.012  29.964  33.210  1.00  0.00    -0.289 OA
BRANCH  18  28
ATOM     28  O   UNL     1       2.968  27.294  29.910  1.00  0.00    -0.502 OA
ATOM     29  H   UNL     1       2.749  28.020  29.241  1.00  0.00     0.293 HD
ENDBRANCH  18  28
BRANCH  20  30
ATOM     30  O   UNL     1       1.878  29.350  31.283  1.00  0.00    -0.504 OA
ATOM     31  H   UNL     1       1.557  29.755  30.418  1.00  0.00     0.293 HD
ENDBRANCH  20  30
BRANCH  25  32
ATOM     32  C   UNL     1      -1.411  26.613  36.346  1.00  0.00     0.017 A 
ATOM     33  C   UNL     1      -2.502  25.738  36.218  1.00  0.00     0.012 A 
ATOM     34  C   UNL     1      -1.016  27.024  37.634  1.00  0.00     0.012 A 
ATOM     35  C   UNL     1      -3.199  25.302  37.350  1.00  0.00     0.001 A 
ATOM     36  C   UNL     1      -1.715  26.582  38.763  1.00  0.00     0.001 A 
ATOM     37  C   UNL     1      -2.808  25.725  38.621  1.00  0.00     0.000 A 
ENDBRANCH  25  32
ENDBRANCH   1  17
TORSDOF 9
ENDMDL
