MODEL 1
REMARK VINA RESULT:    -6.626      0.000      0.000
REMARK INTER + INTRA:         -14.516
REMARK INTER:                 -11.468
REMARK INTRA:                  -3.048
REMARK UNBOUND:                -3.048
REMARK SMILES OC[C@H]1O[C@@H](O[C@H]2[C@H](O)[C@H](O)[C@H](O[C@@H]3[C@H](O)[C@H](O)[C@H](O)O[C@@H]3CO)O[C@@H]2CO)[C@@H](O)[C@H](O)[C@H]1O
REMARK SMILES IDX 7 1 26 2 25 3 12 4 10 5 8 6 6 7 5 8 3 9 33 10 4 11 31 12
REMARK SMILES IDX 29 13 2 14 1 15 34 17 32 19 30 21 27 23 28 24 9 26 11 28
REMARK SMILES IDX 13 30 14 31 22 32 15 33 21 34 17 35 19 36 23 37 24 38 16 40
REMARK SMILES IDX 18 42 20 44
REMARK H PARENT 1 16 34 18 32 20 30 22 28 25 9 27 11 29 24 39 16 41 18 43
REMARK H PARENT 20 45
REMARK Flexibility Score: inf
ROOT
ATOM      1  C   UNL     1      19.839  -3.437  36.557  1.00  0.00     0.184 C 
ATOM      2  C   UNL     1      20.829  -2.266  36.809  1.00  0.00     0.178 C 
ATOM      3  O   UNL     1      21.946  -2.698  37.582  1.00  0.00    -0.341 OA
ATOM      4  C   UNL     1      22.499  -3.959  37.188  1.00  0.00     0.282 C 
ATOM      5  C   UNL     1      22.080  -4.404  35.760  1.00  0.00     0.202 C 
ATOM      6  C   UNL     1      20.534  -4.489  35.653  1.00  0.00     0.180 C 
ENDROOT
BRANCH   1   7
ATOM      7  O   UNL     1      18.649  -2.977  35.923  1.00  0.00    -0.341 OA
BRANCH   7   8
ATOM      8  C   UNL     1      17.460  -3.534  36.486  1.00  0.00     0.282 C 
ATOM      9  C   UNL     1      16.671  -4.908  38.197  1.00  0.00     0.178 C 
ATOM     10  C   UNL     1      15.718  -5.705  37.264  1.00  0.00     0.177 C 
ATOM     11  O   UNL     1      17.825  -4.463  37.494  1.00  0.00    -0.341 OA
ATOM     12  C   UNL     1      15.376  -4.882  35.991  1.00  0.00     0.179 C 
ATOM     13  C   UNL     1      16.647  -4.261  35.386  1.00  0.00     0.202 C 
BRANCH   9  14
ATOM     14  C   UNL     1      17.093  -5.726  39.429  1.00  0.00     0.191 C 
BRANCH  14  15
ATOM     15  O   UNL     1      16.248  -6.831  39.603  1.00  0.00    -0.394 OA
ATOM     16  H   UNL     1      16.069  -7.184  38.694  1.00  0.00     0.210 HD
ENDBRANCH  14  15
ENDBRANCH   9  14
BRANCH  10  17
ATOM     17  O   UNL     1      16.320  -6.924  36.905  1.00  0.00    -0.387 OA
ATOM     18  H   UNL     1      16.913  -7.187  37.660  1.00  0.00     0.211 HD
ENDBRANCH  10  17
BRANCH  12  19
ATOM     19  O   UNL     1      14.403  -3.889  36.226  1.00  0.00    -0.387 OA
ATOM     20  H   UNL     1      13.518  -4.318  36.351  1.00  0.00     0.211 HD
ENDBRANCH  12  19
BRANCH  13  21
ATOM     21  O   UNL     1      17.408  -5.290  34.803  1.00  0.00    -0.385 OA
ATOM     22  H   UNL     1      17.303  -6.099  35.363  1.00  0.00     0.211 HD
ENDBRANCH  13  21
ENDBRANCH   7   8
ENDBRANCH   1   7
BRANCH   2  23
ATOM     23  C   UNL     1      20.171  -1.047  37.494  1.00  0.00     0.191 C 
BRANCH  23  24
ATOM     24  O   UNL     1      19.412  -0.258  36.617  1.00  0.00    -0.394 OA
ATOM     25  H   UNL     1      20.037   0.180  35.980  1.00  0.00     0.210 HD
ENDBRANCH  23  24
ENDBRANCH   2  23
BRANCH   6  26
ATOM     26  O   UNL     1      20.095  -5.778  36.000  1.00  0.00    -0.387 OA
ATOM     27  H   UNL     1      19.828  -6.231  35.158  1.00  0.00     0.211 HD
ENDBRANCH   6  26
BRANCH   5  28
ATOM     28  O   UNL     1      22.658  -5.642  35.431  1.00  0.00    -0.385 OA
ATOM     29  H   UNL     1      22.011  -6.340  35.725  1.00  0.00     0.211 HD
ENDBRANCH   5  28
BRANCH   4  30
ATOM     30  O   UNL     1      22.123  -5.000  38.073  1.00  0.00    -0.341 OA
BRANCH  30  31
ATOM     31  C   UNL     1      23.142  -5.653  38.834  1.00  0.00     0.184 C 
ATOM     32  C   UNL     1      22.867  -7.046  39.496  1.00  0.00     0.178 C 
ATOM     33  C   UNL     1      24.583  -5.399  38.355  1.00  0.00     0.180 C 
ATOM     34  O   UNL     1      23.849  -7.361  40.487  1.00  0.00    -0.342 OA
ATOM     35  C   UNL     1      25.563  -5.827  39.461  1.00  0.00     0.201 C 
ATOM     36  C   UNL     1      25.215  -7.186  40.109  1.00  0.00     0.279 C 
BRANCH  32  37
ATOM     37  C   UNL     1      22.556  -8.277  38.606  1.00  0.00     0.191 C 
BRANCH  37  38
ATOM     38  O   UNL     1      22.627  -7.931  37.246  1.00  0.00    -0.394 OA
ATOM     39  H   UNL     1      23.494  -7.460  37.119  1.00  0.00     0.210 HD
ENDBRANCH  37  38
ENDBRANCH  32  37
BRANCH  33  40
ATOM     40  O   UNL     1      24.895  -5.975  37.119  1.00  0.00    -0.387 OA
ATOM     41  H   UNL     1      25.733  -5.586  36.785  1.00  0.00     0.211 HD
ENDBRANCH  33  40
BRANCH  35  42
ATOM     42  O   UNL     1      26.875  -5.842  38.955  1.00  0.00    -0.385 OA
ATOM     43  H   UNL     1      27.467  -5.517  39.680  1.00  0.00     0.211 HD
ENDBRANCH  35  42
BRANCH  36  44
ATOM     44  O   UNL     1      25.721  -8.279  39.378  1.00  0.00    -0.366 OA
ATOM     45  H   UNL     1      26.693  -8.181  39.297  1.00  0.00     0.213 HD
ENDBRANCH  36  44
ENDBRANCH  30  31
ENDBRANCH   4  30
TORSDOF 18
ENDMDL
MODEL 2
REMARK VINA RESULT:    -6.569     11.070     14.523
REMARK INTER + INTRA:         -14.417
REMARK INTER:                 -11.005
REMARK INTRA:                  -3.412
REMARK UNBOUND:                -3.048
REMARK SMILES OC[C@H]1O[C@@H](O[C@H]2[C@H](O)[C@H](O)[C@H](O[C@@H]3[C@H](O)[C@H](O)[C@H](O)O[C@@H]3CO)O[C@@H]2CO)[C@@H](O)[C@H](O)[C@H]1O
REMARK SMILES IDX 7 1 26 2 25 3 12 4 10 5 8 6 6 7 5 8 3 9 33 10 4 11 31 12
REMARK SMILES IDX 29 13 2 14 1 15 34 17 32 19 30 21 27 23 28 24 9 26 11 28
REMARK SMILES IDX 13 30 14 31 22 32 15 33 21 34 17 35 19 36 23 37 24 38 16 40
REMARK SMILES IDX 18 42 20 44
REMARK H PARENT 1 16 34 18 32 20 30 22 28 25 9 27 11 29 24 39 16 41 18 43
REMARK H PARENT 20 45
REMARK Flexibility Score: inf
ROOT
ATOM      1  C   UNL     1      26.373   5.204  44.132  1.00  0.00     0.184 C 
ATOM      2  C   UNL     1      27.277   5.635  42.943  1.00  0.00     0.178 C 
ATOM      3  O   UNL     1      26.706   6.734  42.238  1.00  0.00    -0.341 OA
ATOM      4  C   UNL     1      26.168   7.769  43.070  1.00  0.00     0.282 C 
ATOM      5  C   UNL     1      26.682   7.720  44.534  1.00  0.00     0.202 C 
ATOM      6  C   UNL     1      26.350   6.348  45.179  1.00  0.00     0.180 C 
ENDROOT
BRANCH   1   7
ATOM      7  O   UNL     1      26.857   4.012  44.741  1.00  0.00    -0.341 OA
BRANCH   7   8
ATOM      8  C   UNL     1      25.865   2.990  44.848  1.00  0.00     0.282 C 
ATOM      9  C   UNL     1      23.684   2.435  44.235  1.00  0.00     0.178 C 
ATOM     10  C   UNL     1      23.299   1.928  45.652  1.00  0.00     0.177 C 
ATOM     11  O   UNL     1      24.648   3.478  44.307  1.00  0.00    -0.341 OA
ATOM     12  C   UNL     1      24.567   1.532  46.460  1.00  0.00     0.179 C 
ATOM     13  C   UNL     1      25.651   2.617  46.336  1.00  0.00     0.202 C 
BRANCH   9  14
ATOM     14  C   UNL     1      22.458   2.910  43.437  1.00  0.00     0.191 C 
BRANCH  14  15
ATOM     15  O   UNL     1      22.267   4.289  43.596  1.00  0.00    -0.394 OA
ATOM     16  H   UNL     1      21.611   4.557  42.901  1.00  0.00     0.210 HD
ENDBRANCH  14  15
ENDBRANCH   9  14
BRANCH  10  17
ATOM     17  O   UNL     1      22.585   2.929  46.333  1.00  0.00    -0.387 OA
ATOM     18  H   UNL     1      22.799   3.792  45.887  1.00  0.00     0.211 HD
ENDBRANCH  10  17
BRANCH  12  19
ATOM     19  O   UNL     1      25.081   0.273  46.090  1.00  0.00    -0.387 OA
ATOM     20  H   UNL     1      26.024   0.373  45.801  1.00  0.00     0.211 HD
ENDBRANCH  12  19
BRANCH  13  21
ATOM     21  O   UNL     1      25.242   3.739  47.077  1.00  0.00    -0.385 OA
ATOM     22  H   UNL     1      24.662   4.291  46.496  1.00  0.00     0.211 HD
ENDBRANCH  13  21
ENDBRANCH   7   8
ENDBRANCH   1   7
BRANCH   2  23
ATOM     23  C   UNL     1      27.571   4.486  41.953  1.00  0.00     0.191 C 
BRANCH  23  24
ATOM     24  O   UNL     1      26.455   3.680  41.686  1.00  0.00    -0.394 OA
ATOM     25  H   UNL     1      26.704   2.737  41.880  1.00  0.00     0.210 HD
ENDBRANCH  23  24
ENDBRANCH   2  23
BRANCH   6  26
ATOM     26  O   UNL     1      25.091   6.398  45.802  1.00  0.00    -0.387 OA
ATOM     27  H   UNL     1      25.228   6.787  46.705  1.00  0.00     0.211 HD
ENDBRANCH   6  26
BRANCH   5  28
ATOM     28  O   UNL     1      26.124   8.762  45.296  1.00  0.00    -0.385 OA
ATOM     29  H   UNL     1      25.471   8.337  45.916  1.00  0.00     0.211 HD
ENDBRANCH   5  28
BRANCH   4  30
ATOM     30  O   UNL     1      24.752   7.719  43.126  1.00  0.00    -0.341 OA
BRANCH  30  31
ATOM     31  C   UNL     1      24.005   8.277  42.044  1.00  0.00     0.184 C 
ATOM     32  C   UNL     1      23.997   7.578  40.642  1.00  0.00     0.178 C 
ATOM     33  C   UNL     1      22.712   9.009  42.447  1.00  0.00     0.180 C 
ATOM     34  O   UNL     1      23.507   8.451  39.620  1.00  0.00    -0.342 OA
ATOM     35  C   UNL     1      22.231   9.868  41.265  1.00  0.00     0.201 C 
ATOM     36  C   UNL     1      22.289   9.142  39.903  1.00  0.00     0.279 C 
BRANCH  32  37
ATOM     37  C   UNL     1      23.404   6.153  40.492  1.00  0.00     0.191 C 
BRANCH  37  38
ATOM     38  O   UNL     1      24.080   5.249  41.328  1.00  0.00    -0.394 OA
ATOM     39  H   UNL     1      24.997   5.151  40.955  1.00  0.00     0.210 HD
ENDBRANCH  37  38
ENDBRANCH  32  37
BRANCH  33  40
ATOM     40  O   UNL     1      21.702   8.176  42.941  1.00  0.00    -0.387 OA
ATOM     41  H   UNL     1      21.326   7.652  42.201  1.00  0.00     0.211 HD
ENDBRANCH  33  40
BRANCH  35  42
ATOM     42  O   UNL     1      20.930  10.341  41.518  1.00  0.00    -0.385 OA
ATOM     43  H   UNL     1      20.467   9.641  42.045  1.00  0.00     0.211 HD
ENDBRANCH  35  42
BRANCH  36  44
ATOM     44  O   UNL     1      21.147   8.353  39.661  1.00  0.00    -0.366 OA
ATOM     45  H   UNL     1      21.082   8.179  38.699  1.00  0.00     0.213 HD
ENDBRANCH  36  44
ENDBRANCH  30  31
ENDBRANCH   4  30
TORSDOF 18
ENDMDL
MODEL 3
REMARK VINA RESULT:    -6.496      2.655      4.567
REMARK INTER + INTRA:         -14.291
REMARK INTER:                 -11.540
REMARK INTRA:                  -2.751
REMARK UNBOUND:                -3.048
REMARK SMILES OC[C@H]1O[C@@H](O[C@H]2[C@H](O)[C@H](O)[C@H](O[C@@H]3[C@H](O)[C@H](O)[C@H](O)O[C@@H]3CO)O[C@@H]2CO)[C@@H](O)[C@H](O)[C@H]1O
REMARK SMILES IDX 7 1 26 2 25 3 12 4 10 5 8 6 6 7 5 8 3 9 33 10 4 11 31 12
REMARK SMILES IDX 29 13 2 14 1 15 34 17 32 19 30 21 27 23 28 24 9 26 11 28
REMARK SMILES IDX 13 30 14 31 22 32 15 33 21 34 17 35 19 36 23 37 24 38 16 40
REMARK SMILES IDX 18 42 20 44
REMARK H PARENT 1 16 34 18 32 20 30 22 28 25 9 27 11 29 24 39 16 41 18 43
REMARK H PARENT 20 45
REMARK Flexibility Score: inf
ROOT
ATOM      1  C   UNL     1      20.500  -3.228  35.394  1.00  0.00     0.184 C 
ATOM      2  C   UNL     1      19.713  -3.053  36.722  1.00  0.00     0.178 C 
ATOM      3  O   UNL     1      20.532  -3.361  37.847  1.00  0.00    -0.341 OA
ATOM      4  C   UNL     1      21.860  -2.827  37.789  1.00  0.00     0.282 C 
ATOM      5  C   UNL     1      22.023  -1.677  36.758  1.00  0.00     0.202 C 
ATOM      6  C   UNL     1      21.625  -2.162  35.339  1.00  0.00     0.180 C 
ENDROOT
BRANCH   1   7
ATOM      7  O   UNL     1      19.645  -3.075  34.264  1.00  0.00    -0.341 OA
BRANCH   7   8
ATOM      8  C   UNL     1      19.688  -4.188  33.370  1.00  0.00     0.282 C 
ATOM      9  C   UNL     1      21.130  -5.500  32.091  1.00  0.00     0.178 C 
ATOM     10  C   UNL     1      20.217  -5.470  30.834  1.00  0.00     0.177 C 
ATOM     11  O   UNL     1      21.002  -4.303  32.848  1.00  0.00    -0.341 OA
ATOM     12  C   UNL     1      18.748  -5.152  31.227  1.00  0.00     0.179 C 
ATOM     13  C   UNL     1      18.690  -3.967  32.206  1.00  0.00     0.202 C 
BRANCH   9  14
ATOM     14  C   UNL     1      22.607  -5.734  31.729  1.00  0.00     0.191 C 
BRANCH  14  15
ATOM     15  O   UNL     1      23.155  -6.754  32.518  1.00  0.00    -0.394 OA
ATOM     16  H   UNL     1      23.480  -7.445  31.884  1.00  0.00     0.210 HD
ENDBRANCH  14  15
ENDBRANCH   9  14
BRANCH  10  17
ATOM     17  O   UNL     1      20.695  -4.508  29.928  1.00  0.00    -0.387 OA
ATOM     18  H   UNL     1      20.130  -4.574  29.111  1.00  0.00     0.211 HD
ENDBRANCH  10  17
BRANCH  12  19
ATOM     19  O   UNL     1      18.070  -6.268  31.759  1.00  0.00    -0.387 OA
ATOM     20  H   UNL     1      18.581  -6.629  32.527  1.00  0.00     0.211 HD
ENDBRANCH  12  19
BRANCH  13  21
ATOM     21  O   UNL     1      19.003  -2.793  31.499  1.00  0.00    -0.385 OA
ATOM     22  H   UNL     1      18.616  -2.028  31.993  1.00  0.00     0.211 HD
ENDBRANCH  13  21
ENDBRANCH   7   8
ENDBRANCH   1   7
BRANCH   2  23
ATOM     23  C   UNL     1      18.420  -3.897  36.781  1.00  0.00     0.191 C 
BRANCH  23  24
ATOM     24  O   UNL     1      18.578  -5.195  36.275  1.00  0.00    -0.394 OA
ATOM     25  H   UNL     1      18.697  -5.812  37.046  1.00  0.00     0.210 HD
ENDBRANCH  23  24
ENDBRANCH   2  23
BRANCH   6  26
ATOM     26  O   UNL     1      22.747  -2.688  34.675  1.00  0.00    -0.387 OA
ATOM     27  H   UNL     1      23.238  -3.247  35.332  1.00  0.00     0.211 HD
ENDBRANCH   6  26
BRANCH   5  28
ATOM     28  O   UNL     1      23.343  -1.192  36.753  1.00  0.00    -0.385 OA
ATOM     29  H   UNL     1      23.603  -1.075  37.707  1.00  0.00     0.211 HD
ENDBRANCH   5  28
BRANCH   4  30
ATOM     30  O   UNL     1      22.814  -3.821  37.455  1.00  0.00    -0.341 OA
BRANCH  30  31
ATOM     31  C   UNL     1      22.682  -5.118  38.039  1.00  0.00     0.184 C 
ATOM     32  C   UNL     1      21.614  -6.127  37.495  1.00  0.00     0.178 C 
ATOM     33  C   UNL     1      23.988  -5.732  38.576  1.00  0.00     0.180 C 
ATOM     34  O   UNL     1      21.390  -7.202  38.412  1.00  0.00    -0.342 OA
ATOM     35  C   UNL     1      23.644  -6.916  39.497  1.00  0.00     0.201 C 
ATOM     36  C   UNL     1      22.553  -7.851  38.929  1.00  0.00     0.279 C 
BRANCH  32  37
ATOM     37  C   UNL     1      21.713  -6.646  36.037  1.00  0.00     0.191 C 
BRANCH  37  38
ATOM     38  O   UNL     1      22.586  -5.841  35.287  1.00  0.00    -0.394 OA
ATOM     39  H   UNL     1      22.361  -5.995  34.330  1.00  0.00     0.210 HD
ENDBRANCH  37  38
ENDBRANCH  32  37
BRANCH  33  40
ATOM     40  O   UNL     1      24.915  -6.082  37.590  1.00  0.00    -0.387 OA
ATOM     41  H   UNL     1      25.811  -6.128  37.991  1.00  0.00     0.211 HD
ENDBRANCH  33  40
BRANCH  35  42
ATOM     42  O   UNL     1      24.812  -7.643  39.794  1.00  0.00    -0.385 OA
ATOM     43  H   UNL     1      25.274  -7.809  38.933  1.00  0.00     0.211 HD
ENDBRANCH  35  42
BRANCH  36  44
ATOM     44  O   UNL     1      23.074  -8.819  38.049  1.00  0.00    -0.366 OA
ATOM     45  H   UNL     1      23.655  -8.373  37.398  1.00  0.00     0.213 HD
ENDBRANCH  36  44
ENDBRANCH  30  31
ENDBRANCH   4  30
TORSDOF 18
ENDMDL
MODEL 4
REMARK VINA RESULT:    -6.495     12.253     15.671
REMARK INTER + INTRA:         -14.289
REMARK INTER:                 -11.871
REMARK INTRA:                  -2.417
REMARK UNBOUND:                -3.048
REMARK SMILES OC[C@H]1O[C@@H](O[C@H]2[C@H](O)[C@H](O)[C@H](O[C@@H]3[C@H](O)[C@H](O)[C@H](O)O[C@@H]3CO)O[C@@H]2CO)[C@@H](O)[C@H](O)[C@H]1O
REMARK SMILES IDX 7 1 26 2 25 3 12 4 10 5 8 6 6 7 5 8 3 9 33 10 4 11 31 12
REMARK SMILES IDX 29 13 2 14 1 15 34 17 32 19 30 21 27 23 28 24 9 26 11 28
REMARK SMILES IDX 13 30 14 31 22 32 15 33 21 34 17 35 19 36 23 37 24 38 16 40
REMARK SMILES IDX 18 42 20 44
REMARK H PARENT 1 16 34 18 32 20 30 22 28 25 9 27 11 29 24 39 16 41 18 43
REMARK H PARENT 20 45
REMARK Flexibility Score: inf
ROOT
ATOM      1  C   UNL     1      28.395   5.194  44.922  1.00  0.00     0.184 C 
ATOM      2  C   UNL     1      28.799   5.525  43.458  1.00  0.00     0.178 C 
ATOM      3  O   UNL     1      27.679   5.992  42.711  1.00  0.00    -0.341 OA
ATOM      4  C   UNL     1      26.849   6.936  43.398  1.00  0.00     0.282 C 
ATOM      5  C   UNL     1      27.540   7.595  44.623  1.00  0.00     0.202 C 
ATOM      6  C   UNL     1      27.994   6.511  45.636  1.00  0.00     0.180 C 
ENDROOT
BRANCH   1   7
ATOM      7  O   UNL     1      29.470   4.580  45.627  1.00  0.00    -0.341 OA
BRANCH   7   8
ATOM      8  C   UNL     1      29.060   3.461  46.416  1.00  0.00     0.282 C 
ATOM      9  C   UNL     1      27.205   2.187  47.025  1.00  0.00     0.178 C 
ATOM     10  C   UNL     1      27.571   2.177  48.535  1.00  0.00     0.177 C 
ATOM     11  O   UNL     1      27.643   3.385  46.397  1.00  0.00    -0.341 OA
ATOM     12  C   UNL     1      29.087   2.451  48.736  1.00  0.00     0.179 C 
ATOM     13  C   UNL     1      29.545   3.641  47.876  1.00  0.00     0.202 C 
BRANCH   9  14
ATOM     14  C   UNL     1      25.696   1.998  46.794  1.00  0.00     0.191 C 
BRANCH  14  15
ATOM     15  O   UNL     1      25.134   1.209  47.807  1.00  0.00    -0.394 OA
ATOM     16  H   UNL     1      24.163   1.413  47.806  1.00  0.00     0.210 HD
ENDBRANCH  14  15
ENDBRANCH   9  14
BRANCH  10  17
ATOM     17  O   UNL     1      26.810   3.148  49.210  1.00  0.00    -0.387 OA
ATOM     18  H   UNL     1      26.384   3.718  48.514  1.00  0.00     0.211 HD
ENDBRANCH  10  17
BRANCH  12  19
ATOM     19  O   UNL     1      29.887   1.318  48.480  1.00  0.00    -0.387 OA
ATOM     20  H   UNL     1      30.717   1.598  48.016  1.00  0.00     0.211 HD
ENDBRANCH  12  19
BRANCH  13  21
ATOM     21  O   UNL     1      29.018   4.819  48.434  1.00  0.00    -0.385 OA
ATOM     22  H   UNL     1      29.776   5.420  48.645  1.00  0.00     0.211 HD
ENDBRANCH  13  21
ENDBRANCH   7   8
ENDBRANCH   1   7
BRANCH   2  23
ATOM     23  C   UNL     1      29.448   4.332  42.720  1.00  0.00     0.191 C 
BRANCH  23  24
ATOM     24  O   UNL     1      29.628   4.557  41.347  1.00  0.00    -0.394 OA
ATOM     25  H   UNL     1      30.332   3.934  41.024  1.00  0.00     0.210 HD
ENDBRANCH  23  24
ENDBRANCH   2  23
BRANCH   6  26
ATOM     26  O   UNL     1      26.970   6.256  46.564  1.00  0.00    -0.387 OA
ATOM     27  H   UNL     1      26.333   7.016  46.511  1.00  0.00     0.211 HD
ENDBRANCH   6  26
BRANCH   5  28
ATOM     28  O   UNL     1      26.678   8.513  45.249  1.00  0.00    -0.385 OA
ATOM     29  H   UNL     1      26.529   8.173  46.173  1.00  0.00     0.211 HD
ENDBRANCH   5  28
BRANCH   4  30
ATOM     30  O   UNL     1      25.651   6.342  43.868  1.00  0.00    -0.341 OA
BRANCH  30  31
ATOM     31  C   UNL     1      24.403   6.862  43.406  1.00  0.00     0.184 C 
ATOM     32  C   UNL     1      24.151   7.072  41.873  1.00  0.00     0.178 C 
ATOM     33  C   UNL     1      23.177   6.475  44.251  1.00  0.00     0.180 C 
ATOM     34  O   UNL     1      23.020   7.916  41.637  1.00  0.00    -0.342 OA
ATOM     35  C   UNL     1      22.000   7.394  43.879  1.00  0.00     0.201 C 
ATOM     36  C   UNL     1      21.828   7.601  42.357  1.00  0.00     0.279 C 
BRANCH  32  37
ATOM     37  C   UNL     1      24.149   5.853  40.916  1.00  0.00     0.191 C 
BRANCH  37  38
ATOM     38  O   UNL     1      25.281   5.051  41.139  1.00  0.00    -0.394 OA
ATOM     39  H   UNL     1      25.506   4.631  40.267  1.00  0.00     0.210 HD
ENDBRANCH  37  38
ENDBRANCH  32  37
BRANCH  33  40
ATOM     40  O   UNL     1      22.831   5.122  44.189  1.00  0.00    -0.387 OA
ATOM     41  H   UNL     1      22.017   4.972  44.718  1.00  0.00     0.211 HD
ENDBRANCH  33  40
BRANCH  35  42
ATOM     42  O   UNL     1      20.812   6.899  44.448  1.00  0.00    -0.385 OA
ATOM     43  H   UNL     1      21.003   5.978  44.757  1.00  0.00     0.211 HD
ENDBRANCH  35  42
BRANCH  36  44
ATOM     44  O   UNL     1      21.082   6.570  41.752  1.00  0.00    -0.366 OA
ATOM     45  H   UNL     1      21.009   6.756  40.793  1.00  0.00     0.213 HD
ENDBRANCH  36  44
ENDBRANCH  30  31
ENDBRANCH   4  30
TORSDOF 18
ENDMDL
MODEL 5
REMARK VINA RESULT:    -6.471      2.712      6.801
REMARK INTER + INTRA:         -14.248
REMARK INTER:                 -11.169
REMARK INTRA:                  -3.080
REMARK UNBOUND:                -3.048
REMARK SMILES OC[C@H]1O[C@@H](O[C@H]2[C@H](O)[C@H](O)[C@H](O[C@@H]3[C@H](O)[C@H](O)[C@H](O)O[C@@H]3CO)O[C@@H]2CO)[C@@H](O)[C@H](O)[C@H]1O
REMARK SMILES IDX 7 1 26 2 25 3 12 4 10 5 8 6 6 7 5 8 3 9 33 10 4 11 31 12
REMARK SMILES IDX 29 13 2 14 1 15 34 17 32 19 30 21 27 23 28 24 9 26 11 28
REMARK SMILES IDX 13 30 14 31 22 32 15 33 21 34 17 35 19 36 23 37 24 38 16 40
REMARK SMILES IDX 18 42 20 44
REMARK H PARENT 1 16 34 18 32 20 30 22 28 25 9 27 11 29 24 39 16 41 18 43
REMARK H PARENT 20 45
REMARK Flexibility Score: inf
ROOT
ATOM      1  C   UNL     1      21.705  -4.606  35.251  1.00  0.00     0.184 C 
ATOM      2  C   UNL     1      21.436  -3.229  35.920  1.00  0.00     0.178 C 
ATOM      3  O   UNL     1      20.380  -3.320  36.873  1.00  0.00    -0.341 OA
ATOM      4  C   UNL     1      20.434  -4.470  37.724  1.00  0.00     0.282 C 
ATOM      5  C   UNL     1      21.828  -5.155  37.756  1.00  0.00     0.202 C 
ATOM      6  C   UNL     1      22.254  -5.581  36.326  1.00  0.00     0.180 C 
ENDROOT
BRANCH   1   7
ATOM      7  O   UNL     1      22.648  -4.488  34.190  1.00  0.00    -0.341 OA
BRANCH   7   8
ATOM      8  C   UNL     1      22.083  -4.746  32.904  1.00  0.00     0.282 C 
ATOM      9  C   UNL     1      20.078  -4.753  31.713  1.00  0.00     0.178 C 
ATOM     10  C   UNL     1      20.349  -6.133  31.053  1.00  0.00     0.177 C 
ATOM     11  O   UNL     1      20.669  -4.675  33.003  1.00  0.00    -0.341 OA
ATOM     12  C   UNL     1      21.870  -6.452  31.046  1.00  0.00     0.179 C 
ATOM     13  C   UNL     1      22.494  -6.160  32.422  1.00  0.00     0.202 C 
BRANCH   9  14
ATOM     14  C   UNL     1      18.575  -4.442  31.807  1.00  0.00     0.191 C 
BRANCH  14  15
ATOM     15  O   UNL     1      18.036  -4.207  30.534  1.00  0.00    -0.394 OA
ATOM     16  H   UNL     1      18.802  -4.236  29.904  1.00  0.00     0.210 HD
ENDBRANCH  14  15
ENDBRANCH   9  14
BRANCH  10  17
ATOM     17  O   UNL     1      19.648  -7.134  31.748  1.00  0.00    -0.387 OA
ATOM     18  H   UNL     1      20.255  -7.469  32.462  1.00  0.00     0.211 HD
ENDBRANCH  10  17
BRANCH  12  19
ATOM     19  O   UNL     1      22.569  -5.769  30.030  1.00  0.00    -0.387 OA
ATOM     20  H   UNL     1      22.509  -6.284  29.185  1.00  0.00     0.211 HD
ENDBRANCH  12  19
BRANCH  13  21
ATOM     21  O   UNL     1      22.052  -7.141  33.326  1.00  0.00    -0.385 OA
ATOM     22  H   UNL     1      22.726  -7.215  34.047  1.00  0.00     0.211 HD
ENDBRANCH  13  21
ENDBRANCH   7   8
ENDBRANCH   1   7
BRANCH   2  23
ATOM     23  C   UNL     1      21.117  -2.109  34.904  1.00  0.00     0.191 C 
BRANCH  23  24
ATOM     24  O   UNL     1      19.850  -2.235  34.315  1.00  0.00    -0.394 OA
ATOM     25  H   UNL     1      19.208  -2.506  35.024  1.00  0.00     0.210 HD
ENDBRANCH  23  24
ENDBRANCH   2  23
BRANCH   6  26
ATOM     26  O   UNL     1      21.807  -6.886  36.056  1.00  0.00    -0.387 OA
ATOM     27  H   UNL     1      21.599  -6.929  35.087  1.00  0.00     0.211 HD
ENDBRANCH   6  26
BRANCH   5  28
ATOM     28  O   UNL     1      21.819  -6.270  38.612  1.00  0.00    -0.385 OA
ATOM     29  H   UNL     1      22.134  -5.946  39.499  1.00  0.00     0.211 HD
ENDBRANCH   5  28
BRANCH   4  30
ATOM     30  O   UNL     1      19.496  -5.459  37.337  1.00  0.00    -0.341 OA
BRANCH  30  31
ATOM     31  C   UNL     1      18.185  -5.043  36.948  1.00  0.00     0.184 C 
ATOM     32  C   UNL     1      17.794  -4.973  35.432  1.00  0.00     0.178 C 
ATOM     33  C   UNL     1      17.058  -5.421  37.925  1.00  0.00     0.180 C 
ATOM     34  O   UNL     1      16.600  -4.210  35.231  1.00  0.00    -0.342 OA
ATOM     35  C   UNL     1      15.803  -4.597  37.588  1.00  0.00     0.201 C 
ATOM     36  C   UNL     1      15.493  -4.526  36.076  1.00  0.00     0.279 C 
BRANCH  32  37
ATOM     37  C   UNL     1      17.783  -6.265  34.576  1.00  0.00     0.191 C 
BRANCH  37  38
ATOM     38  O   UNL     1      19.090  -6.750  34.400  1.00  0.00    -0.394 OA
ATOM     39  H   UNL     1      19.564  -6.605  35.262  1.00  0.00     0.210 HD
ENDBRANCH  37  38
ENDBRANCH  32  37
BRANCH  33  40
ATOM     40  O   UNL     1      16.787  -6.791  37.999  1.00  0.00    -0.387 OA
ATOM     41  H   UNL     1      16.260  -6.972  38.808  1.00  0.00     0.211 HD
ENDBRANCH  33  40
BRANCH  35  42
ATOM     42  O   UNL     1      14.697  -5.103  38.296  1.00  0.00    -0.385 OA
ATOM     43  H   UNL     1      13.956  -4.457  38.171  1.00  0.00     0.211 HD
ENDBRANCH  35  42
BRANCH  36  44
ATOM     44  O   UNL     1      14.760  -5.639  35.620  1.00  0.00    -0.366 OA
ATOM     45  H   UNL     1      13.804  -5.445  35.709  1.00  0.00     0.213 HD
ENDBRANCH  36  44
ENDBRANCH  30  31
ENDBRANCH   4  30
TORSDOF 18
ENDMDL
MODEL 6
REMARK VINA RESULT:    -6.471     11.732     15.520
REMARK INTER + INTRA:         -14.248
REMARK INTER:                 -11.824
REMARK INTRA:                  -2.424
REMARK UNBOUND:                -3.048
REMARK SMILES OC[C@H]1O[C@@H](O[C@H]2[C@H](O)[C@H](O)[C@H](O[C@@H]3[C@H](O)[C@H](O)[C@H](O)O[C@@H]3CO)O[C@@H]2CO)[C@@H](O)[C@H](O)[C@H]1O
REMARK SMILES IDX 7 1 26 2 25 3 12 4 10 5 8 6 6 7 5 8 3 9 33 10 4 11 31 12
REMARK SMILES IDX 29 13 2 14 1 15 34 17 32 19 30 21 27 23 28 24 9 26 11 28
REMARK SMILES IDX 13 30 14 31 22 32 15 33 21 34 17 35 19 36 23 37 24 38 16 40
REMARK SMILES IDX 18 42 20 44
REMARK H PARENT 1 16 34 18 32 20 30 22 28 25 9 27 11 29 24 39 16 41 18 43
REMARK H PARENT 20 45
REMARK Flexibility Score: inf
ROOT
ATOM      1  C   UNL     1      26.816   5.192  44.370  1.00  0.00     0.184 C 
ATOM      2  C   UNL     1      26.882   5.663  42.891  1.00  0.00     0.178 C 
ATOM      3  O   UNL     1      25.796   6.533  42.581  1.00  0.00    -0.341 OA
ATOM      4  C   UNL     1      25.514   7.522  43.578  1.00  0.00     0.282 C 
ATOM      5  C   UNL     1      26.681   7.747  44.578  1.00  0.00     0.202 C 
ATOM      6  C   UNL     1      27.046   6.418  45.292  1.00  0.00     0.180 C 
ENDROOT
BRANCH   1   7
ATOM      7  O   UNL     1      27.804   4.202  44.640  1.00  0.00    -0.341 OA
BRANCH   7   8
ATOM      8  C   UNL     1      27.251   2.953  45.057  1.00  0.00     0.282 C 
ATOM      9  C   UNL     1      25.248   1.776  45.268  1.00  0.00     0.178 C 
ATOM     10  C   UNL     1      25.572   1.269  46.700  1.00  0.00     0.177 C 
ATOM     11  O   UNL     1      25.835   3.049  45.028  1.00  0.00    -0.341 OA
ATOM     12  C   UNL     1      27.103   1.292  46.961  1.00  0.00     0.179 C 
ATOM     13  C   UNL     1      27.714   2.626  46.499  1.00  0.00     0.202 C 
BRANCH   9  14
ATOM     14  C   UNL     1      23.734   1.841  45.004  1.00  0.00     0.191 C 
BRANCH  14  15
ATOM     15  O   UNL     1      23.043   0.989  45.877  1.00  0.00    -0.394 OA
ATOM     16  H   UNL     1      22.079   1.178  45.736  1.00  0.00     0.210 HD
ENDBRANCH  14  15
ENDBRANCH   9  14
BRANCH  10  17
ATOM     17  O   UNL     1      24.907   2.070  47.645  1.00  0.00    -0.387 OA
ATOM     18  H   UNL     1      25.185   1.748  48.545  1.00  0.00     0.211 HD
ENDBRANCH  10  17
BRANCH  12  19
ATOM     19  O   UNL     1      27.777   0.206  46.367  1.00  0.00    -0.387 OA
ATOM     20  H   UNL     1      28.277  -0.293  47.063  1.00  0.00     0.211 HD
ENDBRANCH  12  19
BRANCH  13  21
ATOM     21  O   UNL     1      27.308   3.633  47.392  1.00  0.00    -0.385 OA
ATOM     22  H   UNL     1      26.479   4.039  47.036  1.00  0.00     0.211 HD
ENDBRANCH  13  21
ENDBRANCH   7   8
ENDBRANCH   1   7
BRANCH   2  23
ATOM     23  C   UNL     1      26.908   4.494  41.879  1.00  0.00     0.191 C 
BRANCH  23  24
ATOM     24  O   UNL     1      25.970   3.491  42.163  1.00  0.00    -0.394 OA
ATOM     25  H   UNL     1      26.354   2.902  42.866  1.00  0.00     0.210 HD
ENDBRANCH  23  24
ENDBRANCH   2  23
BRANCH   6  26
ATOM     26  O   UNL     1      26.290   6.278  46.469  1.00  0.00    -0.387 OA
ATOM     27  H   UNL     1      26.907   5.951  47.174  1.00  0.00     0.211 HD
ENDBRANCH   6  26
BRANCH   5  28
ATOM     28  O   UNL     1      26.346   8.731  45.525  1.00  0.00    -0.385 OA
ATOM     29  H   UNL     1      26.100   8.244  46.359  1.00  0.00     0.211 HD
ENDBRANCH   5  28
BRANCH   4  30
ATOM     30  O   UNL     1      24.370   7.187  44.346  1.00  0.00    -0.341 OA
BRANCH  30  31
ATOM     31  C   UNL     1      23.557   8.244  44.858  1.00  0.00     0.184 C 
ATOM     32  C   UNL     1      22.999   9.350  43.899  1.00  0.00     0.178 C 
ATOM     33  C   UNL     1      22.665   7.867  46.054  1.00  0.00     0.180 C 
ATOM     34  O   UNL     1      22.527  10.489  44.625  1.00  0.00    -0.342 OA
ATOM     35  C   UNL     1      22.157   9.153  46.728  1.00  0.00     0.201 C 
ATOM     36  C   UNL     1      21.662  10.225  45.731  1.00  0.00     0.279 C 
BRANCH  32  37
ATOM     37  C   UNL     1      22.016   8.965  42.763  1.00  0.00     0.191 C 
BRANCH  37  38
ATOM     38  O   UNL     1      21.820   7.574  42.734  1.00  0.00    -0.394 OA
ATOM     39  H   UNL     1      21.721   7.323  41.777  1.00  0.00     0.210 HD
ENDBRANCH  37  38
ENDBRANCH  32  37
BRANCH  33  40
ATOM     40  O   UNL     1      21.625   6.984  45.748  1.00  0.00    -0.387 OA
ATOM     41  H   UNL     1      20.796   7.304  46.167  1.00  0.00     0.211 HD
ENDBRANCH  33  40
BRANCH  35  42
ATOM     42  O   UNL     1      21.148   8.838  47.656  1.00  0.00    -0.385 OA
ATOM     43  H   UNL     1      21.101   9.592  48.297  1.00  0.00     0.211 HD
ENDBRANCH  35  42
BRANCH  36  44
ATOM     44  O   UNL     1      20.324  10.023  45.339  1.00  0.00    -0.366 OA
ATOM     45  H   UNL     1      19.996   9.197  45.751  1.00  0.00     0.213 HD
ENDBRANCH  36  44
ENDBRANCH  30  31
ENDBRANCH   4  30
TORSDOF 18
ENDMDL
MODEL 7
REMARK VINA RESULT:    -6.437      4.309      6.475
REMARK INTER + INTRA:         -14.188
REMARK INTER:                 -11.268
REMARK INTRA:                  -2.920
REMARK UNBOUND:                -3.048
REMARK SMILES OC[C@H]1O[C@@H](O[C@H]2[C@H](O)[C@H](O)[C@H](O[C@@H]3[C@H](O)[C@H](O)[C@H](O)O[C@@H]3CO)O[C@@H]2CO)[C@@H](O)[C@H](O)[C@H]1O
REMARK SMILES IDX 7 1 26 2 25 3 12 4 10 5 8 6 6 7 5 8 3 9 33 10 4 11 31 12
REMARK SMILES IDX 29 13 2 14 1 15 34 17 32 19 30 21 27 23 28 24 9 26 11 28
REMARK SMILES IDX 13 30 14 31 22 32 15 33 21 34 17 35 19 36 23 37 24 38 16 40
REMARK SMILES IDX 18 42 20 44
REMARK H PARENT 1 16 34 18 32 20 30 22 28 25 9 27 11 29 24 39 16 41 18 43
REMARK H PARENT 20 45
REMARK Flexibility Score: inf
ROOT
ATOM      1  C   UNL     1      16.648  -2.450  36.692  1.00  0.00     0.184 C 
ATOM      2  C   UNL     1      17.590  -1.279  36.296  1.00  0.00     0.178 C 
ATOM      3  O   UNL     1      17.736  -1.197  34.880  1.00  0.00    -0.341 OA
ATOM      4  C   UNL     1      16.520  -1.347  34.139  1.00  0.00     0.282 C 
ATOM      5  C   UNL     1      15.241  -1.136  34.994  1.00  0.00     0.202 C 
ATOM      6  C   UNL     1      15.217  -2.129  36.186  1.00  0.00     0.180 C 
ENDROOT
BRANCH   1   7
ATOM      7  O   UNL     1      16.622  -2.636  38.104  1.00  0.00    -0.341 OA
BRANCH   7   8
ATOM      8  C   UNL     1      16.412  -3.995  38.489  1.00  0.00     0.282 C 
ATOM      9  C   UNL     1      15.931  -5.364  40.315  1.00  0.00     0.178 C 
ATOM     10  C   UNL     1      17.025  -6.409  39.957  1.00  0.00     0.177 C 
ATOM     11  O   UNL     1      16.314  -4.058  39.903  1.00  0.00    -0.341 OA
ATOM     12  C   UNL     1      17.392  -6.329  38.449  1.00  0.00     0.179 C 
ATOM     13  C   UNL     1      17.602  -4.867  38.018  1.00  0.00     0.202 C 
BRANCH   9  14
ATOM     14  C   UNL     1      15.601  -5.363  41.817  1.00  0.00     0.191 C 
BRANCH  14  15
ATOM     15  O   UNL     1      15.518  -6.674  42.307  1.00  0.00    -0.394 OA
ATOM     16  H   UNL     1      16.084  -7.226  41.708  1.00  0.00     0.210 HD
ENDBRANCH  14  15
ENDBRANCH   9  14
BRANCH  10  17
ATOM     17  O   UNL     1      18.166  -6.185  40.746  1.00  0.00    -0.387 OA
ATOM     18  H   UNL     1      18.919  -6.003  40.121  1.00  0.00     0.211 HD
ENDBRANCH  10  17
BRANCH  12  19
ATOM     19  O   UNL     1      16.443  -6.959  37.620  1.00  0.00    -0.387 OA
ATOM     20  H   UNL     1      15.888  -6.271  37.172  1.00  0.00     0.211 HD
ENDBRANCH  12  19
BRANCH  13  21
ATOM     21  O   UNL     1      18.808  -4.408  38.577  1.00  0.00    -0.385 OA
ATOM     22  H   UNL     1      19.456  -4.283  37.841  1.00  0.00     0.211 HD
ENDBRANCH  13  21
ENDBRANCH   7   8
ENDBRANCH   1   7
BRANCH   2  23
ATOM     23  C   UNL     1      18.985  -1.370  36.953  1.00  0.00     0.191 C 
BRANCH  23  24
ATOM     24  O   UNL     1      19.726  -2.486  36.537  1.00  0.00    -0.394 OA
ATOM     25  H   UNL     1      20.341  -2.739  37.276  1.00  0.00     0.210 HD
ENDBRANCH  23  24
ENDBRANCH   2  23
BRANCH   6  26
ATOM     26  O   UNL     1      14.566  -3.318  35.813  1.00  0.00    -0.387 OA
ATOM     27  H   UNL     1      15.177  -4.068  36.039  1.00  0.00     0.211 HD
ENDBRANCH   6  26
BRANCH   5  28
ATOM     28  O   UNL     1      14.084  -1.291  34.210  1.00  0.00    -0.385 OA
ATOM     29  H   UNL     1      13.860  -2.261  34.229  1.00  0.00     0.211 HD
ENDBRANCH   5  28
BRANCH   4  30
ATOM     30  O   UNL     1      16.417  -2.632  33.549  1.00  0.00    -0.341 OA
BRANCH  30  31
ATOM     31  C   UNL     1      17.619  -3.350  33.261  1.00  0.00     0.184 C 
ATOM     32  C   UNL     1      18.083  -4.524  34.190  1.00  0.00     0.178 C 
ATOM     33  C   UNL     1      17.957  -3.491  31.766  1.00  0.00     0.180 C 
ATOM     34  O   UNL     1      19.451  -4.870  33.957  1.00  0.00    -0.342 OA
ATOM     35  C   UNL     1      19.426  -3.927  31.622  1.00  0.00     0.201 C 
ATOM     36  C   UNL     1      19.838  -5.055  32.595  1.00  0.00     0.279 C 
BRANCH  32  37
ATOM     37  C   UNL     1      17.202  -5.791  34.334  1.00  0.00     0.191 C 
BRANCH  37  38
ATOM     38  O   UNL     1      15.954  -5.462  34.890  1.00  0.00    -0.394 OA
ATOM     39  H   UNL     1      16.024  -5.638  35.866  1.00  0.00     0.210 HD
ENDBRANCH  37  38
ENDBRANCH  32  37
BRANCH  33  40
ATOM     40  O   UNL     1      17.087  -4.317  31.048  1.00  0.00    -0.387 OA
ATOM     41  H   UNL     1      16.240  -3.842  30.901  1.00  0.00     0.211 HD
ENDBRANCH  33  40
BRANCH  35  42
ATOM     42  O   UNL     1      19.682  -4.303  30.291  1.00  0.00    -0.385 OA
ATOM     43  H   UNL     1      18.927  -3.967  29.746  1.00  0.00     0.211 HD
ENDBRANCH  35  42
BRANCH  36  44
ATOM     44  O   UNL     1      19.516  -6.336  32.106  1.00  0.00    -0.366 OA
ATOM     45  H   UNL     1      18.552  -6.375  31.935  1.00  0.00     0.213 HD
ENDBRANCH  36  44
ENDBRANCH  30  31
ENDBRANCH   4  30
TORSDOF 18
ENDMDL
MODEL 8
REMARK VINA RESULT:    -6.408     12.334     15.646
REMARK INTER + INTRA:         -14.138
REMARK INTER:                 -10.496
REMARK INTRA:                  -3.642
REMARK UNBOUND:                -3.048
REMARK SMILES OC[C@H]1O[C@@H](O[C@H]2[C@H](O)[C@H](O)[C@H](O[C@@H]3[C@H](O)[C@H](O)[C@H](O)O[C@@H]3CO)O[C@@H]2CO)[C@@H](O)[C@H](O)[C@H]1O
REMARK SMILES IDX 7 1 26 2 25 3 12 4 10 5 8 6 6 7 5 8 3 9 33 10 4 11 31 12
REMARK SMILES IDX 29 13 2 14 1 15 34 17 32 19 30 21 27 23 28 24 9 26 11 28
REMARK SMILES IDX 13 30 14 31 22 32 15 33 21 34 17 35 19 36 23 37 24 38 16 40
REMARK SMILES IDX 18 42 20 44
REMARK H PARENT 1 16 34 18 32 20 30 22 28 25 9 27 11 29 24 39 16 41 18 43
REMARK H PARENT 20 45
REMARK Flexibility Score: inf
ROOT
ATOM      1  C   UNL     1      28.149   4.949  43.776  1.00  0.00     0.184 C 
ATOM      2  C   UNL     1      27.544   5.216  42.370  1.00  0.00     0.178 C 
ATOM      3  O   UNL     1      26.919   6.496  42.317  1.00  0.00    -0.341 OA
ATOM      4  C   UNL     1      27.663   7.556  42.930  1.00  0.00     0.282 C 
ATOM      5  C   UNL     1      29.164   7.220  43.140  1.00  0.00     0.202 C 
ATOM      6  C   UNL     1      29.316   5.944  44.012  1.00  0.00     0.180 C 
ENDROOT
BRANCH   1   7
ATOM      7  O   UNL     1      28.635   3.614  43.883  1.00  0.00    -0.341 OA
BRANCH   7   8
ATOM      8  C   UNL     1      27.941   2.839  44.862  1.00  0.00     0.282 C 
ATOM      9  C   UNL     1      25.940   2.691  46.050  1.00  0.00     0.178 C 
ATOM     10  C   UNL     1      26.642   2.425  47.410  1.00  0.00     0.177 C 
ATOM     11  O   UNL     1      26.742   3.512  45.210  1.00  0.00    -0.341 OA
ATOM     12  C   UNL     1      28.073   1.859  47.192  1.00  0.00     0.179 C 
ATOM     13  C   UNL     1      28.823   2.675  46.125  1.00  0.00     0.202 C 
BRANCH   9  14
ATOM     14  C   UNL     1      24.551   3.326  46.230  1.00  0.00     0.191 C 
BRANCH  14  15
ATOM     15  O   UNL     1      23.897   3.445  44.996  1.00  0.00    -0.394 OA
ATOM     16  H   UNL     1      24.144   4.339  44.641  1.00  0.00     0.210 HD
ENDBRANCH  14  15
ENDBRANCH   9  14
BRANCH  10  17
ATOM     17  O   UNL     1      26.701   3.618  48.152  1.00  0.00    -0.387 OA
ATOM     18  H   UNL     1      27.662   3.792  48.344  1.00  0.00     0.211 HD
ENDBRANCH  10  17
BRANCH  12  19
ATOM     19  O   UNL     1      28.076   0.489  46.862  1.00  0.00    -0.387 OA
ATOM     20  H   UNL     1      27.628  -0.025  47.581  1.00  0.00     0.211 HD
ENDBRANCH  12  19
BRANCH  13  21
ATOM     21  O   UNL     1      29.147   3.929  46.672  1.00  0.00    -0.385 OA
ATOM     22  H   UNL     1      28.310   4.342  47.000  1.00  0.00     0.211 HD
ENDBRANCH  13  21
ENDBRANCH   7   8
ENDBRANCH   1   7
BRANCH   2  23
ATOM     23  C   UNL     1      26.536   4.133  41.924  1.00  0.00     0.191 C 
BRANCH  23  24
ATOM     24  O   UNL     1      25.331   4.164  42.641  1.00  0.00    -0.394 OA
ATOM     25  H   UNL     1      25.114   3.234  42.917  1.00  0.00     0.210 HD
ENDBRANCH  23  24
ENDBRANCH   2  23
BRANCH   6  26
ATOM     26  O   UNL     1      29.377   6.292  45.372  1.00  0.00    -0.387 OA
ATOM     27  H   UNL     1      28.474   6.134  45.754  1.00  0.00     0.211 HD
ENDBRANCH   6  26
BRANCH   5  28
ATOM     28  O   UNL     1      29.840   8.298  43.738  1.00  0.00    -0.385 OA
ATOM     29  H   UNL     1      30.431   7.906  44.437  1.00  0.00     0.211 HD
ENDBRANCH   5  28
BRANCH   4  30
ATOM     30  O   UNL     1      27.135   7.908  44.197  1.00  0.00    -0.341 OA
BRANCH  30  31
ATOM     31  C   UNL     1      25.724   7.811  44.401  1.00  0.00     0.184 C 
ATOM     32  C   UNL     1      25.129   6.667  45.291  1.00  0.00     0.178 C 
ATOM     33  C   UNL     1      24.969   9.152  44.421  1.00  0.00     0.180 C 
ATOM     34  O   UNL     1      23.720   6.519  45.087  1.00  0.00    -0.342 OA
ATOM     35  C   UNL     1      23.463   8.884  44.259  1.00  0.00     0.201 C 
ATOM     36  C   UNL     1      22.942   7.716  45.127  1.00  0.00     0.279 C 
BRANCH  32  37
ATOM     37  C   UNL     1      25.486   6.595  46.798  1.00  0.00     0.191 C 
BRANCH  37  38
ATOM     38  O   UNL     1      26.814   6.170  46.969  1.00  0.00    -0.394 OA
ATOM     39  H   UNL     1      26.894   5.866  47.912  1.00  0.00     0.210 HD
ENDBRANCH  37  38
ENDBRANCH  32  37
BRANCH  33  40
ATOM     40  O   UNL     1      25.247   9.959  45.528  1.00  0.00    -0.387 OA
ATOM     41  H   UNL     1      25.750  10.750  45.233  1.00  0.00     0.211 HD
ENDBRANCH  33  40
BRANCH  35  42
ATOM     42  O   UNL     1      22.738  10.060  44.527  1.00  0.00    -0.385 OA
ATOM     43  H   UNL     1      22.453  10.427  43.652  1.00  0.00     0.211 HD
ENDBRANCH  35  42
BRANCH  36  44
ATOM     44  O   UNL     1      22.626   8.116  46.440  1.00  0.00    -0.366 OA
ATOM     45  H   UNL     1      22.853   9.064  46.544  1.00  0.00     0.213 HD
ENDBRANCH  36  44
ENDBRANCH  30  31
ENDBRANCH   4  30
TORSDOF 18
ENDMDL
MODEL 9
REMARK VINA RESULT:    -5.898     11.678     13.994
REMARK INTER + INTRA:         -13.256
REMARK INTER:                  -9.839
REMARK INTRA:                  -3.417
REMARK UNBOUND:                -3.048
REMARK SMILES OC[C@H]1O[C@@H](O[C@H]2[C@H](O)[C@H](O)[C@H](O[C@@H]3[C@H](O)[C@H](O)[C@H](O)O[C@@H]3CO)O[C@@H]2CO)[C@@H](O)[C@H](O)[C@H]1O
REMARK SMILES IDX 7 1 26 2 25 3 12 4 10 5 8 6 6 7 5 8 3 9 33 10 4 11 31 12
REMARK SMILES IDX 29 13 2 14 1 15 34 17 32 19 30 21 27 23 28 24 9 26 11 28
REMARK SMILES IDX 13 30 14 31 22 32 15 33 21 34 17 35 19 36 23 37 24 38 16 40
REMARK SMILES IDX 18 42 20 44
REMARK H PARENT 1 16 34 18 32 20 30 22 28 25 9 27 11 29 24 39 16 41 18 43
REMARK H PARENT 20 45
REMARK Flexibility Score: inf
ROOT
ATOM      1  C   UNL     1      26.506   7.006  43.192  1.00  0.00     0.184 C 
ATOM      2  C   UNL     1      26.888   8.092  44.236  1.00  0.00     0.178 C 
ATOM      3  O   UNL     1      27.905   7.620  45.116  1.00  0.00    -0.341 OA
ATOM      4  C   UNL     1      28.972   6.911  44.478  1.00  0.00     0.282 C 
ATOM      5  C   UNL     1      29.056   7.159  42.947  1.00  0.00     0.202 C 
ATOM      6  C   UNL     1      27.722   6.762  42.261  1.00  0.00     0.180 C 
ENDROOT
BRANCH   1   7
ATOM      7  O   UNL     1      25.385   7.413  42.412  1.00  0.00    -0.341 OA
BRANCH   7   8
ATOM      8  C   UNL     1      24.207   6.650  42.678  1.00  0.00     0.282 C 
ATOM      9  C   UNL     1      23.197   5.266  44.261  1.00  0.00     0.178 C 
ATOM     10  C   UNL     1      22.753   4.209  43.212  1.00  0.00     0.177 C 
ATOM     11  O   UNL     1      24.406   5.903  43.868  1.00  0.00    -0.341 OA
ATOM     12  C   UNL     1      22.678   4.838  41.793  1.00  0.00     0.179 C 
ATOM     13  C   UNL     1      23.933   5.679  41.502  1.00  0.00     0.202 C 
BRANCH   9  14
ATOM     14  C   UNL     1      23.359   4.657  45.664  1.00  0.00     0.191 C 
BRANCH  14  15
ATOM     15  O   UNL     1      22.479   3.580  45.841  1.00  0.00    -0.394 OA
ATOM     16  H   UNL     1      22.655   2.957  45.089  1.00  0.00     0.210 HD
ENDBRANCH  14  15
ENDBRANCH   9  14
BRANCH  10  17
ATOM     17  O   UNL     1      23.656   3.132  43.217  1.00  0.00    -0.387 OA
ATOM     18  H   UNL     1      24.572   3.522  43.249  1.00  0.00     0.211 HD
ENDBRANCH  10  17
BRANCH  12  19
ATOM     19  O   UNL     1      21.511   5.603  41.594  1.00  0.00    -0.387 OA
ATOM     20  H   UNL     1      20.943   5.556  42.405  1.00  0.00     0.211 HD
ENDBRANCH  12  19
BRANCH  13  21
ATOM     21  O   UNL     1      25.018   4.805  41.315  1.00  0.00    -0.385 OA
ATOM     22  H   UNL     1      25.173   4.718  40.341  1.00  0.00     0.211 HD
ENDBRANCH  13  21
ENDBRANCH   7   8
ENDBRANCH   1   7
BRANCH   2  23
ATOM     23  C   UNL     1      25.683   8.594  45.063  1.00  0.00     0.191 C 
BRANCH  23  24
ATOM     24  O   UNL     1      25.332   7.733  46.114  1.00  0.00    -0.394 OA
ATOM     25  H   UNL     1      25.638   8.147  46.964  1.00  0.00     0.210 HD
ENDBRANCH  23  24
ENDBRANCH   2  23
BRANCH   6  26
ATOM     26  O   UNL     1      27.761   5.412  41.872  1.00  0.00    -0.387 OA
ATOM     27  H   UNL     1      27.614   5.387  40.891  1.00  0.00     0.211 HD
ENDBRANCH   6  26
BRANCH   5  28
ATOM     28  O   UNL     1      30.125   6.442  42.381  1.00  0.00    -0.385 OA
ATOM     29  H   UNL     1      30.404   5.771  43.062  1.00  0.00     0.211 HD
ENDBRANCH   5  28
BRANCH   4  30
ATOM     30  O   UNL     1      28.862   5.510  44.665  1.00  0.00    -0.341 OA
BRANCH  30  31
ATOM     31  C   UNL     1      28.350   5.024  45.907  1.00  0.00     0.184 C 
ATOM     32  C   UNL     1      26.896   4.447  45.994  1.00  0.00     0.178 C 
ATOM     33  C   UNL     1      29.392   4.386  46.843  1.00  0.00     0.180 C 
ATOM     34  O   UNL     1      26.446   4.352  47.349  1.00  0.00    -0.342 OA
ATOM     35  C   UNL     1      28.794   4.269  48.256  1.00  0.00     0.201 C 
ATOM     36  C   UNL     1      27.343   3.738  48.276  1.00  0.00     0.279 C 
BRANCH  32  37
ATOM     37  C   UNL     1      26.519   3.177  45.190  1.00  0.00     0.191 C 
BRANCH  37  38
ATOM     38  O   UNL     1      26.423   3.473  43.819  1.00  0.00    -0.394 OA
ATOM     39  H   UNL     1      25.623   2.988  43.480  1.00  0.00     0.210 HD
ENDBRANCH  37  38
ENDBRANCH  32  37
BRANCH  33  40
ATOM     40  O   UNL     1      29.917   3.173  46.388  1.00  0.00    -0.387 OA
ATOM     41  H   UNL     1      30.567   2.836  47.043  1.00  0.00     0.211 HD
ENDBRANCH  33  40
BRANCH  35  42
ATOM     42  O   UNL     1      29.625   3.466  49.059  1.00  0.00    -0.385 OA
ATOM     43  H   UNL     1      30.538   3.527  48.680  1.00  0.00     0.211 HD
ENDBRANCH  35  42
BRANCH  36  44
ATOM     44  O   UNL     1      27.281   2.332  48.243  1.00  0.00    -0.366 OA
ATOM     45  H   UNL     1      27.967   2.000  47.627  1.00  0.00     0.213 HD
ENDBRANCH  36  44
ENDBRANCH  30  31
ENDBRANCH   4  30
TORSDOF 18
ENDMDL
