MODEL 1
REMARK VINA RESULT:    -3.877      0.000      0.000
REMARK INTER + INTRA:          -4.303
REMARK INTER:                  -4.217
REMARK INTRA:                  -0.086
REMARK UNBOUND:                -0.086
REMARK SMILES C=C(C)[C@H]1CC=C(C)[C@H](O)C1
REMARK SMILES IDX 8 1 7 2 6 3 5 4 4 5 11 6 9 7 10 8 2 10 1 11 3 12
REMARK H PARENT 10 9
REMARK Flexibility Score: inf
ROOT
ATOM      1  C   UNL     1      13.591  11.426  33.601  1.00  0.00     0.042 C 
ATOM      2  C   UNL     1      13.951  11.978  34.954  1.00  0.00    -0.049 C 
ATOM      3  C   UNL     1      14.384  11.129  35.910  1.00  0.00    -0.025 C 
ATOM      4  C   UNL     1      14.700  11.570  37.317  1.00  0.00     0.035 C 
ATOM      5  C   UNL     1      15.090  13.055  37.381  1.00  0.00     0.021 C 
ATOM      6  C   UNL     1      14.037  13.903  36.648  1.00  0.00     0.044 C 
ATOM      7  C   UNL     1      13.907  13.486  35.168  1.00  0.00     0.140 C 
ENDROOT
BRANCH   7   8
ATOM      8  O   UNL     1      14.885  14.124  34.385  1.00  0.00    -0.389 OA
ATOM      9  H   UNL     1      14.487  14.311  33.495  1.00  0.00     0.211 HD
ENDBRANCH   7   8
BRANCH   5  10
ATOM     10  C   UNL     1      15.286  13.520  38.819  1.00  0.00    -0.077 C 
ATOM     11  C   UNL     1      16.473  13.402  39.438  1.00  0.00     0.008 C 
ATOM     12  C   UNL     1      14.134  14.125  39.581  1.00  0.00     0.039 C 
ENDBRANCH   5  10
TORSDOF 2
ENDMDL
MODEL 2
REMARK VINA RESULT:    -3.835      0.153      1.056
REMARK INTER + INTRA:          -4.257
REMARK INTER:                  -4.166
REMARK INTRA:                  -0.091
REMARK UNBOUND:                -0.086
REMARK SMILES C=C(C)[C@H]1CC=C(C)[C@H](O)C1
REMARK SMILES IDX 8 1 7 2 6 3 5 4 4 5 11 6 9 7 10 8 2 10 1 11 3 12
REMARK H PARENT 10 9
REMARK Flexibility Score: inf
ROOT
ATOM      1  C   UNL     1      13.420  11.511  33.620  1.00  0.00     0.042 C 
ATOM      2  C   UNL     1      13.791  12.050  34.974  1.00  0.00    -0.049 C 
ATOM      3  C   UNL     1      14.148  11.182  35.946  1.00  0.00    -0.025 C 
ATOM      4  C   UNL     1      14.468  11.613  37.355  1.00  0.00     0.035 C 
ATOM      5  C   UNL     1      14.957  13.069  37.414  1.00  0.00     0.021 C 
ATOM      6  C   UNL     1      13.977  13.980  36.655  1.00  0.00     0.044 C 
ATOM      7  C   UNL     1      13.846  13.559  35.176  1.00  0.00     0.140 C 
ENDROOT
BRANCH   7   8
ATOM      8  O   UNL     1      14.879  14.121  34.406  1.00  0.00    -0.389 OA
ATOM      9  H   UNL     1      14.979  13.574  33.584  1.00  0.00     0.211 HD
ENDBRANCH   7   8
BRANCH   5  10
ATOM     10  C   UNL     1      15.157  13.533  38.852  1.00  0.00    -0.077 C 
ATOM     11  C   UNL     1      14.166  14.125  39.541  1.00  0.00     0.008 C 
ATOM     12  C   UNL     1      16.489  13.339  39.530  1.00  0.00     0.039 C 
ENDBRANCH   5  10
TORSDOF 2
ENDMDL
MODEL 3
REMARK VINA RESULT:    -3.434      1.430      2.301
REMARK INTER + INTRA:          -3.821
REMARK INTER:                  -3.735
REMARK INTRA:                  -0.086
REMARK UNBOUND:                -0.086
REMARK SMILES C=C(C)[C@H]1CC=C(C)[C@H](O)C1
REMARK SMILES IDX 8 1 7 2 6 3 5 4 4 5 11 6 9 7 10 8 2 10 1 11 3 12
REMARK H PARENT 10 9
REMARK Flexibility Score: inf
ROOT
ATOM      1  C   UNL     1      13.623  11.590  33.517  1.00  0.00     0.042 C 
ATOM      2  C   UNL     1      14.029  12.153  34.852  1.00  0.00    -0.049 C 
ATOM      3  C   UNL     1      13.745  13.444  35.129  1.00  0.00    -0.025 C 
ATOM      4  C   UNL     1      14.172  14.122  36.406  1.00  0.00     0.035 C 
ATOM      5  C   UNL     1      14.365  13.120  37.554  1.00  0.00     0.021 C 
ATOM      6  C   UNL     1      15.268  11.963  37.091  1.00  0.00     0.044 C 
ATOM      7  C   UNL     1      14.661  11.224  35.881  1.00  0.00     0.140 C 
ENDROOT
BRANCH   7   8
ATOM      8  O   UNL     1      13.733  10.256  36.305  1.00  0.00    -0.389 OA
ATOM      9  H   UNL     1      14.100   9.817  37.117  1.00  0.00     0.211 HD
ENDBRANCH   7   8
BRANCH   5  10
ATOM     10  C   UNL     1      14.916  13.798  38.803  1.00  0.00    -0.077 C 
ATOM     11  C   UNL     1      14.117  14.122  39.834  1.00  0.00     0.008 C 
ATOM     12  C   UNL     1      16.384  14.125  38.900  1.00  0.00     0.039 C 
ENDBRANCH   5  10
TORSDOF 2
ENDMDL
MODEL 4
REMARK VINA RESULT:    -3.391      1.563      4.478
REMARK INTER + INTRA:          -3.774
REMARK INTER:                  -3.681
REMARK INTRA:                  -0.093
REMARK UNBOUND:                -0.086
REMARK SMILES C=C(C)[C@H]1CC=C(C)[C@H](O)C1
REMARK SMILES IDX 8 1 7 2 6 3 5 4 4 5 11 6 9 7 10 8 2 10 1 11 3 12
REMARK H PARENT 10 9
REMARK Flexibility Score: inf
ROOT
ATOM      1  C   UNL     1      15.708  13.807  39.932  1.00  0.00     0.042 C 
ATOM      2  C   UNL     1      15.205  13.470  38.555  1.00  0.00    -0.049 C 
ATOM      3  C   UNL     1      14.125  14.125  38.077  1.00  0.00    -0.025 C 
ATOM      4  C   UNL     1      13.499  13.812  36.741  1.00  0.00     0.035 C 
ATOM      5  C   UNL     1      14.509  13.191  35.764  1.00  0.00     0.021 C 
ATOM      6  C   UNL     1      15.235  12.016  36.441  1.00  0.00     0.044 C 
ATOM      7  C   UNL     1      15.986  12.472  37.709  1.00  0.00     0.140 C 
ENDROOT
BRANCH   7   8
ATOM      8  O   UNL     1      17.250  12.990  37.378  1.00  0.00    -0.389 OA
ATOM      9  H   UNL     1      17.752  13.132  38.223  1.00  0.00     0.211 HD
ENDBRANCH   7   8
BRANCH   5  10
ATOM     10  C   UNL     1      13.839  12.764  34.464  1.00  0.00    -0.077 C 
ATOM     11  C   UNL     1      13.968  11.513  33.987  1.00  0.00     0.008 C 
ATOM     12  C   UNL     1      13.015  13.752  33.678  1.00  0.00     0.039 C 
ENDBRANCH   5  10
TORSDOF 2
ENDMDL
MODEL 5
REMARK VINA RESULT:    -2.073      1.742      2.802
REMARK INTER + INTRA:          -2.341
REMARK INTER:                  -2.247
REMARK INTRA:                  -0.095
REMARK UNBOUND:                -0.086
REMARK SMILES C=C(C)[C@H]1CC=C(C)[C@H](O)C1
REMARK SMILES IDX 8 1 7 2 6 3 5 4 4 5 11 6 9 7 10 8 2 10 1 11 3 12
REMARK H PARENT 10 9
REMARK Flexibility Score: inf
ROOT
ATOM      1  C   UNL     1      13.552  13.666  35.262  1.00  0.00     0.042 C 
ATOM      2  C   UNL     1      14.322  13.594  36.552  1.00  0.00    -0.049 C 
ATOM      3  C   UNL     1      13.758  14.084  37.677  1.00  0.00    -0.025 C 
ATOM      4  C   UNL     1      14.472  14.125  39.004  1.00  0.00     0.035 C 
ATOM      5  C   UNL     1      15.561  13.045  39.104  1.00  0.00     0.021 C 
ATOM      6  C   UNL     1      16.471  13.105  37.865  1.00  0.00     0.044 C 
ATOM      7  C   UNL     1      15.670  12.884  36.566  1.00  0.00     0.140 C 
ENDROOT
BRANCH   7   8
ATOM      8  O   UNL     1      15.506  11.511  36.310  1.00  0.00    -0.389 OA
ATOM      9  H   UNL     1      15.139  11.090  37.131  1.00  0.00     0.211 HD
ENDBRANCH   7   8
BRANCH   5  10
ATOM     10  C   UNL     1      16.360  13.175  40.395  1.00  0.00    -0.077 C 
ATOM     11  C   UNL     1      16.075  14.125  41.303  1.00  0.00     0.008 C 
ATOM     12  C   UNL     1      17.500  12.230  40.677  1.00  0.00     0.039 C 
ENDBRANCH   5  10
TORSDOF 2
ENDMDL
