MODEL 1
REMARK VINA RESULT:    -8.742      0.000      0.000
REMARK INTER + INTRA:         -11.088
REMARK INTER:                 -10.786
REMARK INTRA:                  -0.302
REMARK UNBOUND:                -0.302
REMARK SMILES O=c1c(O)c(-c2cc(O)c(O)c(O)c2)oc2cc(O)cc(O)c12
REMARK SMILES IDX 5 1 3 2 2 3 1 4 23 5 21 6 20 7 18 8 17 9 16 10 15 11 6 12
REMARK SMILES IDX 7 13 8 14 14 15 10 16 12 17 9 18 11 20 13 22 4 24 22 26
REMARK SMILES IDX 19 28
REMARK H PARENT 9 19 11 21 13 23 4 25 22 27 19 29
REMARK Flexibility Score: inf
ROOT
ATOM      1  C   UNL     1     -10.842   6.189  35.061  1.00  0.00     0.180 A 
ATOM      2  C   UNL     1     -11.000   4.848  35.452  1.00  0.00     0.208 A 
ATOM      3  C   UNL     1     -12.223   4.206  35.203  1.00  0.00     0.238 A 
ATOM      4  O   UNL     1     -12.378   3.023  35.604  1.00  0.00    -0.285 OA
ATOM      5  C   UNL     1     -13.267   4.907  34.552  1.00  0.00     0.111 A 
ATOM      6  C   UNL     1     -14.534   4.342  34.213  1.00  0.00     0.134 A 
ATOM      7  C   UNL     1     -15.538   5.166  33.687  1.00  0.00     0.093 A 
ATOM      8  C   UNL     1     -15.298   6.517  33.428  1.00  0.00     0.123 A 
ATOM      9  C   UNL     1     -14.046   7.062  33.699  1.00  0.00     0.094 A 
ATOM     10  C   UNL     1     -13.036   6.276  34.258  1.00  0.00     0.146 A 
ATOM     11  O   UNL     1     -11.860   6.838  34.511  1.00  0.00    -0.452 OA
ENDROOT
BRANCH   1  12
ATOM     12  C   UNL     1      -9.573   6.924  35.267  1.00  0.00     0.029 A 
ATOM     13  C   UNL     1      -8.438   6.659  34.483  1.00  0.00     0.062 A 
ATOM     14  C   UNL     1      -7.253   7.383  34.677  1.00  0.00     0.162 A 
ATOM     15  C   UNL     1      -9.517   7.948  36.226  1.00  0.00     0.062 A 
ATOM     16  C   UNL     1      -7.199   8.390  35.655  1.00  0.00     0.200 A 
ATOM     17  C   UNL     1      -8.338   8.673  36.428  1.00  0.00     0.162 A 
BRANCH  14  18
ATOM     18  O   UNL     1      -6.130   7.107  33.897  1.00  0.00    -0.504 OA
ATOM     19  H   UNL     1      -5.755   6.168  33.818  1.00  0.00     0.293 HD
ENDBRANCH  14  18
BRANCH  16  20
ATOM     20  O   UNL     1      -6.026   9.117  35.865  1.00  0.00    -0.502 OA
ATOM     21  H   UNL     1      -5.550   9.604  35.115  1.00  0.00     0.293 HD
ENDBRANCH  16  20
BRANCH  17  22
ATOM     22  O   UNL     1      -8.319   9.673  37.400  1.00  0.00    -0.504 OA
ATOM     23  H   UNL     1      -9.068   9.783  38.074  1.00  0.00     0.293 HD
ENDBRANCH  17  22
ENDBRANCH   1  12
BRANCH   2  24
ATOM     24  O   UNL     1      -9.964   4.181  36.113  1.00  0.00    -0.502 OA
ATOM     25  H   UNL     1      -9.104   4.643  36.382  1.00  0.00     0.293 HD
ENDBRANCH   2  24
BRANCH   6  26
ATOM     26  O   UNL     1     -14.845   2.986  34.346  1.00  0.00    -0.507 OA
ATOM     27  H   UNL     1     -14.306   2.323  34.882  1.00  0.00     0.293 HD
ENDBRANCH   6  26
BRANCH   8  28
ATOM     28  O   UNL     1     -16.298   7.325  32.889  1.00  0.00    -0.508 OA
ATOM     29  H   UNL     1     -16.981   6.959  32.236  1.00  0.00     0.293 HD
ENDBRANCH   8  28
TORSDOF 7
ENDMDL
MODEL 2
REMARK VINA RESULT:    -8.741      1.378      6.887
REMARK INTER + INTRA:         -11.088
REMARK INTER:                 -10.802
REMARK INTRA:                  -0.285
REMARK UNBOUND:                -0.302
REMARK SMILES O=c1c(O)c(-c2cc(O)c(O)c(O)c2)oc2cc(O)cc(O)c12
REMARK SMILES IDX 5 1 3 2 2 3 1 4 23 5 21 6 20 7 18 8 17 9 16 10 15 11 6 12
REMARK SMILES IDX 7 13 8 14 14 15 10 16 12 17 9 18 11 20 13 22 4 24 22 26
REMARK SMILES IDX 19 28
REMARK H PARENT 9 19 11 21 13 23 4 25 22 27 19 29
REMARK Flexibility Score: inf
ROOT
ATOM      1  C   UNL     1     -11.243   5.949  34.925  1.00  0.00     0.180 A 
ATOM      2  C   UNL     1      -9.987   5.581  34.413  1.00  0.00     0.208 A 
ATOM      3  C   UNL     1      -8.878   6.400  34.677  1.00  0.00     0.238 A 
ATOM      4  O   UNL     1      -7.766   6.095  34.171  1.00  0.00    -0.285 OA
ATOM      5  C   UNL     1      -9.035   7.567  35.463  1.00  0.00     0.111 A 
ATOM      6  C   UNL     1      -7.972   8.449  35.827  1.00  0.00     0.134 A 
ATOM      7  C   UNL     1      -8.265   9.643  36.497  1.00  0.00     0.093 A 
ATOM      8  C   UNL     1      -9.573   9.955  36.874  1.00  0.00     0.123 A 
ATOM      9  C   UNL     1     -10.609   9.072  36.576  1.00  0.00     0.094 A 
ATOM     10  C   UNL     1     -10.353   7.891  35.876  1.00  0.00     0.146 A 
ATOM     11  O   UNL     1     -11.370   7.083  35.603  1.00  0.00    -0.452 OA
ENDROOT
BRANCH   1  12
ATOM     12  C   UNL     1     -12.453   5.123  34.709  1.00  0.00     0.029 A 
ATOM     13  C   UNL     1     -12.621   3.888  35.358  1.00  0.00     0.062 A 
ATOM     14  C   UNL     1     -13.784   3.132  35.160  1.00  0.00     0.162 A 
ATOM     15  C   UNL     1     -13.481   5.607  33.885  1.00  0.00     0.062 A 
ATOM     16  C   UNL     1     -14.799   3.614  34.315  1.00  0.00     0.200 A 
ATOM     17  C   UNL     1     -14.645   4.858  33.680  1.00  0.00     0.162 A 
BRANCH  14  18
ATOM     18  O   UNL     1     -13.938   1.905  35.804  1.00  0.00    -0.504 OA
ATOM     19  H   UNL     1     -14.630   1.769  36.532  1.00  0.00     0.293 HD
ENDBRANCH  14  18
BRANCH  16  20
ATOM     20  O   UNL     1     -15.961   2.871  34.103  1.00  0.00    -0.502 OA
ATOM     21  H   UNL     1     -16.884   3.242  34.300  1.00  0.00     0.293 HD
ENDBRANCH  16  20
BRANCH  17  22
ATOM     22  O   UNL     1     -15.637   5.368  32.843  1.00  0.00    -0.504 OA
ATOM     23  H   UNL     1     -16.200   4.772  32.249  1.00  0.00     0.293 HD
ENDBRANCH  17  22
ENDBRANCH   1  12
BRANCH   2  24
ATOM     24  O   UNL     1      -9.857   4.436  33.621  1.00  0.00    -0.502 OA
ATOM     25  H   UNL     1      -9.036   3.844  33.651  1.00  0.00     0.293 HD
ENDBRANCH   2  24
BRANCH   6  26
ATOM     26  O   UNL     1      -6.621   8.186  35.580  1.00  0.00    -0.507 OA
ATOM     27  H   UNL     1      -6.279   7.500  34.925  1.00  0.00     0.293 HD
ENDBRANCH   6  26
BRANCH   8  28
ATOM     28  O   UNL     1      -9.854  11.138  37.555  1.00  0.00    -0.508 OA
ATOM     29  H   UNL     1      -9.113  11.737  37.904  1.00  0.00     0.293 HD
ENDBRANCH   8  28
TORSDOF 7
ENDMDL
MODEL 3
REMARK VINA RESULT:    -8.677      0.093      1.757
REMARK INTER + INTRA:         -11.009
REMARK INTER:                 -10.749
REMARK INTRA:                  -0.260
REMARK UNBOUND:                -0.302
REMARK SMILES O=c1c(O)c(-c2cc(O)c(O)c(O)c2)oc2cc(O)cc(O)c12
REMARK SMILES IDX 5 1 3 2 2 3 1 4 23 5 21 6 20 7 18 8 17 9 16 10 15 11 6 12
REMARK SMILES IDX 7 13 8 14 14 15 10 16 12 17 9 18 11 20 13 22 4 24 22 26
REMARK SMILES IDX 19 28
REMARK H PARENT 9 19 11 21 13 23 4 25 22 27 19 29
REMARK Flexibility Score: inf
ROOT
ATOM      1  C   UNL     1     -10.933   6.211  35.047  1.00  0.00     0.180 A 
ATOM      2  C   UNL     1     -11.071   4.867  35.436  1.00  0.00     0.208 A 
ATOM      3  C   UNL     1     -12.281   4.204  35.177  1.00  0.00     0.238 A 
ATOM      4  O   UNL     1     -12.418   3.017  35.576  1.00  0.00    -0.285 OA
ATOM      5  C   UNL     1     -13.332   4.887  34.521  1.00  0.00     0.111 A 
ATOM      6  C   UNL     1     -14.587   4.301  34.172  1.00  0.00     0.134 A 
ATOM      7  C   UNL     1     -15.602   5.108  33.642  1.00  0.00     0.093 A 
ATOM      8  C   UNL     1     -15.384   6.464  33.386  1.00  0.00     0.123 A 
ATOM      9  C   UNL     1     -14.143   7.030  33.666  1.00  0.00     0.094 A 
ATOM     10  C   UNL     1     -13.123   6.261  34.231  1.00  0.00     0.146 A 
ATOM     11  O   UNL     1     -11.959   6.843  34.492  1.00  0.00    -0.452 OA
ENDROOT
BRANCH   1  12
ATOM     12  C   UNL     1      -9.679   6.968  35.263  1.00  0.00     0.029 A 
ATOM     13  C   UNL     1      -9.584   7.960  36.252  1.00  0.00     0.062 A 
ATOM     14  C   UNL     1      -8.381   8.649  36.457  1.00  0.00     0.162 A 
ATOM     15  C   UNL     1      -8.542   6.649  34.504  1.00  0.00     0.062 A 
ATOM     16  C   UNL     1      -7.253   8.339  35.677  1.00  0.00     0.200 A 
ATOM     17  C   UNL     1      -7.337   7.333  34.700  1.00  0.00     0.162 A 
BRANCH  14  18
ATOM     18  O   UNL     1      -8.300   9.637  37.438  1.00  0.00    -0.504 OA
ATOM     19  H   UNL     1      -8.531  10.604  37.239  1.00  0.00     0.293 HD
ENDBRANCH  14  18
BRANCH  16  20
ATOM     20  O   UNL     1      -6.049   9.019  35.865  1.00  0.00    -0.502 OA
ATOM     21  H   UNL     1      -5.885   9.944  35.484  1.00  0.00     0.293 HD
ENDBRANCH  16  20
BRANCH  17  22
ATOM     22  O   UNL     1      -6.234   6.996  33.916  1.00  0.00    -0.504 OA
ATOM     23  H   UNL     1      -6.143   6.086  33.478  1.00  0.00     0.293 HD
ENDBRANCH  17  22
ENDBRANCH   1  12
BRANCH   2  24
ATOM     24  O   UNL     1     -10.028   4.217  36.103  1.00  0.00    -0.502 OA
ATOM     25  H   UNL     1      -9.591   4.599  36.933  1.00  0.00     0.293 HD
ENDBRANCH   2  24
BRANCH   6  26
ATOM     26  O   UNL     1     -14.875   2.940  34.301  1.00  0.00    -0.507 OA
ATOM     27  H   UNL     1     -14.442   2.321  34.970  1.00  0.00     0.293 HD
ENDBRANCH   6  26
BRANCH   8  28
ATOM     28  O   UNL     1     -16.394   7.255  32.842  1.00  0.00    -0.508 OA
ATOM     29  H   UNL     1     -16.819   8.009  33.371  1.00  0.00     0.293 HD
ENDBRANCH   8  28
TORSDOF 7
ENDMDL
MODEL 4
REMARK VINA RESULT:    -8.635      1.369      6.916
REMARK INTER + INTRA:         -10.957
REMARK INTER:                 -10.700
REMARK INTRA:                  -0.257
REMARK UNBOUND:                -0.302
REMARK SMILES O=c1c(O)c(-c2cc(O)c(O)c(O)c2)oc2cc(O)cc(O)c12
REMARK SMILES IDX 5 1 3 2 2 3 1 4 23 5 21 6 20 7 18 8 17 9 16 10 15 11 6 12
REMARK SMILES IDX 7 13 8 14 14 15 10 16 12 17 9 18 11 20 13 22 4 24 22 26
REMARK SMILES IDX 19 28
REMARK H PARENT 9 19 11 21 13 23 4 25 22 27 19 29
REMARK Flexibility Score: inf
ROOT
ATOM      1  C   UNL     1     -11.272   6.011  34.914  1.00  0.00     0.180 A 
ATOM      2  C   UNL     1     -10.029   5.616  34.389  1.00  0.00     0.208 A 
ATOM      3  C   UNL     1      -8.899   6.407  34.645  1.00  0.00     0.238 A 
ATOM      4  O   UNL     1      -7.800   6.078  34.127  1.00  0.00    -0.285 OA
ATOM      5  C   UNL     1      -9.021   7.575  35.436  1.00  0.00     0.111 A 
ATOM      6  C   UNL     1      -7.934   8.430  35.793  1.00  0.00     0.134 A 
ATOM      7  C   UNL     1      -8.193   9.629  36.470  1.00  0.00     0.093 A 
ATOM      8  C   UNL     1      -9.490   9.970  36.860  1.00  0.00     0.123 A 
ATOM      9  C   UNL     1     -10.548   9.113  36.569  1.00  0.00     0.094 A 
ATOM     10  C   UNL     1     -10.328   7.928  35.862  1.00  0.00     0.146 A 
ATOM     11  O   UNL     1     -11.366   7.145  35.597  1.00  0.00    -0.452 OA
ENDROOT
BRANCH   1  12
ATOM     12  C   UNL     1     -12.503   5.214  34.708  1.00  0.00     0.029 A 
ATOM     13  C   UNL     1     -13.517   5.647  33.838  1.00  0.00     0.062 A 
ATOM     14  C   UNL     1     -14.664   4.867  33.638  1.00  0.00     0.162 A 
ATOM     15  C   UNL     1     -12.636   3.972  35.348  1.00  0.00     0.062 A 
ATOM     16  C   UNL     1     -14.800   3.635  34.300  1.00  0.00     0.200 A 
ATOM     17  C   UNL     1     -13.778   3.188  35.156  1.00  0.00     0.162 A 
BRANCH  14  18
ATOM     18  O   UNL     1     -15.669   5.309  32.777  1.00  0.00    -0.504 OA
ATOM     19  H   UNL     1     -15.602   5.184  31.773  1.00  0.00     0.293 HD
ENDBRANCH  14  18
BRANCH  16  20
ATOM     20  O   UNL     1     -15.938   2.848  34.116  1.00  0.00    -0.502 OA
ATOM     21  H   UNL     1     -16.748   3.181  33.606  1.00  0.00     0.293 HD
ENDBRANCH  16  20
BRANCH  17  22
ATOM     22  O   UNL     1     -13.878   1.966  35.821  1.00  0.00    -0.504 OA
ATOM     23  H   UNL     1     -14.748   1.644  36.228  1.00  0.00     0.293 HD
ENDBRANCH  17  22
ENDBRANCH   1  12
BRANCH   2  24
ATOM     24  O   UNL     1      -9.935   4.470  33.592  1.00  0.00    -0.502 OA
ATOM     25  H   UNL     1      -9.997   3.535  33.975  1.00  0.00     0.293 HD
ENDBRANCH   2  24
BRANCH   6  26
ATOM     26  O   UNL     1      -6.593   8.137  35.532  1.00  0.00    -0.507 OA
ATOM     27  H   UNL     1      -6.257   7.665  34.706  1.00  0.00     0.293 HD
ENDBRANCH   6  26
BRANCH   8  28
ATOM     28  O   UNL     1      -9.736  11.157  37.548  1.00  0.00    -0.508 OA
ATOM     29  H   UNL     1      -8.997  11.828  37.727  1.00  0.00     0.293 HD
ENDBRANCH   8  28
TORSDOF 7
ENDMDL
MODEL 5
REMARK VINA RESULT:    -7.941      1.368      3.616
REMARK INTER + INTRA:         -10.100
REMARK INTER:                  -9.817
REMARK INTRA:                  -0.283
REMARK UNBOUND:                -0.302
REMARK SMILES O=c1c(O)c(-c2cc(O)c(O)c(O)c2)oc2cc(O)cc(O)c12
REMARK SMILES IDX 5 1 3 2 2 3 1 4 23 5 21 6 20 7 18 8 17 9 16 10 15 11 6 12
REMARK SMILES IDX 7 13 8 14 14 15 10 16 12 17 9 18 11 20 13 22 4 24 22 26
REMARK SMILES IDX 19 28
REMARK H PARENT 9 19 11 21 13 23 4 25 22 27 19 29
REMARK Flexibility Score: inf
ROOT
ATOM      1  C   UNL     1     -10.681   6.162  35.284  1.00  0.00     0.180 A 
ATOM      2  C   UNL     1     -11.881   6.583  34.684  1.00  0.00     0.208 A 
ATOM      3  C   UNL     1     -12.948   5.676  34.586  1.00  0.00     0.238 A 
ATOM      4  O   UNL     1     -14.000   6.042  34.000  1.00  0.00    -0.285 OA
ATOM      5  C   UNL     1     -12.808   4.366  35.103  1.00  0.00     0.111 A 
ATOM      6  C   UNL     1     -13.838   3.377  35.094  1.00  0.00     0.134 A 
ATOM      7  C   UNL     1     -13.547   2.073  35.513  1.00  0.00     0.093 A 
ATOM      8  C   UNL     1     -12.282   1.740  36.003  1.00  0.00     0.123 A 
ATOM      9  C   UNL     1     -11.288   2.713  36.072  1.00  0.00     0.094 A 
ATOM     10  C   UNL     1     -11.537   4.013  35.626  1.00  0.00     0.146 A 
ATOM     11  O   UNL     1     -10.559   4.908  35.700  1.00  0.00    -0.452 OA
ENDROOT
BRANCH   1  12
ATOM     12  C   UNL     1      -9.522   7.069  35.446  1.00  0.00     0.029 A 
ATOM     13  C   UNL     1      -9.544   8.127  36.369  1.00  0.00     0.062 A 
ATOM     14  C   UNL     1      -8.428   8.960  36.525  1.00  0.00     0.162 A 
ATOM     15  C   UNL     1      -8.353   6.834  34.704  1.00  0.00     0.062 A 
ATOM     16  C   UNL     1      -7.270   8.732  35.762  1.00  0.00     0.200 A 
ATOM     17  C   UNL     1      -7.235   7.662  34.852  1.00  0.00     0.162 A 
BRANCH  14  18
ATOM     18  O   UNL     1      -8.463  10.012  37.440  1.00  0.00    -0.504 OA
ATOM     19  H   UNL     1      -9.334  10.332  37.850  1.00  0.00     0.293 HD
ENDBRANCH  14  18
BRANCH  16  20
ATOM     20  O   UNL     1      -6.151   9.555  35.901  1.00  0.00    -0.502 OA
ATOM     21  H   UNL     1      -6.229  10.538  36.132  1.00  0.00     0.293 HD
ENDBRANCH  16  20
BRANCH  17  22
ATOM     22  O   UNL     1      -6.099   7.403  34.086  1.00  0.00    -0.504 OA
ATOM     23  H   UNL     1      -5.210   7.159  34.507  1.00  0.00     0.293 HD
ENDBRANCH  17  22
ENDBRANCH   1  12
BRANCH   2  24
ATOM     24  O   UNL     1     -11.990   7.875  34.161  1.00  0.00    -0.502 OA
ATOM     25  H   UNL     1     -12.177   8.683  34.743  1.00  0.00     0.293 HD
ENDBRANCH   2  24
BRANCH   6  26
ATOM     26  O   UNL     1     -15.159   3.629  34.711  1.00  0.00    -0.507 OA
ATOM     27  H   UNL     1     -15.529   4.541  34.488  1.00  0.00     0.293 HD
ENDBRANCH   6  26
BRANCH   8  28
ATOM     28  O   UNL     1     -12.005   0.444  36.434  1.00  0.00    -0.508 OA
ATOM     29  H   UNL     1     -12.726  -0.269  36.468  1.00  0.00     0.293 HD
ENDBRANCH   8  28
TORSDOF 7
ENDMDL
MODEL 6
REMARK VINA RESULT:    -7.936      1.478      7.298
REMARK INTER + INTRA:         -10.094
REMARK INTER:                  -9.795
REMARK INTRA:                  -0.299
REMARK UNBOUND:                -0.302
REMARK SMILES O=c1c(O)c(-c2cc(O)c(O)c(O)c2)oc2cc(O)cc(O)c12
REMARK SMILES IDX 5 1 3 2 2 3 1 4 23 5 21 6 20 7 18 8 17 9 16 10 15 11 6 12
REMARK SMILES IDX 7 13 8 14 14 15 10 16 12 17 9 18 11 20 13 22 4 24 22 26
REMARK SMILES IDX 19 28
REMARK H PARENT 9 19 11 21 13 23 4 25 22 27 19 29
REMARK Flexibility Score: inf
ROOT
ATOM      1  C   UNL     1     -11.213   5.709  34.683  1.00  0.00     0.180 A 
ATOM      2  C   UNL     1     -11.031   6.891  35.421  1.00  0.00     0.208 A 
ATOM      3  C   UNL     1      -9.752   7.463  35.486  1.00  0.00     0.238 A 
ATOM      4  O   UNL     1      -9.584   8.491  36.193  1.00  0.00    -0.285 OA
ATOM      5  C   UNL     1      -8.673   6.856  34.800  1.00  0.00     0.111 A 
ATOM      6  C   UNL     1      -7.342   7.371  34.764  1.00  0.00     0.134 A 
ATOM      7  C   UNL     1      -6.326   6.618  34.162  1.00  0.00     0.093 A 
ATOM      8  C   UNL     1      -6.606   5.400  33.538  1.00  0.00     0.123 A 
ATOM      9  C   UNL     1      -7.913   4.918  33.516  1.00  0.00     0.094 A 
ATOM     10  C   UNL     1      -8.941   5.628  34.140  1.00  0.00     0.146 A 
ATOM     11  O   UNL     1     -10.170   5.128  34.104  1.00  0.00    -0.452 OA
ENDROOT
BRANCH   1  12
ATOM     12  C   UNL     1     -12.538   5.061  34.547  1.00  0.00     0.029 A 
ATOM     13  C   UNL     1     -13.544   5.615  33.739  1.00  0.00     0.062 A 
ATOM     14  C   UNL     1     -14.784   4.975  33.604  1.00  0.00     0.162 A 
ATOM     15  C   UNL     1     -12.778   3.838  35.193  1.00  0.00     0.062 A 
ATOM     16  C   UNL     1     -15.023   3.762  34.273  1.00  0.00     0.200 A 
ATOM     17  C   UNL     1     -14.013   3.193  35.066  1.00  0.00     0.162 A 
BRANCH  14  18
ATOM     18  O   UNL     1     -15.778   5.538  32.804  1.00  0.00    -0.504 OA
ATOM     19  H   UNL     1     -16.391   6.267  33.151  1.00  0.00     0.293 HD
ENDBRANCH  14  18
BRANCH  16  20
ATOM     20  O   UNL     1     -16.253   3.114  34.154  1.00  0.00    -0.502 OA
ATOM     21  H   UNL     1     -16.812   2.863  34.961  1.00  0.00     0.293 HD
ENDBRANCH  16  20
BRANCH  17  22
ATOM     22  O   UNL     1     -14.215   1.986  35.735  1.00  0.00    -0.504 OA
ATOM     23  H   UNL     1     -13.709   1.143  35.490  1.00  0.00     0.293 HD
ENDBRANCH  17  22
ENDBRANCH   1  12
BRANCH   2  24
ATOM     24  O   UNL     1     -12.106   7.462  36.110  1.00  0.00    -0.502 OA
ATOM     25  H   UNL     1     -13.005   7.003  36.193  1.00  0.00     0.293 HD
ENDBRANCH   2  24
BRANCH   6  26
ATOM     26  O   UNL     1      -6.974   8.619  35.275  1.00  0.00    -0.507 OA
ATOM     27  H   UNL     1      -6.339   8.759  36.047  1.00  0.00     0.293 HD
ENDBRANCH   6  26
BRANCH   8  28
ATOM     28  O   UNL     1      -5.592   4.665  32.927  1.00  0.00    -0.508 OA
ATOM     29  H   UNL     1      -5.677   4.336  31.971  1.00  0.00     0.293 HD
ENDBRANCH   8  28
TORSDOF 7
ENDMDL
MODEL 7
REMARK VINA RESULT:    -7.387      2.835      5.828
REMARK INTER + INTRA:          -9.417
REMARK INTER:                  -9.189
REMARK INTRA:                  -0.227
REMARK UNBOUND:                -0.302
REMARK SMILES O=c1c(O)c(-c2cc(O)c(O)c(O)c2)oc2cc(O)cc(O)c12
REMARK SMILES IDX 5 1 3 2 2 3 1 4 23 5 21 6 20 7 18 8 17 9 16 10 15 11 6 12
REMARK SMILES IDX 7 13 8 14 14 15 10 16 12 17 9 18 11 20 13 22 4 24 22 26
REMARK SMILES IDX 19 28
REMARK H PARENT 9 19 11 21 13 23 4 25 22 27 19 29
REMARK Flexibility Score: inf
ROOT
ATOM      1  C   UNL     1     -10.558   5.087  35.070  1.00  0.00     0.180 A 
ATOM      2  C   UNL     1     -10.964   3.942  35.777  1.00  0.00     0.208 A 
ATOM      3  C   UNL     1     -10.188   2.776  35.689  1.00  0.00     0.238 A 
ATOM      4  O   UNL     1     -10.585   1.739  36.281  1.00  0.00    -0.285 OA
ATOM      5  C   UNL     1      -9.008   2.773  34.907  1.00  0.00     0.111 A 
ATOM      6  C   UNL     1      -8.123   1.659  34.778  1.00  0.00     0.134 A 
ATOM      7  C   UNL     1      -7.055   1.727  33.874  1.00  0.00     0.093 A 
ATOM      8  C   UNL     1      -6.802   2.891  33.145  1.00  0.00     0.123 A 
ATOM      9  C   UNL     1      -7.624   4.003  33.309  1.00  0.00     0.094 A 
ATOM     10  C   UNL     1      -8.719   3.954  34.175  1.00  0.00     0.146 A 
ATOM     11  O   UNL     1      -9.483   5.033  34.294  1.00  0.00    -0.452 OA
ENDROOT
BRANCH   1  12
ATOM     12  C   UNL     1     -11.311   6.360  35.135  1.00  0.00     0.029 A 
ATOM     13  C   UNL     1     -10.766   7.503  35.743  1.00  0.00     0.062 A 
ATOM     14  C   UNL     1     -11.485   8.706  35.773  1.00  0.00     0.162 A 
ATOM     15  C   UNL     1     -12.573   6.448  34.525  1.00  0.00     0.062 A 
ATOM     16  C   UNL     1     -12.757   8.778  35.181  1.00  0.00     0.200 A 
ATOM     17  C   UNL     1     -13.298   7.644  34.553  1.00  0.00     0.162 A 
BRANCH  14  18
ATOM     18  O   UNL     1     -10.936   9.832  36.386  1.00  0.00    -0.504 OA
ATOM     19  H   UNL     1     -10.817   9.885  37.392  1.00  0.00     0.293 HD
ENDBRANCH  14  18
BRANCH  16  20
ATOM     20  O   UNL     1     -13.488   9.966  35.207  1.00  0.00    -0.502 OA
ATOM     21  H   UNL     1     -13.042  10.874  35.262  1.00  0.00     0.293 HD
ENDBRANCH  16  20
BRANCH  17  22
ATOM     22  O   UNL     1     -14.554   7.685  33.948  1.00  0.00    -0.504 OA
ATOM     23  H   UNL     1     -15.302   7.057  34.216  1.00  0.00     0.293 HD
ENDBRANCH  17  22
ENDBRANCH   1  12
BRANCH   2  24
ATOM     24  O   UNL     1     -12.144   3.960  36.527  1.00  0.00    -0.502 OA
ATOM     25  H   UNL     1     -12.787   4.743  36.510  1.00  0.00     0.293 HD
ENDBRANCH   2  24
BRANCH   6  26
ATOM     26  O   UNL     1      -8.233   0.485  35.528  1.00  0.00    -0.507 OA
ATOM     27  H   UNL     1      -8.272  -0.445  35.138  1.00  0.00     0.293 HD
ENDBRANCH   6  26
BRANCH   8  28
ATOM     28  O   UNL     1      -5.727   2.955  32.260  1.00  0.00    -0.508 OA
ATOM     29  H   UNL     1      -5.781   2.552  31.331  1.00  0.00     0.293 HD
ENDBRANCH   8  28
TORSDOF 7
ENDMDL
MODEL 8
REMARK VINA RESULT:    -7.353      2.875      5.779
REMARK INTER + INTRA:          -9.375
REMARK INTER:                  -9.129
REMARK INTRA:                  -0.246
REMARK UNBOUND:                -0.302
REMARK SMILES O=c1c(O)c(-c2cc(O)c(O)c(O)c2)oc2cc(O)cc(O)c12
REMARK SMILES IDX 5 1 3 2 2 3 1 4 23 5 21 6 20 7 18 8 17 9 16 10 15 11 6 12
REMARK SMILES IDX 7 13 8 14 14 15 10 16 12 17 9 18 11 20 13 22 4 24 22 26
REMARK SMILES IDX 19 28
REMARK H PARENT 9 19 11 21 13 23 4 25 22 27 19 29
REMARK Flexibility Score: inf
ROOT
ATOM      1  C   UNL     1     -10.590   4.977  35.045  1.00  0.00     0.180 A 
ATOM      2  C   UNL     1     -10.986   3.854  35.791  1.00  0.00     0.208 A 
ATOM      3  C   UNL     1     -10.208   2.687  35.731  1.00  0.00     0.238 A 
ATOM      4  O   UNL     1     -10.597   1.668  36.358  1.00  0.00    -0.285 OA
ATOM      5  C   UNL     1      -9.036   2.662  34.937  1.00  0.00     0.111 A 
ATOM      6  C   UNL     1      -8.151   1.546  34.834  1.00  0.00     0.134 A 
ATOM      7  C   UNL     1      -7.092   1.588  33.918  1.00  0.00     0.093 A 
ATOM      8  C   UNL     1      -6.849   2.730  33.151  1.00  0.00     0.123 A 
ATOM      9  C   UNL     1      -7.671   3.845  33.289  1.00  0.00     0.094 A 
ATOM     10  C   UNL     1      -8.757   3.821  34.167  1.00  0.00     0.146 A 
ATOM     11  O   UNL     1      -9.522   4.901  34.260  1.00  0.00    -0.452 OA
ENDROOT
BRANCH   1  12
ATOM     12  C   UNL     1     -11.345   6.251  35.078  1.00  0.00     0.029 A 
ATOM     13  C   UNL     1     -12.619   6.361  34.499  1.00  0.00     0.062 A 
ATOM     14  C   UNL     1     -13.329   7.568  34.562  1.00  0.00     0.162 A 
ATOM     15  C   UNL     1     -10.803   7.356  35.752  1.00  0.00     0.062 A 
ATOM     16  C   UNL     1     -12.769   8.677  35.219  1.00  0.00     0.200 A 
ATOM     17  C   UNL     1     -11.502   8.566  35.818  1.00  0.00     0.162 A 
BRANCH  14  18
ATOM     18  O   UNL     1     -14.591   7.669  33.978  1.00  0.00    -0.504 OA
ATOM     19  H   UNL     1     -15.347   8.172  34.428  1.00  0.00     0.293 HD
ENDBRANCH  14  18
BRANCH  16  20
ATOM     20  O   UNL     1     -13.459   9.888  35.287  1.00  0.00    -0.502 OA
ATOM     21  H   UNL     1     -13.958  10.271  34.492  1.00  0.00     0.293 HD
ENDBRANCH  16  20
BRANCH  17  22
ATOM     22  O   UNL     1     -10.923   9.645  36.486  1.00  0.00    -0.504 OA
ATOM     23  H   UNL     1     -11.344  10.566  36.486  1.00  0.00     0.293 HD
ENDBRANCH  17  22
ENDBRANCH   1  12
BRANCH   2  24
ATOM     24  O   UNL     1     -12.159   3.893  36.551  1.00  0.00    -0.502 OA
ATOM     25  H   UNL     1     -13.049   3.564  36.196  1.00  0.00     0.293 HD
ENDBRANCH   2  24
BRANCH   6  26
ATOM     26  O   UNL     1      -8.250   0.395  35.621  1.00  0.00    -0.507 OA
ATOM     27  H   UNL     1      -9.070   0.126  36.144  1.00  0.00     0.293 HD
ENDBRANCH   6  26
BRANCH   8  28
ATOM     28  O   UNL     1      -5.783   2.769  32.253  1.00  0.00    -0.508 OA
ATOM     29  H   UNL     1      -4.884   3.160  32.514  1.00  0.00     0.293 HD
ENDBRANCH   8  28
TORSDOF 7
ENDMDL
MODEL 9
REMARK VINA RESULT:    -7.334      2.939      5.927
REMARK INTER + INTRA:          -9.351
REMARK INTER:                  -9.112
REMARK INTRA:                  -0.239
REMARK UNBOUND:                -0.302
REMARK SMILES O=c1c(O)c(-c2cc(O)c(O)c(O)c2)oc2cc(O)cc(O)c12
REMARK SMILES IDX 5 1 3 2 2 3 1 4 23 5 21 6 20 7 18 8 17 9 16 10 15 11 6 12
REMARK SMILES IDX 7 13 8 14 14 15 10 16 12 17 9 18 11 20 13 22 4 24 22 26
REMARK SMILES IDX 19 28
REMARK H PARENT 9 19 11 21 13 23 4 25 22 27 19 29
REMARK Flexibility Score: inf
ROOT
ATOM      1  C   UNL     1     -10.167   5.304  34.779  1.00  0.00     0.180 A 
ATOM      2  C   UNL     1      -9.026   5.324  33.959  1.00  0.00     0.208 A 
ATOM      3  C   UNL     1      -8.260   4.155  33.831  1.00  0.00     0.238 A 
ATOM      4  O   UNL     1      -7.209   4.192  33.139  1.00  0.00    -0.285 OA
ATOM      5  C   UNL     1      -8.653   2.977  34.512  1.00  0.00     0.111 A 
ATOM      6  C   UNL     1      -7.974   1.724  34.422  1.00  0.00     0.134 A 
ATOM      7  C   UNL     1      -8.376   0.661  35.241  1.00  0.00     0.093 A 
ATOM      8  C   UNL     1      -9.472   0.786  36.097  1.00  0.00     0.123 A 
ATOM      9  C   UNL     1     -10.178   1.986  36.146  1.00  0.00     0.094 A 
ATOM     10  C   UNL     1      -9.779   3.076  35.369  1.00  0.00     0.146 A 
ATOM     11  O   UNL     1     -10.473   4.204  35.455  1.00  0.00    -0.452 OA
ENDROOT
BRANCH   1  12
ATOM     12  C   UNL     1     -11.039   6.491  34.943  1.00  0.00     0.029 A 
ATOM     13  C   UNL     1     -10.597   7.634  35.628  1.00  0.00     0.062 A 
ATOM     14  C   UNL     1     -11.428   8.756  35.752  1.00  0.00     0.162 A 
ATOM     15  C   UNL     1     -12.313   6.498  34.353  1.00  0.00     0.062 A 
ATOM     16  C   UNL     1     -12.710   8.747  35.177  1.00  0.00     0.200 A 
ATOM     17  C   UNL     1     -13.149   7.613  34.473  1.00  0.00     0.162 A 
BRANCH  14  18
ATOM     18  O   UNL     1     -10.981   9.884  36.440  1.00  0.00    -0.504 OA
ATOM     19  H   UNL     1     -11.055  10.814  36.042  1.00  0.00     0.293 HD
ENDBRANCH  14  18
BRANCH  16  20
ATOM     20  O   UNL     1     -13.552   9.853  35.295  1.00  0.00    -0.502 OA
ATOM     21  H   UNL     1     -14.562   9.766  35.302  1.00  0.00     0.293 HD
ENDBRANCH  16  20
BRANCH  17  22
ATOM     22  O   UNL     1     -14.412   7.575  33.883  1.00  0.00    -0.504 OA
ATOM     23  H   UNL     1     -15.117   6.902  34.161  1.00  0.00     0.293 HD
ENDBRANCH  17  22
ENDBRANCH   1  12
BRANCH   2  24
ATOM     24  O   UNL     1      -8.643   6.503  33.314  1.00  0.00    -0.502 OA
ATOM     25  H   UNL     1      -7.688   6.683  33.028  1.00  0.00     0.293 HD
ENDBRANCH   2  24
BRANCH   6  26
ATOM     26  O   UNL     1      -6.926   1.466  33.534  1.00  0.00    -0.507 OA
ATOM     27  H   UNL     1      -6.140   2.079  33.378  1.00  0.00     0.293 HD
ENDBRANCH   6  26
BRANCH   8  28
ATOM     28  O   UNL     1      -9.876  -0.282  36.896  1.00  0.00    -0.508 OA
ATOM     29  H   UNL     1      -9.242  -0.719  37.556  1.00  0.00     0.293 HD
ENDBRANCH   8  28
TORSDOF 7
ENDMDL
