MODEL 1
REMARK VINA RESULT:    -3.864      0.000      0.000
REMARK INTER + INTRA:          -8.947
REMARK INTER:                  -7.026
REMARK INTRA:                  -1.921
REMARK UNBOUND:                -1.921
REMARK SMILES CCCCCCCCCCCCCC[C@@H](C)C(=O)[O-]
REMARK SMILES IDX 9 1 10 2 11 3 12 4 13 5 14 6 15 7 16 8 17 9 18 10 19 11 8 12
REMARK SMILES IDX 7 13 6 14 5 15 4 16 3 17 2 18 1 19
REMARK H PARENT
REMARK Flexibility Score: inf
ROOT
ATOM      1  C   UNL     1      -3.991  -7.063 -46.485  1.00  0.00     0.000 C 
ENDROOT
BRANCH   1   2
ATOM      2  C   UNL     1      -3.638  -7.886 -45.231  1.00  0.00     0.000 C 
BRANCH   2   3
ATOM      3  C   UNL     1      -4.409  -7.511 -43.953  1.00  0.00     0.000 C 
BRANCH   3   4
ATOM      4  C   UNL     1      -3.676  -7.923 -42.665  1.00  0.00     0.000 C 
BRANCH   4   5
ATOM      5  C   UNL     1      -2.512  -8.892 -42.932  1.00  0.00     0.001 C 
BRANCH   5   6
ATOM      6  C   UNL     1      -1.605  -9.086 -41.703  1.00  0.00     0.009 C 
BRANCH   6   7
ATOM      7  C   UNL     1      -0.869 -10.444 -41.718  1.00  0.00     0.032 C 
ATOM      8  C   UNL     1      -1.713 -11.557 -42.355  1.00  0.00     0.014 C 
BRANCH   7   9
ATOM      9  C   UNL     1       0.437 -10.312 -42.452  1.00  0.00     0.044 C 
ATOM     10  O   UNL     1       1.094  -9.238 -42.405  1.00  0.00    -0.550 OA
ATOM     11  O   UNL     1       0.931 -11.382 -43.188  1.00  0.00    -0.550 OA
ENDBRANCH   7   9
ENDBRANCH   6   7
ENDBRANCH   5   6
ENDBRANCH   4   5
ENDBRANCH   3   4
ENDBRANCH   2   3
ENDBRANCH   1   2
BRANCH   1  12
ATOM     12  C   UNL     1      -3.291  -7.573 -47.756  1.00  0.00     0.000 C 
BRANCH  12  13
ATOM     13  C   UNL     1      -3.985  -8.802 -48.373  1.00  0.00    -0.000 C 
BRANCH  13  14
ATOM     14  C   UNL     1      -5.524  -8.753 -48.398  1.00  0.00    -0.000 C 
BRANCH  14  15
ATOM     15  C   UNL     1      -6.174  -9.751 -47.423  1.00  0.00    -0.000 C 
BRANCH  15  16
ATOM     16  C   UNL     1      -7.134  -9.076 -46.427  1.00  0.00    -0.000 C 
BRANCH  16  17
ATOM     17  C   UNL     1      -7.095  -9.633 -44.989  1.00  0.00    -0.000 C 
BRANCH  17  18
ATOM     18  C   UNL     1      -6.453 -11.024 -44.846  1.00  0.00    -0.003 C 
ATOM     19  C   UNL     1      -5.503 -11.121 -43.653  1.00  0.00     0.004 C 
ENDBRANCH  17  18
ENDBRANCH  16  17
ENDBRANCH  15  16
ENDBRANCH  14  15
ENDBRANCH  13  14
ENDBRANCH  12  13
ENDBRANCH   1  12
TORSDOF 14
ENDMDL
MODEL 2
REMARK VINA RESULT:    -3.857      5.166      7.853
REMARK INTER + INTRA:          -8.934
REMARK INTER:                  -7.332
REMARK INTRA:                  -1.602
REMARK UNBOUND:                -1.921
REMARK SMILES CCCCCCCCCCCCCC[C@@H](C)C(=O)[O-]
REMARK SMILES IDX 9 1 10 2 11 3 12 4 13 5 14 6 15 7 16 8 17 9 18 10 19 11 8 12
REMARK SMILES IDX 7 13 6 14 5 15 4 16 3 17 2 18 1 19
REMARK H PARENT
REMARK Flexibility Score: inf
ROOT
ATOM      1  C   UNL     1      -0.888  -7.953 -38.844  1.00  0.00     0.000 C 
ENDROOT
BRANCH   1   2
ATOM      2  C   UNL     1      -2.100  -8.144 -39.777  1.00  0.00     0.000 C 
BRANCH   2   3
ATOM      3  C   UNL     1      -1.841  -8.994 -41.034  1.00  0.00     0.000 C 
BRANCH   3   4
ATOM      4  C   UNL     1      -0.364  -9.393 -41.197  1.00  0.00     0.000 C 
BRANCH   4   5
ATOM      5  C   UNL     1      -0.194 -10.814 -41.759  1.00  0.00     0.001 C 
BRANCH   5   6
ATOM      6  C   UNL     1       1.196 -11.408 -41.464  1.00  0.00     0.009 C 
BRANCH   6   7
ATOM      7  C   UNL     1       2.314 -10.744 -42.298  1.00  0.00     0.032 C 
ATOM      8  C   UNL     1       3.707 -10.990 -41.702  1.00  0.00     0.014 C 
BRANCH   7   9
ATOM      9  C   UNL     1       2.269 -11.250 -43.714  1.00  0.00     0.044 C 
ATOM     10  O   UNL     1       2.215 -12.487 -43.951  1.00  0.00    -0.550 OA
ATOM     11  O   UNL     1       2.285 -10.351 -44.773  1.00  0.00    -0.550 OA
ENDBRANCH   7   9
ENDBRANCH   6   7
ENDBRANCH   5   6
ENDBRANCH   4   5
ENDBRANCH   3   4
ENDBRANCH   2   3
ENDBRANCH   1   2
BRANCH   1  12
ATOM     12  C   UNL     1      -1.210  -7.096 -37.609  1.00  0.00     0.000 C 
BRANCH  12  13
ATOM     13  C   UNL     1      -0.479  -7.571 -36.339  1.00  0.00    -0.000 C 
BRANCH  13  14
ATOM     14  C   UNL     1      -1.183  -8.691 -35.548  1.00  0.00    -0.000 C 
BRANCH  14  15
ATOM     15  C   UNL     1      -0.447 -10.040 -35.632  1.00  0.00    -0.000 C 
BRANCH  15  16
ATOM     16  C   UNL     1      -1.376 -11.205 -36.016  1.00  0.00    -0.000 C 
BRANCH  16  17
ATOM     17  C   UNL     1      -1.904 -11.180 -37.466  1.00  0.00    -0.000 C 
BRANCH  17  18
ATOM     18  C   UNL     1      -2.167 -12.562 -38.088  1.00  0.00    -0.003 C 
ATOM     19  C   UNL     1      -2.420 -12.498 -39.594  1.00  0.00     0.004 C 
ENDBRANCH  17  18
ENDBRANCH  16  17
ENDBRANCH  15  16
ENDBRANCH  14  15
ENDBRANCH  13  14
ENDBRANCH  12  13
ENDBRANCH   1  12
TORSDOF 14
ENDMDL
MODEL 3
REMARK VINA RESULT:    -3.848      5.446      9.422
REMARK INTER + INTRA:          -8.919
REMARK INTER:                  -7.972
REMARK INTRA:                  -0.947
REMARK UNBOUND:                -1.921
REMARK SMILES CCCCCCCCCCCCCC[C@@H](C)C(=O)[O-]
REMARK SMILES IDX 9 1 10 2 11 3 12 4 13 5 14 6 15 7 16 8 17 9 18 10 19 11 8 12
REMARK SMILES IDX 7 13 6 14 5 15 4 16 3 17 2 18 1 19
REMARK H PARENT
REMARK Flexibility Score: inf
ROOT
ATOM      1  C   UNL     1      -0.418  -7.548 -37.475  1.00  0.00     0.000 C 
ENDROOT
BRANCH   1   2
ATOM      2  C   UNL     1      -1.255  -7.703 -38.760  1.00  0.00     0.000 C 
BRANCH   2   3
ATOM      3  C   UNL     1      -0.790  -8.810 -39.724  1.00  0.00     0.000 C 
BRANCH   3   4
ATOM      4  C   UNL     1      -1.808  -9.102 -40.839  1.00  0.00     0.000 C 
BRANCH   4   5
ATOM      5  C   UNL     1      -1.138  -9.357 -42.199  1.00  0.00     0.001 C 
BRANCH   5   6
ATOM      6  C   UNL     1      -0.401 -10.708 -42.256  1.00  0.00     0.009 C 
BRANCH   6   7
ATOM      7  C   UNL     1       0.993 -10.596 -42.911  1.00  0.00     0.032 C 
ATOM      8  C   UNL     1       1.346  -9.149 -43.283  1.00  0.00     0.014 C 
BRANCH   7   9
ATOM      9  C   UNL     1       2.041 -11.153 -41.986  1.00  0.00     0.044 C 
ATOM     10  O   UNL     1       1.899 -12.293 -41.469  1.00  0.00    -0.550 OA
ATOM     11  O   UNL     1       3.179 -10.410 -41.699  1.00  0.00    -0.550 OA
ENDBRANCH   7   9
ENDBRANCH   6   7
ENDBRANCH   5   6
ENDBRANCH   4   5
ENDBRANCH   3   4
ENDBRANCH   2   3
ENDBRANCH   1   2
BRANCH   1  12
ATOM     12  C   UNL     1      -1.281  -7.410 -36.209  1.00  0.00     0.000 C 
BRANCH  12  13
ATOM     13  C   UNL     1      -1.317  -8.696 -35.362  1.00  0.00    -0.000 C 
BRANCH  13  14
ATOM     14  C   UNL     1      -0.378  -9.824 -35.828  1.00  0.00    -0.000 C 
BRANCH  14  15
ATOM     15  C   UNL     1      -0.217 -10.943 -34.784  1.00  0.00    -0.000 C 
BRANCH  15  16
ATOM     16  C   UNL     1      -1.384 -10.998 -33.781  1.00  0.00    -0.000 C 
BRANCH  16  17
ATOM     17  C   UNL     1      -0.986 -11.285 -32.318  1.00  0.00    -0.000 C 
BRANCH  17  18
ATOM     18  C   UNL     1      -0.140 -12.553 -32.110  1.00  0.00    -0.003 C 
ATOM     19  C   UNL     1      -0.926 -13.840 -32.359  1.00  0.00     0.004 C 
ENDBRANCH  17  18
ENDBRANCH  16  17
ENDBRANCH  15  16
ENDBRANCH  14  15
ENDBRANCH  13  14
ENDBRANCH  12  13
ENDBRANCH   1  12
TORSDOF 14
ENDMDL
MODEL 4
REMARK VINA RESULT:    -3.806      2.134      3.354
REMARK INTER + INTRA:          -8.842
REMARK INTER:                  -6.662
REMARK INTRA:                  -2.179
REMARK UNBOUND:                -1.921
REMARK SMILES CCCCCCCCCCCCCC[C@@H](C)C(=O)[O-]
REMARK SMILES IDX 9 1 10 2 11 3 12 4 13 5 14 6 15 7 16 8 17 9 18 10 19 11 8 12
REMARK SMILES IDX 7 13 6 14 5 15 4 16 3 17 2 18 1 19
REMARK H PARENT
REMARK Flexibility Score: inf
ROOT
ATOM      1  C   UNL     1      -2.550  -8.599 -43.029  1.00  0.00     0.000 C 
ENDROOT
BRANCH   1   2
ATOM      2  C   UNL     1      -3.072  -8.024 -41.698  1.00  0.00     0.000 C 
BRANCH   2   3
ATOM      3  C   UNL     1      -2.727  -8.844 -40.441  1.00  0.00     0.000 C 
BRANCH   3   4
ATOM      4  C   UNL     1      -1.220  -8.870 -40.135  1.00  0.00     0.000 C 
BRANCH   4   5
ATOM      5  C   UNL     1      -0.599 -10.262 -40.341  1.00  0.00     0.001 C 
BRANCH   5   6
ATOM      6  C   UNL     1       0.827 -10.198 -40.920  1.00  0.00     0.009 C 
BRANCH   6   7
ATOM      7  C   UNL     1       0.859 -10.443 -42.445  1.00  0.00     0.032 C 
ATOM      8  C   UNL     1       1.232  -9.177 -43.230  1.00  0.00     0.014 C 
BRANCH   7   9
ATOM      9  C   UNL     1       1.830 -11.546 -42.767  1.00  0.00     0.044 C 
ATOM     10  O   UNL     1       2.556 -12.045 -41.866  1.00  0.00    -0.550 OA
ATOM     11  O   UNL     1       1.930 -12.025 -44.068  1.00  0.00    -0.550 OA
ENDBRANCH   7   9
ENDBRANCH   6   7
ENDBRANCH   5   6
ENDBRANCH   4   5
ENDBRANCH   3   4
ENDBRANCH   2   3
ENDBRANCH   1   2
BRANCH   1  12
ATOM     12  C   UNL     1      -3.527  -8.388 -44.198  1.00  0.00     0.000 C 
BRANCH  12  13
ATOM     13  C   UNL     1      -4.923  -7.923 -43.741  1.00  0.00    -0.000 C 
BRANCH  13  14
ATOM     14  C   UNL     1      -6.098  -8.388 -44.621  1.00  0.00    -0.000 C 
BRANCH  14  15
ATOM     15  C   UNL     1      -6.029  -9.883 -44.978  1.00  0.00    -0.000 C 
BRANCH  15  16
ATOM     16  C   UNL     1      -6.317 -10.800 -43.776  1.00  0.00    -0.000 C 
BRANCH  16  17
ATOM     17  C   UNL     1      -5.221 -11.840 -43.459  1.00  0.00    -0.000 C 
BRANCH  17  18
ATOM     18  C   UNL     1      -4.386 -11.545 -42.202  1.00  0.00    -0.003 C 
ATOM     19  C   UNL     1      -3.028 -12.246 -42.213  1.00  0.00     0.004 C 
ENDBRANCH  17  18
ENDBRANCH  16  17
ENDBRANCH  15  16
ENDBRANCH  14  15
ENDBRANCH  13  14
ENDBRANCH  12  13
ENDBRANCH   1  12
TORSDOF 14
ENDMDL
MODEL 5
REMARK VINA RESULT:    -3.795      4.920      7.636
REMARK INTER + INTRA:          -8.821
REMARK INTER:                  -6.408
REMARK INTRA:                  -2.414
REMARK UNBOUND:                -1.921
REMARK SMILES CCCCCCCCCCCCCC[C@@H](C)C(=O)[O-]
REMARK SMILES IDX 9 1 10 2 11 3 12 4 13 5 14 6 15 7 16 8 17 9 18 10 19 11 8 12
REMARK SMILES IDX 7 13 6 14 5 15 4 16 3 17 2 18 1 19
REMARK H PARENT
REMARK Flexibility Score: inf
ROOT
ATOM      1  C   UNL     1      -0.685  -7.717 -35.913  1.00  0.00     0.000 C 
ENDROOT
BRANCH   1   2
ATOM      2  C   UNL     1      -1.253  -7.022 -37.165  1.00  0.00     0.000 C 
BRANCH   2   3
ATOM      3  C   UNL     1      -0.723  -7.547 -38.512  1.00  0.00     0.000 C 
BRANCH   3   4
ATOM      4  C   UNL     1      -1.842  -8.031 -39.450  1.00  0.00     0.000 C 
BRANCH   4   5
ATOM      5  C   UNL     1      -1.314  -8.916 -40.592  1.00  0.00     0.001 C 
BRANCH   5   6
ATOM      6  C   UNL     1      -0.076  -9.736 -40.185  1.00  0.00     0.009 C 
BRANCH   6   7
ATOM      7  C   UNL     1       0.446 -10.631 -41.332  1.00  0.00     0.032 C 
ATOM      8  C   UNL     1      -0.640 -10.934 -42.373  1.00  0.00     0.014 C 
BRANCH   7   9
ATOM      9  C   UNL     1       1.623  -9.975 -42.000  1.00  0.00     0.044 C 
ATOM     10  O   UNL     1       1.450  -9.094 -42.884  1.00  0.00    -0.550 OA
ATOM     11  O   UNL     1       2.916 -10.337 -41.641  1.00  0.00    -0.550 OA
ENDBRANCH   7   9
ENDBRANCH   6   7
ENDBRANCH   5   6
ENDBRANCH   4   5
ENDBRANCH   3   4
ENDBRANCH   2   3
ENDBRANCH   1   2
BRANCH   1  12
ATOM     12  C   UNL     1      -0.047  -9.083 -36.221  1.00  0.00     0.000 C 
BRANCH  12  13
ATOM     13  C   UNL     1      -0.571 -10.211 -35.314  1.00  0.00    -0.000 C 
BRANCH  13  14
ATOM     14  C   UNL     1      -1.803 -10.971 -35.843  1.00  0.00    -0.000 C 
BRANCH  14  15
ATOM     15  C   UNL     1      -1.522 -11.737 -37.148  1.00  0.00    -0.000 C 
BRANCH  15  16
ATOM     16  C   UNL     1      -2.564 -11.453 -38.245  1.00  0.00    -0.000 C 
BRANCH  16  17
ATOM     17  C   UNL     1      -2.588 -12.463 -39.411  1.00  0.00    -0.000 C 
BRANCH  17  18
ATOM     18  C   UNL     1      -3.592 -12.142 -40.531  1.00  0.00    -0.003 C 
ATOM     19  C   UNL     1      -4.462 -10.924 -40.218  1.00  0.00     0.004 C 
ENDBRANCH  17  18
ENDBRANCH  16  17
ENDBRANCH  15  16
ENDBRANCH  14  15
ENDBRANCH  13  14
ENDBRANCH  12  13
ENDBRANCH   1  12
TORSDOF 14
ENDMDL
MODEL 6
REMARK VINA RESULT:    -3.774      1.507      3.845
REMARK INTER + INTRA:          -8.784
REMARK INTER:                  -7.515
REMARK INTRA:                  -1.269
REMARK UNBOUND:                -1.921
REMARK SMILES CCCCCCCCCCCCCC[C@@H](C)C(=O)[O-]
REMARK SMILES IDX 9 1 10 2 11 3 12 4 13 5 14 6 15 7 16 8 17 9 18 10 19 11 8 12
REMARK SMILES IDX 7 13 6 14 5 15 4 16 3 17 2 18 1 19
REMARK H PARENT
REMARK Flexibility Score: inf
ROOT
ATOM      1  C   UNL     1      -3.415 -10.828 -42.713  1.00  0.00     0.000 C 
ENDROOT
BRANCH   1   2
ATOM      2  C   UNL     1      -3.361  -9.307 -42.952  1.00  0.00     0.000 C 
BRANCH   2   3
ATOM      3  C   UNL     1      -2.323  -8.541 -42.112  1.00  0.00     0.000 C 
BRANCH   3   4
ATOM      4  C   UNL     1      -1.799  -9.353 -40.916  1.00  0.00     0.000 C 
BRANCH   4   5
ATOM      5  C   UNL     1      -0.263  -9.434 -40.883  1.00  0.00     0.001 C 
BRANCH   5   6
ATOM      6  C   UNL     1       0.277 -10.738 -41.499  1.00  0.00     0.009 C 
BRANCH   6   7
ATOM      7  C   UNL     1       0.925 -10.515 -42.883  1.00  0.00     0.032 C 
ATOM      8  C   UNL     1       1.279  -9.042 -43.130  1.00  0.00     0.014 C 
BRANCH   7   9
ATOM      9  C   UNL     1       2.159 -11.365 -43.016  1.00  0.00     0.044 C 
ATOM     10  O   UNL     1       2.136 -12.428 -43.692  1.00  0.00    -0.550 OA
ATOM     11  O   UNL     1       3.339 -10.977 -42.392  1.00  0.00    -0.550 OA
ENDBRANCH   7   9
ENDBRANCH   6   7
ENDBRANCH   5   6
ENDBRANCH   4   5
ENDBRANCH   3   4
ENDBRANCH   2   3
ENDBRANCH   1   2
BRANCH   1  12
ATOM     12  C   UNL     1      -4.843 -11.396 -42.780  1.00  0.00     0.000 C 
BRANCH  12  13
ATOM     13  C   UNL     1      -5.852 -10.417 -43.409  1.00  0.00    -0.000 C 
BRANCH  13  14
ATOM     14  C   UNL     1      -6.225 -10.700 -44.877  1.00  0.00    -0.000 C 
BRANCH  14  15
ATOM     15  C   UNL     1      -5.847  -9.550 -45.826  1.00  0.00    -0.000 C 
BRANCH  15  16
ATOM     16  C   UNL     1      -6.182  -9.854 -47.298  1.00  0.00    -0.000 C 
BRANCH  16  17
ATOM     17  C   UNL     1      -5.470  -8.962 -48.336  1.00  0.00    -0.000 C 
BRANCH  17  18
ATOM     18  C   UNL     1      -4.118  -8.384 -47.881  1.00  0.00    -0.003 C 
ATOM     19  C   UNL     1      -2.944  -8.890 -48.718  1.00  0.00     0.004 C 
ENDBRANCH  17  18
ENDBRANCH  16  17
ENDBRANCH  15  16
ENDBRANCH  14  15
ENDBRANCH  13  14
ENDBRANCH  12  13
ENDBRANCH   1  12
TORSDOF 14
ENDMDL
MODEL 7
REMARK VINA RESULT:    -3.674      6.383      9.016
REMARK INTER + INTRA:          -8.602
REMARK INTER:                  -7.259
REMARK INTRA:                  -1.343
REMARK UNBOUND:                -1.921
REMARK SMILES CCCCCCCCCCCCCC[C@@H](C)C(=O)[O-]
REMARK SMILES IDX 9 1 10 2 11 3 12 4 13 5 14 6 15 7 16 8 17 9 18 10 19 11 8 12
REMARK SMILES IDX 7 13 6 14 5 15 4 16 3 17 2 18 1 19
REMARK H PARENT
REMARK Flexibility Score: inf
ROOT
ATOM      1  C   UNL     1      -0.287  -7.720 -37.512  1.00  0.00     0.000 C 
ENDROOT
BRANCH   1   2
ATOM      2  C   UNL     1      -0.817  -7.406 -36.100  1.00  0.00     0.000 C 
BRANCH   2   3
ATOM      3  C   UNL     1      -1.428  -8.598 -35.341  1.00  0.00     0.000 C 
BRANCH   3   4
ATOM      4  C   UNL     1      -0.550  -9.859 -35.393  1.00  0.00     0.000 C 
BRANCH   4   5
ATOM      5  C   UNL     1      -1.353 -11.125 -35.734  1.00  0.00     0.001 C 
BRANCH   5   6
ATOM      6  C   UNL     1      -1.343 -12.161 -34.594  1.00  0.00     0.009 C 
BRANCH   6   7
ATOM      7  C   UNL     1      -0.210 -11.910 -33.575  1.00  0.00     0.032 C 
ATOM      8  C   UNL     1      -0.729 -11.847 -32.132  1.00  0.00     0.014 C 
BRANCH   7   9
ATOM      9  C   UNL     1       0.835 -12.986 -33.694  1.00  0.00     0.044 C 
ATOM     10  O   UNL     1       1.927 -12.757 -34.278  1.00  0.00    -0.550 OA
ATOM     11  O   UNL     1       0.600 -14.244 -33.152  1.00  0.00    -0.550 OA
ENDBRANCH   7   9
ENDBRANCH   6   7
ENDBRANCH   5   6
ENDBRANCH   4   5
ENDBRANCH   3   4
ENDBRANCH   2   3
ENDBRANCH   1   2
BRANCH   1  12
ATOM     12  C   UNL     1      -1.308  -7.410 -38.620  1.00  0.00     0.000 C 
BRANCH  12  13
ATOM     13  C   UNL     1      -1.660  -8.640 -39.476  1.00  0.00    -0.000 C 
BRANCH  13  14
ATOM     14  C   UNL     1      -0.753  -9.869 -39.277  1.00  0.00    -0.000 C 
BRANCH  14  15
ATOM     15  C   UNL     1      -0.822 -10.865 -40.448  1.00  0.00    -0.000 C 
BRANCH  15  16
ATOM     16  C   UNL     1       0.568 -11.277 -40.966  1.00  0.00    -0.000 C 
BRANCH  16  17
ATOM     17  C   UNL     1       0.697 -11.387 -42.499  1.00  0.00    -0.000 C 
BRANCH  17  18
ATOM     18  C   UNL     1       1.733 -10.445 -43.136  1.00  0.00    -0.003 C 
ATOM     19  C   UNL     1       1.288  -8.983 -43.134  1.00  0.00     0.004 C 
ENDBRANCH  17  18
ENDBRANCH  16  17
ENDBRANCH  15  16
ENDBRANCH  14  15
ENDBRANCH  13  14
ENDBRANCH  12  13
ENDBRANCH   1  12
TORSDOF 14
ENDMDL
MODEL 8
REMARK VINA RESULT:    -3.603      3.111      6.494
REMARK INTER + INTRA:          -8.472
REMARK INTER:                  -6.548
REMARK INTRA:                  -1.924
REMARK UNBOUND:                -1.921
REMARK SMILES CCCCCCCCCCCCCC[C@@H](C)C(=O)[O-]
REMARK SMILES IDX 9 1 10 2 11 3 12 4 13 5 14 6 15 7 16 8 17 9 18 10 19 11 8 12
REMARK SMILES IDX 7 13 6 14 5 15 4 16 3 17 2 18 1 19
REMARK H PARENT
REMARK Flexibility Score: inf
ROOT
ATOM      1  C   UNL     1      -2.801  -8.335 -40.550  1.00  0.00     0.000 C 
ENDROOT
BRANCH   1   2
ATOM      2  C   UNL     1      -3.806  -8.065 -41.686  1.00  0.00     0.000 C 
BRANCH   2   3
ATOM      3  C   UNL     1      -3.310  -8.404 -43.104  1.00  0.00     0.000 C 
BRANCH   3   4
ATOM      4  C   UNL     1      -4.117  -7.700 -44.208  1.00  0.00     0.000 C 
BRANCH   4   5
ATOM      5  C   UNL     1      -3.757  -8.204 -45.616  1.00  0.00     0.001 C 
BRANCH   5   6
ATOM      6  C   UNL     1      -3.780  -7.084 -46.672  1.00  0.00     0.009 C 
BRANCH   6   7
ATOM      7  C   UNL     1      -4.092  -7.612 -48.090  1.00  0.00     0.032 C 
ATOM      8  C   UNL     1      -2.962  -8.491 -48.645  1.00  0.00     0.014 C 
BRANCH   7   9
ATOM      9  C   UNL     1      -5.381  -8.387 -48.078  1.00  0.00     0.044 C 
ATOM     10  O   UNL     1      -5.415  -9.580 -48.482  1.00  0.00    -0.550 OA
ATOM     11  O   UNL     1      -6.546  -7.789 -47.615  1.00  0.00    -0.550 OA
ENDBRANCH   7   9
ENDBRANCH   6   7
ENDBRANCH   5   6
ENDBRANCH   4   5
ENDBRANCH   3   4
ENDBRANCH   2   3
ENDBRANCH   1   2
BRANCH   1  12
ATOM     12  C   UNL     1      -1.427  -8.801 -41.061  1.00  0.00     0.000 C 
BRANCH  12  13
ATOM     13  C   UNL     1      -0.790  -9.884 -40.170  1.00  0.00    -0.000 C 
BRANCH  13  14
ATOM     14  C   UNL     1      -0.965 -11.334 -40.658  1.00  0.00    -0.000 C 
BRANCH  14  15
ATOM     15  C   UNL     1      -1.231 -11.432 -42.171  1.00  0.00    -0.000 C 
BRANCH  15  16
ATOM     16  C   UNL     1      -2.591 -12.075 -42.499  1.00  0.00    -0.000 C 
BRANCH  16  17
ATOM     17  C   UNL     1      -3.702 -11.843 -41.454  1.00  0.00    -0.000 C 
BRANCH  17  18
ATOM     18  C   UNL     1      -5.138 -12.000 -41.984  1.00  0.00    -0.003 C 
ATOM     19  C   UNL     1      -5.285 -11.565 -43.441  1.00  0.00     0.004 C 
ENDBRANCH  17  18
ENDBRANCH  16  17
ENDBRANCH  15  16
ENDBRANCH  14  15
ENDBRANCH  13  14
ENDBRANCH  12  13
ENDBRANCH   1  12
TORSDOF 14
ENDMDL
MODEL 9
REMARK VINA RESULT:    -3.591      5.648      8.285
REMARK INTER + INTRA:          -8.451
REMARK INTER:                  -7.338
REMARK INTRA:                  -1.114
REMARK UNBOUND:                -1.921
REMARK SMILES CCCCCCCCCCCCCC[C@@H](C)C(=O)[O-]
REMARK SMILES IDX 9 1 10 2 11 3 12 4 13 5 14 6 15 7 16 8 17 9 18 10 19 11 8 12
REMARK SMILES IDX 7 13 6 14 5 15 4 16 3 17 2 18 1 19
REMARK H PARENT
REMARK Flexibility Score: inf
ROOT
ATOM      1  C   UNL     1      -1.073  -8.371 -39.605  1.00  0.00     0.000 C 
ENDROOT
BRANCH   1   2
ATOM      2  C   UNL     1      -1.108  -7.277 -38.521  1.00  0.00     0.000 C 
BRANCH   2   3
ATOM      3  C   UNL     1      -0.595  -7.703 -37.133  1.00  0.00     0.000 C 
BRANCH   3   4
ATOM      4  C   UNL     1      -0.671  -9.222 -36.903  1.00  0.00     0.000 C 
BRANCH   4   5
ATOM      5  C   UNL     1      -0.978  -9.584 -35.440  1.00  0.00     0.001 C 
BRANCH   5   6
ATOM      6  C   UNL     1       0.012 -10.612 -34.862  1.00  0.00     0.009 C 
BRANCH   6   7
ATOM      7  C   UNL     1      -0.690 -11.895 -34.363  1.00  0.00     0.032 C 
ATOM      8  C   UNL     1       0.302 -13.039 -34.110  1.00  0.00     0.014 C 
BRANCH   7   9
ATOM      9  C   UNL     1      -1.461 -11.602 -33.105  1.00  0.00     0.044 C 
ATOM     10  O   UNL     1      -2.720 -11.638 -33.102  1.00  0.00    -0.550 OA
ATOM     11  O   UNL     1      -0.784 -11.293 -31.932  1.00  0.00    -0.550 OA
ENDBRANCH   7   9
ENDBRANCH   6   7
ENDBRANCH   5   6
ENDBRANCH   4   5
ENDBRANCH   3   4
ENDBRANCH   2   3
ENDBRANCH   1   2
BRANCH   1  12
ATOM     12  C   UNL     1      -2.429  -8.571 -40.302  1.00  0.00     0.000 C 
BRANCH  12  13
ATOM     13  C   UNL     1      -2.874 -10.045 -40.344  1.00  0.00    -0.000 C 
BRANCH  13  14
ATOM     14  C   UNL     1      -2.989 -10.664 -41.750  1.00  0.00    -0.000 C 
BRANCH  14  15
ATOM     15  C   UNL     1      -1.832 -11.623 -42.082  1.00  0.00    -0.000 C 
BRANCH  15  16
ATOM     16  C   UNL     1      -0.521 -10.888 -42.414  1.00  0.00    -0.000 C 
BRANCH  16  17
ATOM     17  C   UNL     1       0.609 -11.052 -41.377  1.00  0.00    -0.000 C 
BRANCH  17  18
ATOM     18  C   UNL     1       1.868 -10.208 -41.646  1.00  0.00    -0.003 C 
ATOM     19  C   UNL     1       2.908 -10.944 -42.489  1.00  0.00     0.004 C 
ENDBRANCH  17  18
ENDBRANCH  16  17
ENDBRANCH  15  16
ENDBRANCH  14  15
ENDBRANCH  13  14
ENDBRANCH  12  13
ENDBRANCH   1  12
TORSDOF 14
ENDMDL
