MODEL 1
REMARK VINA RESULT:    -3.880      0.000      0.000
REMARK INTER + INTRA:          -7.057
REMARK INTER:                  -5.922
REMARK INTRA:                  -1.135
REMARK UNBOUND:                -1.135
REMARK SMILES CCCCCCCCCCC(=O)[O-]
REMARK SMILES IDX 7 1 8 2 9 3 10 4 11 5 12 6 13 7 6 8 5 9 4 10 3 11 2 12 1 13
REMARK H PARENT
REMARK Flexibility Score: inf
ROOT
ATOM      1  C   UNL     1      -8.209 -36.992 -10.366  1.00  0.00     0.000 C 
ENDROOT
BRANCH   1   2
ATOM      2  C   UNL     1      -7.981 -37.692  -9.010  1.00  0.00     0.000 C 
BRANCH   2   3
ATOM      3  C   UNL     1      -6.726 -38.578  -8.935  1.00  0.00     0.006 C 
BRANCH   3   4
ATOM      4  C   UNL     1      -6.020 -38.726 -10.288  1.00  0.00     0.053 C 
BRANCH   4   5
ATOM      5  C   UNL     1      -6.342 -40.051 -10.903  1.00  0.00     0.041 C 
ATOM      6  O   UNL     1      -6.261 -40.209 -12.149  1.00  0.00    -0.550 OA
ATOM      7  O   UNL     1      -6.683 -41.128 -10.093  1.00  0.00    -0.550 OA
ENDBRANCH   4   5
ENDBRANCH   3   4
ENDBRANCH   2   3
ENDBRANCH   1   2
BRANCH   1   8
ATOM      8  C   UNL     1      -8.310 -35.458 -10.305  1.00  0.00     0.000 C 
BRANCH   8   9
ATOM      9  C   UNL     1      -6.934 -34.768 -10.315  1.00  0.00    -0.000 C 
BRANCH   9  10
ATOM     10  C   UNL     1      -6.621 -34.056  -8.989  1.00  0.00    -0.000 C 
BRANCH  10  11
ATOM     11  C   UNL     1      -5.580 -34.806  -8.143  1.00  0.00    -0.000 C 
BRANCH  11  12
ATOM     12  C   UNL     1      -4.602 -35.577  -9.038  1.00  0.00    -0.003 C 
ATOM     13  C   UNL     1      -3.298 -35.874  -8.302  1.00  0.00     0.004 C 
ENDBRANCH  11  12
ENDBRANCH  10  11
ENDBRANCH   9  10
ENDBRANCH   8   9
ENDBRANCH   1   8
TORSDOF 9
ENDMDL
MODEL 2
REMARK VINA RESULT:    -3.703      1.531      3.124
REMARK INTER + INTRA:          -6.786
REMARK INTER:                  -5.978
REMARK INTRA:                  -0.808
REMARK UNBOUND:                -1.135
REMARK SMILES CCCCCCCCCCC(=O)[O-]
REMARK SMILES IDX 7 1 8 2 9 3 10 4 11 5 12 6 13 7 6 8 5 9 4 10 3 11 2 12 1 13
REMARK H PARENT
REMARK Flexibility Score: inf
ROOT
ATOM      1  C   UNL     1      -5.460 -37.404  -9.416  1.00  0.00     0.000 C 
ENDROOT
BRANCH   1   2
ATOM      2  C   UNL     1      -5.197 -38.723 -10.172  1.00  0.00     0.000 C 
BRANCH   2   3
ATOM      3  C   UNL     1      -6.443 -39.591 -10.424  1.00  0.00     0.006 C 
BRANCH   3   4
ATOM      4  C   UNL     1      -7.706 -38.760 -10.677  1.00  0.00     0.053 C 
BRANCH   4   5
ATOM      5  C   UNL     1      -8.236 -39.020 -12.051  1.00  0.00     0.041 C 
ATOM      6  O   UNL     1      -9.459 -38.855 -12.301  1.00  0.00    -0.550 OA
ATOM      7  O   UNL     1      -7.370 -39.397 -13.070  1.00  0.00    -0.550 OA
ENDBRANCH   4   5
ENDBRANCH   3   4
ENDBRANCH   2   3
ENDBRANCH   1   2
BRANCH   1   8
ATOM      8  C   UNL     1      -4.218 -36.530  -9.168  1.00  0.00     0.000 C 
BRANCH   8   9
ATOM      9  C   UNL     1      -4.555 -35.191  -8.490  1.00  0.00    -0.000 C 
BRANCH   9  10
ATOM     10  C   UNL     1      -6.010 -35.132  -7.993  1.00  0.00    -0.000 C 
BRANCH  10  11
ATOM     11  C   UNL     1      -6.800 -33.966  -8.610  1.00  0.00    -0.000 C 
BRANCH  11  12
ATOM     12  C   UNL     1      -6.991 -34.172 -10.117  1.00  0.00    -0.003 C 
ATOM     13  C   UNL     1      -8.209 -35.045 -10.404  1.00  0.00     0.004 C 
ENDBRANCH  11  12
ENDBRANCH  10  11
ENDBRANCH   9  10
ENDBRANCH   8   9
ENDBRANCH   1   8
TORSDOF 9
ENDMDL
MODEL 3
REMARK VINA RESULT:    -3.654      1.440      2.959
REMARK INTER + INTRA:          -6.711
REMARK INTER:                  -5.910
REMARK INTRA:                  -0.801
REMARK UNBOUND:                -1.135
REMARK SMILES CCCCCCCCCCC(=O)[O-]
REMARK SMILES IDX 7 1 8 2 9 3 10 4 11 5 12 6 13 7 6 8 5 9 4 10 3 11 2 12 1 13
REMARK H PARENT
REMARK Flexibility Score: inf
ROOT
ATOM      1  C   UNL     1      -4.634 -36.496  -9.185  1.00  0.00     0.000 C 
ENDROOT
BRANCH   1   2
ATOM      2  C   UNL     1      -5.697 -37.529  -9.615  1.00  0.00     0.000 C 
BRANCH   2   3
ATOM      3  C   UNL     1      -5.140 -38.803 -10.274  1.00  0.00     0.006 C 
BRANCH   3   4
ATOM      4  C   UNL     1      -6.202 -39.894 -10.453  1.00  0.00     0.053 C 
BRANCH   4   5
ATOM      5  C   UNL     1      -6.750 -39.866 -11.844  1.00  0.00     0.041 C 
ATOM      6  O   UNL     1      -7.618 -39.013 -12.167  1.00  0.00    -0.550 OA
ATOM      7  O   UNL     1      -6.266 -40.750 -12.800  1.00  0.00    -0.550 OA
ENDBRANCH   4   5
ENDBRANCH   3   4
ENDBRANCH   2   3
ENDBRANCH   1   2
BRANCH   1   8
ATOM      8  C   UNL     1      -5.169 -35.303  -8.373  1.00  0.00     0.000 C 
BRANCH   8   9
ATOM      9  C   UNL     1      -5.631 -34.135  -9.262  1.00  0.00    -0.000 C 
BRANCH   9  10
ATOM     10  C   UNL     1      -7.138 -33.857  -9.134  1.00  0.00    -0.000 C 
BRANCH  10  11
ATOM     11  C   UNL     1      -7.848 -34.848  -8.197  1.00  0.00    -0.000 C 
BRANCH  11  12
ATOM     12  C   UNL     1      -8.910 -35.653  -8.956  1.00  0.00    -0.003 C 
ATOM     13  C   UNL     1      -8.804 -35.424 -10.461  1.00  0.00     0.004 C 
ENDBRANCH  11  12
ENDBRANCH  10  11
ENDBRANCH   9  10
ENDBRANCH   8   9
ENDBRANCH   1   8
TORSDOF 9
ENDMDL
MODEL 4
REMARK VINA RESULT:    -3.632      1.426      2.963
REMARK INTER + INTRA:          -6.678
REMARK INTER:                  -6.060
REMARK INTRA:                  -0.618
REMARK UNBOUND:                -1.135
REMARK SMILES CCCCCCCCCCC(=O)[O-]
REMARK SMILES IDX 7 1 8 2 9 3 10 4 11 5 12 6 13 7 6 8 5 9 4 10 3 11 2 12 1 13
REMARK H PARENT
REMARK Flexibility Score: inf
ROOT
ATOM      1  C   UNL     1      -5.506 -37.421  -9.409  1.00  0.00     0.000 C 
ENDROOT
BRANCH   1   2
ATOM      2  C   UNL     1      -5.193 -38.739 -10.149  1.00  0.00     0.000 C 
BRANCH   2   3
ATOM      3  C   UNL     1      -6.413 -39.634 -10.431  1.00  0.00     0.006 C 
BRANCH   3   4
ATOM      4  C   UNL     1      -6.522 -40.814  -9.458  1.00  0.00     0.053 C 
BRANCH   4   5
ATOM      5  C   UNL     1      -7.051 -42.023 -10.163  1.00  0.00     0.041 C 
ATOM      6  O   UNL     1      -7.579 -41.914 -11.301  1.00  0.00    -0.550 OA
ATOM      7  O   UNL     1      -6.918 -43.279  -9.583  1.00  0.00    -0.550 OA
ENDBRANCH   4   5
ENDBRANCH   3   4
ENDBRANCH   2   3
ENDBRANCH   1   2
BRANCH   1   8
ATOM      8  C   UNL     1      -4.298 -36.496  -9.178  1.00  0.00     0.000 C 
BRANCH   8   9
ATOM      9  C   UNL     1      -4.681 -35.173  -8.491  1.00  0.00    -0.000 C 
BRANCH   9  10
ATOM     10  C   UNL     1      -6.122 -35.184  -7.954  1.00  0.00    -0.000 C 
BRANCH  10  11
ATOM     11  C   UNL     1      -6.974 -34.035  -8.516  1.00  0.00    -0.000 C 
BRANCH  11  12
ATOM     12  C   UNL     1      -7.133 -34.165 -10.035  1.00  0.00    -0.003 C 
ATOM     13  C   UNL     1      -8.291 -35.092 -10.391  1.00  0.00     0.004 C 
ENDBRANCH  11  12
ENDBRANCH  10  11
ENDBRANCH   9  10
ENDBRANCH   8   9
ENDBRANCH   1   8
TORSDOF 9
ENDMDL
MODEL 5
REMARK VINA RESULT:    -3.543      3.460      6.276
REMARK INTER + INTRA:          -6.543
REMARK INTER:                  -6.250
REMARK INTRA:                  -0.293
REMARK UNBOUND:                -1.135
REMARK SMILES CCCCCCCCCCC(=O)[O-]
REMARK SMILES IDX 7 1 8 2 9 3 10 4 11 5 12 6 13 7 6 8 5 9 4 10 3 11 2 12 1 13
REMARK H PARENT
REMARK Flexibility Score: inf
ROOT
ATOM      1  C   UNL     1      -5.590 -38.962 -10.316  1.00  0.00     0.000 C 
ENDROOT
BRANCH   1   2
ATOM      2  C   UNL     1      -5.836 -37.781  -9.354  1.00  0.00     0.000 C 
BRANCH   2   3
ATOM      3  C   UNL     1      -4.836 -36.619  -9.479  1.00  0.00     0.006 C 
BRANCH   3   4
ATOM      4  C   UNL     1      -5.244 -35.391  -8.656  1.00  0.00     0.053 C 
BRANCH   4   5
ATOM      5  C   UNL     1      -6.089 -34.470  -9.477  1.00  0.00     0.041 C 
ATOM      6  O   UNL     1      -6.273 -34.700 -10.701  1.00  0.00    -0.550 OA
ATOM      7  O   UNL     1      -6.714 -33.382  -8.880  1.00  0.00    -0.550 OA
ENDBRANCH   4   5
ENDBRANCH   3   4
ENDBRANCH   2   3
ENDBRANCH   1   2
BRANCH   1   8
ATOM      8  C   UNL     1      -6.368 -40.249  -9.988  1.00  0.00     0.000 C 
BRANCH   8   9
ATOM      9  C   UNL     1      -6.748 -41.054 -11.243  1.00  0.00    -0.000 C 
BRANCH   9  10
ATOM     10  C   UNL     1      -6.856 -40.172 -12.498  1.00  0.00    -0.000 C 
BRANCH  10  11
ATOM     11  C   UNL     1      -6.474 -40.922 -13.785  1.00  0.00    -0.000 C 
BRANCH  11  12
ATOM     12  C   UNL     1      -6.920 -40.140 -15.025  1.00  0.00    -0.003 C 
ATOM     13  C   UNL     1      -6.435 -40.814 -16.306  1.00  0.00     0.004 C 
ENDBRANCH  11  12
ENDBRANCH  10  11
ENDBRANCH   9  10
ENDBRANCH   8   9
ENDBRANCH   1   8
TORSDOF 9
ENDMDL
MODEL 6
REMARK VINA RESULT:    -3.489      2.762      4.170
REMARK INTER + INTRA:          -6.460
REMARK INTER:                  -6.050
REMARK INTRA:                  -0.409
REMARK UNBOUND:                -1.135
REMARK SMILES CCCCCCCCCCC(=O)[O-]
REMARK SMILES IDX 7 1 8 2 9 3 10 4 11 5 12 6 13 7 6 8 5 9 4 10 3 11 2 12 1 13
REMARK H PARENT
REMARK Flexibility Score: inf
ROOT
ATOM      1  C   UNL     1      -6.574 -40.188 -11.602  1.00  0.00     0.000 C 
ENDROOT
BRANCH   1   2
ATOM      2  C   UNL     1      -7.484 -39.302 -12.477  1.00  0.00     0.000 C 
BRANCH   2   3
ATOM      3  C   UNL     1      -7.656 -39.778 -13.931  1.00  0.00     0.006 C 
BRANCH   3   4
ATOM      4  C   UNL     1      -6.590 -40.794 -14.354  1.00  0.00     0.053 C 
BRANCH   4   5
ATOM      5  C   UNL     1      -6.374 -40.739 -15.833  1.00  0.00     0.041 C 
ATOM      6  O   UNL     1      -5.602 -41.562 -16.393  1.00  0.00    -0.550 OA
ATOM      7  O   UNL     1      -7.064 -39.810 -16.602  1.00  0.00    -0.550 OA
ENDBRANCH   4   5
ENDBRANCH   3   4
ENDBRANCH   2   3
ENDBRANCH   1   2
BRANCH   1   8
ATOM      8  C   UNL     1      -5.706 -39.431 -10.581  1.00  0.00     0.000 C 
BRANCH   8   9
ATOM      9  C   UNL     1      -6.517 -38.893  -9.390  1.00  0.00    -0.000 C 
BRANCH   9  10
ATOM     10  C   UNL     1      -6.285 -37.392  -9.149  1.00  0.00    -0.000 C 
BRANCH  10  11
ATOM     11  C   UNL     1      -4.831 -36.966  -9.406  1.00  0.00    -0.000 C 
BRANCH  11  12
ATOM     12  C   UNL     1      -4.495 -35.679  -8.644  1.00  0.00    -0.003 C 
ATOM     13  C   UNL     1      -3.040 -35.675  -8.184  1.00  0.00     0.004 C 
ENDBRANCH  11  12
ENDBRANCH  10  11
ENDBRANCH   9  10
ENDBRANCH   8   9
ENDBRANCH   1   8
TORSDOF 9
ENDMDL
MODEL 7
REMARK VINA RESULT:    -3.440      2.838      5.502
REMARK INTER + INTRA:          -6.385
REMARK INTER:                  -5.740
REMARK INTRA:                  -0.645
REMARK UNBOUND:                -1.135
REMARK SMILES CCCCCCCCCCC(=O)[O-]
REMARK SMILES IDX 7 1 8 2 9 3 10 4 11 5 12 6 13 7 6 8 5 9 4 10 3 11 2 12 1 13
REMARK H PARENT
REMARK Flexibility Score: inf
ROOT
ATOM      1  C   UNL     1      -5.381 -37.774  -9.689  1.00  0.00     0.000 C 
ENDROOT
BRANCH   1   2
ATOM      2  C   UNL     1      -4.649 -36.443  -9.418  1.00  0.00     0.000 C 
BRANCH   2   3
ATOM      3  C   UNL     1      -5.305 -35.543  -8.356  1.00  0.00     0.006 C 
BRANCH   3   4
ATOM      4  C   UNL     1      -5.872 -34.245  -8.943  1.00  0.00     0.053 C 
BRANCH   4   5
ATOM      5  C   UNL     1      -7.303 -34.432  -9.334  1.00  0.00     0.041 C 
ATOM      6  O   UNL     1      -7.642 -34.377 -10.546  1.00  0.00    -0.550 OA
ATOM      7  O   UNL     1      -8.258 -34.715  -8.366  1.00  0.00    -0.550 OA
ENDBRANCH   4   5
ENDBRANCH   3   4
ENDBRANCH   2   3
ENDBRANCH   1   2
BRANCH   1   8
ATOM      8  C   UNL     1      -6.731 -37.940  -8.970  1.00  0.00     0.000 C 
BRANCH   8   9
ATOM      9  C   UNL     1      -7.219 -39.399  -8.944  1.00  0.00    -0.000 C 
BRANCH   9  10
ATOM     10  C   UNL     1      -6.272 -40.351  -9.695  1.00  0.00    -0.000 C 
BRANCH  10  11
ATOM     11  C   UNL     1      -6.915 -40.958 -10.952  1.00  0.00    -0.000 C 
BRANCH  11  12
ATOM     12  C   UNL     1      -6.649 -40.079 -12.180  1.00  0.00    -0.003 C 
ATOM     13  C   UNL     1      -6.500 -40.926 -13.442  1.00  0.00     0.004 C 
ENDBRANCH  11  12
ENDBRANCH  10  11
ENDBRANCH   9  10
ENDBRANCH   8   9
ENDBRANCH   1   8
TORSDOF 9
ENDMDL
MODEL 8
REMARK VINA RESULT:    -3.408      3.968      6.544
REMARK INTER + INTRA:          -6.336
REMARK INTER:                  -5.947
REMARK INTRA:                  -0.390
REMARK UNBOUND:                -1.135
REMARK SMILES CCCCCCCCCCC(=O)[O-]
REMARK SMILES IDX 7 1 8 2 9 3 10 4 11 5 12 6 13 7 6 8 5 9 4 10 3 11 2 12 1 13
REMARK H PARENT
REMARK Flexibility Score: inf
ROOT
ATOM      1  C   UNL     1      -6.131 -39.750 -11.313  1.00  0.00     0.000 C 
ENDROOT
BRANCH   1   2
ATOM      2  C   UNL     1      -6.040 -39.143  -9.897  1.00  0.00     0.000 C 
BRANCH   2   3
ATOM      3  C   UNL     1      -5.141 -37.900  -9.776  1.00  0.00     0.006 C 
BRANCH   3   4
ATOM      4  C   UNL     1      -5.884 -36.681  -9.218  1.00  0.00     0.053 C 
BRANCH   4   5
ATOM      5  C   UNL     1      -4.932 -35.550  -8.988  1.00  0.00     0.041 C 
ATOM      6  O   UNL     1      -5.331 -34.358  -9.073  1.00  0.00    -0.550 OA
ATOM      7  O   UNL     1      -3.615 -35.812  -8.631  1.00  0.00    -0.550 OA
ENDBRANCH   4   5
ENDBRANCH   3   4
ENDBRANCH   2   3
ENDBRANCH   1   2
BRANCH   1   8
ATOM      8  C   UNL     1      -7.469 -39.524 -12.039  1.00  0.00     0.000 C 
BRANCH   8   9
ATOM      9  C   UNL     1      -7.391 -39.834 -13.544  1.00  0.00    -0.000 C 
BRANCH   9  10
ATOM     10  C   UNL     1      -6.377 -40.944 -13.866  1.00  0.00    -0.000 C 
BRANCH  10  11
ATOM     11  C   UNL     1      -6.283 -41.245 -15.370  1.00  0.00    -0.000 C 
BRANCH  11  12
ATOM     12  C   UNL     1      -7.030 -40.185 -16.187  1.00  0.00    -0.003 C 
ATOM     13  C   UNL     1      -6.629 -40.239 -17.658  1.00  0.00     0.004 C 
ENDBRANCH  11  12
ENDBRANCH  10  11
ENDBRANCH   9  10
ENDBRANCH   8   9
ENDBRANCH   1   8
TORSDOF 9
ENDMDL
MODEL 9
REMARK VINA RESULT:    -3.408      2.491      4.386
REMARK INTER + INTRA:          -6.336
REMARK INTER:                  -5.403
REMARK INTRA:                  -0.933
REMARK UNBOUND:                -1.135
REMARK SMILES CCCCCCCCCCC(=O)[O-]
REMARK SMILES IDX 7 1 8 2 9 3 10 4 11 5 12 6 13 7 6 8 5 9 4 10 3 11 2 12 1 13
REMARK H PARENT
REMARK Flexibility Score: inf
ROOT
ATOM      1  C   UNL     1      -8.543 -35.709 -10.380  1.00  0.00     0.000 C 
ENDROOT
BRANCH   1   2
ATOM      2  C   UNL     1      -7.548 -34.548 -10.174  1.00  0.00     0.000 C 
BRANCH   2   3
ATOM      3  C   UNL     1      -6.062 -34.940 -10.250  1.00  0.00     0.006 C 
BRANCH   3   4
ATOM      4  C   UNL     1      -5.347 -34.827  -8.899  1.00  0.00     0.053 C 
BRANCH   4   5
ATOM      5  C   UNL     1      -4.291 -35.879  -8.778  1.00  0.00     0.041 C 
ATOM      6  O   UNL     1      -4.502 -37.043  -9.211  1.00  0.00    -0.550 OA
ATOM      7  O   UNL     1      -3.053 -35.562  -8.231  1.00  0.00    -0.550 OA
ENDBRANCH   4   5
ENDBRANCH   3   4
ENDBRANCH   2   3
ENDBRANCH   1   2
BRANCH   1   8
ATOM      8  C   UNL     1      -9.491 -35.979  -9.198  1.00  0.00     0.000 C 
BRANCH   8   9
ATOM      9  C   UNL     1      -9.260 -37.355  -8.549  1.00  0.00    -0.000 C 
BRANCH   9  10
ATOM     10  C   UNL     1      -7.779 -37.769  -8.557  1.00  0.00    -0.000 C 
BRANCH  10  11
ATOM     11  C   UNL     1      -7.587 -39.292  -8.485  1.00  0.00    -0.000 C 
BRANCH  11  12
ATOM     12  C   UNL     1      -6.603 -39.770  -9.559  1.00  0.00    -0.003 C 
ATOM     13  C   UNL     1      -6.816 -39.024 -10.873  1.00  0.00     0.004 C 
ENDBRANCH  11  12
ENDBRANCH  10  11
ENDBRANCH   9  10
ENDBRANCH   8   9
ENDBRANCH   1   8
TORSDOF 9
ENDMDL
