MODEL 1
REMARK VINA RESULT:    -4.446      0.000      0.000
REMARK INTER + INTRA:          -5.198
REMARK INTER:                  -5.096
REMARK INTRA:                  -0.103
REMARK UNBOUND:                -0.103
REMARK SMILES COc1ccc(C(C)=O)cc1O
REMARK SMILES IDX 6 1 10 2 11 3 3 4 4 5 5 6 7 7 8 8 9 9 12 10 2 12 1 13
REMARK H PARENT 12 11
REMARK Flexibility Score: inf
ROOT
ATOM      1  C   UNL     1      26.171  38.507  20.462  1.00  0.00     0.021 A 
ATOM      2  C   UNL     1      26.865  38.470  19.238  1.00  0.00     0.062 A 
ATOM      3  C   UNL     1      27.374  39.641  18.665  1.00  0.00     0.158 A 
ATOM      4  C   UNL     1      27.197  40.878  19.309  1.00  0.00     0.160 A 
ATOM      5  C   UNL     1      26.504  40.919  20.532  1.00  0.00     0.051 A 
ATOM      6  C   UNL     1      25.998  39.749  21.101  1.00  0.00     0.016 A 
ENDROOT
BRANCH   1   7
ATOM      7  C   UNL     1      25.626  37.269  21.082  1.00  0.00     0.159 C 
ATOM      8  C   UNL     1      24.153  36.988  21.130  1.00  0.00     0.093 C 
ATOM      9  O   UNL     1      26.413  36.422  21.586  1.00  0.00    -0.295 OA
ENDBRANCH   1   7
BRANCH   3  10
ATOM     10  O   UNL     1      28.055  39.553  17.451  1.00  0.00    -0.504 OA
ATOM     11  H   UNL     1      27.988  38.740  16.851  1.00  0.00     0.293 HD
ENDBRANCH   3  10
BRANCH   4  12
ATOM     12  O   UNL     1      27.718  42.037  18.711  1.00  0.00    -0.493 OA
ATOM     13  C   UNL     1      27.157  43.338  18.844  1.00  0.00     0.278 C 
ENDBRANCH   4  12
TORSDOF 3
ENDMDL
MODEL 2
REMARK VINA RESULT:    -4.432      4.227      7.026
REMARK INTER + INTRA:          -5.183
REMARK INTER:                  -5.087
REMARK INTRA:                  -0.095
REMARK UNBOUND:                -0.103
REMARK SMILES COc1ccc(C(C)=O)cc1O
REMARK SMILES IDX 6 1 10 2 11 3 3 4 4 5 5 6 7 7 8 8 9 9 12 10 2 12 1 13
REMARK H PARENT 12 11
REMARK Flexibility Score: inf
ROOT
ATOM      1  C   UNL     1      27.682  35.870  21.936  1.00  0.00     0.021 A 
ATOM      2  C   UNL     1      28.197  34.945  21.008  1.00  0.00     0.062 A 
ATOM      3  C   UNL     1      28.624  33.677  21.419  1.00  0.00     0.158 A 
ATOM      4  C   UNL     1      28.543  33.308  22.774  1.00  0.00     0.160 A 
ATOM      5  C   UNL     1      28.030  34.230  23.703  1.00  0.00     0.051 A 
ATOM      6  C   UNL     1      27.605  35.494  23.290  1.00  0.00     0.016 A 
ENDROOT
BRANCH   1   7
ATOM      7  C   UNL     1      27.225  37.221  21.512  1.00  0.00     0.159 C 
ATOM      8  C   UNL     1      25.908  37.434  20.826  1.00  0.00     0.093 C 
ATOM      9  O   UNL     1      27.956  38.225  21.726  1.00  0.00    -0.295 OA
ENDBRANCH   1   7
BRANCH   3  10
ATOM     10  O   UNL     1      29.125  32.795  20.463  1.00  0.00    -0.504 OA
ATOM     11  H   UNL     1      29.232  33.056  19.490  1.00  0.00     0.293 HD
ENDBRANCH   3  10
BRANCH   4  12
ATOM     12  O   UNL     1      28.979  32.029  23.157  1.00  0.00    -0.493 OA
ATOM     13  C   UNL     1      28.475  31.306  24.275  1.00  0.00     0.278 C 
ENDBRANCH   4  12
TORSDOF 3
ENDMDL
MODEL 3
REMARK VINA RESULT:    -4.233      2.273      3.307
REMARK INTER + INTRA:          -4.954
REMARK INTER:                  -4.840
REMARK INTRA:                  -0.115
REMARK UNBOUND:                -0.103
REMARK SMILES COc1ccc(C(C)=O)cc1O
REMARK SMILES IDX 6 1 10 2 11 3 3 4 4 5 5 6 7 7 8 8 9 9 12 10 2 12 1 13
REMARK H PARENT 12 11
REMARK Flexibility Score: inf
ROOT
ATOM      1  C   UNL     1      27.457  36.321  21.552  1.00  0.00     0.021 A 
ATOM      2  C   UNL     1      26.287  37.103  21.505  1.00  0.00     0.062 A 
ATOM      3  C   UNL     1      26.152  38.138  20.574  1.00  0.00     0.158 A 
ATOM      4  C   UNL     1      27.190  38.413  19.666  1.00  0.00     0.160 A 
ATOM      5  C   UNL     1      28.360  37.635  19.710  1.00  0.00     0.051 A 
ATOM      6  C   UNL     1      28.492  36.602  20.641  1.00  0.00     0.016 A 
ENDROOT
BRANCH   1   7
ATOM      7  C   UNL     1      27.613  35.217  22.537  1.00  0.00     0.159 C 
ATOM      8  C   UNL     1      27.011  35.288  23.910  1.00  0.00     0.093 C 
ATOM      9  O   UNL     1      28.268  34.186  22.224  1.00  0.00    -0.295 OA
ENDBRANCH   1   7
BRANCH   3  10
ATOM     10  O   UNL     1      24.973  38.884  20.566  1.00  0.00    -0.504 OA
ATOM     11  H   UNL     1      24.705  39.461  19.778  1.00  0.00     0.293 HD
ENDBRANCH   3  10
BRANCH   4  12
ATOM     12  O   UNL     1      27.026  39.458  18.743  1.00  0.00    -0.493 OA
ATOM     13  C   UNL     1      27.562  40.768  18.900  1.00  0.00     0.278 C 
ENDBRANCH   4  12
TORSDOF 3
ENDMDL
MODEL 4
REMARK VINA RESULT:    -4.156      1.705      4.561
REMARK INTER + INTRA:          -4.866
REMARK INTER:                  -4.769
REMARK INTRA:                  -0.097
REMARK UNBOUND:                -0.103
REMARK SMILES COc1ccc(C(C)=O)cc1O
REMARK SMILES IDX 6 1 10 2 11 3 3 4 4 5 5 6 7 7 8 8 9 9 12 10 2 12 1 13
REMARK H PARENT 12 11
REMARK Flexibility Score: inf
ROOT
ATOM      1  C   UNL     1      26.949  41.733  20.012  1.00  0.00     0.021 A 
ATOM      2  C   UNL     1      27.521  41.163  18.859  1.00  0.00     0.062 A 
ATOM      3  C   UNL     1      27.623  39.774  18.719  1.00  0.00     0.158 A 
ATOM      4  C   UNL     1      27.153  38.924  19.735  1.00  0.00     0.160 A 
ATOM      5  C   UNL     1      26.580  39.490  20.889  1.00  0.00     0.051 A 
ATOM      6  C   UNL     1      26.480  40.876  21.025  1.00  0.00     0.016 A 
ENDROOT
BRANCH   1   7
ATOM      7  C   UNL     1      26.834  43.207  20.173  1.00  0.00     0.159 C 
ATOM      8  C   UNL     1      26.696  44.125  18.994  1.00  0.00     0.093 C 
ATOM      9  O   UNL     1      26.853  43.715  21.327  1.00  0.00    -0.295 OA
ENDBRANCH   1   7
BRANCH   3  10
ATOM     10  O   UNL     1      28.197  39.257  17.558  1.00  0.00    -0.504 OA
ATOM     11  H   UNL     1      29.169  39.413  17.319  1.00  0.00     0.293 HD
ENDBRANCH   3  10
BRANCH   4  12
ATOM     12  O   UNL     1      27.268  37.535  19.568  1.00  0.00    -0.493 OA
ATOM     13  C   UNL     1      27.482  36.608  20.627  1.00  0.00     0.278 C 
ENDBRANCH   4  12
TORSDOF 3
ENDMDL
MODEL 5
REMARK VINA RESULT:    -4.118      4.658      6.285
REMARK INTER + INTRA:          -4.822
REMARK INTER:                  -4.709
REMARK INTRA:                  -0.113
REMARK UNBOUND:                -0.103
REMARK SMILES COc1ccc(C(C)=O)cc1O
REMARK SMILES IDX 6 1 10 2 11 3 3 4 4 5 5 6 7 7 8 8 9 9 12 10 2 12 1 13
REMARK H PARENT 12 11
REMARK Flexibility Score: inf
ROOT
ATOM      1  C   UNL     1      28.473  33.259  23.113  1.00  0.00     0.021 A 
ATOM      2  C   UNL     1      28.764  33.585  21.774  1.00  0.00     0.062 A 
ATOM      3  C   UNL     1      28.356  34.807  21.228  1.00  0.00     0.158 A 
ATOM      4  C   UNL     1      27.646  35.732  22.013  1.00  0.00     0.160 A 
ATOM      5  C   UNL     1      27.354  35.410  23.351  1.00  0.00     0.051 A 
ATOM      6  C   UNL     1      27.762  34.189  23.893  1.00  0.00     0.016 A 
ENDROOT
BRANCH   1   7
ATOM      7  C   UNL     1      28.901  31.964  23.706  1.00  0.00     0.159 C 
ATOM      8  C   UNL     1      29.079  30.730  22.872  1.00  0.00     0.093 C 
ATOM      9  O   UNL     1      29.125  31.885  24.944  1.00  0.00    -0.295 OA
ENDBRANCH   1   7
BRANCH   3  10
ATOM     10  O   UNL     1      28.668  35.085  19.897  1.00  0.00    -0.504 OA
ATOM     11  H   UNL     1      29.509  34.735  19.455  1.00  0.00     0.293 HD
ENDBRANCH   3  10
BRANCH   4  12
ATOM     12  O   UNL     1      27.250  36.950  21.438  1.00  0.00    -0.493 OA
ATOM     13  C   UNL     1      25.969  37.195  20.867  1.00  0.00     0.278 C 
ENDBRANCH   4  12
TORSDOF 3
ENDMDL
MODEL 6
REMARK VINA RESULT:    -4.019      1.542      1.578
REMARK INTER + INTRA:          -4.710
REMARK INTER:                  -4.589
REMARK INTRA:                  -0.120
REMARK UNBOUND:                -0.103
REMARK SMILES COc1ccc(C(C)=O)cc1O
REMARK SMILES IDX 6 1 10 2 11 3 3 4 4 5 5 6 7 7 8 8 9 9 12 10 2 12 1 13
REMARK H PARENT 12 11
REMARK Flexibility Score: inf
ROOT
ATOM      1  C   UNL     1      27.560  37.836  20.464  1.00  0.00     0.021 A 
ATOM      2  C   UNL     1      27.874  37.940  19.095  1.00  0.00     0.062 A 
ATOM      3  C   UNL     1      27.832  39.177  18.441  1.00  0.00     0.158 A 
ATOM      4  C   UNL     1      27.475  40.339  19.147  1.00  0.00     0.160 A 
ATOM      5  C   UNL     1      27.161  40.238  20.514  1.00  0.00     0.051 A 
ATOM      6  C   UNL     1      27.203  39.003  21.163  1.00  0.00     0.016 A 
ENDROOT
BRANCH   1   7
ATOM      7  C   UNL     1      27.601  36.527  21.170  1.00  0.00     0.159 C 
ATOM      8  C   UNL     1      27.341  36.412  22.643  1.00  0.00     0.093 C 
ATOM      9  O   UNL     1      27.862  35.475  20.525  1.00  0.00    -0.295 OA
ENDBRANCH   1   7
BRANCH   3  10
ATOM     10  O   UNL     1      28.152  39.230  17.084  1.00  0.00    -0.504 OA
ATOM     11  H   UNL     1      28.836  38.611  16.666  1.00  0.00     0.293 HD
ENDBRANCH   3  10
BRANCH   4  12
ATOM     12  O   UNL     1      27.442  41.566  18.464  1.00  0.00    -0.493 OA
ATOM     13  C   UNL     1      27.504  42.841  19.093  1.00  0.00     0.278 C 
ENDBRANCH   4  12
TORSDOF 3
ENDMDL
MODEL 7
REMARK VINA RESULT:    -3.918      3.600      6.768
REMARK INTER + INTRA:          -4.594
REMARK INTER:                  -4.501
REMARK INTRA:                  -0.093
REMARK UNBOUND:                -0.103
REMARK SMILES COc1ccc(C(C)=O)cc1O
REMARK SMILES IDX 6 1 10 2 11 3 3 4 4 5 5 6 7 7 8 8 9 9 12 10 2 12 1 13
REMARK H PARENT 12 11
REMARK Flexibility Score: inf
ROOT
ATOM      1  C   UNL     1      27.825  36.312  21.018  1.00  0.00     0.021 A 
ATOM      2  C   UNL     1      27.457  36.562  22.354  1.00  0.00     0.062 A 
ATOM      3  C   UNL     1      27.557  35.560  23.326  1.00  0.00     0.158 A 
ATOM      4  C   UNL     1      28.029  34.282  22.979  1.00  0.00     0.160 A 
ATOM      5  C   UNL     1      28.397  34.029  21.645  1.00  0.00     0.051 A 
ATOM      6  C   UNL     1      28.296  35.031  20.678  1.00  0.00     0.016 A 
ENDROOT
BRANCH   1   7
ATOM      7  C   UNL     1      27.724  37.369  19.976  1.00  0.00     0.159 C 
ATOM      8  C   UNL     1      26.501  38.226  19.832  1.00  0.00     0.093 C 
ATOM      9  O   UNL     1      28.685  37.560  19.183  1.00  0.00    -0.295 OA
ENDBRANCH   1   7
BRANCH   3  10
ATOM     10  O   UNL     1      27.182  35.855  24.636  1.00  0.00    -0.504 OA
ATOM     11  H   UNL     1      27.824  35.769  25.415  1.00  0.00     0.293 HD
ENDBRANCH   3  10
BRANCH   4  12
ATOM     12  O   UNL     1      28.119  33.296  23.975  1.00  0.00    -0.493 OA
ATOM     13  C   UNL     1      28.721  32.019  23.796  1.00  0.00     0.278 C 
ENDBRANCH   4  12
TORSDOF 3
ENDMDL
MODEL 8
REMARK VINA RESULT:    -3.855      1.653      4.972
REMARK INTER + INTRA:          -4.521
REMARK INTER:                  -4.413
REMARK INTRA:                  -0.108
REMARK UNBOUND:                -0.103
REMARK SMILES COc1ccc(C(C)=O)cc1O
REMARK SMILES IDX 6 1 10 2 11 3 3 4 4 5 5 6 7 7 8 8 9 9 12 10 2 12 1 13
REMARK H PARENT 12 11
REMARK Flexibility Score: inf
ROOT
ATOM      1  C   UNL     1      26.930  40.124  20.707  1.00  0.00     0.021 A 
ATOM      2  C   UNL     1      25.813  39.296  20.486  1.00  0.00     0.062 A 
ATOM      3  C   UNL     1      25.822  37.956  20.890  1.00  0.00     0.158 A 
ATOM      4  C   UNL     1      26.953  37.416  21.526  1.00  0.00     0.160 A 
ATOM      5  C   UNL     1      28.070  38.241  21.748  1.00  0.00     0.051 A 
ATOM      6  C   UNL     1      28.059  39.577  21.343  1.00  0.00     0.016 A 
ENDROOT
BRANCH   1   7
ATOM      7  C   UNL     1      26.934  41.550  20.282  1.00  0.00     0.159 C 
ATOM      8  C   UNL     1      26.469  42.650  21.190  1.00  0.00     0.093 C 
ATOM      9  O   UNL     1      27.336  41.858  19.127  1.00  0.00    -0.295 OA
ENDBRANCH   1   7
BRANCH   3  10
ATOM     10  O   UNL     1      24.691  37.176  20.651  1.00  0.00    -0.504 OA
ATOM     11  H   UNL     1      24.273  37.098  19.731  1.00  0.00     0.293 HD
ENDBRANCH   3  10
BRANCH   4  12
ATOM     12  O   UNL     1      26.933  36.069  21.921  1.00  0.00    -0.493 OA
ATOM     13  C   UNL     1      27.154  35.613  23.251  1.00  0.00     0.278 C 
ENDBRANCH   4  12
TORSDOF 3
ENDMDL
MODEL 9
REMARK VINA RESULT:    -3.838      2.424      3.173
REMARK INTER + INTRA:          -4.501
REMARK INTER:                  -4.398
REMARK INTRA:                  -0.103
REMARK UNBOUND:                -0.103
REMARK SMILES COc1ccc(C(C)=O)cc1O
REMARK SMILES IDX 6 1 10 2 11 3 3 4 4 5 5 6 7 7 8 8 9 9 12 10 2 12 1 13
REMARK H PARENT 12 11
REMARK Flexibility Score: inf
ROOT
ATOM      1  C   UNL     1      27.911  37.182  20.478  1.00  0.00     0.021 A 
ATOM      2  C   UNL     1      26.531  37.392  20.662  1.00  0.00     0.062 A 
ATOM      3  C   UNL     1      26.000  38.687  20.691  1.00  0.00     0.158 A 
ATOM      4  C   UNL     1      26.843  39.801  20.537  1.00  0.00     0.160 A 
ATOM      5  C   UNL     1      28.222  39.595  20.354  1.00  0.00     0.051 A 
ATOM      6  C   UNL     1      28.749  38.302  20.325  1.00  0.00     0.016 A 
ENDROOT
BRANCH   1   7
ATOM      7  C   UNL     1      28.488  35.811  20.445  1.00  0.00     0.159 C 
ATOM      8  C   UNL     1      28.348  34.862  21.598  1.00  0.00     0.093 C 
ATOM      9  O   UNL     1      29.117  35.421  19.424  1.00  0.00    -0.295 OA
ENDBRANCH   1   7
BRANCH   3  10
ATOM     10  O   UNL     1      24.626  38.844  20.875  1.00  0.00    -0.504 OA
ATOM     11  H   UNL     1      24.239  39.300  21.692  1.00  0.00     0.293 HD
ENDBRANCH   3  10
BRANCH   4  12
ATOM     12  O   UNL     1      26.282  41.088  20.571  1.00  0.00    -0.493 OA
ATOM     13  C   UNL     1      26.138  41.876  21.748  1.00  0.00     0.278 C 
ENDBRANCH   4  12
TORSDOF 3
ENDMDL
