MODEL 1
REMARK VINA RESULT:    -6.431      0.000      0.000
REMARK INTER + INTRA:          -9.319
REMARK INTER:                  -8.687
REMARK INTRA:                  -0.633
REMARK UNBOUND:                -0.633
REMARK SMILES CC(=O)CCC=C(C)CCC=C(C)C
REMARK SMILES IDX 7 1 6 2 8 3 9 4 10 5 11 6 13 7 12 8 14 9 5 10 4 11 2 12 3 13
REMARK SMILES IDX 1 14
REMARK H PARENT
REMARK Flexibility Score: inf
ROOT
ATOM      1  C   UNL     1     -14.151  12.753   0.361  1.00  0.00    -0.077 C 
ATOM      2  C   UNL     1     -13.835  12.749   1.676  1.00  0.00    -0.028 C 
ATOM      3  C   UNL     1     -14.656  11.519  -0.346  1.00  0.00     0.039 C 
ENDROOT
BRANCH   1   4
ATOM      4  C   UNL     1     -13.929  14.014  -0.449  1.00  0.00     0.034 C 
BRANCH   4   5
ATOM      5  C   UNL     1     -13.302  15.131   0.397  1.00  0.00     0.032 C 
BRANCH   5   6
ATOM      6  C   UNL     1     -14.033  16.443   0.234  1.00  0.00    -0.028 C 
ATOM      7  C   UNL     1     -15.809  18.104   0.584  1.00  0.00     0.039 C 
ATOM      8  C   UNL     1     -15.228  16.730   0.797  1.00  0.00    -0.080 C 
ATOM      9  C   UNL     1     -15.996  15.716   1.611  1.00  0.00     0.039 C 
ENDBRANCH   5   6
ENDBRANCH   4   5
ENDBRANCH   1   4
BRANCH   2  10
ATOM     10  C   UNL     1     -14.027  11.569   2.599  1.00  0.00     0.035 C 
BRANCH  10  11
ATOM     11  C   UNL     1     -14.285  12.016   4.043  1.00  0.00     0.079 C 
BRANCH  11  12
ATOM     12  C   UNL     1     -13.070  11.814   4.912  1.00  0.00     0.130 C 
ATOM     13  O   UNL     1     -12.790  10.691   5.304  1.00  0.00    -0.300 OA
ATOM     14  C   UNL     1     -12.194  12.966   5.307  1.00  0.00     0.087 C 
ENDBRANCH  11  12
ENDBRANCH  10  11
ENDBRANCH   2  10
TORSDOF 6
ENDMDL
MODEL 2
REMARK VINA RESULT:    -6.373      2.659      5.969
REMARK INTER + INTRA:          -9.241
REMARK INTER:                  -8.586
REMARK INTRA:                  -0.656
REMARK UNBOUND:                -0.633
REMARK SMILES CC(=O)CCC=C(C)CCC=C(C)C
REMARK SMILES IDX 7 1 6 2 8 3 9 4 10 5 11 6 13 7 12 8 14 9 5 10 4 11 2 12 3 13
REMARK SMILES IDX 1 14
REMARK H PARENT
REMARK Flexibility Score: inf
ROOT
ATOM      1  C   UNL     1     -14.090  12.909   0.944  1.00  0.00    -0.077 C 
ATOM      2  C   UNL     1     -13.650  14.144   1.275  1.00  0.00    -0.028 C 
ATOM      3  C   UNL     1     -14.761  12.626  -0.378  1.00  0.00     0.039 C 
ENDROOT
BRANCH   1   4
ATOM      4  C   UNL     1     -13.970  11.787   1.954  1.00  0.00     0.034 C 
BRANCH   4   5
ATOM      5  C   UNL     1     -14.335  12.253   3.370  1.00  0.00     0.032 C 
BRANCH   5   6
ATOM      6  C   UNL     1     -13.795  11.321   4.429  1.00  0.00    -0.028 C 
ATOM      7  C   UNL     1     -12.436  10.624   6.353  1.00  0.00     0.039 C 
ATOM      8  C   UNL     1     -12.834  11.648   5.322  1.00  0.00    -0.080 C 
ATOM      9  C   UNL     1     -12.144  12.991   5.301  1.00  0.00     0.039 C 
ENDBRANCH   5   6
ENDBRANCH   4   5
ENDBRANCH   1   4
BRANCH   2  10
ATOM     10  C   UNL     1     -13.690  15.342   0.357  1.00  0.00     0.035 C 
BRANCH  10  11
ATOM     11  C   UNL     1     -14.088  16.620   1.108  1.00  0.00     0.079 C 
BRANCH  11  12
ATOM     12  C   UNL     1     -15.522  16.998   0.838  1.00  0.00     0.130 C 
ATOM     13  O   UNL     1     -15.783  18.124   0.442  1.00  0.00    -0.300 OA
ATOM     14  C   UNL     1     -16.638  16.019   1.046  1.00  0.00     0.087 C 
ENDBRANCH  11  12
ENDBRANCH  10  11
ENDBRANCH   2  10
TORSDOF 6
ENDMDL
MODEL 3
REMARK VINA RESULT:    -6.279      2.454      5.828
REMARK INTER + INTRA:          -9.113
REMARK INTER:                  -8.430
REMARK INTRA:                  -0.683
REMARK UNBOUND:                -0.633
REMARK SMILES CC(=O)CCC=C(C)CCC=C(C)C
REMARK SMILES IDX 7 1 6 2 8 3 9 4 10 5 11 6 13 7 12 8 14 9 5 10 4 11 2 12 3 13
REMARK SMILES IDX 1 14
REMARK H PARENT
REMARK Flexibility Score: inf
ROOT
ATOM      1  C   UNL     1     -14.163  12.059   0.997  1.00  0.00    -0.077 C 
ATOM      2  C   UNL     1     -14.024  13.242   1.636  1.00  0.00    -0.028 C 
ATOM      3  C   UNL     1     -14.623  11.973  -0.438  1.00  0.00     0.039 C 
ENDROOT
BRANCH   1   4
ATOM      4  C   UNL     1     -13.918  10.774   1.760  1.00  0.00     0.034 C 
BRANCH   4   5
ATOM      5  C   UNL     1     -12.612  10.830   2.566  1.00  0.00     0.032 C 
BRANCH   5   6
ATOM      6  C   UNL     1     -12.815  10.405   4.001  1.00  0.00    -0.028 C 
ATOM      7  C   UNL     1     -13.045  10.675   6.432  1.00  0.00     0.039 C 
ATOM      8  C   UNL     1     -12.771  11.241   5.063  1.00  0.00    -0.080 C 
ATOM      9  C   UNL     1     -12.440  12.707   4.915  1.00  0.00     0.039 C 
ENDBRANCH   5   6
ENDBRANCH   4   5
ENDBRANCH   1   4
BRANCH   2  10
ATOM     10  C   UNL     1     -14.217  14.593   0.989  1.00  0.00     0.035 C 
BRANCH  10  11
ATOM     11  C   UNL     1     -15.131  15.497   1.826  1.00  0.00     0.079 C 
BRANCH  11  12
ATOM     12  C   UNL     1     -16.069  16.295   0.956  1.00  0.00     0.130 C 
ATOM     13  O   UNL     1     -17.044  15.749   0.463  1.00  0.00    -0.300 OA
ATOM     14  C   UNL     1     -15.829  17.750   0.683  1.00  0.00     0.087 C 
ENDBRANCH  11  12
ENDBRANCH  10  11
ENDBRANCH   2  10
TORSDOF 6
ENDMDL
MODEL 4
REMARK VINA RESULT:    -6.124      1.955      3.020
REMARK INTER + INTRA:          -8.904
REMARK INTER:                  -8.441
REMARK INTRA:                  -0.463
REMARK UNBOUND:                -0.633
REMARK SMILES CC(=O)CCC=C(C)CCC=C(C)C
REMARK SMILES IDX 7 1 6 2 8 3 9 4 10 5 11 6 13 7 12 8 14 9 5 10 4 11 2 12 3 13
REMARK SMILES IDX 1 14
REMARK H PARENT
REMARK Flexibility Score: inf
ROOT
ATOM      1  C   UNL     1     -13.798  12.929   3.880  1.00  0.00    -0.077 C 
ATOM      2  C   UNL     1     -13.162  12.806   5.067  1.00  0.00    -0.028 C 
ATOM      3  C   UNL     1     -13.853  11.799   2.880  1.00  0.00     0.039 C 
ENDROOT
BRANCH   1   4
ATOM      4  C   UNL     1     -14.416  14.260   3.507  1.00  0.00     0.034 C 
BRANCH   4   5
ATOM      5  C   UNL     1     -14.734  14.341   2.007  1.00  0.00     0.032 C 
BRANCH   5   6
ATOM      6  C   UNL     1     -15.483  15.605   1.655  1.00  0.00    -0.028 C 
ATOM      7  C   UNL     1     -15.880  17.777   0.578  1.00  0.00     0.039 C 
ATOM      8  C   UNL     1     -14.990  16.600   0.884  1.00  0.00    -0.080 C 
ATOM      9  C   UNL     1     -13.581  16.570   0.341  1.00  0.00     0.039 C 
ENDBRANCH   5   6
ENDBRANCH   4   5
ENDBRANCH   1   4
BRANCH   2  10
ATOM     10  C   UNL     1     -12.523  11.533   5.569  1.00  0.00     0.035 C 
BRANCH  10  11
ATOM     11  C   UNL     1     -13.446  10.779   6.535  1.00  0.00     0.079 C 
BRANCH  11  12
ATOM     12  C   UNL     1     -13.085  11.052   7.973  1.00  0.00     0.130 C 
ATOM     13  O   UNL     1     -11.983  10.731   8.389  1.00  0.00    -0.300 OA
ATOM     14  C   UNL     1     -14.055  11.711   8.907  1.00  0.00     0.087 C 
ENDBRANCH  11  12
ENDBRANCH  10  11
ENDBRANCH   2  10
TORSDOF 6
ENDMDL
MODEL 5
REMARK VINA RESULT:    -6.006      1.223      1.813
REMARK INTER + INTRA:          -8.745
REMARK INTER:                  -8.154
REMARK INTRA:                  -0.591
REMARK UNBOUND:                -0.633
REMARK SMILES CC(=O)CCC=C(C)CCC=C(C)C
REMARK SMILES IDX 7 1 6 2 8 3 9 4 10 5 11 6 13 7 12 8 14 9 5 10 4 11 2 12 3 13
REMARK SMILES IDX 1 14
REMARK H PARENT
REMARK Flexibility Score: inf
ROOT
ATOM      1  C   UNL     1     -13.995  11.775   1.695  1.00  0.00    -0.077 C 
ATOM      2  C   UNL     1     -13.963  11.667   3.043  1.00  0.00    -0.028 C 
ATOM      3  C   UNL     1     -13.614  10.629   0.790  1.00  0.00     0.039 C 
ENDROOT
BRANCH   1   4
ATOM      4  C   UNL     1     -14.359  13.106   1.069  1.00  0.00     0.034 C 
BRANCH   4   5
ATOM      5  C   UNL     1     -14.222  14.262   2.069  1.00  0.00     0.032 C 
BRANCH   5   6
ATOM      6  C   UNL     1     -15.196  15.380   1.778  1.00  0.00    -0.028 C 
ATOM      7  C   UNL     1     -16.035  17.436   0.727  1.00  0.00     0.039 C 
ATOM      8  C   UNL     1     -14.942  16.425   0.959  1.00  0.00    -0.080 C 
ATOM      9  C   UNL     1     -13.600  16.614   0.292  1.00  0.00     0.039 C 
ENDBRANCH   5   6
ENDBRANCH   4   5
ENDBRANCH   1   4
BRANCH   2  10
ATOM     10  C   UNL     1     -13.638  10.397   3.792  1.00  0.00     0.035 C 
BRANCH  10  11
ATOM     11  C   UNL     1     -12.706  10.663   4.982  1.00  0.00     0.079 C 
BRANCH  11  12
ATOM     12  C   UNL     1     -13.374  11.518   6.029  1.00  0.00     0.130 C 
ATOM     13  O   UNL     1     -14.339  11.081   6.637  1.00  0.00    -0.300 OA
ATOM     14  C   UNL     1     -12.877  12.898   6.340  1.00  0.00     0.087 C 
ENDBRANCH  11  12
ENDBRANCH  10  11
ENDBRANCH   2  10
TORSDOF 6
ENDMDL
MODEL 6
REMARK VINA RESULT:    -5.790      2.700      6.467
REMARK INTER + INTRA:          -8.453
REMARK INTER:                  -8.059
REMARK INTRA:                  -0.394
REMARK UNBOUND:                -0.633
REMARK SMILES CC(=O)CCC=C(C)CCC=C(C)C
REMARK SMILES IDX 7 1 6 2 8 3 9 4 10 5 11 6 13 7 12 8 14 9 5 10 4 11 2 12 3 13
REMARK SMILES IDX 1 14
REMARK H PARENT
REMARK Flexibility Score: inf
ROOT
ATOM      1  C   UNL     1     -13.839  11.698   2.456  1.00  0.00    -0.077 C 
ATOM      2  C   UNL     1     -14.069  13.021   2.619  1.00  0.00    -0.028 C 
ATOM      3  C   UNL     1     -13.956  11.026   1.109  1.00  0.00     0.039 C 
ENDROOT
BRANCH   1   4
ATOM      4  C   UNL     1     -13.522  10.848   3.668  1.00  0.00     0.034 C 
BRANCH   4   5
ATOM      5  C   UNL     1     -13.131  11.706   4.880  1.00  0.00     0.032 C 
BRANCH   5   6
ATOM      6  C   UNL     1     -12.491  10.882   5.973  1.00  0.00    -0.028 C 
ATOM      7  C   UNL     1     -12.071  10.091   8.260  1.00  0.00     0.039 C 
ATOM      8  C   UNL     1     -12.751  11.024   7.292  1.00  0.00    -0.080 C 
ATOM      9  C   UNL     1     -13.681  12.091   7.816  1.00  0.00     0.039 C 
ENDBRANCH   5   6
ENDBRANCH   4   5
ENDBRANCH   1   4
BRANCH   2  10
ATOM     10  C   UNL     1     -14.373  13.983   1.496  1.00  0.00     0.035 C 
BRANCH  10  11
ATOM     11  C   UNL     1     -14.928  15.312   2.023  1.00  0.00     0.079 C 
BRANCH  11  12
ATOM     12  C   UNL     1     -14.808  16.409   0.995  1.00  0.00     0.130 C 
ATOM     13  O   UNL     1     -13.756  16.559   0.394  1.00  0.00    -0.300 OA
ATOM     14  C   UNL     1     -15.958  17.324   0.695  1.00  0.00     0.087 C 
ENDBRANCH  11  12
ENDBRANCH  10  11
ENDBRANCH   2  10
TORSDOF 6
ENDMDL
MODEL 7
REMARK VINA RESULT:    -5.761      1.362      1.920
REMARK INTER + INTRA:          -8.415
REMARK INTER:                  -7.559
REMARK INTRA:                  -0.856
REMARK UNBOUND:                -0.633
REMARK SMILES CC(=O)CCC=C(C)CCC=C(C)C
REMARK SMILES IDX 7 1 6 2 8 3 9 4 10 5 11 6 13 7 12 8 14 9 5 10 4 11 2 12 3 13
REMARK SMILES IDX 1 14
REMARK H PARENT
REMARK Flexibility Score: inf
ROOT
ATOM      1  C   UNL     1     -13.803  13.221   2.596  1.00  0.00    -0.077 C 
ATOM      2  C   UNL     1     -13.547  11.919   2.856  1.00  0.00    -0.028 C 
ATOM      3  C   UNL     1     -14.608  14.083   3.538  1.00  0.00     0.039 C 
ENDROOT
BRANCH   1   4
ATOM      4  C   UNL     1     -13.329  13.820   1.288  1.00  0.00     0.034 C 
BRANCH   4   5
ATOM      5  C   UNL     1     -14.500  14.332   0.438  1.00  0.00     0.032 C 
BRANCH   5   6
ATOM      6  C   UNL     1     -14.558  15.841   0.404  1.00  0.00    -0.028 C 
ATOM      7  C   UNL     1     -15.547  18.075   0.657  1.00  0.00     0.039 C 
ATOM      8  C   UNL     1     -15.660  16.573   0.683  1.00  0.00    -0.080 C 
ATOM      9  C   UNL     1     -16.990  15.931   0.999  1.00  0.00     0.039 C 
ENDBRANCH   5   6
ENDBRANCH   4   5
ENDBRANCH   1   4
BRANCH   2  10
ATOM     10  C   UNL     1     -13.943  11.206   4.127  1.00  0.00     0.035 C 
BRANCH  10  11
ATOM     11  C   UNL     1     -12.749  11.033   5.075  1.00  0.00     0.079 C 
BRANCH  11  12
ATOM     12  C   UNL     1     -12.608  12.208   6.010  1.00  0.00     0.130 C 
ATOM     13  O   UNL     1     -13.233  12.220   7.060  1.00  0.00    -0.300 OA
ATOM     14  C   UNL     1     -11.714  13.364   5.678  1.00  0.00     0.087 C 
ENDBRANCH  11  12
ENDBRANCH  10  11
ENDBRANCH   2  10
TORSDOF 6
ENDMDL
MODEL 8
REMARK VINA RESULT:    -5.680      2.426      4.535
REMARK INTER + INTRA:          -8.304
REMARK INTER:                  -7.457
REMARK INTRA:                  -0.848
REMARK UNBOUND:                -0.633
REMARK SMILES CC(=O)CCC=C(C)CCC=C(C)C
REMARK SMILES IDX 7 1 6 2 8 3 9 4 10 5 11 6 13 7 12 8 14 9 5 10 4 11 2 12 3 13
REMARK SMILES IDX 1 14
REMARK H PARENT
REMARK Flexibility Score: inf
ROOT
ATOM      1  C   UNL     1     -12.606  11.323   4.951  1.00  0.00    -0.077 C 
ATOM      2  C   UNL     1     -12.565  10.355   5.895  1.00  0.00    -0.028 C 
ATOM      3  C   UNL     1     -12.342  12.772   5.279  1.00  0.00     0.039 C 
ENDROOT
BRANCH   1   4
ATOM      4  C   UNL     1     -12.995  10.957   3.534  1.00  0.00     0.034 C 
BRANCH   4   5
ATOM      5  C   UNL     1     -14.230  11.737   3.063  1.00  0.00     0.032 C 
BRANCH   5   6
ATOM      6  C   UNL     1     -13.967  12.494   1.782  1.00  0.00    -0.028 C 
ATOM      7  C   UNL     1     -13.775  14.447   0.304  1.00  0.00     0.039 C 
ATOM      8  C   UNL     1     -14.130  13.828   1.631  1.00  0.00    -0.080 C 
ATOM      9  C   UNL     1     -14.668  14.700   2.740  1.00  0.00     0.039 C 
ENDBRANCH   5   6
ENDBRANCH   4   5
ENDBRANCH   1   4
BRANCH   2  10
ATOM     10  C   UNL     1     -12.172  10.579   7.335  1.00  0.00     0.035 C 
BRANCH  10  11
ATOM     11  C   UNL     1     -13.310  10.211   8.297  1.00  0.00     0.079 C 
BRANCH  11  12
ATOM     12  C   UNL     1     -14.372  11.282   8.335  1.00  0.00     0.130 C 
ATOM     13  O   UNL     1     -14.046  12.447   8.501  1.00  0.00    -0.300 OA
ATOM     14  C   UNL     1     -15.824  10.944   8.174  1.00  0.00     0.087 C 
ENDBRANCH  11  12
ENDBRANCH  10  11
ENDBRANCH   2  10
TORSDOF 6
ENDMDL
MODEL 9
REMARK VINA RESULT:    -5.468      2.345      6.041
REMARK INTER + INTRA:          -8.018
REMARK INTER:                  -7.547
REMARK INTRA:                  -0.471
REMARK UNBOUND:                -0.633
REMARK SMILES CC(=O)CCC=C(C)CCC=C(C)C
REMARK SMILES IDX 7 1 6 2 8 3 9 4 10 5 11 6 13 7 12 8 14 9 5 10 4 11 2 12 3 13
REMARK SMILES IDX 1 14
REMARK H PARENT
REMARK Flexibility Score: inf
ROOT
ATOM      1  C   UNL     1     -13.606  10.950   2.226  1.00  0.00    -0.077 C 
ATOM      2  C   UNL     1     -14.348  11.843   1.533  1.00  0.00    -0.028 C 
ATOM      3  C   UNL     1     -12.614  10.035   1.550  1.00  0.00     0.039 C 
ENDROOT
BRANCH   1   4
ATOM      4  C   UNL     1     -13.823  10.810   3.719  1.00  0.00     0.034 C 
BRANCH   4   5
ATOM      5  C   UNL     1     -12.517  10.485   4.456  1.00  0.00     0.032 C 
BRANCH   5   6
ATOM      6  C   UNL     1     -12.715  10.410   5.952  1.00  0.00    -0.028 C 
ATOM      7  C   UNL     1     -13.025  11.248   8.240  1.00  0.00     0.039 C 
ATOM      8  C   UNL     1     -12.769  11.482   6.774  1.00  0.00    -0.080 C 
ATOM      9  C   UNL     1     -12.564  12.890   6.270  1.00  0.00     0.039 C 
ENDBRANCH   5   6
ENDBRANCH   4   5
ENDBRANCH   1   4
BRANCH   2  10
ATOM     10  C   UNL     1     -14.217  12.096   0.050  1.00  0.00     0.035 C 
BRANCH  10  11
ATOM     11  C   UNL     1     -14.868  13.424  -0.358  1.00  0.00     0.079 C 
BRANCH  11  12
ATOM     12  C   UNL     1     -14.275  14.588   0.395  1.00  0.00     0.130 C 
ATOM     13  O   UNL     1     -13.085  14.836   0.280  1.00  0.00    -0.300 OA
ATOM     14  C   UNL     1     -15.119  15.449   1.286  1.00  0.00     0.087 C 
ENDBRANCH  11  12
ENDBRANCH  10  11
ENDBRANCH   2  10
TORSDOF 6
ENDMDL
