MODEL 1
REMARK VINA RESULT:    -5.241      0.000      0.000
REMARK INTER + INTRA:          -6.558
REMARK INTER:                  -6.466
REMARK INTRA:                  -0.092
REMARK UNBOUND:                -0.092
REMARK SMILES COc1cc(-c2oc3cc(O)cc(O)c3c(=O)c2O)ccc1O
REMARK SMILES IDX 6 1 18 2 16 3 17 4 15 5 13 6 12 7 10 8 9 9 8 10 7 11 5 12
REMARK SMILES IDX 3 13 22 14 4 15 21 16 20 17 2 18 1 19 23 20 19 22 14 24
REMARK SMILES IDX 11 26
REMARK H PARENT 23 21 19 23 14 25 11 27
REMARK Flexibility Score: inf
ROOT
ATOM      1  C   UNL     1       7.596   5.140   9.882  1.00  0.00     0.180 A 
ATOM      2  C   UNL     1       6.604   4.147   9.937  1.00  0.00     0.208 A 
ATOM      3  C   UNL     1       5.716   4.012   8.857  1.00  0.00     0.238 A 
ATOM      4  O   UNL     1       4.795   3.157   8.935  1.00  0.00    -0.285 OA
ATOM      5  C   UNL     1       5.841   4.862   7.732  1.00  0.00     0.111 A 
ATOM      6  C   UNL     1       5.021   4.787   6.566  1.00  0.00     0.134 A 
ATOM      7  C   UNL     1       5.149   5.763   5.569  1.00  0.00     0.093 A 
ATOM      8  C   UNL     1       6.112   6.769   5.665  1.00  0.00     0.123 A 
ATOM      9  C   UNL     1       6.957   6.815   6.772  1.00  0.00     0.094 A 
ATOM     10  C   UNL     1       6.828   5.878   7.800  1.00  0.00     0.146 A 
ATOM     11  O   UNL     1       7.647   5.964   8.842  1.00  0.00    -0.452 OA
ENDROOT
BRANCH   1  12
ATOM     12  C   UNL     1       8.584   5.327  10.970  1.00  0.00     0.025 A 
ATOM     13  C   UNL     1       9.777   6.827  12.489  1.00  0.00     0.161 A 
ATOM     14  C   UNL     1      10.496   5.734  12.993  1.00  0.00     0.157 A 
ATOM     15  C   UNL     1       8.826   6.617  11.471  1.00  0.00     0.062 A 
ATOM     16  C   UNL     1      10.272   4.449  12.481  1.00  0.00     0.051 A 
ATOM     17  C   UNL     1       9.329   4.247  11.473  1.00  0.00     0.016 A 
BRANCH  13  18
ATOM     18  O   UNL     1      10.035   8.099  13.021  1.00  0.00    -0.493 OA
ATOM     19  C   UNL     1       9.947   9.315  12.284  1.00  0.00     0.278 C 
ENDBRANCH  13  18
BRANCH  14  20
ATOM     20  O   UNL     1      11.437   5.934  14.001  1.00  0.00    -0.504 OA
ATOM     21  H   UNL     1      12.311   5.421  14.021  1.00  0.00     0.293 HD
ENDBRANCH  14  20
ENDBRANCH   1  12
BRANCH   2  22
ATOM     22  O   UNL     1       6.484   3.333  11.067  1.00  0.00    -0.502 OA
ATOM     23  H   UNL     1       7.230   3.231  11.745  1.00  0.00     0.293 HD
ENDBRANCH   2  22
BRANCH   6  24
ATOM     24  O   UNL     1       4.092   3.770   6.327  1.00  0.00    -0.507 OA
ATOM     25  H   UNL     1       3.199   3.688   6.789  1.00  0.00     0.293 HD
ENDBRANCH   6  24
BRANCH   8  26
ATOM     26  O   UNL     1       6.244   7.727   4.662  1.00  0.00    -0.508 OA
ATOM     27  H   UNL     1       5.667   7.703   3.828  1.00  0.00     0.293 HD
ENDBRANCH   8  26
TORSDOF 6
ENDMDL
MODEL 2
REMARK VINA RESULT:    -5.164      2.019      6.411
REMARK INTER + INTRA:          -6.464
REMARK INTER:                  -6.075
REMARK INTRA:                  -0.389
REMARK UNBOUND:                -0.092
REMARK SMILES COc1cc(-c2oc3cc(O)cc(O)c3c(=O)c2O)ccc1O
REMARK SMILES IDX 6 1 18 2 16 3 17 4 15 5 13 6 12 7 10 8 9 9 8 10 7 11 5 12
REMARK SMILES IDX 3 13 22 14 4 15 21 16 20 17 2 18 1 19 23 20 19 22 14 24
REMARK SMILES IDX 11 26
REMARK H PARENT 23 21 19 23 14 25 11 27
REMARK Flexibility Score: inf
ROOT
ATOM      1  C   UNL     1       7.189   5.002   9.799  1.00  0.00     0.180 A 
ATOM      2  C   UNL     1       6.262   4.110  10.365  1.00  0.00     0.208 A 
ATOM      3  C   UNL     1       6.621   3.400  11.522  1.00  0.00     0.238 A 
ATOM      4  O   UNL     1       5.808   2.562  11.994  1.00  0.00    -0.285 OA
ATOM      5  C   UNL     1       7.895   3.602  12.107  1.00  0.00     0.111 A 
ATOM      6  C   UNL     1       8.348   2.966  13.301  1.00  0.00     0.134 A 
ATOM      7  C   UNL     1       9.674   3.141  13.716  1.00  0.00     0.093 A 
ATOM      8  C   UNL     1      10.543   3.982  13.016  1.00  0.00     0.123 A 
ATOM      9  C   UNL     1      10.092   4.654  11.882  1.00  0.00     0.094 A 
ATOM     10  C   UNL     1       8.785   4.470  11.423  1.00  0.00     0.146 A 
ATOM     11  O   UNL     1       8.399   5.121  10.333  1.00  0.00    -0.452 OA
ENDROOT
BRANCH   1  12
ATOM     12  C   UNL     1       6.874   5.804   8.594  1.00  0.00     0.025 A 
ATOM     13  C   UNL     1       5.948   7.842   7.610  1.00  0.00     0.161 A 
ATOM     14  C   UNL     1       6.204   7.332   6.330  1.00  0.00     0.157 A 
ATOM     15  C   UNL     1       6.280   7.068   8.740  1.00  0.00     0.062 A 
ATOM     16  C   UNL     1       6.778   6.063   6.180  1.00  0.00     0.051 A 
ATOM     17  C   UNL     1       7.104   5.301   7.303  1.00  0.00     0.016 A 
BRANCH  13  18
ATOM     18  O   UNL     1       5.365   9.114   7.719  1.00  0.00    -0.493 OA
ATOM     19  C   UNL     1       5.406   9.922   8.891  1.00  0.00     0.278 C 
ENDBRANCH  13  18
BRANCH  14  20
ATOM     20  O   UNL     1       5.880   8.093   5.207  1.00  0.00    -0.504 OA
ATOM     21  H   UNL     1       6.362   8.959   4.996  1.00  0.00     0.293 HD
ENDBRANCH  14  20
ENDBRANCH   1  12
BRANCH   2  22
ATOM     22  O   UNL     1       5.019   3.909   9.760  1.00  0.00    -0.502 OA
ATOM     23  H   UNL     1       4.880   3.239   9.012  1.00  0.00     0.293 HD
ENDBRANCH   2  22
BRANCH   6  24
ATOM     24  O   UNL     1       7.536   2.180  14.125  1.00  0.00    -0.507 OA
ATOM     25  H   UNL     1       6.583   2.402  14.371  1.00  0.00     0.293 HD
ENDBRANCH   6  24
BRANCH   8  26
ATOM     26  O   UNL     1      11.856   4.164  13.444  1.00  0.00    -0.508 OA
ATOM     27  H   UNL     1      12.639   3.777  12.929  1.00  0.00     0.293 HD
ENDBRANCH   8  26
TORSDOF 6
ENDMDL
MODEL 3
REMARK VINA RESULT:    -5.162      1.453      7.269
REMARK INTER + INTRA:          -6.461
REMARK INTER:                  -6.207
REMARK INTRA:                  -0.254
REMARK UNBOUND:                -0.092
REMARK SMILES COc1cc(-c2oc3cc(O)cc(O)c3c(=O)c2O)ccc1O
REMARK SMILES IDX 6 1 18 2 16 3 17 4 15 5 13 6 12 7 10 8 9 9 8 10 7 11 5 12
REMARK SMILES IDX 3 13 22 14 4 15 21 16 20 17 2 18 1 19 23 20 19 22 14 24
REMARK SMILES IDX 11 26
REMARK H PARENT 23 21 19 23 14 25 11 27
REMARK Flexibility Score: inf
ROOT
ATOM      1  C   UNL     1       7.636   6.072   9.875  1.00  0.00     0.180 A 
ATOM      2  C   UNL     1       7.591   7.432  10.224  1.00  0.00     0.208 A 
ATOM      3  C   UNL     1       8.492   7.919  11.185  1.00  0.00     0.238 A 
ATOM      4  O   UNL     1       8.411   9.126  11.533  1.00  0.00    -0.285 OA
ATOM      5  C   UNL     1       9.435   7.043  11.774  1.00  0.00     0.111 A 
ATOM      6  C   UNL     1      10.420   7.437  12.729  1.00  0.00     0.134 A 
ATOM      7  C   UNL     1      11.216   6.461  13.342  1.00  0.00     0.093 A 
ATOM      8  C   UNL     1      11.107   5.114  12.986  1.00  0.00     0.123 A 
ATOM      9  C   UNL     1      10.190   4.728  12.012  1.00  0.00     0.094 A 
ATOM     10  C   UNL     1       9.356   5.674  11.409  1.00  0.00     0.146 A 
ATOM     11  O   UNL     1       8.489   5.262  10.493  1.00  0.00    -0.452 OA
ENDROOT
BRANCH   1  12
ATOM     12  C   UNL     1       6.736   5.490   8.853  1.00  0.00     0.025 A 
ATOM     13  C   UNL     1       5.995   5.378   6.525  1.00  0.00     0.161 A 
ATOM     14  C   UNL     1       5.004   4.458   6.892  1.00  0.00     0.157 A 
ATOM     15  C   UNL     1       6.855   5.897   7.514  1.00  0.00     0.062 A 
ATOM     16  C   UNL     1       4.869   4.065   8.230  1.00  0.00     0.051 A 
ATOM     17  C   UNL     1       5.723   4.582   9.205  1.00  0.00     0.016 A 
BRANCH  13  18
ATOM     18  O   UNL     1       6.095   5.753   5.177  1.00  0.00    -0.493 OA
ATOM     19  C   UNL     1       5.721   7.028   4.664  1.00  0.00     0.278 C 
ENDBRANCH  13  18
BRANCH  14  20
ATOM     20  O   UNL     1       4.152   3.939   5.918  1.00  0.00    -0.504 OA
ATOM     21  H   UNL     1       3.202   4.275   5.810  1.00  0.00     0.293 HD
ENDBRANCH  14  20
ENDBRANCH   1  12
BRANCH   2  22
ATOM     22  O   UNL     1       6.637   8.275   9.646  1.00  0.00    -0.502 OA
ATOM     23  H   UNL     1       6.818   9.254   9.459  1.00  0.00     0.293 HD
ENDBRANCH   2  22
BRANCH   6  24
ATOM     24  O   UNL     1      10.674   8.764  13.088  1.00  0.00    -0.507 OA
ATOM     25  H   UNL     1      10.760   9.529  12.435  1.00  0.00     0.293 HD
ENDBRANCH   6  24
BRANCH   8  26
ATOM     26  O   UNL     1      11.914   4.152  13.589  1.00  0.00    -0.508 OA
ATOM     27  H   UNL     1      12.923   4.250  13.620  1.00  0.00     0.293 HD
ENDBRANCH   8  26
TORSDOF 6
ENDMDL
MODEL 4
REMARK VINA RESULT:    -5.085      1.479      2.023
REMARK INTER + INTRA:          -6.366
REMARK INTER:                  -6.007
REMARK INTRA:                  -0.359
REMARK UNBOUND:                -0.092
REMARK SMILES COc1cc(-c2oc3cc(O)cc(O)c3c(=O)c2O)ccc1O
REMARK SMILES IDX 6 1 18 2 16 3 17 4 15 5 13 6 12 7 10 8 9 9 8 10 7 11 5 12
REMARK SMILES IDX 3 13 22 14 4 15 21 16 20 17 2 18 1 19 23 20 19 22 14 24
REMARK SMILES IDX 11 26
REMARK H PARENT 23 21 19 23 14 25 11 27
REMARK Flexibility Score: inf
ROOT
ATOM      1  C   UNL     1       8.050   5.048  10.740  1.00  0.00     0.180 A 
ATOM      2  C   UNL     1       7.191   4.251  11.517  1.00  0.00     0.208 A 
ATOM      3  C   UNL     1       6.071   3.663  10.907  1.00  0.00     0.238 A 
ATOM      4  O   UNL     1       5.277   2.995  11.619  1.00  0.00    -0.285 OA
ATOM      5  C   UNL     1       5.832   3.868   9.527  1.00  0.00     0.111 A 
ATOM      6  C   UNL     1       4.750   3.289   8.798  1.00  0.00     0.134 A 
ATOM      7  C   UNL     1       4.536   3.665   7.466  1.00  0.00     0.093 A 
ATOM      8  C   UNL     1       5.403   4.547   6.818  1.00  0.00     0.123 A 
ATOM      9  C   UNL     1       6.496   5.072   7.504  1.00  0.00     0.094 A 
ATOM     10  C   UNL     1       6.714   4.744   8.844  1.00  0.00     0.146 A 
ATOM     11  O   UNL     1       7.762   5.274   9.464  1.00  0.00    -0.452 OA
ENDROOT
BRANCH   1  12
ATOM     12  C   UNL     1       9.263   5.681  11.306  1.00  0.00     0.025 A 
ATOM     13  C   UNL     1      10.424   7.697  12.061  1.00  0.00     0.161 A 
ATOM     14  C   UNL     1      11.569   6.932  12.321  1.00  0.00     0.157 A 
ATOM     15  C   UNL     1       9.274   7.065  11.546  1.00  0.00     0.062 A 
ATOM     16  C   UNL     1      11.569   5.555  12.064  1.00  0.00     0.051 A 
ATOM     17  C   UNL     1      10.428   4.934  11.554  1.00  0.00     0.016 A 
BRANCH  13  18
ATOM     18  O   UNL     1      10.465   9.075  12.325  1.00  0.00    -0.493 OA
ATOM     19  C   UNL     1       9.931   9.689  13.493  1.00  0.00     0.278 C 
ENDBRANCH  13  18
BRANCH  14  20
ATOM     20  O   UNL     1      12.709   7.550  12.833  1.00  0.00    -0.504 OA
ATOM     21  H   UNL     1      13.132   7.248  13.703  1.00  0.00     0.293 HD
ENDBRANCH  14  20
ENDBRANCH   1  12
BRANCH   2  22
ATOM     22  O   UNL     1       7.434   4.080  12.882  1.00  0.00    -0.502 OA
ATOM     23  H   UNL     1       7.326   4.833  13.552  1.00  0.00     0.293 HD
ENDBRANCH   2  22
BRANCH   6  24
ATOM     24  O   UNL     1       3.880   2.328   9.322  1.00  0.00    -0.507 OA
ATOM     25  H   UNL     1       2.875   2.356   9.238  1.00  0.00     0.293 HD
ENDBRANCH   6  24
BRANCH   8  26
ATOM     26  O   UNL     1       5.192   4.904   5.488  1.00  0.00    -0.508 OA
ATOM     27  H   UNL     1       5.652   4.413   4.729  1.00  0.00     0.293 HD
ENDBRANCH   8  26
TORSDOF 6
ENDMDL
MODEL 5
REMARK VINA RESULT:    -5.055      1.522      7.368
REMARK INTER + INTRA:          -6.328
REMARK INTER:                  -5.971
REMARK INTRA:                  -0.358
REMARK UNBOUND:                -0.092
REMARK SMILES COc1cc(-c2oc3cc(O)cc(O)c3c(=O)c2O)ccc1O
REMARK SMILES IDX 6 1 18 2 16 3 17 4 15 5 13 6 12 7 10 8 9 9 8 10 7 11 5 12
REMARK SMILES IDX 3 13 22 14 4 15 21 16 20 17 2 18 1 19 23 20 19 22 14 24
REMARK SMILES IDX 11 26
REMARK H PARENT 23 21 19 23 14 25 11 27
REMARK Flexibility Score: inf
ROOT
ATOM      1  C   UNL     1       7.715   6.376   9.821  1.00  0.00     0.180 A 
ATOM      2  C   UNL     1       7.550   7.675  10.329  1.00  0.00     0.208 A 
ATOM      3  C   UNL     1       8.339   8.087  11.415  1.00  0.00     0.238 A 
ATOM      4  O   UNL     1       8.149   9.233  11.900  1.00  0.00    -0.285 OA
ATOM      5  C   UNL     1       9.293   7.200  11.969  1.00  0.00     0.111 A 
ATOM      6  C   UNL     1      10.174   7.526  13.044  1.00  0.00     0.134 A 
ATOM      7  C   UNL     1      10.986   6.528  13.598  1.00  0.00     0.093 A 
ATOM      8  C   UNL     1      10.998   5.234  13.070  1.00  0.00     0.123 A 
ATOM      9  C   UNL     1      10.186   4.922  11.983  1.00  0.00     0.094 A 
ATOM     10  C   UNL     1       9.337   5.887  11.433  1.00  0.00     0.146 A 
ATOM     11  O   UNL     1       8.572   5.545  10.404  1.00  0.00    -0.452 OA
ENDROOT
BRANCH   1  12
ATOM     12  C   UNL     1       6.937   5.878   8.663  1.00  0.00     0.025 A 
ATOM     13  C   UNL     1       5.173   4.431   7.784  1.00  0.00     0.161 A 
ATOM     14  C   UNL     1       5.477   4.860   6.485  1.00  0.00     0.157 A 
ATOM     15  C   UNL     1       5.913   4.939   8.870  1.00  0.00     0.062 A 
ATOM     16  C   UNL     1       6.512   5.781   6.273  1.00  0.00     0.051 A 
ATOM     17  C   UNL     1       7.241   6.281   7.352  1.00  0.00     0.016 A 
BRANCH  13  18
ATOM     18  O   UNL     1       4.135   3.502   7.956  1.00  0.00    -0.493 OA
ATOM     19  C   UNL     1       4.280   2.240   8.598  1.00  0.00     0.278 C 
ENDBRANCH  13  18
BRANCH  14  20
ATOM     20  O   UNL     1       4.748   4.363   5.406  1.00  0.00    -0.504 OA
ATOM     21  H   UNL     1       4.155   3.546   5.497  1.00  0.00     0.293 HD
ENDBRANCH  14  20
ENDBRANCH   1  12
BRANCH   2  22
ATOM     22  O   UNL     1       6.587   8.527   9.781  1.00  0.00    -0.502 OA
ATOM     23  H   UNL     1       5.894   9.001  10.349  1.00  0.00     0.293 HD
ENDBRANCH   2  22
BRANCH   6  24
ATOM     24  O   UNL     1      10.307   8.809  13.583  1.00  0.00    -0.507 OA
ATOM     25  H   UNL     1      11.187   9.275  13.746  1.00  0.00     0.293 HD
ENDBRANCH   6  24
BRANCH   8  26
ATOM     26  O   UNL     1      11.821   4.251  13.616  1.00  0.00    -0.508 OA
ATOM     27  H   UNL     1      12.832   4.332  13.590  1.00  0.00     0.293 HD
ENDBRANCH   8  26
TORSDOF 6
ENDMDL
MODEL 6
REMARK VINA RESULT:    -5.006      1.982      7.220
REMARK INTER + INTRA:          -6.269
REMARK INTER:                  -5.994
REMARK INTRA:                  -0.275
REMARK UNBOUND:                -0.092
REMARK SMILES COc1cc(-c2oc3cc(O)cc(O)c3c(=O)c2O)ccc1O
REMARK SMILES IDX 6 1 18 2 16 3 17 4 15 5 13 6 12 7 10 8 9 9 8 10 7 11 5 12
REMARK SMILES IDX 3 13 22 14 4 15 21 16 20 17 2 18 1 19 23 20 19 22 14 24
REMARK SMILES IDX 11 26
REMARK H PARENT 23 21 19 23 14 25 11 27
REMARK Flexibility Score: inf
ROOT
ATOM      1  C   UNL     1       8.076   6.891  10.513  1.00  0.00     0.180 A 
ATOM      2  C   UNL     1       8.538   5.583  10.732  1.00  0.00     0.208 A 
ATOM      3  C   UNL     1       9.580   5.373  11.650  1.00  0.00     0.238 A 
ATOM      4  O   UNL     1      10.026   4.206  11.802  1.00  0.00    -0.285 OA
ATOM      5  C   UNL     1      10.135   6.473  12.347  1.00  0.00     0.111 A 
ATOM      6  C   UNL     1      11.167   6.372  13.329  1.00  0.00     0.134 A 
ATOM      7  C   UNL     1      11.731   7.539  13.860  1.00  0.00     0.093 A 
ATOM      8  C   UNL     1      11.255   8.800  13.495  1.00  0.00     0.123 A 
ATOM      9  C   UNL     1      10.209   8.907  12.582  1.00  0.00     0.094 A 
ATOM     10  C   UNL     1       9.650   7.762  12.007  1.00  0.00     0.146 A 
ATOM     11  O   UNL     1       8.662   7.909  11.134  1.00  0.00    -0.452 OA
ENDROOT
BRANCH   1  12
ATOM     12  C   UNL     1       6.965   7.188   9.579  1.00  0.00     0.025 A 
ATOM     13  C   UNL     1       6.148   7.387   7.282  1.00  0.00     0.161 A 
ATOM     14  C   UNL     1       4.901   7.804   7.769  1.00  0.00     0.157 A 
ATOM     15  C   UNL     1       7.180   7.087   8.194  1.00  0.00     0.062 A 
ATOM     16  C   UNL     1       4.690   7.926   9.149  1.00  0.00     0.051 A 
ATOM     17  C   UNL     1       5.716   7.628  10.047  1.00  0.00     0.016 A 
BRANCH  13  18
ATOM     18  O   UNL     1       6.324   7.285   5.894  1.00  0.00    -0.493 OA
ATOM     19  C   UNL     1       6.090   6.102   5.136  1.00  0.00     0.278 C 
ENDBRANCH  13  18
BRANCH  14  20
ATOM     20  O   UNL     1       3.875   8.100   6.873  1.00  0.00    -0.504 OA
ATOM     21  H   UNL     1       3.842   7.687   5.948  1.00  0.00     0.293 HD
ENDBRANCH  14  20
ENDBRANCH   1  12
BRANCH   2  22
ATOM     22  O   UNL     1       7.990   4.515  10.016  1.00  0.00    -0.502 OA
ATOM     23  H   UNL     1       8.145   4.389   9.023  1.00  0.00     0.293 HD
ENDBRANCH   2  22
BRANCH   6  24
ATOM     24  O   UNL     1      11.651   5.160  13.832  1.00  0.00    -0.507 OA
ATOM     25  H   UNL     1      11.856   4.347  13.271  1.00  0.00     0.293 HD
ENDBRANCH   6  24
BRANCH   8  26
ATOM     26  O   UNL     1      11.811   9.955  14.039  1.00  0.00    -0.508 OA
ATOM     27  H   UNL     1      11.484  10.335  14.921  1.00  0.00     0.293 HD
ENDBRANCH   8  26
TORSDOF 6
ENDMDL
MODEL 7
REMARK VINA RESULT:    -4.891      2.021      3.567
REMARK INTER + INTRA:          -6.127
REMARK INTER:                  -5.872
REMARK INTRA:                  -0.254
REMARK UNBOUND:                -0.092
REMARK SMILES COc1cc(-c2oc3cc(O)cc(O)c3c(=O)c2O)ccc1O
REMARK SMILES IDX 6 1 18 2 16 3 17 4 15 5 13 6 12 7 10 8 9 9 8 10 7 11 5 12
REMARK SMILES IDX 3 13 22 14 4 15 21 16 20 17 2 18 1 19 23 20 19 22 14 24
REMARK SMILES IDX 11 26
REMARK H PARENT 23 21 19 23 14 25 11 27
REMARK Flexibility Score: inf
ROOT
ATOM      1  C   UNL     1       7.976   5.860  10.164  1.00  0.00     0.180 A 
ATOM      2  C   UNL     1       7.641   7.213  10.342  1.00  0.00     0.208 A 
ATOM      3  C   UNL     1       6.889   7.865   9.351  1.00  0.00     0.238 A 
ATOM      4  O   UNL     1       6.638   9.090   9.491  1.00  0.00    -0.285 OA
ATOM      5  C   UNL     1       6.470   7.151   8.203  1.00  0.00     0.111 A 
ATOM      6  C   UNL     1       5.671   7.700   7.155  1.00  0.00     0.134 A 
ATOM      7  C   UNL     1       5.425   6.941   6.004  1.00  0.00     0.093 A 
ATOM      8  C   UNL     1       5.893   5.630   5.893  1.00  0.00     0.123 A 
ATOM      9  C   UNL     1       6.623   5.065   6.935  1.00  0.00     0.094 A 
ATOM     10  C   UNL     1       6.916   5.810   8.080  1.00  0.00     0.146 A 
ATOM     11  O   UNL     1       7.623   5.237   9.046  1.00  0.00    -0.452 OA
ENDROOT
BRANCH   1  12
ATOM     12  C   UNL     1       8.745   5.099  11.176  1.00  0.00     0.025 A 
ATOM     13  C   UNL     1       8.805   3.374  12.908  1.00  0.00     0.161 A 
ATOM     14  C   UNL     1      10.153   3.674  13.150  1.00  0.00     0.157 A 
ATOM     15  C   UNL     1       8.104   4.097  11.922  1.00  0.00     0.062 A 
ATOM     16  C   UNL     1      10.790   4.688  12.422  1.00  0.00     0.051 A 
ATOM     17  C   UNL     1      10.090   5.400  11.447  1.00  0.00     0.016 A 
BRANCH  13  18
ATOM     18  O   UNL     1       8.200   2.357  13.663  1.00  0.00    -0.493 OA
ATOM     19  C   UNL     1       7.238   1.439  13.154  1.00  0.00     0.278 C 
ENDBRANCH  13  18
BRANCH  14  20
ATOM     20  O   UNL     1      10.853   2.961  14.123  1.00  0.00    -0.504 OA
ATOM     21  H   UNL     1      11.356   2.111  13.898  1.00  0.00     0.293 HD
ENDBRANCH  14  20
ENDBRANCH   1  12
BRANCH   2  22
ATOM     22  O   UNL     1       8.084   7.904  11.473  1.00  0.00    -0.502 OA
ATOM     23  H   UNL     1       7.752   8.832  11.709  1.00  0.00     0.293 HD
ENDBRANCH   2  22
BRANCH   6  24
ATOM     24  O   UNL     1       5.078   8.966   7.206  1.00  0.00    -0.507 OA
ATOM     25  H   UNL     1       5.529   9.823   6.925  1.00  0.00     0.293 HD
ENDBRANCH   6  24
BRANCH   8  26
ATOM     26  O   UNL     1       5.630   4.876   4.751  1.00  0.00    -0.508 OA
ATOM     27  H   UNL     1       4.749   4.390   4.628  1.00  0.00     0.293 HD
ENDBRANCH   8  26
TORSDOF 6
ENDMDL
MODEL 8
REMARK VINA RESULT:    -4.793      1.909      2.598
REMARK INTER + INTRA:          -6.006
REMARK INTER:                  -5.895
REMARK INTRA:                  -0.110
REMARK UNBOUND:                -0.092
REMARK SMILES COc1cc(-c2oc3cc(O)cc(O)c3c(=O)c2O)ccc1O
REMARK SMILES IDX 6 1 18 2 16 3 17 4 15 5 13 6 12 7 10 8 9 9 8 10 7 11 5 12
REMARK SMILES IDX 3 13 22 14 4 15 21 16 20 17 2 18 1 19 23 20 19 22 14 24
REMARK SMILES IDX 11 26
REMARK H PARENT 23 21 19 23 14 25 11 27
REMARK Flexibility Score: inf
ROOT
ATOM      1  C   UNL     1       7.849   6.335  10.142  1.00  0.00     0.180 A 
ATOM      2  C   UNL     1       7.075   7.477  10.414  1.00  0.00     0.208 A 
ATOM      3  C   UNL     1       6.085   7.862   9.496  1.00  0.00     0.238 A 
ATOM      4  O   UNL     1       5.432   8.915   9.718  1.00  0.00    -0.285 OA
ATOM      5  C   UNL     1       5.871   7.093   8.327  1.00  0.00     0.111 A 
ATOM      6  C   UNL     1       4.869   7.369   7.348  1.00  0.00     0.134 A 
ATOM      7  C   UNL     1       4.833   6.618   6.166  1.00  0.00     0.093 A 
ATOM      8  C   UNL     1       5.721   5.560   5.958  1.00  0.00     0.123 A 
ATOM      9  C   UNL     1       6.664   5.246   6.933  1.00  0.00     0.094 A 
ATOM     10  C   UNL     1       6.748   6.000   8.106  1.00  0.00     0.146 A 
ATOM     11  O   UNL     1       7.668   5.673   9.005  1.00  0.00    -0.452 OA
ENDROOT
BRANCH   1  12
ATOM     12  C   UNL     1       8.895   5.853  11.074  1.00  0.00     0.025 A 
ATOM     13  C   UNL     1      10.964   6.272  12.308  1.00  0.00     0.161 A 
ATOM     14  C   UNL     1      10.935   4.957  12.790  1.00  0.00     0.157 A 
ATOM     15  C   UNL     1       9.942   6.713  11.443  1.00  0.00     0.062 A 
ATOM     16  C   UNL     1       9.902   4.090  12.408  1.00  0.00     0.051 A 
ATOM     17  C   UNL     1       8.894   4.531  11.551  1.00  0.00     0.016 A 
BRANCH  13  18
ATOM     18  O   UNL     1      12.018   7.108  12.707  1.00  0.00    -0.493 OA
ATOM     19  C   UNL     1      11.854   8.322  13.434  1.00  0.00     0.278 C 
ENDBRANCH  13  18
BRANCH  14  20
ATOM     20  O   UNL     1      11.941   4.515  13.649  1.00  0.00    -0.504 OA
ATOM     21  H   UNL     1      11.826   3.685  14.219  1.00  0.00     0.293 HD
ENDBRANCH  14  20
ENDBRANCH   1  12
BRANCH   2  22
ATOM     22  O   UNL     1       7.318   8.233  11.564  1.00  0.00    -0.502 OA
ATOM     23  H   UNL     1       7.289   7.833  12.494  1.00  0.00     0.293 HD
ENDBRANCH   2  22
BRANCH   6  24
ATOM     24  O   UNL     1       3.876   8.342   7.499  1.00  0.00    -0.507 OA
ATOM     25  H   UNL     1       2.995   8.196   7.969  1.00  0.00     0.293 HD
ENDBRANCH   6  24
BRANCH   8  26
ATOM     26  O   UNL     1       5.669   4.808   4.786  1.00  0.00    -0.508 OA
ATOM     27  H   UNL     1       4.786   4.503   4.391  1.00  0.00     0.293 HD
ENDBRANCH   8  26
TORSDOF 6
ENDMDL
MODEL 9
REMARK VINA RESULT:    -4.737      4.208      7.063
REMARK INTER + INTRA:          -5.937
REMARK INTER:                  -5.619
REMARK INTRA:                  -0.318
REMARK UNBOUND:                -0.092
REMARK SMILES COc1cc(-c2oc3cc(O)cc(O)c3c(=O)c2O)ccc1O
REMARK SMILES IDX 6 1 18 2 16 3 17 4 15 5 13 6 12 7 10 8 9 9 8 10 7 11 5 12
REMARK SMILES IDX 3 13 22 14 4 15 21 16 20 17 2 18 1 19 23 20 19 22 14 24
REMARK SMILES IDX 11 26
REMARK H PARENT 23 21 19 23 14 25 11 27
REMARK Flexibility Score: inf
ROOT
ATOM      1  C   UNL     1       7.395   2.786  12.504  1.00  0.00     0.180 A 
ATOM      2  C   UNL     1       6.529   3.875  12.700  1.00  0.00     0.208 A 
ATOM      3  C   UNL     1       7.032   5.178  12.559  1.00  0.00     0.238 A 
ATOM      4  O   UNL     1       6.266   6.151  12.788  1.00  0.00    -0.285 OA
ATOM      5  C   UNL     1       8.390   5.375  12.209  1.00  0.00     0.111 A 
ATOM      6  C   UNL     1       8.996   6.651  12.000  1.00  0.00     0.134 A 
ATOM      7  C   UNL     1      10.377   6.732  11.786  1.00  0.00     0.093 A 
ATOM      8  C   UNL     1      11.163   5.579  11.706  1.00  0.00     0.123 A 
ATOM      9  C   UNL     1      10.571   4.327  11.849  1.00  0.00     0.094 A 
ATOM     10  C   UNL     1       9.200   4.216  12.101  1.00  0.00     0.146 A 
ATOM     11  O   UNL     1       8.678   3.004  12.241  1.00  0.00    -0.452 OA
ENDROOT
BRANCH   1  12
ATOM     12  C   UNL     1       6.932   1.383  12.612  1.00  0.00     0.025 A 
ATOM     13  C   UNL     1       5.661  -0.487  11.680  1.00  0.00     0.161 A 
ATOM     14  C   UNL     1       5.981  -1.257  12.807  1.00  0.00     0.157 A 
ATOM     15  C   UNL     1       6.135   0.837  11.592  1.00  0.00     0.062 A 
ATOM     16  C   UNL     1       6.758  -0.709  13.836  1.00  0.00     0.051 A 
ATOM     17  C   UNL     1       7.225   0.603  13.743  1.00  0.00     0.016 A 
BRANCH  13  18
ATOM     18  O   UNL     1       4.874  -1.068  10.675  1.00  0.00    -0.493 OA
ATOM     19  C   UNL     1       4.299  -0.353   9.585  1.00  0.00     0.278 C 
ENDBRANCH  13  18
BRANCH  14  20
ATOM     20  O   UNL     1       5.517  -2.569  12.900  1.00  0.00    -0.504 OA
ATOM     21  H   UNL     1       5.017  -3.011  12.137  1.00  0.00     0.293 HD
ENDBRANCH  14  20
ENDBRANCH   1  12
BRANCH   2  22
ATOM     22  O   UNL     1       5.198   3.658  13.066  1.00  0.00    -0.502 OA
ATOM     23  H   UNL     1       4.432   4.194  12.676  1.00  0.00     0.293 HD
ENDBRANCH   2  22
BRANCH   6  24
ATOM     24  O   UNL     1       8.288   7.856  11.968  1.00  0.00    -0.507 OA
ATOM     25  H   UNL     1       7.413   8.021  12.443  1.00  0.00     0.293 HD
ENDBRANCH   6  24
BRANCH   8  26
ATOM     26  O   UNL     1      12.534   5.668  11.476  1.00  0.00    -0.508 OA
ATOM     27  H   UNL     1      13.087   4.848  11.249  1.00  0.00     0.293 HD
ENDBRANCH   8  26
TORSDOF 6
ENDMDL
