MODEL 1
REMARK VINA RESULT:    -3.517      0.000      0.000
REMARK INTER + INTRA:          -4.525
REMARK INTER:                  -4.339
REMARK INTRA:                  -0.186
REMARK UNBOUND:                -0.186
REMARK SMILES C=CC[C@@H](C)C(=O)CC
REMARK SMILES IDX 4 1 5 2 6 3 7 4 8 5 9 6 3 7 2 8 1 9
REMARK H PARENT
REMARK Flexibility Score: inf
ROOT
ATOM      1  C   UNL     1      11.069  80.627  18.653  1.00  0.00     0.057 C 
ATOM      2  C   UNL     1      11.882  80.813  17.367  1.00  0.00     0.016 C 
ENDROOT
BRANCH   1   3
ATOM      3  C   UNL     1      11.087  79.172  19.072  1.00  0.00     0.135 C 
ATOM      4  O   UNL     1      10.388  78.361  18.479  1.00  0.00    -0.299 OA
BRANCH   3   5
ATOM      5  C   UNL     1      11.965  78.699  20.200  1.00  0.00     0.072 C 
ATOM      6  C   UNL     1      11.867  77.186  20.364  1.00  0.00     0.012 C 
ENDBRANCH   3   5
ENDBRANCH   1   3
BRANCH   1   7
ATOM      7  C   UNL     1      11.613  81.537  19.774  1.00  0.00     0.038 C 
BRANCH   7   8
ATOM      8  C   UNL     1      12.049  82.881  19.253  1.00  0.00    -0.034 C 
ATOM      9  C   UNL     1      11.204  83.914  19.172  1.00  0.00     0.004 C 
ENDBRANCH   7   8
ENDBRANCH   1   7
TORSDOF 4
ENDMDL
MODEL 2
REMARK VINA RESULT:    -3.497      1.610      2.309
REMARK INTER + INTRA:          -4.500
REMARK INTER:                  -4.269
REMARK INTRA:                  -0.232
REMARK UNBOUND:                -0.186
REMARK SMILES C=CC[C@@H](C)C(=O)CC
REMARK SMILES IDX 4 1 5 2 6 3 7 4 8 5 9 6 3 7 2 8 1 9
REMARK H PARENT
REMARK Flexibility Score: inf
ROOT
ATOM      1  C   UNL     1      12.110  81.138  18.727  1.00  0.00     0.057 C 
ATOM      2  C   UNL     1      11.659  81.838  20.014  1.00  0.00     0.016 C 
ENDROOT
BRANCH   1   3
ATOM      3  C   UNL     1      11.531  79.739  18.667  1.00  0.00     0.135 C 
ATOM      4  O   UNL     1      11.446  79.074  19.690  1.00  0.00    -0.299 OA
BRANCH   3   5
ATOM      5  C   UNL     1      11.040  79.157  17.369  1.00  0.00     0.072 C 
ATOM      6  C   UNL     1       9.861  78.220  17.608  1.00  0.00     0.012 C 
ENDBRANCH   3   5
ENDBRANCH   1   3
BRANCH   1   7
ATOM      7  C   UNL     1      11.704  81.963  17.489  1.00  0.00     0.038 C 
BRANCH   7   8
ATOM      8  C   UNL     1      11.352  83.384  17.844  1.00  0.00    -0.034 C 
ATOM      9  C   UNL     1      10.533  84.119  17.085  1.00  0.00     0.004 C 
ENDBRANCH   7   8
ENDBRANCH   1   7
TORSDOF 4
ENDMDL
MODEL 3
REMARK VINA RESULT:    -3.371      1.836      4.490
REMARK INTER + INTRA:          -4.345
REMARK INTER:                  -4.134
REMARK INTRA:                  -0.211
REMARK UNBOUND:                -0.186
REMARK SMILES C=CC[C@@H](C)C(=O)CC
REMARK SMILES IDX 4 1 5 2 6 3 7 4 8 5 9 6 3 7 2 8 1 9
REMARK H PARENT
REMARK Flexibility Score: inf
ROOT
ATOM      1  C   UNL     1      11.468  81.195  19.254  1.00  0.00     0.057 C 
ATOM      2  C   UNL     1      12.073  81.800  20.527  1.00  0.00     0.016 C 
ENDROOT
BRANCH   1   3
ATOM      3  C   UNL     1      11.627  82.159  18.096  1.00  0.00     0.135 C 
ATOM      4  O   UNL     1      12.030  81.749  17.017  1.00  0.00    -0.299 OA
BRANCH   3   5
ATOM      5  C   UNL     1      11.280  83.617  18.246  1.00  0.00     0.072 C 
ATOM      6  C   UNL     1      10.533  84.124  17.018  1.00  0.00     0.012 C 
ENDBRANCH   3   5
ENDBRANCH   1   3
BRANCH   1   7
ATOM      7  C   UNL     1      12.118  79.833  18.939  1.00  0.00     0.038 C 
BRANCH   7   8
ATOM      8  C   UNL     1      11.117  78.708  18.956  1.00  0.00    -0.034 C 
ATOM      9  C   UNL     1      10.230  78.538  17.969  1.00  0.00     0.004 C 
ENDBRANCH   7   8
ENDBRANCH   1   7
TORSDOF 4
ENDMDL
MODEL 4
REMARK VINA RESULT:    -3.337      1.676      2.068
REMARK INTER + INTRA:          -4.303
REMARK INTER:                  -4.059
REMARK INTRA:                  -0.244
REMARK UNBOUND:                -0.186
REMARK SMILES C=CC[C@@H](C)C(=O)CC
REMARK SMILES IDX 4 1 5 2 6 3 7 4 8 5 9 6 3 7 2 8 1 9
REMARK H PARENT
REMARK Flexibility Score: inf
ROOT
ATOM      1  C   UNL     1      10.932  79.656  18.348  1.00  0.00     0.057 C 
ATOM      2  C   UNL     1      10.110  78.483  17.802  1.00  0.00     0.016 C 
ENDROOT
BRANCH   1   3
ATOM      3  C   UNL     1      11.710  79.219  19.572  1.00  0.00     0.135 C 
ATOM      4  O   UNL     1      12.041  80.047  20.409  1.00  0.00    -0.299 OA
BRANCH   3   5
ATOM      5  C   UNL     1      12.071  77.773  19.786  1.00  0.00     0.072 C 
ATOM      6  C   UNL     1      11.995  77.410  21.265  1.00  0.00     0.012 C 
ENDBRANCH   3   5
ENDBRANCH   1   3
BRANCH   1   7
ATOM      7  C   UNL     1      11.872  80.214  17.260  1.00  0.00     0.038 C 
BRANCH   7   8
ATOM      8  C   UNL     1      12.125  81.689  17.429  1.00  0.00    -0.034 C 
ATOM      9  C   UNL     1      11.144  82.540  17.747  1.00  0.00     0.004 C 
ENDBRANCH   7   8
ENDBRANCH   1   7
TORSDOF 4
ENDMDL
MODEL 5
REMARK VINA RESULT:    -3.303      1.545      4.245
REMARK INTER + INTRA:          -4.262
REMARK INTER:                  -4.097
REMARK INTRA:                  -0.165
REMARK UNBOUND:                -0.186
REMARK SMILES C=CC[C@@H](C)C(=O)CC
REMARK SMILES IDX 4 1 5 2 6 3 7 4 8 5 9 6 3 7 2 8 1 9
REMARK H PARENT
REMARK Flexibility Score: inf
ROOT
ATOM      1  C   UNL     1      11.847  79.943  18.471  1.00  0.00     0.057 C 
ATOM      2  C   UNL     1      11.036  79.230  17.382  1.00  0.00     0.016 C 
ENDROOT
BRANCH   1   3
ATOM      3  C   UNL     1      11.506  81.419  18.488  1.00  0.00     0.135 C 
ATOM      4  O   UNL     1      11.067  81.952  17.478  1.00  0.00    -0.299 OA
BRANCH   3   5
ATOM      5  C   UNL     1      11.682  82.243  19.736  1.00  0.00     0.072 C 
ATOM      6  C   UNL     1      11.445  83.721  19.446  1.00  0.00     0.012 C 
ENDBRANCH   3   5
ENDBRANCH   1   3
BRANCH   1   7
ATOM      7  C   UNL     1      11.592  79.296  19.848  1.00  0.00     0.038 C 
BRANCH   7   8
ATOM      8  C   UNL     1      11.822  77.808  19.827  1.00  0.00    -0.034 C 
ATOM      9  C   UNL     1      11.851  77.083  20.950  1.00  0.00     0.004 C 
ENDBRANCH   7   8
ENDBRANCH   1   7
TORSDOF 4
ENDMDL
MODEL 6
REMARK VINA RESULT:    -3.028     15.892     16.441
REMARK INTER + INTRA:          -3.922
REMARK INTER:                  -3.734
REMARK INTRA:                  -0.188
REMARK UNBOUND:                -0.186
REMARK SMILES C=CC[C@@H](C)C(=O)CC
REMARK SMILES IDX 4 1 5 2 6 3 7 4 8 5 9 6 3 7 2 8 1 9
REMARK H PARENT
REMARK Flexibility Score: inf
ROOT
ATOM      1  C   UNL     1      10.892  64.113  22.340  1.00  0.00     0.057 C 
ATOM      2  C   UNL     1      12.125  64.987  22.601  1.00  0.00     0.016 C 
ENDROOT
BRANCH   1   3
ATOM      3  C   UNL     1       9.711  64.634  23.133  1.00  0.00     0.135 C 
ATOM      4  O   UNL     1       9.899  65.392  24.074  1.00  0.00    -0.299 OA
BRANCH   3   5
ATOM      5  C   UNL     1       8.301  64.248  22.770  1.00  0.00     0.072 C 
ATOM      6  C   UNL     1       7.295  65.024  23.612  1.00  0.00     0.012 C 
ENDBRANCH   3   5
ENDBRANCH   1   3
BRANCH   1   7
ATOM      7  C   UNL     1      10.573  64.062  20.832  1.00  0.00     0.038 C 
BRANCH   7   8
ATOM      8  C   UNL     1      11.697  64.614  19.995  1.00  0.00    -0.034 C 
ATOM      9  C   UNL     1      11.903  64.211  18.737  1.00  0.00     0.004 C 
ENDBRANCH   7   8
ENDBRANCH   1   7
TORSDOF 4
ENDMDL
MODEL 7
REMARK VINA RESULT:    -2.692     16.103     16.823
REMARK INTER + INTRA:          -3.508
REMARK INTER:                  -3.127
REMARK INTRA:                  -0.380
REMARK UNBOUND:                -0.186
REMARK SMILES C=CC[C@@H](C)C(=O)CC
REMARK SMILES IDX 4 1 5 2 6 3 7 4 8 5 9 6 3 7 2 8 1 9
REMARK H PARENT
REMARK Flexibility Score: inf
ROOT
ATOM      1  C   UNL     1       9.564  64.870  25.229  1.00  0.00     0.057 C 
ATOM      2  C   UNL     1      10.330  64.216  26.384  1.00  0.00     0.016 C 
ENDROOT
BRANCH   1   3
ATOM      3  C   UNL     1      10.473  65.027  24.027  1.00  0.00     0.135 C 
ATOM      4  O   UNL     1      11.170  66.026  23.920  1.00  0.00    -0.299 OA
BRANCH   3   5
ATOM      5  C   UNL     1      10.546  63.962  22.965  1.00  0.00     0.072 C 
ATOM      6  C   UNL     1      10.115  64.518  21.612  1.00  0.00     0.012 C 
ENDBRANCH   3   5
ENDBRANCH   1   3
BRANCH   1   7
ATOM      7  C   UNL     1       8.309  64.045  24.875  1.00  0.00     0.038 C 
BRANCH   7   8
ATOM      8  C   UNL     1       7.072  64.900  24.792  1.00  0.00    -0.034 C 
ATOM      9  C   UNL     1       6.811  65.661  23.724  1.00  0.00     0.004 C 
ENDBRANCH   7   8
ENDBRANCH   1   7
TORSDOF 4
ENDMDL
MODEL 8
REMARK VINA RESULT:    -2.675     13.845     15.937
REMARK INTER + INTRA:          -3.486
REMARK INTER:                  -3.233
REMARK INTRA:                  -0.254
REMARK UNBOUND:                -0.186
REMARK SMILES C=CC[C@@H](C)C(=O)CC
REMARK SMILES IDX 4 1 5 2 6 3 7 4 8 5 9 6 3 7 2 8 1 9
REMARK H PARENT
REMARK Flexibility Score: inf
ROOT
ATOM      1  C   UNL     1      10.718  64.758  24.620  1.00  0.00     0.057 C 
ATOM      2  C   UNL     1      10.561  64.679  26.143  1.00  0.00     0.016 C 
ENDROOT
BRANCH   1   3
ATOM      3  C   UNL     1       9.359  64.899  23.966  1.00  0.00     0.135 C 
ATOM      4  O   UNL     1       9.273  64.920  22.746  1.00  0.00    -0.299 OA
BRANCH   3   5
ATOM      5  C   UNL     1       8.105  64.999  24.794  1.00  0.00     0.072 C 
ATOM      6  C   UNL     1       6.950  65.544  23.961  1.00  0.00     0.012 C 
ENDBRANCH   3   5
ENDBRANCH   1   3
BRANCH   1   7
ATOM      7  C   UNL     1      11.649  65.925  24.231  1.00  0.00     0.038 C 
BRANCH   7   8
ATOM      8  C   UNL     1      11.722  66.976  25.307  1.00  0.00    -0.034 C 
ATOM      9  C   UNL     1      11.798  68.279  25.016  1.00  0.00     0.004 C 
ENDBRANCH   7   8
ENDBRANCH   1   7
TORSDOF 4
ENDMDL
