MODEL 1
REMARK VINA RESULT:    -4.178      0.000      0.000
REMARK INTER + INTRA:          -5.863
REMARK INTER:                  -5.888
REMARK INTRA:                   0.025
REMARK UNBOUND:                 0.025
REMARK SMILES CC1=CCC(=C(C)C)C(=O)CC(C)=CCC1
REMARK SMILES IDX 12 1 14 2 13 3 15 4 16 5 2 6 1 7 3 8 11 10 9 11 10 12 5 13
REMARK SMILES IDX 6 14 7 15 8 16 4 17
REMARK H PARENT
REMARK Flexibility Score: 60.00
ROOT
ATOM      1  C   UNL     1       9.978 -18.466  18.532  1.00  0.00    -0.070 C 
ATOM      2  C   UNL     1       8.709 -18.215  18.967  1.00  0.00    -0.027 C 
ATOM      3  C   UNL     1      10.111 -19.292  17.274  1.00  0.00     0.039 C 
ENDROOT
BRANCH   2   4
ATOM      4  C   UNL     1       8.190 -17.484  20.198  1.00  0.00     0.032 C 
BRANCH   4   5
ATOM      5  C   UNL     1       7.536 -18.330  21.297  1.00  0.00     0.034 C 
BRANCH   5   6
ATOM      6  C   UNL     1       8.409 -19.346  22.050  1.00  0.00    -0.077 C 
ATOM      7  C   UNL     1       7.734 -20.659  22.382  1.00  0.00     0.039 C 
ATOM      8  C   UNL     1       9.679 -19.198  22.532  1.00  0.00    -0.023 CG0
ATOM      9  G   UNL     1      10.639 -18.028  22.457  1.00  0.00     0.000 G0
ENDBRANCH   5   6
ENDBRANCH   4   5
ENDBRANCH   2   4
BRANCH   1  10
ATOM     10  C   UNL     1      11.272 -17.995  19.175  1.00  0.00     0.111 C 
BRANCH  10  11
ATOM     11  C   UNL     1      11.690 -18.887  20.304  1.00  0.00     0.163 C 
ATOM     12  O   UNL     1      11.826 -20.122  20.087  1.00  0.00    -0.294 OA
BRANCH  11  13
ATOM     13  C   UNL     1      11.901 -18.340  21.668  1.00  0.00    -0.002 C 
ATOM     14  C   UNL     1      13.153 -18.153  22.177  1.00  0.00    -0.069 C 
ATOM     15  C   UNL     1      13.371 -17.697  23.602  1.00  0.00     0.039 C 
ATOM     16  C   UNL     1      14.383 -18.381  21.327  1.00  0.00     0.039 C 
BRANCH  13  17
ATOM     17  C   UNL     1      10.648 -18.020  22.457  1.00  0.00     0.066 CG0
ATOM     18  G   UNL     1       9.693 -19.196  22.509  1.00  0.00     0.000 G0
ENDBRANCH  13  17
ENDBRANCH  11  13
ENDBRANCH  10  11
ENDBRANCH   1  10
TORSDOF 0
ENDMDL
MODEL 2
REMARK VINA RESULT:    -4.045      1.381      4.206
REMARK INTER + INTRA:          -5.675
REMARK INTER:                  -5.653
REMARK INTRA:                  -0.022
REMARK UNBOUND:                 0.025
REMARK SMILES CC1=CCC(=C(C)C)C(=O)CC(C)=CCC1
REMARK SMILES IDX 12 1 14 2 13 3 15 4 16 5 2 6 1 7 3 8 11 10 9 11 10 12 5 13
REMARK SMILES IDX 6 14 7 15 8 16 4 17
REMARK H PARENT
REMARK Flexibility Score: 60.00
ROOT
ATOM      1  C   UNL     1      13.449 -18.227  21.283  1.00  0.00    -0.070 C 
ATOM      2  C   UNL     1      13.545 -17.846  22.589  1.00  0.00    -0.027 C 
ATOM      3  C   UNL     1      14.588 -19.055  20.734  1.00  0.00     0.039 C 
ENDROOT
BRANCH   2   4
ATOM      4  C   UNL     1      12.640 -16.979  23.456  1.00  0.00     0.032 C 
BRANCH   4   5
ATOM      5  C   UNL     1      11.236 -17.513  23.763  1.00  0.00     0.034 C 
BRANCH   5   6
ATOM      6  C   UNL     1      10.028 -16.748  23.203  1.00  0.00    -0.077 C 
ATOM      7  C   UNL     1       9.798 -15.376  23.799  1.00  0.00     0.039 C 
ATOM      8  C   UNL     1       9.087 -17.164  22.304  1.00  0.00    -0.023 CG0
ATOM      9  G   UNL     1       8.943 -18.471  21.551  1.00  0.00     0.000 G0
ENDBRANCH   5   6
ENDBRANCH   4   5
ENDBRANCH   2   4
BRANCH   1  10
ATOM     10  C   UNL     1      12.313 -17.914  20.323  1.00  0.00     0.111 C 
BRANCH  10  11
ATOM     11  C   UNL     1      11.196 -18.907  20.439  1.00  0.00     0.163 C 
ATOM     12  O   UNL     1      11.476 -20.120  20.641  1.00  0.00    -0.294 OA
BRANCH  11  13
ATOM     13  C   UNL     1       9.782 -18.483  20.276  1.00  0.00    -0.002 C 
ATOM     14  C   UNL     1       9.282 -18.117  19.060  1.00  0.00    -0.069 C 
ATOM     15  C   UNL     1       7.875 -17.584  18.909  1.00  0.00     0.039 C 
ATOM     16  C   UNL     1      10.113 -18.245  17.803  1.00  0.00     0.039 C 
BRANCH  13  17
ATOM     17  C   UNL     1       8.943 -18.466  21.537  1.00  0.00     0.066 CG0
ATOM     18  G   UNL     1       9.084 -17.163  22.297  1.00  0.00     0.000 G0
ENDBRANCH  13  17
ENDBRANCH  11  13
ENDBRANCH  10  11
ENDBRANCH   1  10
TORSDOF 0
ENDMDL
MODEL 3
REMARK VINA RESULT:    -3.930      2.053      3.736
REMARK INTER + INTRA:          -5.513
REMARK INTER:                  -5.594
REMARK INTRA:                   0.081
REMARK UNBOUND:                 0.025
REMARK SMILES CC1=CCC(=C(C)C)C(=O)CC(C)=CCC1
REMARK SMILES IDX 12 1 14 2 13 3 15 4 16 5 2 6 1 7 3 8 11 10 9 11 10 12 5 13
REMARK SMILES IDX 6 14 7 15 8 16 4 17
REMARK H PARENT
REMARK Flexibility Score: 60.00
ROOT
ATOM      1  C   UNL     1      10.574 -19.413  19.318  1.00  0.00    -0.070 C 
ATOM      2  C   UNL     1      11.264 -18.312  19.737  1.00  0.00    -0.027 C 
ATOM      3  C   UNL     1       9.803 -19.276  18.026  1.00  0.00     0.039 C 
ENDROOT
BRANCH   2   4
ATOM      4  C   UNL     1      12.092 -18.057  20.990  1.00  0.00     0.032 C 
BRANCH   4   5
ATOM      5  C   UNL     1      11.539 -17.051  22.007  1.00  0.00     0.034 C 
BRANCH   5   6
ATOM      6  C   UNL     1      10.482 -17.535  23.010  1.00  0.00    -0.077 C 
ATOM      7  C   UNL     1       9.598 -16.454  23.592  1.00  0.00     0.039 C 
ATOM      8  C   UNL     1      10.282 -18.791  23.510  1.00  0.00    -0.023 CG0
ATOM      9  G   UNL     1      10.994 -20.098  23.224  1.00  0.00     0.000 G0
ENDBRANCH   5   6
ENDBRANCH   4   5
ENDBRANCH   2   4
BRANCH   1  10
ATOM     10  C   UNL     1      10.506 -20.764  20.010  1.00  0.00     0.111 C 
BRANCH  10  11
ATOM     11  C   UNL     1       9.596 -20.736  21.201  1.00  0.00     0.163 C 
ATOM     12  O   UNL     1       8.406 -20.345  21.050  1.00  0.00    -0.294 OA
BRANCH  11  13
ATOM     13  C   UNL     1      10.092 -21.120  22.547  1.00  0.00    -0.002 C 
ATOM     14  C   UNL     1       9.738 -22.303  23.127  1.00  0.00    -0.069 C 
ATOM     15  C   UNL     1      10.153 -22.651  24.539  1.00  0.00     0.039 C 
ATOM     16  C   UNL     1       8.924 -23.331  22.372  1.00  0.00     0.039 C 
BRANCH  13  17
ATOM     17  C   UNL     1      10.994 -20.117  23.234  1.00  0.00     0.066 CG0
ATOM     18  G   UNL     1      10.277 -18.813  23.524  1.00  0.00     0.000 G0
ENDBRANCH  13  17
ENDBRANCH  11  13
ENDBRANCH  10  11
ENDBRANCH   1  10
TORSDOF 0
ENDMDL
MODEL 4
REMARK VINA RESULT:    -3.927      2.185      4.548
REMARK INTER + INTRA:          -5.509
REMARK INTER:                  -5.469
REMARK INTRA:                  -0.040
REMARK UNBOUND:                 0.025
REMARK SMILES CC1=CCC(=C(C)C)C(=O)CC(C)=CCC1
REMARK SMILES IDX 12 1 14 2 13 3 15 4 16 5 2 6 1 7 3 8 11 10 9 11 10 12 5 13
REMARK SMILES IDX 6 14 7 15 8 16 4 17
REMARK H PARENT
REMARK Flexibility Score: 60.00
ROOT
ATOM      1  C   UNL     1       9.758 -22.403  22.870  1.00  0.00    -0.070 C 
ATOM      2  C   UNL     1      10.107 -22.208  24.174  1.00  0.00    -0.027 C 
ATOM      3  C   UNL     1       8.805 -23.541  22.588  1.00  0.00     0.039 C 
ENDROOT
BRANCH   2   4
ATOM      4  C   UNL     1      11.067 -21.219  24.825  1.00  0.00     0.032 C 
BRANCH   4   5
ATOM      5  C   UNL     1      10.711 -19.730  24.734  1.00  0.00     0.034 C 
BRANCH   5   6
ATOM      6  C   UNL     1      11.647 -18.805  23.942  1.00  0.00    -0.077 C 
ATOM      7  C   UNL     1      13.016 -18.593  24.550  1.00  0.00     0.039 C 
ATOM      8  C   UNL     1      11.388 -18.084  22.810  1.00  0.00    -0.023 CG0
ATOM      9  G   UNL     1      10.137 -17.986  21.961  1.00  0.00     0.000 G0
ENDBRANCH   5   6
ENDBRANCH   4   5
ENDBRANCH   2   4
BRANCH   1  10
ATOM     10  C   UNL     1      10.221 -21.592  21.671  1.00  0.00     0.111 C 
BRANCH  10  11
ATOM     11  C   UNL     1       9.384 -20.364  21.472  1.00  0.00     0.163 C 
ATOM     12  O   UNL     1       8.146 -20.426  21.707  1.00  0.00    -0.294 OA
BRANCH  11  13
ATOM     13  C   UNL     1       9.987 -19.106  20.964  1.00  0.00    -0.002 C 
ATOM     14  C   UNL     1      10.416 -18.990  19.674  1.00  0.00    -0.069 C 
ATOM     15  C   UNL     1      11.127 -17.749  19.183  1.00  0.00     0.039 C 
ATOM     16  C   UNL     1      10.183 -20.098  18.671  1.00  0.00     0.039 C 
BRANCH  13  17
ATOM     17  C   UNL     1      10.109 -17.976  21.965  1.00  0.00     0.066 CG0
ATOM     18  G   UNL     1      11.372 -18.087  22.796  1.00  0.00     0.000 G0
ENDBRANCH  13  17
ENDBRANCH  11  13
ENDBRANCH  10  11
ENDBRANCH   1  10
TORSDOF 0
ENDMDL
MODEL 5
REMARK VINA RESULT:    -3.880      5.223      7.426
REMARK INTER + INTRA:          -5.443
REMARK INTER:                  -5.556
REMARK INTRA:                   0.113
REMARK UNBOUND:                 0.025
REMARK SMILES CC1=CCC(=C(C)C)C(=O)CC(C)=CCC1
REMARK SMILES IDX 12 1 14 2 13 3 15 4 16 5 2 6 1 7 3 8 11 10 9 11 10 12 5 13
REMARK SMILES IDX 6 14 7 15 8 16 4 17
REMARK H PARENT
REMARK Flexibility Score: 60.00
ROOT
ATOM      1  C   UNL     1       8.959 -23.085  22.853  1.00  0.00    -0.070 C 
ATOM      2  C   UNL     1       8.485 -24.318  22.508  1.00  0.00    -0.027 C 
ATOM      3  C   UNL     1       9.672 -22.308  21.772  1.00  0.00     0.039 C 
ENDROOT
BRANCH   2   4
ATOM      4  C   UNL     1       7.779 -25.392  23.325  1.00  0.00     0.032 C 
BRANCH   4   5
ATOM      5  C   UNL     1       6.336 -25.738  22.936  1.00  0.00     0.034 C 
BRANCH   5   6
ATOM      6  C   UNL     1       5.214 -24.791  23.386  1.00  0.00    -0.077 C 
ATOM      7  C   UNL     1       4.041 -24.679  22.436  1.00  0.00     0.039 C 
ATOM      8  C   UNL     1       5.163 -23.976  24.481  1.00  0.00    -0.023 CG0
ATOM      9  G   UNL     1       6.156 -23.764  25.607  1.00  0.00     0.000 G0
ENDBRANCH   5   6
ENDBRANCH   4   5
ENDBRANCH   2   4
BRANCH   1  10
ATOM     10  C   UNL     1       8.837 -22.408  24.208  1.00  0.00     0.111 C 
BRANCH  10  11
ATOM     11  C   UNL     1       7.445 -21.912  24.461  1.00  0.00     0.163 C 
ATOM     12  O   UNL     1       6.936 -21.087  23.654  1.00  0.00    -0.294 OA
BRANCH  11  13
ATOM     13  C   UNL     1       6.689 -22.348  25.662  1.00  0.00    -0.002 C 
ATOM     14  C   UNL     1       6.523 -21.524  26.738  1.00  0.00    -0.069 C 
ATOM     15  C   UNL     1       5.846 -21.999  28.004  1.00  0.00     0.039 C 
ATOM     16  C   UNL     1       6.998 -20.089  26.703  1.00  0.00     0.039 C 
BRANCH  13  17
ATOM     17  C   UNL     1       6.133 -23.755  25.624  1.00  0.00     0.066 CG0
ATOM     18  G   UNL     1       5.170 -23.956  24.470  1.00  0.00     0.000 G0
ENDBRANCH  13  17
ENDBRANCH  11  13
ENDBRANCH  10  11
ENDBRANCH   1  10
TORSDOF 0
ENDMDL
MODEL 6
REMARK VINA RESULT:    -3.815      1.737      3.689
REMARK INTER + INTRA:          -5.351
REMARK INTER:                  -5.679
REMARK INTRA:                   0.328
REMARK UNBOUND:                 0.025
REMARK SMILES CC1=CCC(=C(C)C)C(=O)CC(C)=CCC1
REMARK SMILES IDX 12 1 14 2 13 3 15 4 16 5 2 6 1 7 3 8 11 10 9 11 10 12 5 13
REMARK SMILES IDX 6 14 7 15 8 16 4 17
REMARK H PARENT
REMARK Flexibility Score: 60.00
ROOT
ATOM      1  C   UNL     1       8.116 -18.002  19.722  1.00  0.00    -0.070 C 
ATOM      2  C   UNL     1       8.874 -18.170  18.600  1.00  0.00    -0.027 C 
ATOM      3  C   UNL     1       6.724 -18.588  19.692  1.00  0.00     0.039 C 
ENDROOT
BRANCH   2   4
ATOM      4  C   UNL     1      10.273 -17.682  18.245  1.00  0.00     0.032 C 
BRANCH   4   5
ATOM      5  C   UNL     1      11.432 -18.668  18.434  1.00  0.00     0.034 C 
BRANCH   5   6
ATOM      6  C   UNL     1      12.536 -18.310  19.440  1.00  0.00    -0.077 C 
ATOM      7  C   UNL     1      13.800 -17.735  18.837  1.00  0.00     0.039 C 
ATOM      8  C   UNL     1      12.568 -18.513  20.791  1.00  0.00    -0.023 CG0
ATOM      9  G   UNL     1      11.539 -19.112  21.729  1.00  0.00     0.000 G0
ENDBRANCH   5   6
ENDBRANCH   4   5
ENDBRANCH   2   4
BRANCH   1  10
ATOM     10  C   UNL     1       8.528 -17.294  21.002  1.00  0.00     0.111 C 
BRANCH  10  11
ATOM     11  C   UNL     1       9.179 -18.231  21.974  1.00  0.00     0.163 C 
ATOM     12  O   UNL     1       8.478 -19.127  22.520  1.00  0.00    -0.294 OA
BRANCH  11  13
ATOM     13  C   UNL     1      10.615 -18.087  22.324  1.00  0.00    -0.002 C 
ATOM     14  C   UNL     1      11.056 -17.073  23.124  1.00  0.00    -0.069 C 
ATOM     15  C   UNL     1      12.528 -16.860  23.397  1.00  0.00     0.039 C 
ATOM     16  C   UNL     1      10.084 -16.123  23.788  1.00  0.00     0.039 C 
BRANCH  13  17
ATOM     17  C   UNL     1      11.551 -19.118  21.730  1.00  0.00     0.066 CG0
ATOM     18  G   UNL     1      12.569 -18.492  20.799  1.00  0.00     0.000 G0
ENDBRANCH  13  17
ENDBRANCH  11  13
ENDBRANCH  10  11
ENDBRANCH   1  10
TORSDOF 0
ENDMDL
MODEL 7
REMARK VINA RESULT:    -3.810      1.845      3.801
REMARK INTER + INTRA:          -5.344
REMARK INTER:                  -5.357
REMARK INTRA:                   0.014
REMARK UNBOUND:                 0.025
REMARK SMILES CC1=CCC(=C(C)C)C(=O)CC(C)=CCC1
REMARK SMILES IDX 12 1 14 2 13 3 15 4 16 5 2 6 1 7 3 8 11 10 9 11 10 12 5 13
REMARK SMILES IDX 6 14 7 15 8 16 4 17
REMARK H PARENT
REMARK Flexibility Score: 60.00
ROOT
ATOM      1  C   UNL     1      11.108 -20.641  22.014  1.00  0.00    -0.070 C 
ATOM      2  C   UNL     1      10.376 -21.693  22.483  1.00  0.00    -0.027 C 
ATOM      3  C   UNL     1      11.788 -20.831  20.679  1.00  0.00     0.039 C 
ENDROOT
BRANCH   2   4
ATOM      4  C   UNL     1       9.612 -21.890  23.787  1.00  0.00     0.032 C 
BRANCH   4   5
ATOM      5  C   UNL     1       8.371 -21.019  24.014  1.00  0.00     0.034 C 
BRANCH   5   6
ATOM      6  C   UNL     1       7.538 -20.607  22.791  1.00  0.00    -0.077 C 
ATOM      7  C   UNL     1       6.619 -21.677  22.243  1.00  0.00     0.039 C 
ATOM      8  C   UNL     1       7.570 -19.439  22.082  1.00  0.00    -0.023 CG0
ATOM      9  G   UNL     1       8.391 -18.181  22.279  1.00  0.00     0.000 G0
ENDBRANCH   5   6
ENDBRANCH   4   5
ENDBRANCH   2   4
BRANCH   1  10
ATOM     10  C   UNL     1      11.303 -19.294  22.690  1.00  0.00     0.111 C 
BRANCH  10  11
ATOM     11  C   UNL     1      10.896 -18.159  21.800  1.00  0.00     0.163 C 
ATOM     12  O   UNL     1      11.730 -17.244  21.558  1.00  0.00    -0.294 OA
BRANCH  11  13
ATOM     13  C   UNL     1       9.522 -18.084  21.243  1.00  0.00    -0.002 C 
ATOM     14  C   UNL     1       9.301 -17.930  19.905  1.00  0.00    -0.069 C 
ATOM     15  C   UNL     1       7.908 -17.746  19.346  1.00  0.00     0.039 C 
ATOM     16  C   UNL     1      10.446 -17.952  18.917  1.00  0.00     0.039 C 
BRANCH  13  17
ATOM     17  C   UNL     1       8.392 -18.172  22.247  1.00  0.00     0.066 CG0
ATOM     18  G   UNL     1       7.570 -19.433  22.070  1.00  0.00     0.000 G0
ENDBRANCH  13  17
ENDBRANCH  11  13
ENDBRANCH  10  11
ENDBRANCH   1  10
TORSDOF 0
ENDMDL
MODEL 8
REMARK VINA RESULT:    -3.755      1.906      2.640
REMARK INTER + INTRA:          -5.267
REMARK INTER:                  -5.410
REMARK INTRA:                   0.144
REMARK UNBOUND:                 0.025
REMARK SMILES CC1=CCC(=C(C)C)C(=O)CC(C)=CCC1
REMARK SMILES IDX 12 1 14 2 13 3 15 4 16 5 2 6 1 7 3 8 11 10 9 11 10 12 5 13
REMARK SMILES IDX 6 14 7 15 8 16 4 17
REMARK H PARENT
REMARK Flexibility Score: 60.00
ROOT
ATOM      1  C   UNL     1      11.023 -18.736  19.883  1.00  0.00    -0.070 C 
ATOM      2  C   UNL     1      10.688 -20.058  19.887  1.00  0.00    -0.027 C 
ATOM      3  C   UNL     1      10.430 -17.890  18.781  1.00  0.00     0.039 C 
ENDROOT
BRANCH   2   4
ATOM      4  C   UNL     1      11.125 -21.208  20.786  1.00  0.00     0.032 C 
BRANCH   4   5
ATOM      5  C   UNL     1      10.076 -21.793  21.740  1.00  0.00     0.034 C 
BRANCH   5   6
ATOM      6  C   UNL     1       9.405 -20.852  22.751  1.00  0.00    -0.077 C 
ATOM      7  C   UNL     1       7.892 -20.841  22.722  1.00  0.00     0.039 C 
ATOM      8  C   UNL     1       9.983 -19.965  23.615  1.00  0.00    -0.023 CG0
ATOM      9  G   UNL     1      11.441 -19.646  23.882  1.00  0.00     0.000 G0
ENDBRANCH   5   6
ENDBRANCH   4   5
ENDBRANCH   2   4
BRANCH   1  10
ATOM     10  C   UNL     1      11.925 -18.021  20.877  1.00  0.00     0.111 C 
BRANCH  10  11
ATOM     11  C   UNL     1      11.227 -17.765  22.178  1.00  0.00     0.163 C 
ATOM     12  O   UNL     1      10.146 -17.114  22.173  1.00  0.00    -0.294 OA
BRANCH  11  13
ATOM     13  C   UNL     1      11.814 -18.229  23.461  1.00  0.00    -0.002 C 
ATOM     14  C   UNL     1      12.639 -17.429  24.198  1.00  0.00    -0.069 C 
ATOM     15  C   UNL     1      13.323 -17.934  25.449  1.00  0.00     0.039 C 
ATOM     16  C   UNL     1      12.892 -15.991  23.803  1.00  0.00     0.039 C 
BRANCH  13  17
ATOM     17  C   UNL     1      11.457 -19.637  23.885  1.00  0.00     0.066 CG0
ATOM     18  G   UNL     1      10.001 -19.961  23.616  1.00  0.00     0.000 G0
ENDBRANCH  13  17
ENDBRANCH  11  13
ENDBRANCH  10  11
ENDBRANCH   1  10
TORSDOF 0
ENDMDL
MODEL 9
REMARK VINA RESULT:    -3.702      1.444      4.058
REMARK INTER + INTRA:          -5.192
REMARK INTER:                  -5.407
REMARK INTRA:                   0.215
REMARK UNBOUND:                 0.025
REMARK SMILES CC1=CCC(=C(C)C)C(=O)CC(C)=CCC1
REMARK SMILES IDX 12 1 14 2 13 3 15 4 16 5 2 6 1 7 3 8 11 10 9 11 10 12 5 13
REMARK SMILES IDX 6 14 7 15 8 16 4 17
REMARK H PARENT
REMARK Flexibility Score: 60.00
ROOT
ATOM      1  C   UNL     1      12.682 -18.246  22.465  1.00  0.00    -0.070 C 
ATOM      2  C   UNL     1      12.191 -18.863  23.578  1.00  0.00    -0.027 C 
ATOM      3  C   UNL     1      14.186 -18.152  22.351  1.00  0.00     0.039 C 
ENDROOT
BRANCH   2   4
ATOM      4  C   UNL     1      10.763 -19.093  24.058  1.00  0.00     0.032 C 
BRANCH   4   5
ATOM      5  C   UNL     1      10.279 -20.544  24.158  1.00  0.00     0.034 C 
BRANCH   5   6
ATOM      6  C   UNL     1       9.589 -21.167  22.936  1.00  0.00    -0.077 C 
ATOM      7  C   UNL     1       9.635 -22.678  22.866  1.00  0.00     0.039 C 
ATOM      8  C   UNL     1       9.012 -20.546  21.864  1.00  0.00    -0.023 CG0
ATOM      9  G   UNL     1       8.834 -19.075  21.547  1.00  0.00     0.000 G0
ENDBRANCH   5   6
ENDBRANCH   4   5
ENDBRANCH   2   4
BRANCH   1  10
ATOM     10  C   UNL     1      11.876 -17.651  21.322  1.00  0.00     0.111 C 
BRANCH  10  11
ATOM     11  C   UNL     1      11.143 -18.705  20.548  1.00  0.00     0.163 C 
ATOM     12  O   UNL     1      11.802 -19.642  20.020  1.00  0.00    -0.294 OA
BRANCH  11  13
ATOM     13  C   UNL     1       9.672 -18.631  20.366  1.00  0.00    -0.002 C 
ATOM     14  C   UNL     1       9.118 -18.176  19.204  1.00  0.00    -0.069 C 
ATOM     15  C   UNL     1       7.625 -17.998  19.053  1.00  0.00     0.039 C 
ATOM     16  C   UNL     1       9.980 -17.844  18.006  1.00  0.00     0.039 C 
BRANCH  13  17
ATOM     17  C   UNL     1       8.832 -19.072  21.547  1.00  0.00     0.066 CG0
ATOM     18  G   UNL     1       9.011 -20.545  21.854  1.00  0.00     0.000 G0
ENDBRANCH  13  17
ENDBRANCH  11  13
ENDBRANCH  10  11
ENDBRANCH   1  10
TORSDOF 0
ENDMDL
