MODEL 1
REMARK VINA RESULT:    -2.984      0.000      0.000
REMARK INTER + INTRA:          -8.770
REMARK INTER:                  -5.775
REMARK INTRA:                  -2.995
REMARK UNBOUND:                -2.995
REMARK SMILES CCCCCCCCCCCCCCCCCC(=O)[O-]
REMARK SMILES IDX 10 1 11 2 12 3 13 4 14 5 15 6 16 7 17 8 18 9 19 10 20 11
REMARK SMILES IDX 9 12 8 13 7 14 6 15 5 16 4 17 3 18 2 19 1 20
REMARK H PARENT
REMARK Flexibility Score: inf
ROOT
ATOM      1  C   UNL     1      31.199  30.872  51.971  1.00  0.00     0.000 C 
ENDROOT
BRANCH   1   2
ATOM      2  C   UNL     1      30.042  31.744  52.485  1.00  0.00     0.000 C 
BRANCH   2   3
ATOM      3  C   UNL     1      30.230  33.231  52.145  1.00  0.00     0.000 C 
BRANCH   3   4
ATOM      4  C   UNL     1      29.508  34.160  53.131  1.00  0.00     0.000 C 
BRANCH   4   5
ATOM      5  C   UNL     1      28.174  33.548  53.584  1.00  0.00     0.000 C 
BRANCH   5   6
ATOM      6  C   UNL     1      26.951  34.367  53.128  1.00  0.00     0.000 C 
BRANCH   6   7
ATOM      7  C   UNL     1      25.690  33.537  52.823  1.00  0.00     0.006 C 
BRANCH   7   8
ATOM      8  C   UNL     1      25.925  32.466  51.751  1.00  0.00     0.053 C 
BRANCH   8   9
ATOM      9  C   UNL     1      26.183  33.104  50.422  1.00  0.00     0.041 C 
ATOM     10  O   UNL     1      25.247  33.671  49.799  1.00  0.00    -0.550 OA
ATOM     11  O   UNL     1      27.466  33.111  49.892  1.00  0.00    -0.550 OA
ENDBRANCH   8   9
ENDBRANCH   7   8
ENDBRANCH   6   7
ENDBRANCH   5   6
ENDBRANCH   4   5
ENDBRANCH   3   4
ENDBRANCH   2   3
ENDBRANCH   1   2
BRANCH   1  12
ATOM     12  C   UNL     1      32.076  30.314  53.108  1.00  0.00     0.000 C 
BRANCH  12  13
ATOM     13  C   UNL     1      32.850  31.372  53.916  1.00  0.00    -0.000 C 
BRANCH  13  14
ATOM     14  C   UNL     1      32.538  31.402  55.426  1.00  0.00    -0.000 C 
BRANCH  14  15
ATOM     15  C   UNL     1      31.572  32.518  55.865  1.00  0.00    -0.000 C 
BRANCH  15  16
ATOM     16  C   UNL     1      30.162  31.996  56.181  1.00  0.00    -0.000 C 
BRANCH  16  17
ATOM     17  C   UNL     1      30.161  30.467  56.317  1.00  0.00    -0.000 C 
BRANCH  17  18
ATOM     18  C   UNL     1      28.956  29.804  55.626  1.00  0.00    -0.000 C 
BRANCH  18  19
ATOM     19  C   UNL     1      27.625  30.561  55.781  1.00  0.00    -0.003 C 
ATOM     20  C   UNL     1      26.648  30.292  54.637  1.00  0.00     0.004 C 
ENDBRANCH  18  19
ENDBRANCH  17  18
ENDBRANCH  16  17
ENDBRANCH  15  16
ENDBRANCH  14  15
ENDBRANCH  13  14
ENDBRANCH  12  13
ENDBRANCH   1  12
TORSDOF 16
ENDMDL
MODEL 2
REMARK VINA RESULT:    -2.863      2.661      5.833
REMARK INTER + INTRA:          -8.536
REMARK INTER:                  -5.562
REMARK INTRA:                  -2.974
REMARK UNBOUND:                -2.995
REMARK SMILES CCCCCCCCCCCCCCCCCC(=O)[O-]
REMARK SMILES IDX 10 1 11 2 12 3 13 4 14 5 15 6 16 7 17 8 18 9 19 10 20 11
REMARK SMILES IDX 9 12 8 13 7 14 6 15 5 16 4 17 3 18 2 19 1 20
REMARK H PARENT
REMARK Flexibility Score: inf
ROOT
ATOM      1  C   UNL     1      29.793  31.279  51.338  1.00  0.00     0.000 C 
ENDROOT
BRANCH   1   2
ATOM      2  C   UNL     1      28.542  30.429  51.618  1.00  0.00     0.000 C 
BRANCH   2   3
ATOM      3  C   UNL     1      28.583  29.761  53.002  1.00  0.00     0.000 C 
BRANCH   3   4
ATOM      4  C   UNL     1      27.360  30.108  53.864  1.00  0.00     0.000 C 
BRANCH   4   5
ATOM      5  C   UNL     1      27.780  30.428  55.307  1.00  0.00     0.000 C 
BRANCH   5   6
ATOM      6  C   UNL     1      29.064  29.692  55.737  1.00  0.00     0.000 C 
BRANCH   6   7
ATOM      7  C   UNL     1      30.149  30.589  56.359  1.00  0.00     0.006 C 
BRANCH   7   8
ATOM      8  C   UNL     1      29.827  32.085  56.245  1.00  0.00     0.053 C 
BRANCH   8   9
ATOM      9  C   UNL     1      31.073  32.868  55.975  1.00  0.00     0.041 C 
ATOM     10  O   UNL     1      31.000  34.030  55.495  1.00  0.00    -0.550 OA
ATOM     11  O   UNL     1      32.314  32.332  56.296  1.00  0.00    -0.550 OA
ENDBRANCH   8   9
ENDBRANCH   7   8
ENDBRANCH   6   7
ENDBRANCH   5   6
ENDBRANCH   4   5
ENDBRANCH   3   4
ENDBRANCH   2   3
ENDBRANCH   1   2
BRANCH   1  12
ATOM     12  C   UNL     1      30.009  32.386  52.387  1.00  0.00     0.000 C 
BRANCH  12  13
ATOM     13  C   UNL     1      29.037  33.578  52.290  1.00  0.00    -0.000 C 
BRANCH  13  14
ATOM     14  C   UNL     1      28.012  33.683  53.437  1.00  0.00    -0.000 C 
BRANCH  14  15
ATOM     15  C   UNL     1      26.650  34.278  53.035  1.00  0.00    -0.000 C 
BRANCH  15  16
ATOM     16  C   UNL     1      25.533  33.225  52.973  1.00  0.00    -0.000 C 
BRANCH  16  17
ATOM     17  C   UNL     1      25.574  32.459  51.643  1.00  0.00    -0.000 C 
BRANCH  17  18
ATOM     18  C   UNL     1      25.593  33.388  50.416  1.00  0.00    -0.000 C 
BRANCH  18  19
ATOM     19  C   UNL     1      26.743  33.130  49.427  1.00  0.00    -0.003 C 
ATOM     20  C   UNL     1      26.286  33.120  47.969  1.00  0.00     0.004 C 
ENDBRANCH  18  19
ENDBRANCH  17  18
ENDBRANCH  16  17
ENDBRANCH  15  16
ENDBRANCH  14  15
ENDBRANCH  13  14
ENDBRANCH  12  13
ENDBRANCH   1  12
TORSDOF 16
ENDMDL
MODEL 3
REMARK VINA RESULT:    -2.842      2.809      4.208
REMARK INTER + INTRA:          -8.496
REMARK INTER:                  -5.556
REMARK INTRA:                  -2.940
REMARK UNBOUND:                -2.995
REMARK SMILES CCCCCCCCCCCCCCCCCC(=O)[O-]
REMARK SMILES IDX 10 1 11 2 12 3 13 4 14 5 15 6 16 7 17 8 18 9 19 10 20 11
REMARK SMILES IDX 9 12 8 13 7 14 6 15 5 16 4 17 3 18 2 19 1 20
REMARK H PARENT
REMARK Flexibility Score: inf
ROOT
ATOM      1  C   UNL     1      29.632  34.321  53.341  1.00  0.00     0.000 C 
ENDROOT
BRANCH   1   2
ATOM      2  C   UNL     1      29.314  33.634  52.003  1.00  0.00     0.000 C 
BRANCH   2   3
ATOM      3  C   UNL     1      27.828  33.267  51.868  1.00  0.00     0.000 C 
BRANCH   3   4
ATOM      4  C   UNL     1      26.985  33.762  53.053  1.00  0.00     0.000 C 
BRANCH   4   5
ATOM      5  C   UNL     1      25.630  33.041  53.102  1.00  0.00     0.000 C 
BRANCH   5   6
ATOM      6  C   UNL     1      25.714  31.571  52.646  1.00  0.00     0.000 C 
BRANCH   6   7
ATOM      7  C   UNL     1      25.333  30.535  53.719  1.00  0.00     0.006 C 
BRANCH   7   8
ATOM      8  C   UNL     1      24.148  30.980  54.585  1.00  0.00     0.053 C 
BRANCH   8   9
ATOM      9  C   UNL     1      24.304  30.474  55.985  1.00  0.00     0.041 C 
ATOM     10  O   UNL     1      23.290  30.265  56.701  1.00  0.00    -0.550 OA
ATOM     11  O   UNL     1      25.569  30.191  56.483  1.00  0.00    -0.550 OA
ENDBRANCH   8   9
ENDBRANCH   7   8
ENDBRANCH   6   7
ENDBRANCH   5   6
ENDBRANCH   4   5
ENDBRANCH   3   4
ENDBRANCH   2   3
ENDBRANCH   1   2
BRANCH   1  12
ATOM     12  C   UNL     1      30.899  33.760  54.014  1.00  0.00     0.000 C 
BRANCH  12  13
ATOM     13  C   UNL     1      30.809  33.593  55.543  1.00  0.00    -0.000 C 
BRANCH  13  14
ATOM     14  C   UNL     1      30.492  32.165  56.030  1.00  0.00    -0.000 C 
BRANCH  14  15
ATOM     15  C   UNL     1      29.034  31.719  55.825  1.00  0.00    -0.000 C 
BRANCH  15  16
ATOM     16  C   UNL     1      28.919  30.327  55.185  1.00  0.00    -0.000 C 
BRANCH  16  17
ATOM     17  C   UNL     1      29.058  30.412  53.659  1.00  0.00    -0.000 C 
BRANCH  17  18
ATOM     18  C   UNL     1      30.246  29.597  53.117  1.00  0.00    -0.000 C 
BRANCH  18  19
ATOM     19  C   UNL     1      31.404  30.439  52.555  1.00  0.00    -0.003 C 
ATOM     20  C   UNL     1      32.609  30.499  53.493  1.00  0.00     0.004 C 
ENDBRANCH  18  19
ENDBRANCH  17  18
ENDBRANCH  16  17
ENDBRANCH  15  16
ENDBRANCH  14  15
ENDBRANCH  13  14
ENDBRANCH  12  13
ENDBRANCH   1  12
TORSDOF 16
ENDMDL
MODEL 4
REMARK VINA RESULT:    -2.840      4.068      6.597
REMARK INTER + INTRA:          -8.491
REMARK INTER:                  -5.953
REMARK INTRA:                  -2.538
REMARK UNBOUND:                -2.995
REMARK SMILES CCCCCCCCCCCCCCCCCC(=O)[O-]
REMARK SMILES IDX 10 1 11 2 12 3 13 4 14 5 15 6 16 7 17 8 18 9 19 10 20 11
REMARK SMILES IDX 9 12 8 13 7 14 6 15 5 16 4 17 3 18 2 19 1 20
REMARK H PARENT
REMARK Flexibility Score: inf
ROOT
ATOM      1  C   UNL     1      26.930  29.486  52.771  1.00  0.00     0.000 C 
ENDROOT
BRANCH   1   2
ATOM      2  C   UNL     1      27.918  30.000  53.831  1.00  0.00     0.000 C 
BRANCH   2   3
ATOM      3  C   UNL     1      27.236  30.297  55.177  1.00  0.00     0.000 C 
BRANCH   3   4
ATOM      4  C   UNL     1      25.993  29.426  55.415  1.00  0.00     0.000 C 
BRANCH   4   5
ATOM      5  C   UNL     1      24.933  30.193  56.220  1.00  0.00     0.000 C 
BRANCH   5   6
ATOM      6  C   UNL     1      23.685  30.546  55.388  1.00  0.00     0.000 C 
BRANCH   6   7
ATOM      7  C   UNL     1      22.519  29.548  55.511  1.00  0.00     0.006 C 
BRANCH   7   8
ATOM      8  C   UNL     1      21.310  30.130  56.256  1.00  0.00     0.053 C 
BRANCH   8   9
ATOM      9  C   UNL     1      21.499  30.006  57.735  1.00  0.00     0.041 C 
ATOM     10  O   UNL     1      21.462  31.030  58.467  1.00  0.00    -0.550 OA
ATOM     11  O   UNL     1      21.671  28.754  58.310  1.00  0.00    -0.550 OA
ENDBRANCH   8   9
ENDBRANCH   7   8
ENDBRANCH   6   7
ENDBRANCH   5   6
ENDBRANCH   4   5
ENDBRANCH   3   4
ENDBRANCH   2   3
ENDBRANCH   1   2
BRANCH   1  12
ATOM     12  C   UNL     1      26.524  30.572  51.758  1.00  0.00     0.000 C 
BRANCH  12  13
ATOM     13  C   UNL     1      25.203  31.301  52.074  1.00  0.00    -0.000 C 
BRANCH  13  14
ATOM     14  C   UNL     1      25.347  32.587  52.911  1.00  0.00    -0.000 C 
BRANCH  14  15
ATOM     15  C   UNL     1      26.178  33.701  52.250  1.00  0.00    -0.000 C 
BRANCH  15  16
ATOM     16  C   UNL     1      27.131  34.399  53.232  1.00  0.00    -0.000 C 
BRANCH  16  17
ATOM     17  C   UNL     1      28.396  33.559  53.459  1.00  0.00    -0.000 C 
BRANCH  17  18
ATOM     18  C   UNL     1      29.474  33.796  52.387  1.00  0.00    -0.000 C 
BRANCH  18  19
ATOM     19  C   UNL     1      29.686  32.623  51.413  1.00  0.00    -0.003 C 
ATOM     20  C   UNL     1      28.993  32.833  50.067  1.00  0.00     0.004 C 
ENDBRANCH  18  19
ENDBRANCH  17  18
ENDBRANCH  16  17
ENDBRANCH  15  16
ENDBRANCH  14  15
ENDBRANCH  13  14
ENDBRANCH  12  13
ENDBRANCH   1  12
TORSDOF 16
ENDMDL
MODEL 5
REMARK VINA RESULT:    -2.794      2.903      5.555
REMARK INTER + INTRA:          -8.403
REMARK INTER:                  -5.429
REMARK INTRA:                  -2.974
REMARK UNBOUND:                -2.995
REMARK SMILES CCCCCCCCCCCCCCCCCC(=O)[O-]
REMARK SMILES IDX 10 1 11 2 12 3 13 4 14 5 15 6 16 7 17 8 18 9 19 10 20 11
REMARK SMILES IDX 9 12 8 13 7 14 6 15 5 16 4 17 3 18 2 19 1 20
REMARK H PARENT
REMARK Flexibility Score: inf
ROOT
ATOM      1  C   UNL     1      30.161  31.971  50.965  1.00  0.00     0.000 C 
ENDROOT
BRANCH   1   2
ATOM      2  C   UNL     1      29.196  30.900  51.498  1.00  0.00     0.000 C 
BRANCH   2   3
ATOM      3  C   UNL     1      29.842  30.005  52.567  1.00  0.00     0.000 C 
BRANCH   3   4
ATOM      4  C   UNL     1      31.117  30.620  53.164  1.00  0.00     0.000 C 
BRANCH   4   5
ATOM      5  C   UNL     1      30.913  30.977  54.644  1.00  0.00     0.000 C 
BRANCH   5   6
ATOM      6  C   UNL     1      29.502  30.632  55.157  1.00  0.00     0.000 C 
BRANCH   6   7
ATOM      7  C   UNL     1      28.960  31.569  56.251  1.00  0.00     0.006 C 
BRANCH   7   8
ATOM      8  C   UNL     1      28.583  30.828  57.540  1.00  0.00     0.053 C 
BRANCH   8   9
ATOM      9  C   UNL     1      27.479  29.853  57.278  1.00  0.00     0.041 C 
ATOM     10  O   UNL     1      26.380  30.251  56.808  1.00  0.00    -0.550 OA
ATOM     11  O   UNL     1      27.678  28.499  57.510  1.00  0.00    -0.550 OA
ENDBRANCH   8   9
ENDBRANCH   7   8
ENDBRANCH   6   7
ENDBRANCH   5   6
ENDBRANCH   4   5
ENDBRANCH   3   4
ENDBRANCH   2   3
ENDBRANCH   1   2
BRANCH   1  12
ATOM     12  C   UNL     1      29.645  33.405  51.190  1.00  0.00     0.000 C 
BRANCH  12  13
ATOM     13  C   UNL     1      30.007  34.024  52.554  1.00  0.00    -0.000 C 
BRANCH  13  14
ATOM     14  C   UNL     1      28.846  34.109  53.565  1.00  0.00    -0.000 C 
BRANCH  14  15
ATOM     15  C   UNL     1      27.441  33.964  52.953  1.00  0.00    -0.000 C 
BRANCH  15  16
ATOM     16  C   UNL     1      26.741  32.661  53.367  1.00  0.00    -0.000 C 
BRANCH  16  17
ATOM     17  C   UNL     1      25.622  32.302  52.379  1.00  0.00    -0.000 C 
BRANCH  17  18
ATOM     18  C   UNL     1      25.600  33.214  51.139  1.00  0.00    -0.000 C 
BRANCH  18  19
ATOM     19  C   UNL     1      25.920  32.507  49.811  1.00  0.00    -0.003 C 
ATOM     20  C   UNL     1      26.800  33.346  48.884  1.00  0.00     0.004 C 
ENDBRANCH  18  19
ENDBRANCH  17  18
ENDBRANCH  16  17
ENDBRANCH  15  16
ENDBRANCH  14  15
ENDBRANCH  13  14
ENDBRANCH  12  13
ENDBRANCH   1  12
TORSDOF 16
ENDMDL
MODEL 6
REMARK VINA RESULT:    -2.787      2.581      4.918
REMARK INTER + INTRA:          -8.389
REMARK INTER:                  -5.435
REMARK INTRA:                  -2.954
REMARK UNBOUND:                -2.995
REMARK SMILES CCCCCCCCCCCCCCCCCC(=O)[O-]
REMARK SMILES IDX 10 1 11 2 12 3 13 4 14 5 15 6 16 7 17 8 18 9 19 10 20 11
REMARK SMILES IDX 9 12 8 13 7 14 6 15 5 16 4 17 3 18 2 19 1 20
REMARK H PARENT
REMARK Flexibility Score: inf
ROOT
ATOM      1  C   UNL     1      30.933  29.932  52.484  1.00  0.00     0.000 C 
ENDROOT
BRANCH   1   2
ATOM      2  C   UNL     1      32.315  30.535  52.785  1.00  0.00     0.000 C 
BRANCH   2   3
ATOM      3  C   UNL     1      32.238  31.730  53.749  1.00  0.00     0.000 C 
BRANCH   3   4
ATOM      4  C   UNL     1      32.366  31.312  55.221  1.00  0.00     0.000 C 
BRANCH   4   5
ATOM      5  C   UNL     1      31.664  32.322  56.141  1.00  0.00     0.000 C 
BRANCH   5   6
ATOM      6  C   UNL     1      30.136  32.353  55.946  1.00  0.00     0.000 C 
BRANCH   6   7
ATOM      7  C   UNL     1      29.397  31.083  56.407  1.00  0.00     0.006 C 
BRANCH   7   8
ATOM      8  C   UNL     1      28.160  30.770  55.555  1.00  0.00     0.053 C 
BRANCH   8   9
ATOM      9  C   UNL     1      27.061  30.222  56.411  1.00  0.00     0.041 C 
ATOM     10  O   UNL     1      27.318  29.762  57.555  1.00  0.00    -0.550 OA
ATOM     11  O   UNL     1      25.747  30.260  55.963  1.00  0.00    -0.550 OA
ENDBRANCH   8   9
ENDBRANCH   7   8
ENDBRANCH   6   7
ENDBRANCH   5   6
ENDBRANCH   4   5
ENDBRANCH   3   4
ENDBRANCH   2   3
ENDBRANCH   1   2
BRANCH   1  12
ATOM     12  C   UNL     1      29.827  30.998  52.376  1.00  0.00     0.000 C 
BRANCH  12  13
ATOM     13  C   UNL     1      29.862  31.850  51.093  1.00  0.00    -0.000 C 
BRANCH  13  14
ATOM     14  C   UNL     1      29.265  33.265  51.227  1.00  0.00    -0.000 C 
BRANCH  14  15
ATOM     15  C   UNL     1      29.426  33.906  52.617  1.00  0.00    -0.000 C 
BRANCH  15  16
ATOM     16  C   UNL     1      28.086  34.112  53.339  1.00  0.00    -0.000 C 
BRANCH  16  17
ATOM     17  C   UNL     1      26.914  33.651  52.460  1.00  0.00    -0.000 C 
BRANCH  17  18
ATOM     18  C   UNL     1      25.950  32.703  53.195  1.00  0.00    -0.000 C 
BRANCH  18  19
ATOM     19  C   UNL     1      25.798  31.312  52.556  1.00  0.00    -0.003 C 
ATOM     20  C   UNL     1      26.100  31.307  51.058  1.00  0.00     0.004 C 
ENDBRANCH  18  19
ENDBRANCH  17  18
ENDBRANCH  16  17
ENDBRANCH  15  16
ENDBRANCH  14  15
ENDBRANCH  13  14
ENDBRANCH  12  13
ENDBRANCH   1  12
TORSDOF 16
ENDMDL
MODEL 7
REMARK VINA RESULT:    -2.783      8.623     11.175
REMARK INTER + INTRA:          -8.381
REMARK INTER:                  -5.895
REMARK INTRA:                  -2.486
REMARK UNBOUND:                -2.995
REMARK SMILES CCCCCCCCCCCCCCCCCC(=O)[O-]
REMARK SMILES IDX 10 1 11 2 12 3 13 4 14 5 15 6 16 7 17 8 18 9 19 10 20 11
REMARK SMILES IDX 9 12 8 13 7 14 6 15 5 16 4 17 3 18 2 19 1 20
REMARK H PARENT
REMARK Flexibility Score: inf
ROOT
ATOM      1  C   UNL     1      20.204  26.481  55.295  1.00  0.00     0.000 C 
ENDROOT
BRANCH   1   2
ATOM      2  C   UNL     1      19.437  27.449  54.380  1.00  0.00     0.000 C 
BRANCH   2   3
ATOM      3  C   UNL     1      18.825  28.629  55.154  1.00  0.00     0.000 C 
BRANCH   3   4
ATOM      4  C   UNL     1      18.749  29.912  54.314  1.00  0.00     0.000 C 
BRANCH   4   5
ATOM      5  C   UNL     1      17.332  30.122  53.760  1.00  0.00     0.000 C 
BRANCH   5   6
ATOM      6  C   UNL     1      16.233  29.607  54.709  1.00  0.00     0.000 C 
BRANCH   6   7
ATOM      7  C   UNL     1      15.366  28.467  54.143  1.00  0.00     0.006 C 
BRANCH   7   8
ATOM      8  C   UNL     1      15.832  27.993  52.760  1.00  0.00     0.053 C 
BRANCH   8   9
ATOM      9  C   UNL     1      14.704  28.057  51.779  1.00  0.00     0.041 C 
ATOM     10  O   UNL     1      14.939  28.044  50.541  1.00  0.00    -0.550 OA
ATOM     11  O   UNL     1      13.392  28.087  52.230  1.00  0.00    -0.550 OA
ENDBRANCH   8   9
ENDBRANCH   7   8
ENDBRANCH   6   7
ENDBRANCH   5   6
ENDBRANCH   4   5
ENDBRANCH   3   4
ENDBRANCH   2   3
ENDBRANCH   1   2
BRANCH   1  12
ATOM     12  C   UNL     1      20.076  26.841  56.787  1.00  0.00     0.000 C 
BRANCH  12  13
ATOM     13  C   UNL     1      21.371  26.696  57.609  1.00  0.00    -0.000 C 
BRANCH  13  14
ATOM     14  C   UNL     1      21.569  27.753  58.714  1.00  0.00    -0.000 C 
BRANCH  14  15
ATOM     15  C   UNL     1      20.534  28.893  58.713  1.00  0.00    -0.000 C 
BRANCH  15  16
ATOM     16  C   UNL     1      21.151  30.260  58.381  1.00  0.00    -0.000 C 
BRANCH  16  17
ATOM     17  C   UNL     1      21.456  30.374  56.880  1.00  0.00    -0.000 C 
BRANCH  17  18
ATOM     18  C   UNL     1      22.963  30.361  56.572  1.00  0.00    -0.000 C 
BRANCH  18  19
ATOM     19  C   UNL     1      23.404  29.300  55.547  1.00  0.00    -0.003 C 
ATOM     20  C   UNL     1      22.581  29.334  54.260  1.00  0.00     0.004 C 
ENDBRANCH  18  19
ENDBRANCH  17  18
ENDBRANCH  16  17
ENDBRANCH  15  16
ENDBRANCH  14  15
ENDBRANCH  13  14
ENDBRANCH  12  13
ENDBRANCH   1  12
TORSDOF 16
ENDMDL
MODEL 8
REMARK VINA RESULT:    -2.780      2.446      3.882
REMARK INTER + INTRA:          -8.376
REMARK INTER:                  -5.444
REMARK INTRA:                  -2.932
REMARK UNBOUND:                -2.995
REMARK SMILES CCCCCCCCCCCCCCCCCC(=O)[O-]
REMARK SMILES IDX 10 1 11 2 12 3 13 4 14 5 15 6 16 7 17 8 18 9 19 10 20 11
REMARK SMILES IDX 9 12 8 13 7 14 6 15 5 16 4 17 3 18 2 19 1 20
REMARK H PARENT
REMARK Flexibility Score: inf
ROOT
ATOM      1  C   UNL     1      28.555  32.043  54.644  1.00  0.00     0.000 C 
ENDROOT
BRANCH   1   2
ATOM      2  C   UNL     1      29.064  33.309  53.934  1.00  0.00     0.000 C 
BRANCH   2   3
ATOM      3  C   UNL     1      28.160  33.731  52.764  1.00  0.00     0.000 C 
BRANCH   3   4
ATOM      4  C   UNL     1      26.916  34.505  53.225  1.00  0.00     0.000 C 
BRANCH   4   5
ATOM      5  C   UNL     1      25.631  33.787  52.788  1.00  0.00     0.000 C 
BRANCH   5   6
ATOM      6  C   UNL     1      25.903  32.514  51.964  1.00  0.00     0.000 C 
BRANCH   6   7
ATOM      7  C   UNL     1      25.400  31.206  52.602  1.00  0.00     0.006 C 
BRANCH   7   8
ATOM      8  C   UNL     1      24.924  31.391  54.048  1.00  0.00     0.053 C 
BRANCH   8   9
ATOM      9  C   UNL     1      25.363  30.238  54.895  1.00  0.00     0.041 C 
ATOM     10  O   UNL     1      26.014  29.288  54.384  1.00  0.00    -0.550 OA
ATOM     11  O   UNL     1      25.091  30.233  56.257  1.00  0.00    -0.550 OA
ENDBRANCH   8   9
ENDBRANCH   7   8
ENDBRANCH   6   7
ENDBRANCH   5   6
ENDBRANCH   4   5
ENDBRANCH   3   4
ENDBRANCH   2   3
ENDBRANCH   1   2
BRANCH   1  12
ATOM     12  C   UNL     1      29.484  31.584  55.783  1.00  0.00     0.000 C 
BRANCH  12  13
ATOM     13  C   UNL     1      30.608  32.572  56.150  1.00  0.00    -0.000 C 
BRANCH  13  14
ATOM     14  C   UNL     1      32.033  32.113  55.780  1.00  0.00    -0.000 C 
BRANCH  14  15
ATOM     15  C   UNL     1      32.107  30.767  55.037  1.00  0.00    -0.000 C 
BRANCH  15  16
ATOM     16  C   UNL     1      32.368  30.930  53.532  1.00  0.00    -0.000 C 
BRANCH  16  17
ATOM     17  C   UNL     1      31.276  30.234  52.707  1.00  0.00    -0.000 C 
BRANCH  17  18
ATOM     18  C   UNL     1      30.702  31.130  51.595  1.00  0.00    -0.000 C 
BRANCH  18  19
ATOM     19  C   UNL     1      29.373  30.641  50.993  1.00  0.00    -0.003 C 
ATOM     20  C   UNL     1      28.660  29.615  51.873  1.00  0.00     0.004 C 
ENDBRANCH  18  19
ENDBRANCH  17  18
ENDBRANCH  16  17
ENDBRANCH  15  16
ENDBRANCH  14  15
ENDBRANCH  13  14
ENDBRANCH  12  13
ENDBRANCH   1  12
TORSDOF 16
ENDMDL
MODEL 9
REMARK VINA RESULT:    -2.776     16.407     18.526
REMARK INTER + INTRA:          -8.368
REMARK INTER:                  -5.457
REMARK INTRA:                  -2.911
REMARK UNBOUND:                -2.995
REMARK SMILES CCCCCCCCCCCCCCCCCC(=O)[O-]
REMARK SMILES IDX 10 1 11 2 12 3 13 4 14 5 15 6 16 7 17 8 18 9 19 10 20 11
REMARK SMILES IDX 9 12 8 13 7 14 6 15 5 16 4 17 3 18 2 19 1 20
REMARK H PARENT
REMARK Flexibility Score: inf
ROOT
ATOM      1  C   UNL     1      16.131  21.238  49.947  1.00  0.00     0.000 C 
ENDROOT
BRANCH   1   2
ATOM      2  C   UNL     1      15.091  20.167  50.317  1.00  0.00     0.000 C 
BRANCH   2   3
ATOM      3  C   UNL     1      14.364  19.604  49.085  1.00  0.00     0.000 C 
BRANCH   3   4
ATOM      4  C   UNL     1      14.977  18.288  48.584  1.00  0.00     0.000 C 
BRANCH   4   5
ATOM      5  C   UNL     1      15.746  18.506  47.272  1.00  0.00     0.000 C 
BRANCH   5   6
ATOM      6  C   UNL     1      17.226  18.087  47.365  1.00  0.00     0.000 C 
BRANCH   6   7
ATOM      7  C   UNL     1      18.190  18.908  46.490  1.00  0.00     0.006 C 
BRANCH   7   8
ATOM      8  C   UNL     1      18.112  18.536  45.004  1.00  0.00     0.053 C 
BRANCH   8   9
ATOM      9  C   UNL     1      17.797  19.745  44.179  1.00  0.00     0.041 C 
ATOM     10  O   UNL     1      17.466  20.824  44.737  1.00  0.00    -0.550 OA
ATOM     11  O   UNL     1      17.911  19.691  42.796  1.00  0.00    -0.550 OA
ENDBRANCH   8   9
ENDBRANCH   7   8
ENDBRANCH   6   7
ENDBRANCH   5   6
ENDBRANCH   4   5
ENDBRANCH   3   4
ENDBRANCH   2   3
ENDBRANCH   1   2
BRANCH   1  12
ATOM     12  C   UNL     1      17.441  21.096  50.743  1.00  0.00     0.000 C 
BRANCH  12  13
ATOM     13  C   UNL     1      18.419  20.032  50.209  1.00  0.00    -0.000 C 
BRANCH  13  14
ATOM     14  C   UNL     1      19.337  19.392  51.270  1.00  0.00    -0.000 C 
BRANCH  14  15
ATOM     15  C   UNL     1      18.894  17.999  51.753  1.00  0.00    -0.000 C 
BRANCH  15  16
ATOM     16  C   UNL     1      17.755  17.409  50.908  1.00  0.00    -0.000 C 
BRANCH  16  17
ATOM     17  C   UNL     1      16.523  17.117  51.777  1.00  0.00    -0.000 C 
BRANCH  17  18
ATOM     18  C   UNL     1      16.688  17.591  53.232  1.00  0.00    -0.000 C 
BRANCH  18  19
ATOM     19  C   UNL     1      15.709  18.697  53.666  1.00  0.00    -0.003 C 
ATOM     20  C   UNL     1      16.411  20.000  54.048  1.00  0.00     0.004 C 
ENDBRANCH  18  19
ENDBRANCH  17  18
ENDBRANCH  16  17
ENDBRANCH  15  16
ENDBRANCH  14  15
ENDBRANCH  13  14
ENDBRANCH  12  13
ENDBRANCH   1  12
TORSDOF 16
ENDMDL
