MODEL 1
REMARK VINA RESULT:    -5.308      0.000      0.000
REMARK INTER + INTRA:          -6.901
REMARK INTER:                  -8.101
REMARK INTRA:                   1.200
REMARK UNBOUND:                 1.200
REMARK SMILES CC1=CCC[C@@H](C)C(=O)C[C@H](C(C)C)C(=O)C1
REMARK SMILES IDX 8 1 9 2 6 3 7 4 5 5 4 6 3 7 2 8 1 9 10 11 11 12 15 13 16 14
REMARK SMILES IDX 17 15 12 17 13 18 14 19
REMARK H PARENT
REMARK Flexibility Score: 70.00
ROOT
ATOM      1  C   UNL     1      30.369  16.602  26.040  1.00  0.00     0.136 C 
ATOM      2  O   UNL     1      29.236  16.732  25.606  1.00  0.00    -0.299 OA
ENDROOT
BRANCH   1   3
ATOM      3  C   UNL     1      30.539  15.955  27.407  1.00  0.00     0.053 C 
ATOM      4  C   UNL     1      29.329  15.120  27.850  1.00  0.00     0.016 C 
BRANCH   3   5
ATOM      5  C   UNL     1      31.094  16.948  28.467  1.00  0.00     0.015 C 
BRANCH   5   6
ATOM      6  C   UNL     1      32.618  17.012  28.692  1.00  0.00     0.028 C 
BRANCH   6   7
ATOM      7  C   UNL     1      33.269  18.374  28.644  1.00  0.00    -0.028 C 
ATOM      8  C   UNL     1      32.902  19.410  27.855  1.00  0.00    -0.070 CG0
ATOM      9  C   UNL     1      33.823  20.603  27.784  1.00  0.00     0.039 C 
ATOM     10  G   UNL     1      31.603  19.441  27.073  1.00  0.00     0.000 G0
ENDBRANCH   6   7
ENDBRANCH   5   6
ENDBRANCH   3   5
ENDBRANCH   1   3
BRANCH   1  11
ATOM     11  C   UNL     1      31.530  17.098  25.198  1.00  0.00     0.087 C 
BRANCH  11  12
ATOM     12  C   UNL     1      31.356  18.530  24.605  1.00  0.00     0.066 C 
BRANCH  12  13
ATOM     13  C   UNL     1      31.750  19.623  25.593  1.00  0.00     0.140 C 
ATOM     14  O   UNL     1      32.184  20.687  25.177  1.00  0.00    -0.299 OA
BRANCH  13  15
ATOM     15  C   UNL     1      31.586  19.454  27.089  1.00  0.00     0.106 CG0
ATOM     16  G   UNL     1      32.914  19.422  27.821  1.00  0.00     0.000 G0
ENDBRANCH  13  15
ENDBRANCH  12  13
BRANCH  12  17
ATOM     17  C   UNL     1      31.956  18.754  23.176  1.00  0.00    -0.006 C 
ATOM     18  C   UNL     1      31.077  19.695  22.334  1.00  0.00     0.008 C 
ATOM     19  C   UNL     1      32.235  17.466  22.386  1.00  0.00     0.008 C 
ENDBRANCH  12  17
ENDBRANCH  11  12
ENDBRANCH   1  11
TORSDOF 1
ENDMDL
MODEL 2
REMARK VINA RESULT:    -5.289      1.692      3.617
REMARK INTER + INTRA:          -6.872
REMARK INTER:                  -6.674
REMARK INTRA:                  -0.198
REMARK UNBOUND:                 1.200
REMARK SMILES CC1=CCC[C@@H](C)C(=O)C[C@H](C(C)C)C(=O)C1
REMARK SMILES IDX 8 1 9 2 6 3 7 4 5 5 4 6 3 7 2 8 1 9 10 11 11 12 15 13 16 14
REMARK SMILES IDX 17 15 12 17 13 18 14 19
REMARK H PARENT
REMARK Flexibility Score: 70.00
ROOT
ATOM      1  C   UNL     1      31.582  19.482  27.654  1.00  0.00     0.136 C 
ATOM      2  O   UNL     1      30.568  19.368  28.324  1.00  0.00    -0.299 OA
ENDROOT
BRANCH   1   3
ATOM      3  C   UNL     1      32.923  19.374  28.366  1.00  0.00     0.053 C 
ATOM      4  C   UNL     1      34.125  19.730  27.479  1.00  0.00     0.016 C 
BRANCH   3   5
ATOM      5  C   UNL     1      33.056  18.056  29.181  1.00  0.00     0.015 C 
BRANCH   5   6
ATOM      6  C   UNL     1      33.040  16.714  28.421  1.00  0.00     0.028 C 
BRANCH   6   7
ATOM      7  C   UNL     1      31.751  15.926  28.434  1.00  0.00    -0.028 C 
ATOM      8  C   UNL     1      30.941  15.699  27.375  1.00  0.00    -0.070 CG0
ATOM      9  C   UNL     1      29.585  15.093  27.642  1.00  0.00     0.039 C 
ATOM     10  G   UNL     1      31.341  15.993  25.942  1.00  0.00     0.000 G0
ENDBRANCH   6   7
ENDBRANCH   5   6
ENDBRANCH   3   5
ENDBRANCH   1   3
BRANCH   1  11
ATOM     11  C   UNL     1      31.443  19.729  26.163  1.00  0.00     0.087 C 
BRANCH  11  12
ATOM     12  C   UNL     1      31.809  18.516  25.253  1.00  0.00     0.066 C 
BRANCH  12  13
ATOM     13  C   UNL     1      30.861  17.336  25.444  1.00  0.00     0.140 C 
ATOM     14  O   UNL     1      29.677  17.460  25.163  1.00  0.00    -0.299 OA
BRANCH  13  15
ATOM     15  C   UNL     1      31.341  15.988  25.937  1.00  0.00     0.106 CG0
ATOM     16  G   UNL     1      30.953  15.722  27.379  1.00  0.00     0.000 G0
ENDBRANCH  13  15
ENDBRANCH  12  13
BRANCH  12  17
ATOM     17  C   UNL     1      32.072  18.850  23.746  1.00  0.00    -0.006 C 
ATOM     18  C   UNL     1      31.054  19.868  23.205  1.00  0.00     0.008 C 
ATOM     19  C   UNL     1      32.123  17.628  22.815  1.00  0.00     0.008 C 
ENDBRANCH  12  17
ENDBRANCH  11  12
ENDBRANCH   1  11
TORSDOF 1
ENDMDL
MODEL 3
REMARK VINA RESULT:    -5.203      1.377      4.014
REMARK INTER + INTRA:          -6.740
REMARK INTER:                  -6.742
REMARK INTRA:                   0.002
REMARK UNBOUND:                 1.200
REMARK SMILES CC1=CCC[C@@H](C)C(=O)C[C@H](C(C)C)C(=O)C1
REMARK SMILES IDX 8 1 9 2 6 3 7 4 5 5 4 6 3 7 2 8 1 9 10 11 11 12 15 13 16 14
REMARK SMILES IDX 17 15 12 17 13 18 14 19
REMARK H PARENT
REMARK Flexibility Score: 70.00
ROOT
ATOM      1  C   UNL     1      32.627  21.159  26.314  1.00  0.00     0.136 C 
ATOM      2  O   UNL     1      32.878  22.090  25.566  1.00  0.00    -0.299 OA
ENDROOT
BRANCH   1   3
ATOM      3  C   UNL     1      33.577  20.902  27.475  1.00  0.00     0.053 C 
ATOM      4  C   UNL     1      34.797  21.836  27.494  1.00  0.00     0.016 C 
BRANCH   3   5
ATOM      5  C   UNL     1      33.886  19.390  27.665  1.00  0.00     0.015 C 
BRANCH   5   6
ATOM      6  C   UNL     1      33.113  18.609  28.747  1.00  0.00     0.028 C 
BRANCH   6   7
ATOM      7  C   UNL     1      32.765  17.170  28.447  1.00  0.00    -0.028 C 
ATOM      8  C   UNL     1      31.618  16.724  27.886  1.00  0.00    -0.070 CG0
ATOM      9  C   UNL     1      31.365  15.236  27.887  1.00  0.00     0.039 C 
ATOM     10  G   UNL     1      30.600  17.638  27.231  1.00  0.00     0.000 G0
ENDBRANCH   6   7
ENDBRANCH   5   6
ENDBRANCH   3   5
ENDBRANCH   1   3
BRANCH   1  11
ATOM     11  C   UNL     1      31.397  20.316  26.037  1.00  0.00     0.087 C 
BRANCH  11  12
ATOM     12  C   UNL     1      31.654  19.017  25.212  1.00  0.00     0.066 C 
BRANCH  12  13
ATOM     13  C   UNL     1      30.863  17.825  25.739  1.00  0.00     0.140 C 
ATOM     14  O   UNL     1      30.455  16.976  24.959  1.00  0.00    -0.299 OA
BRANCH  13  15
ATOM     15  C   UNL     1      30.591  17.626  27.215  1.00  0.00     0.106 CG0
ATOM     16  G   UNL     1      31.607  16.716  27.878  1.00  0.00     0.000 G0
ENDBRANCH  13  15
ENDBRANCH  12  13
BRANCH  12  17
ATOM     17  C   UNL     1      31.566  19.169  23.656  1.00  0.00    -0.006 C 
ATOM     18  C   UNL     1      32.878  18.749  22.971  1.00  0.00     0.008 C 
ATOM     19  C   UNL     1      31.155  20.567  23.168  1.00  0.00     0.008 C 
ENDBRANCH  12  17
ENDBRANCH  11  12
ENDBRANCH   1  11
TORSDOF 1
ENDMDL
MODEL 4
REMARK VINA RESULT:    -4.982     13.556     14.555
REMARK INTER + INTRA:          -6.403
REMARK INTER:                  -6.086
REMARK INTRA:                  -0.317
REMARK UNBOUND:                 1.200
REMARK SMILES CC1=CCC[C@@H](C)C(=O)C[C@H](C(C)C)C(=O)C1
REMARK SMILES IDX 8 1 9 2 6 3 7 4 5 5 4 6 3 7 2 8 1 9 10 11 11 12 15 13 16 14
REMARK SMILES IDX 17 15 12 17 13 18 14 19
REMARK H PARENT
REMARK Flexibility Score: 70.00
ROOT
ATOM      1  C   UNL     1      20.358  23.607  26.661  1.00  0.00     0.136 C 
ATOM      2  O   UNL     1      20.475  22.406  26.850  1.00  0.00    -0.299 OA
ENDROOT
BRANCH   1   3
ATOM      3  C   UNL     1      21.627  24.443  26.586  1.00  0.00     0.053 C 
ATOM      4  C   UNL     1      22.558  24.052  25.428  1.00  0.00     0.016 C 
BRANCH   3   5
ATOM      5  C   UNL     1      22.312  24.606  27.972  1.00  0.00     0.015 C 
BRANCH   5   6
ATOM      6  C   UNL     1      21.679  25.566  29.000  1.00  0.00     0.028 C 
BRANCH   6   7
ATOM      7  C   UNL     1      21.260  26.931  28.507  1.00  0.00    -0.028 C 
ATOM      8  C   UNL     1      19.996  27.408  28.450  1.00  0.00    -0.070 CG0
ATOM      9  C   UNL     1      19.763  28.701  27.708  1.00  0.00     0.039 C 
ATOM     10  G   UNL     1      18.817  26.727  29.119  1.00  0.00     0.000 G0
ENDBRANCH   6   7
ENDBRANCH   5   6
ENDBRANCH   3   5
ENDBRANCH   1   3
BRANCH   1  11
ATOM     11  C   UNL     1      18.963  24.187  26.521  1.00  0.00     0.087 C 
BRANCH  11  12
ATOM     12  C   UNL     1      18.216  24.450  27.866  1.00  0.00     0.066 C 
BRANCH  12  13
ATOM     13  C   UNL     1      17.971  25.934  28.117  1.00  0.00     0.140 C 
ATOM     14  O   UNL     1      17.060  26.504  27.534  1.00  0.00    -0.299 OA
BRANCH  13  15
ATOM     15  C   UNL     1      18.798  26.732  29.103  1.00  0.00     0.106 CG0
ATOM     16  G   UNL     1      19.995  27.400  28.453  1.00  0.00     0.000 G0
ENDBRANCH  13  15
ENDBRANCH  12  13
BRANCH  12  17
ATOM     17  C   UNL     1      16.948  23.569  28.124  1.00  0.00    -0.006 C 
ATOM     18  C   UNL     1      16.401  23.767  29.548  1.00  0.00     0.008 C 
ATOM     19  C   UNL     1      17.139  22.069  27.850  1.00  0.00     0.008 C 
ENDBRANCH  12  17
ENDBRANCH  11  12
ENDBRANCH   1  11
TORSDOF 1
ENDMDL
MODEL 5
REMARK VINA RESULT:    -4.821      1.672      4.210
REMARK INTER + INTRA:          -6.157
REMARK INTER:                  -6.733
REMARK INTRA:                   0.576
REMARK UNBOUND:                 1.200
REMARK SMILES CC1=CCC[C@@H](C)C(=O)C[C@H](C(C)C)C(=O)C1
REMARK SMILES IDX 8 1 9 2 6 3 7 4 5 5 4 6 3 7 2 8 1 9 10 11 11 12 15 13 16 14
REMARK SMILES IDX 17 15 12 17 13 18 14 19
REMARK H PARENT
REMARK Flexibility Score: 70.00
ROOT
ATOM      1  C   UNL     1      31.368  17.903  24.121  1.00  0.00     0.136 C 
ATOM      2  O   UNL     1      31.860  16.845  23.763  1.00  0.00    -0.299 OA
ENDROOT
BRANCH   1   3
ATOM      3  C   UNL     1      31.500  19.101  23.191  1.00  0.00     0.053 C 
ATOM      4  C   UNL     1      31.844  18.724  21.742  1.00  0.00     0.016 C 
BRANCH   3   5
ATOM      5  C   UNL     1      32.359  20.240  23.811  1.00  0.00     0.015 C 
BRANCH   5   6
ATOM      6  C   UNL     1      31.698  21.194  24.826  1.00  0.00     0.028 C 
BRANCH   6   7
ATOM      7  C   UNL     1      32.608  21.914  25.793  1.00  0.00    -0.028 C 
ATOM      8  C   UNL     1      33.204  21.377  26.882  1.00  0.00    -0.070 CG0
ATOM      9  C   UNL     1      33.882  22.315  27.850  1.00  0.00     0.039 C 
ATOM     10  G   UNL     1      33.251  19.886  27.156  1.00  0.00     0.000 G0
ENDBRANCH   6   7
ENDBRANCH   5   6
ENDBRANCH   3   5
ENDBRANCH   1   3
BRANCH   1  11
ATOM     11  C   UNL     1      30.668  17.960  25.466  1.00  0.00     0.087 C 
BRANCH  11  12
ATOM     12  C   UNL     1      31.606  17.854  26.708  1.00  0.00     0.066 C 
BRANCH  12  13
ATOM     13  C   UNL     1      31.922  19.215  27.318  1.00  0.00     0.140 C 
ATOM     14  O   UNL     1      31.077  19.788  27.990  1.00  0.00    -0.299 OA
BRANCH  13  15
ATOM     15  C   UNL     1      33.274  19.877  27.156  1.00  0.00     0.106 CG0
ATOM     16  G   UNL     1      33.166  21.365  26.881  1.00  0.00     0.000 G0
ENDBRANCH  13  15
ENDBRANCH  12  13
BRANCH  12  17
ATOM     17  C   UNL     1      31.202  16.783  27.777  1.00  0.00    -0.006 C 
ATOM     18  C   UNL     1      32.371  15.837  28.100  1.00  0.00     0.008 C 
ATOM     19  C   UNL     1      29.955  15.959  27.424  1.00  0.00     0.008 C 
ENDBRANCH  12  17
ENDBRANCH  11  12
ENDBRANCH   1  11
TORSDOF 1
ENDMDL
MODEL 6
REMARK VINA RESULT:    -4.814     13.513     14.771
REMARK INTER + INTRA:          -6.147
REMARK INTER:                  -6.060
REMARK INTRA:                  -0.087
REMARK UNBOUND:                 1.200
REMARK SMILES CC1=CCC[C@@H](C)C(=O)C[C@H](C(C)C)C(=O)C1
REMARK SMILES IDX 8 1 9 2 6 3 7 4 5 5 4 6 3 7 2 8 1 9 10 11 11 12 15 13 16 14
REMARK SMILES IDX 17 15 12 17 13 18 14 19
REMARK H PARENT
REMARK Flexibility Score: 70.00
ROOT
ATOM      1  C   UNL     1      21.930  25.833  28.010  1.00  0.00     0.136 C 
ATOM      2  O   UNL     1      22.623  26.829  28.150  1.00  0.00    -0.299 OA
ENDROOT
BRANCH   1   3
ATOM      3  C   UNL     1      22.397  24.775  27.021  1.00  0.00     0.053 C 
ATOM      4  C   UNL     1      22.764  25.338  25.639  1.00  0.00     0.016 C 
BRANCH   3   5
ATOM      5  C   UNL     1      21.474  23.524  27.013  1.00  0.00     0.015 C 
BRANCH   5   6
ATOM      6  C   UNL     1      20.238  23.525  26.090  1.00  0.00     0.028 C 
BRANCH   6   7
ATOM      7  C   UNL     1      19.037  22.728  26.540  1.00  0.00    -0.028 C 
ATOM      8  C   UNL     1      17.900  23.227  27.078  1.00  0.00    -0.070 CG0
ATOM      9  C   UNL     1      16.917  22.253  27.679  1.00  0.00     0.039 C 
ATOM     10  G   UNL     1      17.556  24.704  27.074  1.00  0.00     0.000 G0
ENDBRANCH   6   7
ENDBRANCH   5   6
ENDBRANCH   3   5
ENDBRANCH   1   3
BRANCH   1  11
ATOM     11  C   UNL     1      20.652  25.718  28.820  1.00  0.00     0.087 C 
BRANCH  11  12
ATOM     12  C   UNL     1      19.384  26.327  28.147  1.00  0.00     0.066 C 
BRANCH  12  13
ATOM     13  C   UNL     1      18.161  25.426  28.283  1.00  0.00     0.140 C 
ATOM     14  O   UNL     1      17.629  25.288  29.375  1.00  0.00    -0.299 OA
BRANCH  13  15
ATOM     15  C   UNL     1      17.548  24.715  27.095  1.00  0.00     0.106 CG0
ATOM     16  G   UNL     1      17.875  23.234  27.069  1.00  0.00     0.000 G0
ENDBRANCH  13  15
ENDBRANCH  12  13
BRANCH  12  17
ATOM     17  C   UNL     1      19.081  27.824  28.494  1.00  0.00    -0.006 C 
ATOM     18  C   UNL     1      19.837  28.786  27.561  1.00  0.00     0.008 C 
ATOM     19  C   UNL     1      19.345  28.211  29.957  1.00  0.00     0.008 C 
ENDBRANCH  12  17
ENDBRANCH  11  12
ENDBRANCH   1  11
TORSDOF 1
ENDMDL
MODEL 7
REMARK VINA RESULT:    -4.668     15.522     16.772
REMARK INTER + INTRA:          -5.924
REMARK INTER:                  -5.581
REMARK INTRA:                  -0.344
REMARK UNBOUND:                 1.200
REMARK SMILES CC1=CCC[C@@H](C)C(=O)C[C@H](C(C)C)C(=O)C1
REMARK SMILES IDX 8 1 9 2 6 3 7 4 5 5 4 6 3 7 2 8 1 9 10 11 11 12 15 13 16 14
REMARK SMILES IDX 17 15 12 17 13 18 14 19
REMARK H PARENT
REMARK Flexibility Score: 70.00
ROOT
ATOM      1  C   UNL     1      18.603  25.610  28.259  1.00  0.00     0.136 C 
ATOM      2  O   UNL     1      18.913  26.722  27.862  1.00  0.00    -0.299 OA
ENDROOT
BRANCH   1   3
ATOM      3  C   UNL     1      19.138  24.406  27.496  1.00  0.00     0.053 C 
ATOM      4  C   UNL     1      20.640  24.490  27.184  1.00  0.00     0.016 C 
BRANCH   3   5
ATOM      5  C   UNL     1      18.226  24.009  26.302  1.00  0.00     0.015 C 
BRANCH   5   6
ATOM      6  C   UNL     1      17.078  23.009  26.550  1.00  0.00     0.028 C 
BRANCH   6   7
ATOM      7  C   UNL     1      17.247  22.030  27.688  1.00  0.00    -0.028 C 
ATOM      8  C   UNL     1      16.534  22.008  28.837  1.00  0.00    -0.070 CG0
ATOM      9  C   UNL     1      17.012  21.102  29.945  1.00  0.00     0.039 C 
ATOM     10  G   UNL     1      15.270  22.819  29.049  1.00  0.00     0.000 G0
ENDBRANCH   6   7
ENDBRANCH   5   6
ENDBRANCH   3   5
ENDBRANCH   1   3
BRANCH   1  11
ATOM     11  C   UNL     1      17.704  25.497  29.476  1.00  0.00     0.087 C 
BRANCH  11  12
ATOM     12  C   UNL     1      16.184  25.337  29.166  1.00  0.00     0.066 C 
BRANCH  12  13
ATOM     13  C   UNL     1      15.579  24.107  29.834  1.00  0.00     0.140 C 
ATOM     14  O   UNL     1      15.282  24.148  31.020  1.00  0.00    -0.299 OA
BRANCH  13  15
ATOM     15  C   UNL     1      15.290  22.833  29.069  1.00  0.00     0.106 CG0
ATOM     16  G   UNL     1      16.532  21.989  28.853  1.00  0.00     0.000 G0
ENDBRANCH  13  15
ENDBRANCH  12  13
BRANCH  12  17
ATOM     17  C   UNL     1      15.311  26.624  29.349  1.00  0.00    -0.006 C 
ATOM     18  C   UNL     1      15.164  27.401  28.029  1.00  0.00     0.008 C 
ATOM     19  C   UNL     1      15.792  27.575  30.455  1.00  0.00     0.008 C 
ENDBRANCH  12  17
ENDBRANCH  11  12
ENDBRANCH   1  11
TORSDOF 1
ENDMDL
MODEL 8
REMARK VINA RESULT:    -4.646     15.112     16.173
REMARK INTER + INTRA:          -5.891
REMARK INTER:                  -5.731
REMARK INTRA:                  -0.160
REMARK UNBOUND:                 1.200
REMARK SMILES CC1=CCC[C@@H](C)C(=O)C[C@H](C(C)C)C(=O)C1
REMARK SMILES IDX 8 1 9 2 6 3 7 4 5 5 4 6 3 7 2 8 1 9 10 11 11 12 15 13 16 14
REMARK SMILES IDX 17 15 12 17 13 18 14 19
REMARK H PARENT
REMARK Flexibility Score: 70.00
ROOT
ATOM      1  C   UNL     1      19.308  24.202  27.124  1.00  0.00     0.136 C 
ATOM      2  O   UNL     1      19.656  23.066  26.841  1.00  0.00    -0.299 OA
ENDROOT
BRANCH   1   3
ATOM      3  C   UNL     1      20.388  25.203  27.508  1.00  0.00     0.053 C 
ATOM      4  C   UNL     1      21.817  24.667  27.338  1.00  0.00     0.016 C 
BRANCH   3   5
ATOM      5  C   UNL     1      20.091  25.902  28.865  1.00  0.00     0.015 C 
BRANCH   5   6
ATOM      6  C   UNL     1      19.376  27.268  28.850  1.00  0.00     0.028 C 
BRANCH   6   7
ATOM      7  C   UNL     1      18.335  27.517  29.917  1.00  0.00    -0.028 C 
ATOM      8  C   UNL     1      17.001  27.330  29.793  1.00  0.00    -0.070 CG0
ATOM      9  C   UNL     1      16.110  27.859  30.890  1.00  0.00     0.039 C 
ATOM     10  G   UNL     1      16.368  26.590  28.630  1.00  0.00     0.000 G0
ENDBRANCH   6   7
ENDBRANCH   5   6
ENDBRANCH   3   5
ENDBRANCH   1   3
BRANCH   1  11
ATOM     11  C   UNL     1      17.829  24.539  27.081  1.00  0.00     0.087 C 
BRANCH  11  12
ATOM     12  C   UNL     1      16.994  24.015  28.290  1.00  0.00     0.066 C 
BRANCH  12  13
ATOM     13  C   UNL     1      16.143  25.107  28.929  1.00  0.00     0.140 C 
ATOM     14  O   UNL     1      15.275  24.803  29.735  1.00  0.00    -0.299 OA
BRANCH  13  15
ATOM     15  C   UNL     1      16.358  26.575  28.630  1.00  0.00     0.106 CG0
ATOM     16  G   UNL     1      17.022  27.313  29.776  1.00  0.00     0.000 G0
ENDBRANCH  13  15
ENDBRANCH  12  13
BRANCH  12  17
ATOM     17  C   UNL     1      16.202  22.686  28.046  1.00  0.00    -0.006 C 
ATOM     18  C   UNL     1      16.670  21.566  28.990  1.00  0.00     0.008 C 
ATOM     19  C   UNL     1      16.225  22.181  26.595  1.00  0.00     0.008 C 
ENDBRANCH  12  17
ENDBRANCH  11  12
ENDBRANCH   1  11
TORSDOF 1
ENDMDL
MODEL 9
REMARK VINA RESULT:    -4.546     12.538     13.647
REMARK INTER + INTRA:          -5.738
REMARK INTER:                  -5.776
REMARK INTRA:                   0.038
REMARK UNBOUND:                 1.200
REMARK SMILES CC1=CCC[C@@H](C)C(=O)C[C@H](C(C)C)C(=O)C1
REMARK SMILES IDX 8 1 9 2 6 3 7 4 5 5 4 6 3 7 2 8 1 9 10 11 11 12 15 13 16 14
REMARK SMILES IDX 17 15 12 17 13 18 14 19
REMARK H PARENT
REMARK Flexibility Score: 70.00
ROOT
ATOM      1  C   UNL     1      23.090  25.947  27.572  1.00  0.00     0.136 C 
ATOM      2  O   UNL     1      23.444  26.124  26.417  1.00  0.00    -0.299 OA
ENDROOT
BRANCH   1   3
ATOM      3  C   UNL     1      21.788  25.196  27.811  1.00  0.00     0.053 C 
ATOM      4  C   UNL     1      21.632  23.937  26.945  1.00  0.00     0.016 C 
BRANCH   3   5
ATOM      5  C   UNL     1      20.556  26.143  27.847  1.00  0.00     0.015 C 
BRANCH   5   6
ATOM      6  C   UNL     1      20.797  27.666  27.898  1.00  0.00     0.028 C 
BRANCH   6   7
ATOM      7  C   UNL     1      20.319  28.401  29.128  1.00  0.00    -0.028 C 
ATOM      8  C   UNL     1      21.057  29.227  29.905  1.00  0.00    -0.070 CG0
ATOM      9  C   UNL     1      20.465  29.677  31.218  1.00  0.00     0.039 C 
ATOM     10  G   UNL     1      22.425  29.745  29.505  1.00  0.00     0.000 G0
ENDBRANCH   6   7
ENDBRANCH   5   6
ENDBRANCH   3   5
ENDBRANCH   1   3
BRANCH   1  11
ATOM     11  C   UNL     1      23.962  26.490  28.689  1.00  0.00     0.087 C 
BRANCH  11  12
ATOM     12  C   UNL     1      24.237  28.024  28.630  1.00  0.00     0.066 C 
BRANCH  12  13
ATOM     13  C   UNL     1      23.552  28.784  29.761  1.00  0.00     0.140 C 
ATOM     14  O   UNL     1      23.928  28.622  30.913  1.00  0.00    -0.299 OA
BRANCH  13  15
ATOM     15  C   UNL     1      22.436  29.774  29.507  1.00  0.00     0.106 CG0
ATOM     16  G   UNL     1      21.073  29.227  29.889  1.00  0.00     0.000 G0
ENDBRANCH  13  15
ENDBRANCH  12  13
BRANCH  12  17
ATOM     17  C   UNL     1      25.734  28.441  28.432  1.00  0.00    -0.006 C 
ATOM     18  C   UNL     1      26.051  28.726  26.955  1.00  0.00     0.008 C 
ATOM     19  C   UNL     1      26.759  27.445  28.997  1.00  0.00     0.008 C 
ENDBRANCH  12  17
ENDBRANCH  11  12
ENDBRANCH   1  11
TORSDOF 1
ENDMDL
