MODEL 1
REMARK VINA RESULT:    -3.826      0.000      0.000
REMARK INTER + INTRA:          -4.177
REMARK INTER:                  -4.161
REMARK INTRA:                  -0.016
REMARK UNBOUND:                -0.016
REMARK SMILES OCc1ccccc1
REMARK SMILES IDX 2 1 3 2 6 3 5 4 7 5 4 6 8 7 1 8
REMARK H PARENT 1 9
REMARK Flexibility Score: inf
ROOT
ATOM      1  C   UNL     1       2.189  -2.685  -3.850  1.00  0.00     0.191 C 
ENDROOT
BRANCH   1   2
ATOM      2  C   UNL     1       2.889  -4.009  -3.990  1.00  0.00    -0.023 A 
ATOM      3  C   UNL     1       4.238  -6.449  -4.309  1.00  0.00     0.000 A 
ATOM      4  C   UNL     1       3.104  -6.171  -5.079  1.00  0.00     0.000 A 
ATOM      5  C   UNL     1       4.705  -5.507  -3.387  1.00  0.00     0.000 A 
ATOM      6  C   UNL     1       2.434  -4.953  -4.925  1.00  0.00     0.006 A 
ATOM      7  C   UNL     1       4.037  -4.288  -3.231  1.00  0.00     0.006 A 
ENDBRANCH   1   2
BRANCH   1   8
ATOM      8  O   UNL     1       2.220  -2.264  -2.514  1.00  0.00    -0.392 OA
ATOM      9  H   UNL     1       2.141  -1.273  -2.527  1.00  0.00     0.211 HD
ENDBRANCH   1   8
TORSDOF 2
ENDMDL
MODEL 2
REMARK VINA RESULT:    -3.821      0.076      1.715
REMARK INTER + INTRA:          -4.171
REMARK INTER:                  -4.155
REMARK INTRA:                  -0.017
REMARK UNBOUND:                -0.016
REMARK SMILES OCc1ccccc1
REMARK SMILES IDX 2 1 3 2 6 3 5 4 7 5 4 6 8 7 1 8
REMARK H PARENT 1 9
REMARK Flexibility Score: inf
ROOT
ATOM      1  C   UNL     1       2.202  -2.713  -3.884  1.00  0.00     0.191 C 
ENDROOT
BRANCH   1   2
ATOM      2  C   UNL     1       2.956  -4.005  -4.041  1.00  0.00    -0.023 A 
ATOM      3  C   UNL     1       4.321  -6.446  -4.275  1.00  0.00     0.000 A 
ATOM      4  C   UNL     1       4.782  -5.469  -3.386  1.00  0.00     0.000 A 
ATOM      5  C   UNL     1       3.174  -6.210  -5.039  1.00  0.00     0.000 A 
ATOM      6  C   UNL     1       4.100  -4.254  -3.264  1.00  0.00     0.006 A 
ATOM      7  C   UNL     1       2.490  -4.996  -4.920  1.00  0.00     0.006 A 
ENDBRANCH   1   2
BRANCH   1   8
ATOM      8  O   UNL     1       2.225  -2.302  -2.545  1.00  0.00    -0.392 OA
ATOM      9  H   UNL     1       3.112  -1.880  -2.394  1.00  0.00     0.211 HD
ENDBRANCH   1   8
TORSDOF 2
ENDMDL
MODEL 3
REMARK VINA RESULT:    -3.815      9.276     10.064
REMARK INTER + INTRA:          -4.165
REMARK INTER:                  -4.146
REMARK INTRA:                  -0.019
REMARK UNBOUND:                -0.016
REMARK SMILES OCc1ccccc1
REMARK SMILES IDX 2 1 3 2 6 3 5 4 7 5 4 6 8 7 1 8
REMARK H PARENT 1 9
REMARK Flexibility Score: inf
ROOT
ATOM      1  C   UNL     1      -3.797  -2.154   1.200  1.00  0.00     0.191 C 
ENDROOT
BRANCH   1   2
ATOM      2  C   UNL     1      -3.902  -3.330   2.131  1.00  0.00    -0.023 A 
ATOM      3  C   UNL     1      -4.140  -5.481   3.918  1.00  0.00     0.000 A 
ATOM      4  C   UNL     1      -3.083  -4.575   4.052  1.00  0.00     0.000 A 
ATOM      5  C   UNL     1      -5.083  -5.310   2.901  1.00  0.00     0.000 A 
ATOM      6  C   UNL     1      -2.966  -3.499   3.166  1.00  0.00     0.006 A 
ATOM      7  C   UNL     1      -4.969  -4.235   2.013  1.00  0.00     0.006 A 
ENDBRANCH   1   2
BRANCH   1   8
ATOM      8  O   UNL     1      -4.981  -2.016   0.464  1.00  0.00    -0.392 OA
ATOM      9  H   UNL     1      -5.361  -1.129   0.703  1.00  0.00     0.211 HD
ENDBRANCH   1   8
TORSDOF 2
ENDMDL
MODEL 4
REMARK VINA RESULT:    -3.808     10.044     11.003
REMARK INTER + INTRA:          -4.158
REMARK INTER:                  -4.146
REMARK INTRA:                  -0.012
REMARK UNBOUND:                -0.016
REMARK SMILES OCc1ccccc1
REMARK SMILES IDX 2 1 3 2 6 3 5 4 7 5 4 6 8 7 1 8
REMARK H PARENT 1 9
REMARK Flexibility Score: inf
ROOT
ATOM      1  C   UNL     1      -2.865  -3.528   2.136  1.00  0.00     0.191 C 
ENDROOT
BRANCH   1   2
ATOM      2  C   UNL     1      -3.667  -3.987   3.322  1.00  0.00    -0.023 A 
ATOM      3  C   UNL     1      -5.221  -4.795   5.515  1.00  0.00     0.000 A 
ATOM      4  C   UNL     1      -4.388  -3.677   5.622  1.00  0.00     0.000 A 
ATOM      5  C   UNL     1      -5.286  -5.505   4.312  1.00  0.00     0.000 A 
ATOM      6  C   UNL     1      -3.617  -3.269   4.529  1.00  0.00     0.006 A 
ATOM      7  C   UNL     1      -4.516  -5.100   3.217  1.00  0.00     0.006 A 
ENDBRANCH   1   2
BRANCH   1   8
ATOM      8  O   UNL     1      -2.029  -4.561   1.692  1.00  0.00    -0.392 OA
ATOM      9  H   UNL     1      -2.620  -5.328   1.467  1.00  0.00     0.211 HD
ENDBRANCH   1   8
TORSDOF 2
ENDMDL
MODEL 5
REMARK VINA RESULT:    -3.805     10.042     10.884
REMARK INTER + INTRA:          -4.154
REMARK INTER:                  -4.140
REMARK INTRA:                  -0.014
REMARK UNBOUND:                -0.016
REMARK SMILES OCc1ccccc1
REMARK SMILES IDX 2 1 3 2 6 3 5 4 7 5 4 6 8 7 1 8
REMARK H PARENT 1 9
REMARK Flexibility Score: inf
ROOT
ATOM      1  C   UNL     1      -2.870  -3.525   2.130  1.00  0.00     0.191 C 
ENDROOT
BRANCH   1   2
ATOM      2  C   UNL     1      -3.703  -3.969   3.301  1.00  0.00    -0.023 A 
ATOM      3  C   UNL     1      -5.200  -4.845   5.508  1.00  0.00     0.000 A 
ATOM      4  C   UNL     1      -5.238  -5.562   4.308  1.00  0.00     0.000 A 
ATOM      5  C   UNL     1      -4.407  -3.698   5.610  1.00  0.00     0.000 A 
ATOM      6  C   UNL     1      -4.489  -5.131   3.208  1.00  0.00     0.006 A 
ATOM      7  C   UNL     1      -3.657  -3.263   4.513  1.00  0.00     0.006 A 
ENDBRANCH   1   2
BRANCH   1   8
ATOM      8  O   UNL     1      -2.068  -4.583   1.682  1.00  0.00    -0.392 OA
ATOM      9  H   UNL     1      -1.127  -4.268   1.735  1.00  0.00     0.211 HD
ENDBRANCH   1   8
TORSDOF 2
ENDMDL
MODEL 6
REMARK VINA RESULT:    -3.780     10.364     11.151
REMARK INTER + INTRA:          -4.127
REMARK INTER:                  -4.108
REMARK INTRA:                  -0.020
REMARK UNBOUND:                -0.016
REMARK SMILES OCc1ccccc1
REMARK SMILES IDX 2 1 3 2 6 3 5 4 7 5 4 6 8 7 1 8
REMARK H PARENT 1 9
REMARK Flexibility Score: inf
ROOT
ATOM      1  C   UNL     1      -5.351  -7.293   3.272  1.00  0.00     0.191 C 
ENDROOT
BRANCH   1   2
ATOM      2  C   UNL     1      -4.697  -5.969   3.555  1.00  0.00    -0.023 A 
ATOM      3  C   UNL     1      -3.541  -3.461   4.056  1.00  0.00     0.000 A 
ATOM      4  C   UNL     1      -3.392  -4.062   2.802  1.00  0.00     0.000 A 
ATOM      5  C   UNL     1      -4.274  -4.105   5.056  1.00  0.00     0.000 A 
ATOM      6  C   UNL     1      -3.972  -5.309   2.549  1.00  0.00     0.006 A 
ATOM      7  C   UNL     1      -4.856  -5.352   4.807  1.00  0.00     0.006 A 
ENDBRANCH   1   2
BRANCH   1   8
ATOM      8  O   UNL     1      -5.230  -7.608   1.912  1.00  0.00    -0.392 OA
ATOM      9  H   UNL     1      -5.036  -8.582   1.863  1.00  0.00     0.211 HD
ENDBRANCH   1   8
TORSDOF 2
ENDMDL
MODEL 7
REMARK VINA RESULT:    -3.729     10.409     11.273
REMARK INTER + INTRA:          -4.072
REMARK INTER:                  -4.056
REMARK INTRA:                  -0.016
REMARK UNBOUND:                -0.016
REMARK SMILES OCc1ccccc1
REMARK SMILES IDX 2 1 3 2 6 3 5 4 7 5 4 6 8 7 1 8
REMARK H PARENT 1 9
REMARK Flexibility Score: inf
ROOT
ATOM      1  C   UNL     1      -5.948  -6.705   2.773  1.00  0.00     0.191 C 
ENDROOT
BRANCH   1   2
ATOM      2  C   UNL     1      -5.118  -5.569   3.305  1.00  0.00    -0.023 A 
ATOM      3  C   UNL     1      -3.515  -3.502   4.321  1.00  0.00     0.000 A 
ATOM      4  C   UNL     1      -4.436  -4.146   5.153  1.00  0.00     0.000 A 
ATOM      5  C   UNL     1      -3.385  -3.895   2.986  1.00  0.00     0.000 A 
ATOM      6  C   UNL     1      -5.232  -5.180   4.650  1.00  0.00     0.006 A 
ATOM      7  C   UNL     1      -4.179  -4.929   2.479  1.00  0.00     0.006 A 
ENDBRANCH   1   2
BRANCH   1   8
ATOM      8  O   UNL     1      -5.170  -7.520   1.940  1.00  0.00    -0.392 OA
ATOM      9  H   UNL     1      -5.547  -8.437   2.007  1.00  0.00     0.211 HD
ENDBRANCH   1   8
TORSDOF 2
ENDMDL
MODEL 8
REMARK VINA RESULT:    -3.689     10.450     11.172
REMARK INTER + INTRA:          -4.028
REMARK INTER:                  -4.009
REMARK INTRA:                  -0.019
REMARK UNBOUND:                -0.016
REMARK SMILES OCc1ccccc1
REMARK SMILES IDX 2 1 3 2 6 3 5 4 7 5 4 6 8 7 1 8
REMARK H PARENT 1 9
REMARK Flexibility Score: inf
ROOT
ATOM      1  C   UNL     1      -5.004  -4.109   6.235  1.00  0.00     0.191 C 
ENDROOT
BRANCH   1   2
ATOM      2  C   UNL     1      -4.459  -4.308   4.847  1.00  0.00    -0.023 A 
ATOM      3  C   UNL     1      -3.503  -4.639   2.230  1.00  0.00     0.000 A 
ATOM      4  C   UNL     1      -4.428  -5.546   2.756  1.00  0.00     0.000 A 
ATOM      5  C   UNL     1      -3.063  -3.562   3.004  1.00  0.00     0.000 A 
ATOM      6  C   UNL     1      -4.910  -5.380   4.058  1.00  0.00     0.006 A 
ATOM      7  C   UNL     1      -3.542  -3.392   4.307  1.00  0.00     0.006 A 
ENDBRANCH   1   2
BRANCH   1   8
ATOM      8  O   UNL     1      -4.256  -3.134   6.909  1.00  0.00    -0.392 OA
ATOM      9  H   UNL     1      -3.304  -3.409   6.839  1.00  0.00     0.211 HD
ENDBRANCH   1   8
TORSDOF 2
ENDMDL
MODEL 9
REMARK VINA RESULT:    -3.563     13.941     14.830
REMARK INTER + INTRA:          -3.891
REMARK INTER:                  -3.878
REMARK INTRA:                  -0.012
REMARK UNBOUND:                -0.016
REMARK SMILES OCc1ccccc1
REMARK SMILES IDX 2 1 3 2 6 3 5 4 7 5 4 6 8 7 1 8
REMARK H PARENT 1 9
REMARK Flexibility Score: inf
ROOT
ATOM      1  C   UNL     1       6.075   5.151   6.355  1.00  0.00     0.191 C 
ENDROOT
BRANCH   1   2
ATOM      2  C   UNL     1       7.565   5.194   6.157  1.00  0.00    -0.023 A 
ATOM      3  C   UNL     1      10.341   5.353   5.776  1.00  0.00     0.000 A 
ATOM      4  C   UNL     1       9.493   5.178   4.678  1.00  0.00     0.000 A 
ATOM      5  C   UNL     1       9.804   5.459   7.062  1.00  0.00     0.000 A 
ATOM      6  C   UNL     1       8.109   5.104   4.865  1.00  0.00     0.006 A 
ATOM      7  C   UNL     1       8.421   5.386   7.253  1.00  0.00     0.006 A 
ENDBRANCH   1   2
BRANCH   1   8
ATOM      8  O   UNL     1       5.547   3.990   5.774  1.00  0.00    -0.392 OA
ATOM      9  H   UNL     1       5.755   3.242   6.394  1.00  0.00     0.211 HD
ENDBRANCH   1   8
TORSDOF 2
ENDMDL
