MODEL 1
REMARK VINA RESULT:    -5.468      0.000      0.000
REMARK INTER + INTRA:          -7.131
REMARK INTER:                  -6.747
REMARK INTRA:                  -0.384
REMARK UNBOUND:                -0.384
REMARK SMILES CCCCCc1ccccc1
REMARK SMILES IDX 4 1 3 2 2 3 1 4 5 5 6 6 7 7 11 8 8 9 10 10 9 11
REMARK H PARENT
REMARK Flexibility Score: inf
ROOT
ATOM      1  C   UNL     1     -17.762  57.695   0.860  1.00  0.00     0.005 C 
ENDROOT
BRANCH   1   2
ATOM      2  C   UNL     1     -16.321  57.823   1.368  1.00  0.00     0.000 C 
BRANCH   2   3
ATOM      3  C   UNL     1     -15.573  58.936   0.625  1.00  0.00    -0.003 C 
ATOM      4  C   UNL     1     -14.135  59.058   1.120  1.00  0.00     0.004 C 
ENDBRANCH   2   3
ENDBRANCH   1   2
BRANCH   1   5
ATOM      5  C   UNL     1     -18.027  56.294   0.298  1.00  0.00     0.035 C 
BRANCH   5   6
ATOM      6  C   UNL     1     -18.161  56.343  -1.200  1.00  0.00    -0.048 A 
ATOM      7  C   UNL     1     -19.397  56.073  -1.812  1.00  0.00     0.004 A 
ATOM      8  C   UNL     1     -17.038  56.605  -2.004  1.00  0.00     0.004 A 
ATOM      9  C   UNL     1     -19.512  56.088  -3.204  1.00  0.00     0.000 A 
ATOM     10  C   UNL     1     -17.158  56.619  -3.397  1.00  0.00     0.000 A 
ATOM     11  C   UNL     1     -18.394  56.363  -3.997  1.00  0.00     0.000 A 
ENDBRANCH   5   6
ENDBRANCH   1   5
TORSDOF 4
ENDMDL
MODEL 2
REMARK VINA RESULT:    -5.275      3.468      5.395
REMARK INTER + INTRA:          -6.892
REMARK INTER:                  -6.376
REMARK INTRA:                  -0.517
REMARK UNBOUND:                -0.384
REMARK SMILES CCCCCc1ccccc1
REMARK SMILES IDX 4 1 3 2 2 3 1 4 5 5 6 6 7 7 11 8 8 9 10 10 9 11
REMARK H PARENT
REMARK Flexibility Score: inf
ROOT
ATOM      1  C   UNL     1     -21.052  53.171  -1.750  1.00  0.00     0.005 C 
ENDROOT
BRANCH   1   2
ATOM      2  C   UNL     1     -21.344  53.341  -0.254  1.00  0.00     0.000 C 
BRANCH   2   3
ATOM      3  C   UNL     1     -22.626  54.151  -0.032  1.00  0.00    -0.003 C 
ATOM      4  C   UNL     1     -23.211  54.630  -1.357  1.00  0.00     0.004 C 
ENDBRANCH   2   3
ENDBRANCH   1   2
BRANCH   1   5
ATOM      5  C   UNL     1     -19.546  53.048  -2.008  1.00  0.00     0.035 C 
BRANCH   5   6
ATOM      6  C   UNL     1     -19.001  54.332  -2.573  1.00  0.00    -0.048 A 
ATOM      7  C   UNL     1     -17.614  54.549  -2.633  1.00  0.00     0.004 A 
ATOM      8  C   UNL     1     -19.874  55.349  -2.995  1.00  0.00     0.004 A 
ATOM      9  C   UNL     1     -17.109  55.754  -3.128  1.00  0.00     0.000 A 
ATOM     10  C   UNL     1     -19.366  56.553  -3.491  1.00  0.00     0.000 A 
ATOM     11  C   UNL     1     -17.984  56.755  -3.559  1.00  0.00     0.000 A 
ENDBRANCH   5   6
ENDBRANCH   1   5
TORSDOF 4
ENDMDL
MODEL 3
REMARK VINA RESULT:    -5.219      3.621      5.280
REMARK INTER + INTRA:          -6.824
REMARK INTER:                  -6.299
REMARK INTRA:                  -0.525
REMARK UNBOUND:                -0.384
REMARK SMILES CCCCCc1ccccc1
REMARK SMILES IDX 4 1 3 2 2 3 1 4 5 5 6 6 7 7 11 8 8 9 10 10 9 11
REMARK H PARENT
REMARK Flexibility Score: inf
ROOT
ATOM      1  C   UNL     1     -21.216  53.181  -1.724  1.00  0.00     0.005 C 
ENDROOT
BRANCH   1   2
ATOM      2  C   UNL     1     -21.647  53.495  -0.286  1.00  0.00     0.000 C 
BRANCH   2   3
ATOM      3  C   UNL     1     -22.749  54.560  -0.261  1.00  0.00    -0.003 C 
ATOM      4  C   UNL     1     -23.445  54.663  -1.615  1.00  0.00     0.004 C 
ENDBRANCH   2   3
ENDBRANCH   1   2
BRANCH   1   5
ATOM      5  C   UNL     1     -19.690  53.114  -1.840  1.00  0.00     0.035 C 
BRANCH   5   6
ATOM      6  C   UNL     1     -19.154  54.365  -2.482  1.00  0.00    -0.048 A 
ATOM      7  C   UNL     1     -20.033  55.371  -2.919  1.00  0.00     0.004 A 
ATOM      8  C   UNL     1     -17.774  54.514  -2.701  1.00  0.00     0.004 A 
ATOM      9  C   UNL     1     -19.536  56.518  -3.543  1.00  0.00     0.000 A 
ATOM     10  C   UNL     1     -17.281  55.663  -3.327  1.00  0.00     0.000 A 
ATOM     11  C   UNL     1     -18.161  56.665  -3.745  1.00  0.00     0.000 A 
ENDBRANCH   5   6
ENDBRANCH   1   5
TORSDOF 4
ENDMDL
MODEL 4
REMARK VINA RESULT:    -5.183      3.588      5.205
REMARK INTER + INTRA:          -6.779
REMARK INTER:                  -6.262
REMARK INTRA:                  -0.517
REMARK UNBOUND:                -0.384
REMARK SMILES CCCCCc1ccccc1
REMARK SMILES IDX 4 1 3 2 2 3 1 4 5 5 6 6 7 7 11 8 8 9 10 10 9 11
REMARK H PARENT
REMARK Flexibility Score: inf
ROOT
ATOM      1  C   UNL     1     -18.857  53.875  -3.190  1.00  0.00     0.005 C 
ENDROOT
BRANCH   1   2
ATOM      2  C   UNL     1     -17.644  54.535  -2.522  1.00  0.00     0.000 C 
BRANCH   2   3
ATOM      3  C   UNL     1     -17.208  55.789  -3.288  1.00  0.00    -0.003 C 
ATOM      4  C   UNL     1     -18.416  56.601  -3.748  1.00  0.00     0.004 C 
ENDBRANCH   2   3
ENDBRANCH   1   2
BRANCH   1   5
ATOM      5  C   UNL     1     -19.630  53.006  -2.193  1.00  0.00     0.035 C 
BRANCH   5   6
ATOM      6  C   UNL     1     -20.854  53.729  -1.700  1.00  0.00    -0.048 A 
ATOM      7  C   UNL     1     -21.439  53.378  -0.472  1.00  0.00     0.004 A 
ATOM      8  C   UNL     1     -21.455  54.724  -2.489  1.00  0.00     0.004 A 
ATOM      9  C   UNL     1     -22.594  54.028  -0.030  1.00  0.00     0.000 A 
ATOM     10  C   UNL     1     -22.611  55.373  -2.043  1.00  0.00     0.000 A 
ATOM     11  C   UNL     1     -23.179  55.026  -0.814  1.00  0.00     0.000 A 
ENDBRANCH   5   6
ENDBRANCH   1   5
TORSDOF 4
ENDMDL
MODEL 5
REMARK VINA RESULT:    -5.172      2.207      4.039
REMARK INTER + INTRA:          -6.766
REMARK INTER:                  -5.877
REMARK INTRA:                  -0.889
REMARK UNBOUND:                -0.384
REMARK SMILES CCCCCc1ccccc1
REMARK SMILES IDX 4 1 3 2 2 3 1 4 5 5 6 6 7 7 11 8 8 9 10 10 9 11
REMARK H PARENT
REMARK Flexibility Score: inf
ROOT
ATOM      1  C   UNL     1     -18.092  56.614  -2.963  1.00  0.00     0.005 C 
ENDROOT
BRANCH   1   2
ATOM      2  C   UNL     1     -17.216  56.342  -1.734  1.00  0.00     0.000 C 
BRANCH   2   3
ATOM      3  C   UNL     1     -17.963  56.686  -0.440  1.00  0.00    -0.003 C 
ATOM      4  C   UNL     1     -18.211  55.437   0.401  1.00  0.00     0.004 C 
ENDBRANCH   2   3
ENDBRANCH   1   2
BRANCH   1   5
ATOM      5  C   UNL     1     -18.464  55.309  -3.675  1.00  0.00     0.035 C 
BRANCH   5   6
ATOM      6  C   UNL     1     -19.560  54.595  -2.930  1.00  0.00    -0.048 A 
ATOM      7  C   UNL     1     -20.754  55.265  -2.612  1.00  0.00     0.004 A 
ATOM      8  C   UNL     1     -19.378  53.271  -2.498  1.00  0.00     0.004 A 
ATOM      9  C   UNL     1     -21.758  54.611  -1.893  1.00  0.00     0.000 A 
ATOM     10  C   UNL     1     -20.386  52.620  -1.779  1.00  0.00     0.000 A 
ATOM     11  C   UNL     1     -21.575  53.289  -1.478  1.00  0.00     0.000 A 
ENDBRANCH   5   6
ENDBRANCH   1   5
TORSDOF 4
ENDMDL
MODEL 6
REMARK VINA RESULT:    -5.083      3.459      5.447
REMARK INTER + INTRA:          -6.656
REMARK INTER:                  -6.127
REMARK INTRA:                  -0.529
REMARK UNBOUND:                -0.384
REMARK SMILES CCCCCc1ccccc1
REMARK SMILES IDX 4 1 3 2 2 3 1 4 5 5 6 6 7 7 11 8 8 9 10 10 9 11
REMARK H PARENT
REMARK Flexibility Score: inf
ROOT
ATOM      1  C   UNL     1     -21.807  56.348  -2.216  1.00  0.00     0.005 C 
ENDROOT
BRANCH   1   2
ATOM      2  C   UNL     1     -22.962  55.402  -2.565  1.00  0.00     0.000 C 
BRANCH   2   3
ATOM      3  C   UNL     1     -23.025  54.226  -1.583  1.00  0.00    -0.003 C 
ATOM      4  C   UNL     1     -22.421  54.602  -0.234  1.00  0.00     0.004 C 
ENDBRANCH   2   3
ENDBRANCH   1   2
BRANCH   1   5
ATOM      5  C   UNL     1     -20.902  56.585  -3.431  1.00  0.00     0.035 C 
BRANCH   5   6
ATOM      6  C   UNL     1     -19.521  56.046  -3.173  1.00  0.00    -0.048 A 
ATOM      7  C   UNL     1     -18.395  56.696  -3.705  1.00  0.00     0.004 A 
ATOM      8  C   UNL     1     -19.348  54.857  -2.444  1.00  0.00     0.004 A 
ATOM      9  C   UNL     1     -17.115  56.177  -3.492  1.00  0.00     0.000 A 
ATOM     10  C   UNL     1     -18.066  54.341  -2.233  1.00  0.00     0.000 A 
ATOM     11  C   UNL     1     -16.950  55.002  -2.755  1.00  0.00     0.000 A 
ENDBRANCH   5   6
ENDBRANCH   1   5
TORSDOF 4
ENDMDL
MODEL 7
REMARK VINA RESULT:    -5.081      4.002      5.556
REMARK INTER + INTRA:          -6.653
REMARK INTER:                  -6.295
REMARK INTRA:                  -0.358
REMARK UNBOUND:                -0.384
REMARK SMILES CCCCCc1ccccc1
REMARK SMILES IDX 4 1 3 2 2 3 1 4 5 5 6 6 7 7 11 8 8 9 10 10 9 11
REMARK H PARENT
REMARK Flexibility Score: inf
ROOT
ATOM      1  C   UNL     1     -22.381  54.299  -1.159  1.00  0.00     0.005 C 
ENDROOT
BRANCH   1   2
ATOM      2  C   UNL     1     -22.173  55.208   0.059  1.00  0.00     0.000 C 
BRANCH   2   3
ATOM      3  C   UNL     1     -23.461  55.332   0.880  1.00  0.00    -0.003 C 
ATOM      4  C   UNL     1     -23.802  54.016   1.573  1.00  0.00     0.004 C 
ENDBRANCH   2   3
ENDBRANCH   1   2
BRANCH   1   5
ATOM      5  C   UNL     1     -22.242  55.087  -2.466  1.00  0.00     0.035 C 
BRANCH   5   6
ATOM      6  C   UNL     1     -20.792  55.235  -2.841  1.00  0.00    -0.048 A 
ATOM      7  C   UNL     1     -20.293  56.477  -3.267  1.00  0.00     0.004 A 
ATOM      8  C   UNL     1     -19.937  54.120  -2.821  1.00  0.00     0.004 A 
ATOM      9  C   UNL     1     -18.953  56.606  -3.645  1.00  0.00     0.000 A 
ATOM     10  C   UNL     1     -18.597  54.254  -3.200  1.00  0.00     0.000 A 
ATOM     11  C   UNL     1     -18.106  55.496  -3.610  1.00  0.00     0.000 A 
ENDBRANCH   5   6
ENDBRANCH   1   5
TORSDOF 4
ENDMDL
MODEL 8
REMARK VINA RESULT:    -5.015      2.461      4.987
REMARK INTER + INTRA:          -6.572
REMARK INTER:                  -5.902
REMARK INTRA:                  -0.670
REMARK UNBOUND:                -0.384
REMARK SMILES CCCCCc1ccccc1
REMARK SMILES IDX 4 1 3 2 2 3 1 4 5 5 6 6 7 7 11 8 8 9 10 10 9 11
REMARK H PARENT
REMARK Flexibility Score: inf
ROOT
ATOM      1  C   UNL     1     -21.678  54.634  -2.114  1.00  0.00     0.005 C 
ENDROOT
BRANCH   1   2
ATOM      2  C   UNL     1     -21.866  53.895  -0.784  1.00  0.00     0.000 C 
BRANCH   2   3
ATOM      3  C   UNL     1     -20.742  52.878  -0.556  1.00  0.00    -0.003 C 
ATOM      4  C   UNL     1     -20.033  52.538  -1.864  1.00  0.00     0.004 C 
ENDBRANCH   2   3
ENDBRANCH   1   2
BRANCH   1   5
ATOM      5  C   UNL     1     -21.194  56.070  -1.885  1.00  0.00     0.035 C 
BRANCH   5   6
ATOM      6  C   UNL     1     -19.737  56.198  -2.238  1.00  0.00    -0.048 A 
ATOM      7  C   UNL     1     -18.753  56.081  -1.241  1.00  0.00     0.004 A 
ATOM      8  C   UNL     1     -19.349  56.490  -3.556  1.00  0.00     0.004 A 
ATOM      9  C   UNL     1     -17.401  56.232  -1.564  1.00  0.00     0.000 A 
ATOM     10  C   UNL     1     -17.996  56.640  -3.875  1.00  0.00     0.000 A 
ATOM     11  C   UNL     1     -17.023  56.509  -2.881  1.00  0.00     0.000 A 
ENDBRANCH   5   6
ENDBRANCH   1   5
TORSDOF 4
ENDMDL
MODEL 9
REMARK VINA RESULT:    -4.973      4.056      5.916
REMARK INTER + INTRA:          -6.520
REMARK INTER:                  -6.010
REMARK INTRA:                  -0.510
REMARK UNBOUND:                -0.384
REMARK SMILES CCCCCc1ccccc1
REMARK SMILES IDX 4 1 3 2 2 3 1 4 5 5 6 6 7 7 11 8 8 9 10 10 9 11
REMARK H PARENT
REMARK Flexibility Score: inf
ROOT
ATOM      1  C   UNL     1     -19.985  53.536  -2.872  1.00  0.00     0.005 C 
ENDROOT
BRANCH   1   2
ATOM      2  C   UNL     1     -18.540  54.039  -2.769  1.00  0.00     0.000 C 
BRANCH   2   3
ATOM      3  C   UNL     1     -18.338  55.308  -3.603  1.00  0.00    -0.003 C 
ATOM      4  C   UNL     1     -19.433  56.333  -3.321  1.00  0.00     0.004 C 
ENDBRANCH   2   3
ENDBRANCH   1   2
BRANCH   1   5
ATOM      5  C   UNL     1     -20.491  53.030  -1.517  1.00  0.00     0.035 C 
BRANCH   5   6
ATOM      6  C   UNL     1     -21.760  53.739  -1.128  1.00  0.00    -0.048 A 
ATOM      7  C   UNL     1     -22.454  54.518  -2.070  1.00  0.00     0.004 A 
ATOM      8  C   UNL     1     -22.233  53.674   0.193  1.00  0.00     0.004 A 
ATOM      9  C   UNL     1     -23.615  55.201  -1.700  1.00  0.00     0.000 A 
ATOM     10  C   UNL     1     -23.395  54.360   0.559  1.00  0.00     0.000 A 
ATOM     11  C   UNL     1     -24.087  55.121  -0.387  1.00  0.00     0.000 A 
ENDBRANCH   5   6
ENDBRANCH   1   5
TORSDOF 4
ENDMDL
