MODEL 1
REMARK VINA RESULT:    -4.584      0.000      0.000
REMARK INTER + INTRA:          -6.078
REMARK INTER:                  -5.790
REMARK INTRA:                  -0.288
REMARK UNBOUND:                -0.288
REMARK SMILES C=C[C@@](C)(O)CCC=C(C)C
REMARK SMILES IDX 6 1 7 2 8 3 10 4 9 5 11 6 3 7 4 8 2 9 1 10 5 11
REMARK H PARENT 5 12
REMARK Flexibility Score: inf
ROOT
ATOM      1  C   UNL     1      39.186 -41.288  -4.408  1.00  0.00     0.043 C 
ENDROOT
BRANCH   1   2
ATOM      2  C   UNL     1      40.240 -40.435  -5.145  1.00  0.00     0.030 C 
BRANCH   2   3
ATOM      3  C   UNL     1      41.374 -41.263  -5.699  1.00  0.00    -0.028 C 
ATOM      4  C   UNL     1      43.068 -40.322  -4.110  1.00  0.00     0.039 C 
ATOM      5  C   UNL     1      42.638 -41.251  -5.219  1.00  0.00    -0.080 C 
ATOM      6  C   UNL     1      43.686 -42.132  -5.850  1.00  0.00     0.039 C 
ENDBRANCH   2   3
ENDBRANCH   1   2
BRANCH   1   7
ATOM      7  C   UNL     1      37.735 -40.736  -4.473  1.00  0.00     0.080 C 
ATOM      8  C   UNL     1      37.512 -39.764  -3.295  1.00  0.00     0.047 C 
BRANCH   7   9
ATOM      9  C   UNL     1      37.473 -40.023  -5.793  1.00  0.00    -0.001 C 
ATOM     10  C   UNL     1      37.131 -38.731  -5.871  1.00  0.00     0.007 C 
ENDBRANCH   7   9
BRANCH   7  11
ATOM     11  O   UNL     1      36.841 -41.816  -4.337  1.00  0.00    -0.386 OA
ATOM     12  H   UNL     1      36.605 -41.905  -3.376  1.00  0.00     0.211 HD
ENDBRANCH   7  11
ENDBRANCH   1   7
TORSDOF 5
ENDMDL
MODEL 2
REMARK VINA RESULT:    -4.503      1.776      2.265
REMARK INTER + INTRA:          -5.975
REMARK INTER:                  -5.266
REMARK INTRA:                  -0.709
REMARK UNBOUND:                -0.288
REMARK SMILES C=C[C@@](C)(O)CCC=C(C)C
REMARK SMILES IDX 6 1 7 2 8 3 10 4 9 5 11 6 3 7 4 8 2 9 1 10 5 11
REMARK H PARENT 5 12
REMARK Flexibility Score: inf
ROOT
ATOM      1  C   UNL     1      39.297 -41.154  -4.180  1.00  0.00     0.043 C 
ENDROOT
BRANCH   1   2
ATOM      2  C   UNL     1      40.101 -40.534  -5.341  1.00  0.00     0.030 C 
BRANCH   2   3
ATOM      3  C   UNL     1      41.300 -41.366  -5.729  1.00  0.00    -0.028 C 
ATOM      4  C   UNL     1      42.902 -40.004  -4.366  1.00  0.00     0.039 C 
ATOM      5  C   UNL     1      42.555 -41.163  -5.267  1.00  0.00    -0.080 C 
ATOM      6  C   UNL     1      43.672 -42.069  -5.718  1.00  0.00     0.039 C 
ENDBRANCH   2   3
ENDBRANCH   1   2
BRANCH   1   7
ATOM      7  C   UNL     1      39.155 -40.249  -2.925  1.00  0.00     0.080 C 
ATOM      8  C   UNL     1      40.044 -40.811  -1.794  1.00  0.00     0.047 C 
BRANCH   7   9
ATOM      9  C   UNL     1      39.551 -38.810  -3.232  1.00  0.00    -0.001 C 
ATOM     10  C   UNL     1      40.373 -38.096  -2.454  1.00  0.00     0.007 C 
ENDBRANCH   7   9
BRANCH   7  11
ATOM     11  O   UNL     1      37.812 -40.285  -2.499  1.00  0.00    -0.386 OA
ATOM     12  H   UNL     1      37.575 -39.387  -2.145  1.00  0.00     0.211 HD
ENDBRANCH   7  11
ENDBRANCH   1   7
TORSDOF 5
ENDMDL
MODEL 3
REMARK VINA RESULT:    -4.417      1.501      2.116
REMARK INTER + INTRA:          -5.867
REMARK INTER:                  -5.528
REMARK INTRA:                  -0.339
REMARK UNBOUND:                -0.288
REMARK SMILES C=C[C@@](C)(O)CCC=C(C)C
REMARK SMILES IDX 6 1 7 2 8 3 10 4 9 5 11 6 3 7 4 8 2 9 1 10 5 11
REMARK H PARENT 5 12
REMARK Flexibility Score: inf
ROOT
ATOM      1  C   UNL     1      39.776 -39.464  -5.409  1.00  0.00     0.043 C 
ENDROOT
BRANCH   1   2
ATOM      2  C   UNL     1      40.201 -40.867  -4.927  1.00  0.00     0.030 C 
BRANCH   2   3
ATOM      3  C   UNL     1      41.430 -41.380  -5.638  1.00  0.00    -0.028 C 
ATOM      4  C   UNL     1      43.009 -40.542  -3.883  1.00  0.00     0.039 C 
ATOM      5  C   UNL     1      42.691 -41.276  -5.162  1.00  0.00    -0.080 C 
ATOM      6  C   UNL     1      43.839 -41.839  -5.960  1.00  0.00     0.039 C 
ENDBRANCH   2   3
ENDBRANCH   1   2
BRANCH   1   7
ATOM      7  C   UNL     1      38.306 -39.358  -5.901  1.00  0.00     0.080 C 
ATOM      8  C   UNL     1      38.277 -39.487  -7.439  1.00  0.00     0.047 C 
BRANCH   7   9
ATOM      9  C   UNL     1      37.433 -40.435  -5.271  1.00  0.00    -0.001 C 
ATOM     10  C   UNL     1      36.661 -40.217  -4.199  1.00  0.00     0.007 C 
ENDBRANCH   7   9
BRANCH   7  11
ATOM     11  O   UNL     1      37.810 -38.087  -5.549  1.00  0.00    -0.386 OA
ATOM     12  H   UNL     1      37.589 -37.597  -6.386  1.00  0.00     0.211 HD
ENDBRANCH   7  11
ENDBRANCH   1   7
TORSDOF 5
ENDMDL
MODEL 4
REMARK VINA RESULT:    -4.341      1.411      1.738
REMARK INTER + INTRA:          -5.771
REMARK INTER:                  -5.379
REMARK INTRA:                  -0.392
REMARK UNBOUND:                -0.288
REMARK SMILES C=C[C@@](C)(O)CCC=C(C)C
REMARK SMILES IDX 6 1 7 2 8 3 10 4 9 5 11 6 3 7 4 8 2 9 1 10 5 11
REMARK H PARENT 5 12
REMARK Flexibility Score: inf
ROOT
ATOM      1  C   UNL     1      39.361 -41.163  -4.171  1.00  0.00     0.043 C 
ENDROOT
BRANCH   1   2
ATOM      2  C   UNL     1      40.161 -40.539  -5.334  1.00  0.00     0.030 C 
BRANCH   2   3
ATOM      3  C   UNL     1      41.350 -41.377  -5.738  1.00  0.00    -0.028 C 
ATOM      4  C   UNL     1      42.981 -40.017  -4.408  1.00  0.00     0.039 C 
ATOM      5  C   UNL     1      42.613 -41.178  -5.299  1.00  0.00    -0.080 C 
ATOM      6  C   UNL     1      43.719 -42.091  -5.765  1.00  0.00     0.039 C 
ENDBRANCH   2   3
ENDBRANCH   1   2
BRANCH   1   7
ATOM      7  C   UNL     1      38.891 -40.156  -3.085  1.00  0.00     0.080 C 
ATOM      8  C   UNL     1      39.853 -38.948  -3.067  1.00  0.00     0.047 C 
BRANCH   7   9
ATOM      9  C   UNL     1      37.467 -39.683  -3.348  1.00  0.00    -0.001 C 
ATOM     10  C   UNL     1      36.662 -40.254  -4.253  1.00  0.00     0.007 C 
ENDBRANCH   7   9
BRANCH   7  11
ATOM     11  O   UNL     1      38.949 -40.794  -1.830  1.00  0.00    -0.386 OA
ATOM     12  H   UNL     1      38.154 -40.515  -1.303  1.00  0.00     0.211 HD
ENDBRANCH   7  11
ENDBRANCH   1   7
TORSDOF 5
ENDMDL
MODEL 5
REMARK VINA RESULT:    -4.325      2.249      5.353
REMARK INTER + INTRA:          -5.751
REMARK INTER:                  -5.406
REMARK INTRA:                  -0.345
REMARK UNBOUND:                -0.288
REMARK SMILES C=C[C@@](C)(O)CCC=C(C)C
REMARK SMILES IDX 6 1 7 2 8 3 10 4 9 5 11 6 3 7 4 8 2 9 1 10 5 11
REMARK H PARENT 5 12
REMARK Flexibility Score: inf
ROOT
ATOM      1  C   UNL     1      41.063 -40.312  -3.943  1.00  0.00     0.043 C 
ENDROOT
BRANCH   1   2
ATOM      2  C   UNL     1      40.274 -40.981  -5.089  1.00  0.00     0.030 C 
BRANCH   2   3
ATOM      3  C   UNL     1      39.431 -39.999  -5.866  1.00  0.00    -0.028 C 
ATOM      4  C   UNL     1      37.272 -40.812  -4.887  1.00  0.00     0.039 C 
ATOM      5  C   UNL     1      38.088 -39.886  -5.755  1.00  0.00    -0.080 C 
ATOM      6  C   UNL     1      37.355 -38.857  -6.577  1.00  0.00     0.039 C 
ENDBRANCH   2   3
ENDBRANCH   1   2
BRANCH   1   7
ATOM      7  C   UNL     1      42.602 -40.261  -4.151  1.00  0.00     0.080 C 
ATOM      8  C   UNL     1      43.302 -40.719  -2.854  1.00  0.00     0.047 C 
BRANCH   7   9
ATOM      9  C   UNL     1      43.033 -41.144  -5.315  1.00  0.00    -0.001 C 
ATOM     10  C   UNL     1      44.066 -41.993  -5.246  1.00  0.00     0.007 C 
ENDBRANCH   7   9
BRANCH   7  11
ATOM     11  O   UNL     1      42.972 -38.927  -4.412  1.00  0.00    -0.386 OA
ATOM     12  H   UNL     1      43.873 -38.772  -4.021  1.00  0.00     0.211 HD
ENDBRANCH   7  11
ENDBRANCH   1   7
TORSDOF 5
ENDMDL
MODEL 6
REMARK VINA RESULT:    -4.208      2.120      2.524
REMARK INTER + INTRA:          -5.603
REMARK INTER:                  -5.050
REMARK INTRA:                  -0.553
REMARK UNBOUND:                -0.288
REMARK SMILES C=C[C@@](C)(O)CCC=C(C)C
REMARK SMILES IDX 6 1 7 2 8 3 10 4 9 5 11 6 3 7 4 8 2 9 1 10 5 11
REMARK H PARENT 5 12
REMARK Flexibility Score: inf
ROOT
ATOM      1  C   UNL     1      39.388 -39.975  -6.204  1.00  0.00     0.043 C 
ENDROOT
BRANCH   1   2
ATOM      2  C   UNL     1      40.127 -40.879  -5.194  1.00  0.00     0.030 C 
BRANCH   2   3
ATOM      3  C   UNL     1      41.407 -41.452  -5.754  1.00  0.00    -0.028 C 
ATOM      4  C   UNL     1      42.861 -40.314  -4.060  1.00  0.00     0.039 C 
ATOM      5  C   UNL     1      42.635 -41.238  -5.231  1.00  0.00    -0.080 C 
ATOM      6  C   UNL     1      43.841 -41.876  -5.873  1.00  0.00     0.039 C 
ENDBRANCH   2   3
ENDBRANCH   1   2
BRANCH   1   7
ATOM      7  C   UNL     1      38.866 -38.633  -5.621  1.00  0.00     0.080 C 
ATOM      8  C   UNL     1      37.432 -38.838  -5.087  1.00  0.00     0.047 C 
BRANCH   7   9
ATOM      9  C   UNL     1      39.769 -38.125  -4.504  1.00  0.00    -0.001 C 
ATOM     10  C   UNL     1      40.736 -37.219  -4.700  1.00  0.00     0.007 C 
ENDBRANCH   7   9
BRANCH   7  11
ATOM     11  O   UNL     1      38.824 -37.681  -6.659  1.00  0.00    -0.386 OA
ATOM     12  H   UNL     1      39.523 -37.919  -7.326  1.00  0.00     0.211 HD
ENDBRANCH   7  11
ENDBRANCH   1   7
TORSDOF 5
ENDMDL
MODEL 7
REMARK VINA RESULT:    -4.066      3.633      5.210
REMARK INTER + INTRA:          -5.424
REMARK INTER:                  -5.211
REMARK INTRA:                  -0.212
REMARK UNBOUND:                -0.288
REMARK SMILES C=C[C@@](C)(O)CCC=C(C)C
REMARK SMILES IDX 6 1 7 2 8 3 10 4 9 5 11 6 3 7 4 8 2 9 1 10 5 11
REMARK H PARENT 5 12
REMARK Flexibility Score: inf
ROOT
ATOM      1  C   UNL     1      41.629 -40.551  -2.120  1.00  0.00     0.043 C 
ENDROOT
BRANCH   1   2
ATOM      2  C   UNL     1      42.265 -39.775  -3.293  1.00  0.00     0.030 C 
BRANCH   2   3
ATOM      3  C   UNL     1      43.159 -40.642  -4.147  1.00  0.00    -0.028 C 
ATOM      4  C   UNL     1      41.315 -41.311  -5.706  1.00  0.00     0.039 C 
ATOM      5  C   UNL     1      42.755 -41.304  -5.254  1.00  0.00    -0.080 C 
ATOM      6  C   UNL     1      43.745 -42.131  -6.034  1.00  0.00     0.039 C 
ENDBRANCH   2   3
ENDBRANCH   1   2
BRANCH   1   7
ATOM      7  C   UNL     1      42.419 -40.478  -0.783  1.00  0.00     0.080 C 
ATOM      8  C   UNL     1      42.844 -39.016  -0.527  1.00  0.00     0.047 C 
BRANCH   7   9
ATOM      9  C   UNL     1      41.582 -40.988   0.383  1.00  0.00    -0.001 C 
ATOM     10  C   UNL     1      41.802 -42.166   0.981  1.00  0.00     0.007 C 
ENDBRANCH   7   9
BRANCH   7  11
ATOM     11  O   UNL     1      43.580 -41.266  -0.908  1.00  0.00    -0.386 OA
ATOM     12  H   UNL     1      43.982 -41.088  -1.799  1.00  0.00     0.211 HD
ENDBRANCH   7  11
ENDBRANCH   1   7
TORSDOF 5
ENDMDL
MODEL 8
REMARK VINA RESULT:    -3.973      3.315      5.272
REMARK INTER + INTRA:          -5.306
REMARK INTER:                  -5.022
REMARK INTRA:                  -0.284
REMARK UNBOUND:                -0.288
REMARK SMILES C=C[C@@](C)(O)CCC=C(C)C
REMARK SMILES IDX 6 1 7 2 8 3 10 4 9 5 11 6 3 7 4 8 2 9 1 10 5 11
REMARK H PARENT 5 12
REMARK Flexibility Score: inf
ROOT
ATOM      1  C   UNL     1      42.838 -39.413  -1.874  1.00  0.00     0.043 C 
ENDROOT
BRANCH   1   2
ATOM      2  C   UNL     1      42.174 -39.932  -3.168  1.00  0.00     0.030 C 
BRANCH   2   3
ATOM      3  C   UNL     1      43.130 -40.708  -4.041  1.00  0.00    -0.028 C 
ATOM      4  C   UNL     1      41.357 -41.386  -5.677  1.00  0.00     0.039 C 
ATOM      5  C   UNL     1      42.784 -41.332  -5.190  1.00  0.00    -0.080 C 
ATOM      6  C   UNL     1      43.832 -42.068  -5.985  1.00  0.00     0.039 C 
ENDBRANCH   2   3
ENDBRANCH   1   2
BRANCH   1   7
ATOM      7  C   UNL     1      42.480 -40.211  -0.590  1.00  0.00     0.080 C 
ATOM      8  C   UNL     1      43.565 -41.281  -0.341  1.00  0.00     0.047 C 
BRANCH   7   9
ATOM      9  C   UNL     1      42.368 -39.291   0.620  1.00  0.00    -0.001 C 
ATOM     10  C   UNL     1      42.983 -38.105   0.696  1.00  0.00     0.007 C 
ENDBRANCH   7   9
BRANCH   7  11
ATOM     11  O   UNL     1      41.248 -40.863  -0.799  1.00  0.00    -0.386 OA
ATOM     12  H   UNL     1      40.579 -40.182  -1.073  1.00  0.00     0.211 HD
ENDBRANCH   7  11
ENDBRANCH   1   7
TORSDOF 5
ENDMDL
MODEL 9
REMARK VINA RESULT:    -3.928      2.318      4.991
REMARK INTER + INTRA:          -5.250
REMARK INTER:                  -4.780
REMARK INTRA:                  -0.470
REMARK UNBOUND:                -0.288
REMARK SMILES C=C[C@@](C)(O)CCC=C(C)C
REMARK SMILES IDX 6 1 7 2 8 3 10 4 9 5 11 6 3 7 4 8 2 9 1 10 5 11
REMARK H PARENT 5 12
REMARK Flexibility Score: inf
ROOT
ATOM      1  C   UNL     1      40.933 -40.538  -3.841  1.00  0.00     0.043 C 
ENDROOT
BRANCH   1   2
ATOM      2  C   UNL     1      40.372 -41.070  -5.176  1.00  0.00     0.030 C 
BRANCH   2   3
ATOM      3  C   UNL     1      39.499 -40.062  -5.883  1.00  0.00    -0.028 C 
ATOM      4  C   UNL     1      37.380 -40.915  -4.852  1.00  0.00     0.039 C 
ATOM      5  C   UNL     1      38.161 -39.956  -5.717  1.00  0.00    -0.080 C 
ATOM      6  C   UNL     1      37.395 -38.899  -6.471  1.00  0.00     0.039 C 
ENDBRANCH   2   3
ENDBRANCH   1   2
BRANCH   1   7
ATOM      7  C   UNL     1      42.453 -40.214  -3.852  1.00  0.00     0.080 C 
ATOM      8  C   UNL     1      43.140 -41.053  -4.950  1.00  0.00     0.047 C 
BRANCH   7   9
ATOM      9  C   UNL     1      42.701 -38.731  -4.097  1.00  0.00    -0.001 C 
ATOM     10  C   UNL     1      41.747 -37.799  -3.976  1.00  0.00     0.007 C 
ENDBRANCH   7   9
BRANCH   7  11
ATOM     11  O   UNL     1      42.995 -40.580  -2.604  1.00  0.00    -0.386 OA
ATOM     12  H   UNL     1      43.646 -39.880  -2.331  1.00  0.00     0.211 HD
ENDBRANCH   7  11
ENDBRANCH   1   7
TORSDOF 5
ENDMDL
