MODEL 1
REMARK VINA RESULT:    -4.788      0.000      0.000
REMARK INTER + INTRA:         -13.769
REMARK INTER:                 -10.387
REMARK INTRA:                  -3.382
REMARK UNBOUND:                -3.382
REMARK SMILES CCCCCCCCCCCCCCCCCCCCCC(=O)[O-]
REMARK SMILES IDX 12 1 11 2 10 3 9 4 8 5 7 6 6 7 5 8 4 9 3 10 2 11 1 12 13 13
REMARK SMILES IDX 14 14 15 15 16 16 17 17 18 18 19 19 20 20 21 21 22 22 23 23
REMARK SMILES IDX 24 24
REMARK H PARENT
REMARK Flexibility Score: inf
ROOT
ATOM      1  C   UNL     1      63.128  29.058   9.298  1.00  0.00     0.000 C 
ENDROOT
BRANCH   1   2
ATOM      2  C   UNL     1      61.945  30.004   9.032  1.00  0.00     0.000 C 
BRANCH   2   3
ATOM      3  C   UNL     1      60.803  29.817  10.041  1.00  0.00     0.000 C 
BRANCH   3   4
ATOM      4  C   UNL     1      61.089  28.639  10.981  1.00  0.00    -0.000 C 
BRANCH   4   5
ATOM      5  C   UNL     1      60.242  28.731  12.257  1.00  0.00    -0.000 C 
BRANCH   5   6
ATOM      6  C   UNL     1      61.133  28.730  13.509  1.00  0.00    -0.000 C 
BRANCH   6   7
ATOM      7  C   UNL     1      62.605  29.044  13.198  1.00  0.00    -0.000 C 
BRANCH   7   8
ATOM      8  C   UNL     1      63.155  30.208  14.041  1.00  0.00    -0.000 C 
BRANCH   8   9
ATOM      9  C   UNL     1      62.220  30.602  15.197  1.00  0.00    -0.000 C 
BRANCH   9  10
ATOM     10  C   UNL     1      61.443  31.916  14.991  1.00  0.00    -0.000 C 
BRANCH  10  11
ATOM     11  C   UNL     1      61.719  32.567  13.627  1.00  0.00    -0.003 C 
ATOM     12  C   UNL     1      60.523  32.415  12.691  1.00  0.00     0.004 C 
ENDBRANCH  10  11
ENDBRANCH   9  10
ENDBRANCH   8   9
ENDBRANCH   7   8
ENDBRANCH   6   7
ENDBRANCH   5   6
ENDBRANCH   4   5
ENDBRANCH   3   4
ENDBRANCH   2   3
ENDBRANCH   1   2
BRANCH   1  13
ATOM     13  C   UNL     1      64.481  29.793   9.298  1.00  0.00     0.000 C 
BRANCH  13  14
ATOM     14  C   UNL     1      64.368  31.224   9.864  1.00  0.00     0.000 C 
BRANCH  14  15
ATOM     15  C   UNL     1      65.220  31.463  11.123  1.00  0.00     0.000 C 
BRANCH  15  16
ATOM     16  C   UNL     1      64.767  32.693  11.925  1.00  0.00     0.000 C 
BRANCH  16  17
ATOM     17  C   UNL     1      65.945  33.519  12.473  1.00  0.00     0.000 C 
BRANCH  17  18
ATOM     18  C   UNL     1      65.637  34.335  13.745  1.00  0.00     0.000 C 
BRANCH  18  19
ATOM     19  C   UNL     1      65.145  33.481  14.933  1.00  0.00     0.000 C 
BRANCH  19  20
ATOM     20  C   UNL     1      64.039  34.189  15.739  1.00  0.00     0.006 C 
BRANCH  20  21
ATOM     21  C   UNL     1      63.981  33.707  17.195  1.00  0.00     0.053 C 
BRANCH  21  22
ATOM     22  C   UNL     1      62.750  34.199  17.895  1.00  0.00     0.041 C 
ATOM     23  O   UNL     1      61.769  34.626  17.229  1.00  0.00    -0.550 OA
ATOM     24  O   UNL     1      62.700  34.218  19.283  1.00  0.00    -0.550 OA
ENDBRANCH  21  22
ENDBRANCH  20  21
ENDBRANCH  19  20
ENDBRANCH  18  19
ENDBRANCH  17  18
ENDBRANCH  16  17
ENDBRANCH  15  16
ENDBRANCH  14  15
ENDBRANCH  13  14
ENDBRANCH   1  13
TORSDOF 20
ENDMDL
MODEL 2
REMARK VINA RESULT:    -4.690      2.147      4.506
REMARK INTER + INTRA:         -13.555
REMARK INTER:                  -9.765
REMARK INTRA:                  -3.790
REMARK UNBOUND:                -3.382
REMARK SMILES CCCCCCCCCCCCCCCCCCCCCC(=O)[O-]
REMARK SMILES IDX 12 1 11 2 10 3 9 4 8 5 7 6 6 7 5 8 4 9 3 10 2 11 1 12 13 13
REMARK SMILES IDX 14 14 15 15 16 16 17 17 18 18 19 19 20 20 21 21 22 22 23 23
REMARK SMILES IDX 24 24
REMARK H PARENT
REMARK Flexibility Score: inf
ROOT
ATOM      1  C   UNL     1      60.011  29.441  12.010  1.00  0.00     0.000 C 
ENDROOT
BRANCH   1   2
ATOM      2  C   UNL     1      60.653  28.447  12.991  1.00  0.00     0.000 C 
BRANCH   2   3
ATOM      3  C   UNL     1      61.952  28.984  13.610  1.00  0.00     0.000 C 
BRANCH   3   4
ATOM      4  C   UNL     1      63.040  29.152  12.543  1.00  0.00    -0.000 C 
BRANCH   4   5
ATOM      5  C   UNL     1      64.101  30.165  12.989  1.00  0.00    -0.000 C 
BRANCH   5   6
ATOM      6  C   UNL     1      63.449  31.480  13.444  1.00  0.00    -0.000 C 
BRANCH   6   7
ATOM      7  C   UNL     1      62.536  32.098  12.373  1.00  0.00    -0.000 C 
BRANCH   7   8
ATOM      8  C   UNL     1      61.273  32.743  12.969  1.00  0.00    -0.000 C 
BRANCH   8   9
ATOM      9  C   UNL     1      61.174  32.565  14.495  1.00  0.00    -0.000 C 
BRANCH   9  10
ATOM     10  C   UNL     1      61.170  33.873  15.307  1.00  0.00    -0.000 C 
BRANCH  10  11
ATOM     11  C   UNL     1      62.170  33.858  16.473  1.00  0.00    -0.003 C 
ATOM     12  C   UNL     1      63.585  34.163  15.990  1.00  0.00     0.004 C 
ENDBRANCH  10  11
ENDBRANCH   9  10
ENDBRANCH   8   9
ENDBRANCH   7   8
ENDBRANCH   6   7
ENDBRANCH   5   6
ENDBRANCH   4   5
ENDBRANCH   3   4
ENDBRANCH   2   3
ENDBRANCH   1   2
BRANCH   1  13
ATOM     13  C   UNL     1      60.080  28.957  10.550  1.00  0.00     0.000 C 
BRANCH  13  14
ATOM     14  C   UNL     1      60.809  29.963   9.635  1.00  0.00     0.000 C 
BRANCH  14  15
ATOM     15  C   UNL     1      62.111  29.417   9.025  1.00  0.00     0.000 C 
BRANCH  15  16
ATOM     16  C   UNL     1      63.240  30.460   8.998  1.00  0.00     0.000 C 
BRANCH  16  17
ATOM     17  C   UNL     1      64.637  29.838   9.177  1.00  0.00     0.000 C 
BRANCH  17  18
ATOM     18  C   UNL     1      65.763  30.840   9.501  1.00  0.00     0.000 C 
BRANCH  18  19
ATOM     19  C   UNL     1      65.259  32.216   9.986  1.00  0.00     0.000 C 
BRANCH  19  20
ATOM     20  C   UNL     1      66.246  32.888  10.959  1.00  0.00     0.006 C 
BRANCH  20  21
ATOM     21  C   UNL     1      65.668  34.165  11.584  1.00  0.00     0.053 C 
BRANCH  21  22
ATOM     22  C   UNL     1      66.131  34.350  12.998  1.00  0.00     0.041 C 
ATOM     23  O   UNL     1      66.328  33.349  13.738  1.00  0.00    -0.550 OA
ATOM     24  O   UNL     1      66.310  35.629  13.509  1.00  0.00    -0.550 OA
ENDBRANCH  21  22
ENDBRANCH  20  21
ENDBRANCH  19  20
ENDBRANCH  18  19
ENDBRANCH  17  18
ENDBRANCH  16  17
ENDBRANCH  15  16
ENDBRANCH  14  15
ENDBRANCH  13  14
ENDBRANCH   1  13
TORSDOF 20
ENDMDL
MODEL 3
REMARK VINA RESULT:    -4.687      1.398      4.118
REMARK INTER + INTRA:         -13.550
REMARK INTER:                 -10.746
REMARK INTRA:                  -2.804
REMARK UNBOUND:                -3.382
REMARK SMILES CCCCCCCCCCCCCCCCCCCCCC(=O)[O-]
REMARK SMILES IDX 12 1 11 2 10 3 9 4 8 5 7 6 6 7 5 8 4 9 3 10 2 11 1 12 13 13
REMARK SMILES IDX 14 14 15 15 16 16 17 17 18 18 19 19 20 20 21 21 22 22 23 23
REMARK SMILES IDX 24 24
REMARK H PARENT
REMARK Flexibility Score: inf
ROOT
ATOM      1  C   UNL     1      61.439  28.800  13.373  1.00  0.00     0.000 C 
ENDROOT
BRANCH   1   2
ATOM      2  C   UNL     1      60.272  28.975  12.388  1.00  0.00     0.000 C 
BRANCH   2   3
ATOM      3  C   UNL     1      60.378  30.272  11.572  1.00  0.00     0.000 C 
BRANCH   3   4
ATOM      4  C   UNL     1      60.460  29.970  10.071  1.00  0.00    -0.000 C 
BRANCH   4   5
ATOM      5  C   UNL     1      61.271  28.696   9.806  1.00  0.00    -0.000 C 
BRANCH   5   6
ATOM      6  C   UNL     1      62.636  29.032   9.184  1.00  0.00    -0.000 C 
BRANCH   6   7
ATOM      7  C   UNL     1      63.685  29.441  10.230  1.00  0.00    -0.000 C 
BRANCH   7   8
ATOM      8  C   UNL     1      64.095  30.920  10.113  1.00  0.00    -0.000 C 
BRANCH   8   9
ATOM      9  C   UNL     1      64.693  31.479  11.416  1.00  0.00    -0.000 C 
BRANCH   9  10
ATOM     10  C   UNL     1      63.788  32.463  12.182  1.00  0.00    -0.000 C 
BRANCH  10  11
ATOM     11  C   UNL     1      64.548  33.274  13.243  1.00  0.00    -0.003 C 
ATOM     12  C   UNL     1      65.801  33.915  12.653  1.00  0.00     0.004 C 
ENDBRANCH  10  11
ENDBRANCH   9  10
ENDBRANCH   8   9
ENDBRANCH   7   8
ENDBRANCH   6   7
ENDBRANCH   5   6
ENDBRANCH   4   5
ENDBRANCH   3   4
ENDBRANCH   2   3
ENDBRANCH   1   2
BRANCH   1  13
ATOM     13  C   UNL     1      62.059  30.143  13.798  1.00  0.00     0.000 C 
BRANCH  13  14
ATOM     14  C   UNL     1      61.899  30.408  15.310  1.00  0.00     0.000 C 
BRANCH  14  15
ATOM     15  C   UNL     1      60.818  31.450  15.646  1.00  0.00     0.000 C 
BRANCH  15  16
ATOM     16  C   UNL     1      60.555  32.431  14.493  1.00  0.00     0.000 C 
BRANCH  16  17
ATOM     17  C   UNL     1      61.067  33.853  14.785  1.00  0.00     0.000 C 
BRANCH  17  18
ATOM     18  C   UNL     1      62.127  33.952  15.900  1.00  0.00     0.000 C 
BRANCH  18  19
ATOM     19  C   UNL     1      61.610  34.600  17.202  1.00  0.00     0.000 C 
BRANCH  19  20
ATOM     20  C   UNL     1      62.469  34.220  18.422  1.00  0.00     0.006 C 
BRANCH  20  21
ATOM     21  C   UNL     1      63.969  34.216  18.100  1.00  0.00     0.053 C 
BRANCH  21  22
ATOM     22  C   UNL     1      64.805  34.225  19.344  1.00  0.00     0.041 C 
ATOM     23  O   UNL     1      64.312  34.609  20.438  1.00  0.00    -0.550 OA
ATOM     24  O   UNL     1      66.139  33.843  19.288  1.00  0.00    -0.550 OA
ENDBRANCH  21  22
ENDBRANCH  20  21
ENDBRANCH  19  20
ENDBRANCH  18  19
ENDBRANCH  17  18
ENDBRANCH  16  17
ENDBRANCH  15  16
ENDBRANCH  14  15
ENDBRANCH  13  14
ENDBRANCH   1  13
TORSDOF 20
ENDMDL
MODEL 4
REMARK VINA RESULT:    -4.653      2.494      5.142
REMARK INTER + INTRA:         -13.475
REMARK INTER:                  -9.742
REMARK INTRA:                  -3.733
REMARK UNBOUND:                -3.382
REMARK SMILES CCCCCCCCCCCCCCCCCCCCCC(=O)[O-]
REMARK SMILES IDX 12 1 11 2 10 3 9 4 8 5 7 6 6 7 5 8 4 9 3 10 2 11 1 12 13 13
REMARK SMILES IDX 14 14 15 15 16 16 17 17 18 18 19 19 20 20 21 21 22 22 23 23
REMARK SMILES IDX 24 24
REMARK H PARENT
REMARK Flexibility Score: inf
ROOT
ATOM      1  C   UNL     1      61.177  32.748  12.926  1.00  0.00     0.000 C 
ENDROOT
BRANCH   1   2
ATOM      2  C   UNL     1      62.700  32.731  13.136  1.00  0.00     0.000 C 
BRANCH   2   3
ATOM      3  C   UNL     1      63.443  31.997  12.009  1.00  0.00     0.000 C 
BRANCH   3   4
ATOM      4  C   UNL     1      64.358  30.905  12.577  1.00  0.00    -0.000 C 
BRANCH   4   5
ATOM      5  C   UNL     1      63.732  30.246  13.812  1.00  0.00    -0.000 C 
BRANCH   5   6
ATOM      6  C   UNL     1      62.950  28.981  13.425  1.00  0.00    -0.000 C 
BRANCH   6   7
ATOM      7  C   UNL     1      61.428  29.161  13.531  1.00  0.00    -0.000 C 
BRANCH   7   8
ATOM      8  C   UNL     1      60.666  28.471  12.386  1.00  0.00    -0.000 C 
BRANCH   8   9
ATOM      9  C   UNL     1      59.978  29.469  11.439  1.00  0.00    -0.000 C 
BRANCH   9  10
ATOM     10  C   UNL     1      60.876  30.040  10.326  1.00  0.00    -0.000 C 
BRANCH  10  11
ATOM     11  C   UNL     1      61.633  28.952   9.549  1.00  0.00    -0.003 C 
ATOM     12  C   UNL     1      63.143  29.146   9.659  1.00  0.00     0.004 C 
ENDBRANCH  10  11
ENDBRANCH   9  10
ENDBRANCH   8   9
ENDBRANCH   7   8
ENDBRANCH   6   7
ENDBRANCH   5   6
ENDBRANCH   4   5
ENDBRANCH   3   4
ENDBRANCH   2   3
ENDBRANCH   1   2
BRANCH   1  13
ATOM     13  C   UNL     1      60.398  32.680  14.252  1.00  0.00     0.000 C 
BRANCH  13  14
ATOM     14  C   UNL     1      61.335  32.671  15.479  1.00  0.00     0.000 C 
BRANCH  14  15
ATOM     15  C   UNL     1      61.571  34.064  16.089  1.00  0.00     0.000 C 
BRANCH  15  16
ATOM     16  C   UNL     1      62.205  34.002  17.488  1.00  0.00     0.000 C 
BRANCH  16  17
ATOM     17  C   UNL     1      63.733  34.182  17.464  1.00  0.00     0.000 C 
BRANCH  17  18
ATOM     18  C   UNL     1      64.346  34.401  16.066  1.00  0.00     0.000 C 
BRANCH  18  19
ATOM     19  C   UNL     1      65.143  33.191  15.533  1.00  0.00     0.000 C 
BRANCH  19  20
ATOM     20  C   UNL     1      66.355  33.621  14.685  1.00  0.00     0.006 C 
BRANCH  20  21
ATOM     21  C   UNL     1      66.076  34.892  13.873  1.00  0.00     0.053 C 
BRANCH  21  22
ATOM     22  C   UNL     1      66.368  34.696  12.416  1.00  0.00     0.041 C 
ATOM     23  O   UNL     1      66.523  33.537  11.950  1.00  0.00    -0.550 OA
ATOM     24  O   UNL     1      66.502  35.797  11.580  1.00  0.00    -0.550 OA
ENDBRANCH  21  22
ENDBRANCH  20  21
ENDBRANCH  19  20
ENDBRANCH  18  19
ENDBRANCH  17  18
ENDBRANCH  16  17
ENDBRANCH  15  16
ENDBRANCH  14  15
ENDBRANCH  13  14
ENDBRANCH   1  13
TORSDOF 20
ENDMDL
MODEL 5
REMARK VINA RESULT:    -4.551      1.071      2.170
REMARK INTER + INTRA:         -13.254
REMARK INTER:                 -10.452
REMARK INTRA:                  -2.802
REMARK UNBOUND:                -3.382
REMARK SMILES CCCCCCCCCCCCCCCCCCCCCC(=O)[O-]
REMARK SMILES IDX 12 1 11 2 10 3 9 4 8 5 7 6 6 7 5 8 4 9 3 10 2 11 1 12 13 13
REMARK SMILES IDX 14 14 15 15 16 16 17 17 18 18 19 19 20 20 21 21 22 22 23 23
REMARK SMILES IDX 24 24
REMARK H PARENT
REMARK Flexibility Score: inf
ROOT
ATOM      1  C   UNL     1      65.057  31.416   9.799  1.00  0.00     0.000 C 
ENDROOT
BRANCH   1   2
ATOM      2  C   UNL     1      64.036  30.543   9.052  1.00  0.00     0.000 C 
BRANCH   2   3
ATOM      3  C   UNL     1      63.622  29.301   9.855  1.00  0.00     0.000 C 
BRANCH   3   4
ATOM      4  C   UNL     1      62.102  29.106   9.819  1.00  0.00    -0.000 C 
BRANCH   4   5
ATOM      5  C   UNL     1      61.398  30.061  10.791  1.00  0.00    -0.000 C 
BRANCH   5   6
ATOM      6  C   UNL     1      60.302  29.331  11.584  1.00  0.00    -0.000 C 
BRANCH   6   7
ATOM      7  C   UNL     1      60.864  28.465  12.723  1.00  0.00    -0.000 C 
BRANCH   7   8
ATOM      8  C   UNL     1      62.035  29.138  13.459  1.00  0.00    -0.000 C 
BRANCH   8   9
ATOM      9  C   UNL     1      61.572  30.171  14.502  1.00  0.00    -0.000 C 
BRANCH   9  10
ATOM     10  C   UNL     1      62.503  31.385  14.679  1.00  0.00    -0.000 C 
BRANCH  10  11
ATOM     11  C   UNL     1      61.786  32.726  14.463  1.00  0.00    -0.003 C 
ATOM     12  C   UNL     1      60.899  32.683  13.222  1.00  0.00     0.004 C 
ENDBRANCH  10  11
ENDBRANCH   9  10
ENDBRANCH   8   9
ENDBRANCH   7   8
ENDBRANCH   6   7
ENDBRANCH   5   6
ENDBRANCH   4   5
ENDBRANCH   3   4
ENDBRANCH   2   3
ENDBRANCH   1   2
BRANCH   1  13
ATOM     13  C   UNL     1      64.892  31.339  11.328  1.00  0.00     0.000 C 
BRANCH  13  14
ATOM     14  C   UNL     1      64.499  32.699  11.942  1.00  0.00     0.000 C 
BRANCH  14  15
ATOM     15  C   UNL     1      65.661  33.419  12.649  1.00  0.00     0.000 C 
BRANCH  15  16
ATOM     16  C   UNL     1      65.595  33.296  14.179  1.00  0.00     0.000 C 
BRANCH  16  17
ATOM     17  C   UNL     1      65.032  34.556  14.861  1.00  0.00     0.000 C 
BRANCH  17  18
ATOM     18  C   UNL     1      65.615  34.864  16.255  1.00  0.00     0.000 C 
BRANCH  18  19
ATOM     19  C   UNL     1      64.547  35.039  17.356  1.00  0.00     0.000 C 
BRANCH  19  20
ATOM     20  C   UNL     1      63.493  33.916  17.329  1.00  0.00     0.006 C 
BRANCH  20  21
ATOM     21  C   UNL     1      62.143  34.371  17.901  1.00  0.00     0.053 C 
BRANCH  21  22
ATOM     22  C   UNL     1      61.994  33.992  19.342  1.00  0.00     0.041 C 
ATOM     23  O   UNL     1      60.861  33.695  19.807  1.00  0.00    -0.550 OA
ATOM     24  O   UNL     1      63.100  33.999  20.182  1.00  0.00    -0.550 OA
ENDBRANCH  21  22
ENDBRANCH  20  21
ENDBRANCH  19  20
ENDBRANCH  18  19
ENDBRANCH  17  18
ENDBRANCH  16  17
ENDBRANCH  15  16
ENDBRANCH  14  15
ENDBRANCH  13  14
ENDBRANCH   1  13
TORSDOF 20
ENDMDL
MODEL 6
REMARK VINA RESULT:    -4.492      1.180      4.052
REMARK INTER + INTRA:         -13.126
REMARK INTER:                 -10.306
REMARK INTRA:                  -2.820
REMARK UNBOUND:                -3.382
REMARK SMILES CCCCCCCCCCCCCCCCCCCCCC(=O)[O-]
REMARK SMILES IDX 12 1 11 2 10 3 9 4 8 5 7 6 6 7 5 8 4 9 3 10 2 11 1 12 13 13
REMARK SMILES IDX 14 14 15 15 16 16 17 17 18 18 19 19 20 20 21 21 22 22 23 23
REMARK SMILES IDX 24 24
REMARK H PARENT
REMARK Flexibility Score: inf
ROOT
ATOM      1  C   UNL     1      62.040  29.897  14.463  1.00  0.00     0.000 C 
ENDROOT
BRANCH   1   2
ATOM      2  C   UNL     1      61.785  29.264  13.085  1.00  0.00     0.000 C 
BRANCH   2   3
ATOM      3  C   UNL     1      60.579  28.313  13.087  1.00  0.00     0.000 C 
BRANCH   3   4
ATOM      4  C   UNL     1      59.646  28.609  11.906  1.00  0.00    -0.000 C 
BRANCH   4   5
ATOM      5  C   UNL     1      60.291  29.594  10.924  1.00  0.00    -0.000 C 
BRANCH   5   6
ATOM      6  C   UNL     1      60.681  28.889   9.615  1.00  0.00    -0.000 C 
BRANCH   6   7
ATOM      7  C   UNL     1      61.942  29.483   8.967  1.00  0.00    -0.000 C 
BRANCH   7   8
ATOM      8  C   UNL     1      63.237  29.030   9.664  1.00  0.00    -0.000 C 
BRANCH   8   9
ATOM      9  C   UNL     1      64.495  29.693   9.076  1.00  0.00    -0.000 C 
BRANCH   9  10
ATOM     10  C   UNL     1      64.541  31.228   9.195  1.00  0.00    -0.000 C 
BRANCH  10  11
ATOM     11  C   UNL     1      65.970  31.777   9.324  1.00  0.00    -0.003 C 
ATOM     12  C   UNL     1      66.065  32.807  10.447  1.00  0.00     0.004 C 
ENDBRANCH  10  11
ENDBRANCH   9  10
ENDBRANCH   8   9
ENDBRANCH   7   8
ENDBRANCH   6   7
ENDBRANCH   5   6
ENDBRANCH   4   5
ENDBRANCH   3   4
ENDBRANCH   2   3
ENDBRANCH   1   2
BRANCH   1  13
ATOM     13  C   UNL     1      61.091  31.073  14.756  1.00  0.00     0.000 C 
BRANCH  13  14
ATOM     14  C   UNL     1      60.688  31.831  13.474  1.00  0.00     0.000 C 
BRANCH  14  15
ATOM     15  C   UNL     1      61.570  33.055  13.172  1.00  0.00     0.000 C 
BRANCH  15  16
ATOM     16  C   UNL     1      62.942  32.673  12.595  1.00  0.00     0.000 C 
BRANCH  16  17
ATOM     17  C   UNL     1      64.117  33.266  13.394  1.00  0.00     0.000 C 
BRANCH  17  18
ATOM     18  C   UNL     1      64.686  32.352  14.497  1.00  0.00     0.000 C 
BRANCH  18  19
ATOM     19  C   UNL     1      64.240  32.737  15.924  1.00  0.00     0.000 C 
BRANCH  19  20
ATOM     20  C   UNL     1      63.530  34.104  15.963  1.00  0.00     0.006 C 
BRANCH  20  21
ATOM     21  C   UNL     1      62.203  34.049  16.731  1.00  0.00     0.053 C 
BRANCH  21  22
ATOM     22  C   UNL     1      62.402  34.258  18.201  1.00  0.00     0.041 C 
ATOM     23  O   UNL     1      63.527  34.613  18.646  1.00  0.00    -0.550 OA
ATOM     24  O   UNL     1      61.355  34.028  19.085  1.00  0.00    -0.550 OA
ENDBRANCH  21  22
ENDBRANCH  20  21
ENDBRANCH  19  20
ENDBRANCH  18  19
ENDBRANCH  17  18
ENDBRANCH  16  17
ENDBRANCH  15  16
ENDBRANCH  14  15
ENDBRANCH  13  14
ENDBRANCH   1  13
TORSDOF 20
ENDMDL
MODEL 7
REMARK VINA RESULT:    -4.479      1.427      4.952
REMARK INTER + INTRA:         -13.099
REMARK INTER:                 -10.029
REMARK INTRA:                  -3.069
REMARK UNBOUND:                -3.382
REMARK SMILES CCCCCCCCCCCCCCCCCCCCCC(=O)[O-]
REMARK SMILES IDX 12 1 11 2 10 3 9 4 8 5 7 6 6 7 5 8 4 9 3 10 2 11 1 12 13 13
REMARK SMILES IDX 14 14 15 15 16 16 17 17 18 18 19 19 20 20 21 21 22 22 23 23
REMARK SMILES IDX 24 24
REMARK H PARENT
REMARK Flexibility Score: inf
ROOT
ATOM      1  C   UNL     1      62.572  28.907   9.679  1.00  0.00     0.000 C 
ENDROOT
BRANCH   1   2
ATOM      2  C   UNL     1      63.921  29.339   9.081  1.00  0.00     0.000 C 
BRANCH   2   3
ATOM      3  C   UNL     1      64.142  30.857   9.159  1.00  0.00     0.000 C 
BRANCH   3   4
ATOM      4  C   UNL     1      65.442  31.184   9.902  1.00  0.00    -0.000 C 
BRANCH   4   5
ATOM      5  C   UNL     1      65.655  32.700  10.002  1.00  0.00    -0.000 C 
BRANCH   5   6
ATOM      6  C   UNL     1      66.032  33.109  11.436  1.00  0.00    -0.000 C 
BRANCH   6   7
ATOM      7  C   UNL     1      66.410  34.594  11.555  1.00  0.00    -0.000 C 
BRANCH   7   8
ATOM      8  C   UNL     1      66.376  35.100  13.007  1.00  0.00    -0.000 C 
BRANCH   8   9
ATOM      9  C   UNL     1      65.498  34.230  13.924  1.00  0.00    -0.000 C 
BRANCH   9  10
ATOM     10  C   UNL     1      65.302  34.774  15.351  1.00  0.00    -0.000 C 
BRANCH  10  11
ATOM     11  C   UNL     1      64.246  33.995  16.150  1.00  0.00    -0.003 C 
ATOM     12  C   UNL     1      64.047  34.601  17.537  1.00  0.00     0.004 C 
ENDBRANCH  10  11
ENDBRANCH   9  10
ENDBRANCH   8   9
ENDBRANCH   7   8
ENDBRANCH   6   7
ENDBRANCH   5   6
ENDBRANCH   4   5
ENDBRANCH   3   4
ENDBRANCH   2   3
ENDBRANCH   1   2
BRANCH   1  13
ATOM     13  C   UNL     1      61.487  29.989   9.530  1.00  0.00     0.000 C 
BRANCH  13  14
ATOM     14  C   UNL     1      60.437  29.921  10.658  1.00  0.00     0.000 C 
BRANCH  14  15
ATOM     15  C   UNL     1      60.564  28.674  11.550  1.00  0.00     0.000 C 
BRANCH  15  16
ATOM     16  C   UNL     1      60.865  29.019  13.017  1.00  0.00     0.000 C 
BRANCH  16  17
ATOM     17  C   UNL     1      62.357  28.889  13.371  1.00  0.00     0.000 C 
BRANCH  17  18
ATOM     18  C   UNL     1      63.047  30.202  13.794  1.00  0.00     0.000 C 
BRANCH  18  19
ATOM     19  C   UNL     1      63.146  31.251  12.666  1.00  0.00     0.000 C 
BRANCH  19  20
ATOM     20  C   UNL     1      62.594  32.623  13.096  1.00  0.00     0.006 C 
BRANCH  20  21
ATOM     21  C   UNL     1      61.068  32.706  12.956  1.00  0.00     0.053 C 
BRANCH  21  22
ATOM     22  C   UNL     1      60.387  32.714  14.291  1.00  0.00     0.041 C 
ATOM     23  O   UNL     1      59.358  32.012  14.483  1.00  0.00    -0.550 OA
ATOM     24  O   UNL     1      60.867  33.523  15.313  1.00  0.00    -0.550 OA
ENDBRANCH  21  22
ENDBRANCH  20  21
ENDBRANCH  19  20
ENDBRANCH  18  19
ENDBRANCH  17  18
ENDBRANCH  16  17
ENDBRANCH  15  16
ENDBRANCH  14  15
ENDBRANCH  13  14
ENDBRANCH   1  13
TORSDOF 20
ENDMDL
MODEL 8
REMARK VINA RESULT:    -4.456      1.293      4.280
REMARK INTER + INTRA:         -13.047
REMARK INTER:                 -10.228
REMARK INTRA:                  -2.819
REMARK UNBOUND:                -3.382
REMARK SMILES CCCCCCCCCCCCCCCCCCCCCC(=O)[O-]
REMARK SMILES IDX 12 1 11 2 10 3 9 4 8 5 7 6 6 7 5 8 4 9 3 10 2 11 1 12 13 13
REMARK SMILES IDX 14 14 15 15 16 16 17 17 18 18 19 19 20 20 21 21 22 22 23 23
REMARK SMILES IDX 24 24
REMARK H PARENT
REMARK Flexibility Score: inf
ROOT
ATOM      1  C   UNL     1      62.623  29.221  10.513  1.00  0.00     0.000 C 
ENDROOT
BRANCH   1   2
ATOM      2  C   UNL     1      63.476  29.481   9.260  1.00  0.00     0.000 C 
BRANCH   2   3
ATOM      3  C   UNL     1      64.125  30.873   9.267  1.00  0.00     0.000 C 
BRANCH   3   4
ATOM      4  C   UNL     1      65.607  30.788   8.882  1.00  0.00    -0.000 C 
BRANCH   4   5
ATOM      5  C   UNL     1      66.447  31.781   9.695  1.00  0.00    -0.000 C 
BRANCH   5   6
ATOM      6  C   UNL     1      65.559  32.619  10.629  1.00  0.00    -0.000 C 
BRANCH   6   7
ATOM      7  C   UNL     1      66.347  33.677  11.416  1.00  0.00    -0.000 C 
BRANCH   7   8
ATOM      8  C   UNL     1      65.627  34.120  12.701  1.00  0.00    -0.000 C 
BRANCH   8   9
ATOM      9  C   UNL     1      64.484  33.171  13.104  1.00  0.00    -0.000 C 
BRANCH   9  10
ATOM     10  C   UNL     1      64.773  32.281  14.328  1.00  0.00    -0.000 C 
BRANCH  10  11
ATOM     11  C   UNL     1      64.534  30.789  14.054  1.00  0.00    -0.003 C 
ATOM     12  C   UNL     1      63.224  30.317  14.679  1.00  0.00     0.004 C 
ENDBRANCH  10  11
ENDBRANCH   9  10
ENDBRANCH   8   9
ENDBRANCH   7   8
ENDBRANCH   6   7
ENDBRANCH   5   6
ENDBRANCH   4   5
ENDBRANCH   3   4
ENDBRANCH   2   3
ENDBRANCH   1   2
BRANCH   1  13
ATOM     13  C   UNL     1      61.216  28.700  10.170  1.00  0.00     0.000 C 
BRANCH  13  14
ATOM     14  C   UNL     1      60.116  29.408  10.989  1.00  0.00     0.000 C 
BRANCH  14  15
ATOM     15  C   UNL     1      60.356  29.376  12.509  1.00  0.00     0.000 C 
BRANCH  15  16
ATOM     16  C   UNL     1      60.156  30.747  13.173  1.00  0.00     0.000 C 
BRANCH  16  17
ATOM     17  C   UNL     1      60.930  31.875  12.468  1.00  0.00     0.000 C 
BRANCH  17  18
ATOM     18  C   UNL     1      61.005  33.204  13.247  1.00  0.00     0.000 C 
BRANCH  18  19
ATOM     19  C   UNL     1      60.765  33.056  14.765  1.00  0.00     0.000 C 
BRANCH  19  20
ATOM     20  C   UNL     1      61.710  33.946  15.593  1.00  0.00     0.006 C 
BRANCH  20  21
ATOM     21  C   UNL     1      62.004  33.354  16.978  1.00  0.00     0.053 C 
BRANCH  21  22
ATOM     22  C   UNL     1      62.267  34.421  17.996  1.00  0.00     0.041 C 
ATOM     23  O   UNL     1      61.542  34.512  19.022  1.00  0.00    -0.550 OA
ATOM     24  O   UNL     1      63.290  35.339  17.794  1.00  0.00    -0.550 OA
ENDBRANCH  21  22
ENDBRANCH  20  21
ENDBRANCH  19  20
ENDBRANCH  18  19
ENDBRANCH  17  18
ENDBRANCH  16  17
ENDBRANCH  15  16
ENDBRANCH  14  15
ENDBRANCH  13  14
ENDBRANCH   1  13
TORSDOF 20
ENDMDL
MODEL 9
REMARK VINA RESULT:    -4.433      1.501      2.589
REMARK INTER + INTRA:         -12.998
REMARK INTER:                  -9.793
REMARK INTRA:                  -3.205
REMARK UNBOUND:                -3.382
REMARK SMILES CCCCCCCCCCCCCCCCCCCCCC(=O)[O-]
REMARK SMILES IDX 12 1 11 2 10 3 9 4 8 5 7 6 6 7 5 8 4 9 3 10 2 11 1 12 13 13
REMARK SMILES IDX 14 14 15 15 16 16 17 17 18 18 19 19 20 20 21 21 22 22 23 23
REMARK SMILES IDX 24 24
REMARK H PARENT
REMARK Flexibility Score: inf
ROOT
ATOM      1  C   UNL     1      62.034  29.718   9.828  1.00  0.00     0.000 C 
ENDROOT
BRANCH   1   2
ATOM      2  C   UNL     1      61.031  28.624  10.228  1.00  0.00     0.000 C 
BRANCH   2   3
ATOM      3  C   UNL     1      60.034  29.099  11.295  1.00  0.00     0.000 C 
BRANCH   3   4
ATOM      4  C   UNL     1      60.458  28.628  12.691  1.00  0.00    -0.000 C 
BRANCH   4   5
ATOM      5  C   UNL     1      61.108  29.767  13.486  1.00  0.00    -0.000 C 
BRANCH   5   6
ATOM      6  C   UNL     1      60.201  31.008  13.510  1.00  0.00    -0.000 C 
BRANCH   6   7
ATOM      7  C   UNL     1      60.817  32.214  12.783  1.00  0.00    -0.000 C 
BRANCH   7   8
ATOM      8  C   UNL     1      61.097  33.396  13.728  1.00  0.00    -0.000 C 
BRANCH   8   9
ATOM      9  C   UNL     1      60.999  33.010  15.214  1.00  0.00    -0.000 C 
BRANCH   9  10
ATOM     10  C   UNL     1      62.082  33.623  16.122  1.00  0.00    -0.000 C 
BRANCH  10  11
ATOM     11  C   UNL     1      61.522  34.661  17.107  1.00  0.00    -0.003 C 
ATOM     12  C   UNL     1      61.539  34.127  18.537  1.00  0.00     0.004 C 
ENDBRANCH  10  11
ENDBRANCH   9  10
ENDBRANCH   8   9
ENDBRANCH   7   8
ENDBRANCH   6   7
ENDBRANCH   5   6
ENDBRANCH   4   5
ENDBRANCH   3   4
ENDBRANCH   2   3
ENDBRANCH   1   2
BRANCH   1  13
ATOM     13  C   UNL     1      63.420  29.510  10.467  1.00  0.00     0.000 C 
BRANCH  13  14
ATOM     14  C   UNL     1      63.881  30.741  11.276  1.00  0.00     0.000 C 
BRANCH  14  15
ATOM     15  C   UNL     1      64.387  30.400  12.688  1.00  0.00     0.000 C 
BRANCH  15  16
ATOM     16  C   UNL     1      64.445  31.627  13.613  1.00  0.00     0.000 C 
BRANCH  16  17
ATOM     17  C   UNL     1      64.480  32.959  12.842  1.00  0.00     0.000 C 
BRANCH  17  18
ATOM     18  C   UNL     1      65.545  33.966  13.322  1.00  0.00     0.000 C 
BRANCH  18  19
ATOM     19  C   UNL     1      66.207  33.587  14.664  1.00  0.00     0.000 C 
BRANCH  19  20
ATOM     20  C   UNL     1      65.755  34.504  15.816  1.00  0.00     0.006 C 
BRANCH  20  21
ATOM     21  C   UNL     1      65.626  33.749  17.146  1.00  0.00     0.053 C 
BRANCH  21  22
ATOM     22  C   UNL     1      65.083  34.626  18.232  1.00  0.00     0.041 C 
ATOM     23  O   UNL     1      64.636  35.772  17.960  1.00  0.00    -0.550 OA
ATOM     24  O   UNL     1      65.101  34.191  19.552  1.00  0.00    -0.550 OA
ENDBRANCH  21  22
ENDBRANCH  20  21
ENDBRANCH  19  20
ENDBRANCH  18  19
ENDBRANCH  17  18
ENDBRANCH  16  17
ENDBRANCH  15  16
ENDBRANCH  14  15
ENDBRANCH  13  14
ENDBRANCH   1  13
TORSDOF 20
ENDMDL
