MODEL 1
REMARK VINA RESULT:    -2.462      0.000      0.000
REMARK INTER + INTRA:          -2.462
REMARK INTER:                  -2.462
REMARK INTRA:                   0.000
REMARK UNBOUND:                 0.000
REMARK SMILES CC(=O)[O-]
REMARK SMILES IDX 1 1 2 2 3 3 4 4
REMARK H PARENT
REMARK Flexibility Score: inf
ROOT
ATOM      1  C   UNL     1       5.326 -30.848  -4.069  1.00  0.00     0.063 C 
ATOM      2  C   UNL     1       4.862 -30.436  -2.713  1.00  0.00     0.038 C 
ATOM      3  O   UNL     1       4.227 -31.248  -1.991  1.00  0.00    -0.550 OA
ATOM      4  O   UNL     1       5.082 -29.140  -2.266  1.00  0.00    -0.550 OA
ENDROOT
TORSDOF 0
ENDMDL
MODEL 2
REMARK VINA RESULT:    -2.441      1.423      1.749
REMARK INTER + INTRA:          -2.441
REMARK INTER:                  -2.441
REMARK INTRA:                   0.000
REMARK UNBOUND:                 0.000
REMARK SMILES CC(=O)[O-]
REMARK SMILES IDX 1 1 2 2 3 3 4 4
REMARK H PARENT
REMARK Flexibility Score: inf
ROOT
ATOM      1  C   UNL     1       4.344 -31.021  -1.987  1.00  0.00     0.063 C 
ATOM      2  C   UNL     1       5.045 -30.368  -3.130  1.00  0.00     0.038 C 
ATOM      3  O   UNL     1       5.284 -31.021  -4.179  1.00  0.00    -0.550 OA
ATOM      4  O   UNL     1       5.483 -29.055  -3.019  1.00  0.00    -0.550 OA
ENDROOT
TORSDOF 0
ENDMDL
MODEL 3
REMARK VINA RESULT:    -2.155     14.770     15.222
REMARK INTER + INTRA:          -2.155
REMARK INTER:                  -2.155
REMARK INTRA:                   0.000
REMARK UNBOUND:                 0.000
REMARK SMILES CC(=O)[O-]
REMARK SMILES IDX 1 1 2 2 3 3 4 4
REMARK H PARENT
REMARK Flexibility Score: inf
ROOT
ATOM      1  C   UNL     1      15.736 -30.135 -13.953  1.00  0.00     0.063 C 
ATOM      2  C   UNL     1      15.249 -31.512 -13.653  1.00  0.00     0.038 C 
ATOM      3  O   UNL     1      14.519 -31.718 -12.649  1.00  0.00    -0.550 OA
ATOM      4  O   UNL     1      15.644 -32.579 -14.449  1.00  0.00    -0.550 OA
ENDROOT
TORSDOF 0
ENDMDL
MODEL 4
REMARK VINA RESULT:    -2.142     14.329     14.442
REMARK INTER + INTRA:          -2.142
REMARK INTER:                  -2.142
REMARK INTRA:                   0.000
REMARK UNBOUND:                 0.000
REMARK SMILES CC(=O)[O-]
REMARK SMILES IDX 1 1 2 2 3 3 4 4
REMARK H PARENT
REMARK Flexibility Score: inf
ROOT
ATOM      1  C   UNL     1      11.252 -24.738 -14.090  1.00  0.00     0.063 C 
ATOM      2  C   UNL     1      12.382 -25.711 -14.074  1.00  0.00     0.038 C 
ATOM      3  O   UNL     1      12.214 -26.879 -14.513  1.00  0.00    -0.550 OA
ATOM      4  O   UNL     1      13.606 -25.348 -13.527  1.00  0.00    -0.550 OA
ENDROOT
TORSDOF 0
ENDMDL
MODEL 5
REMARK VINA RESULT:    -2.128     14.302     14.561
REMARK INTER + INTRA:          -2.128
REMARK INTER:                  -2.128
REMARK INTRA:                   0.000
REMARK UNBOUND:                 0.000
REMARK SMILES CC(=O)[O-]
REMARK SMILES IDX 1 1 2 2 3 3 4 4
REMARK H PARENT
REMARK Flexibility Score: inf
ROOT
ATOM      1  C   UNL     1      11.193 -24.727 -14.068  1.00  0.00     0.063 C 
ATOM      2  C   UNL     1      12.412 -25.586 -14.043  1.00  0.00     0.038 C 
ATOM      3  O   UNL     1      13.524 -25.093 -13.718  1.00  0.00    -0.550 OA
ATOM      4  O   UNL     1      12.334 -26.917 -14.430  1.00  0.00    -0.550 OA
ENDROOT
TORSDOF 0
ENDMDL
MODEL 6
REMARK VINA RESULT:    -2.118     19.786     20.379
REMARK INTER + INTRA:          -2.118
REMARK INTER:                  -2.118
REMARK INTRA:                   0.000
REMARK UNBOUND:                 0.000
REMARK SMILES CC(=O)[O-]
REMARK SMILES IDX 1 1 2 2 3 3 4 4
REMARK H PARENT
REMARK Flexibility Score: inf
ROOT
ATOM      1  C   UNL     1      13.326 -16.335 -13.758  1.00  0.00     0.063 C 
ATOM      2  C   UNL     1      13.893 -16.986 -14.975  1.00  0.00     0.038 C 
ATOM      3  O   UNL     1      14.941 -16.530 -15.504  1.00  0.00    -0.550 OA
ATOM      4  O   UNL     1      13.238 -18.063 -15.557  1.00  0.00    -0.550 OA
ENDROOT
TORSDOF 0
ENDMDL
MODEL 7
REMARK VINA RESULT:    -2.086     20.218     20.385
REMARK INTER + INTRA:          -2.086
REMARK INTER:                  -2.086
REMARK INTRA:                   0.000
REMARK UNBOUND:                 0.000
REMARK SMILES CC(=O)[O-]
REMARK SMILES IDX 1 1 2 2 3 3 4 4
REMARK H PARENT
REMARK Flexibility Score: inf
ROOT
ATOM      1  C   UNL     1      15.572 -16.771 -14.157  1.00  0.00     0.063 C 
ATOM      2  C   UNL     1      14.133 -16.727 -14.547  1.00  0.00     0.038 C 
ATOM      3  O   UNL     1      13.331 -15.992 -13.914  1.00  0.00    -0.550 OA
ATOM      4  O   UNL     1      13.666 -17.536 -15.575  1.00  0.00    -0.550 OA
ENDROOT
TORSDOF 0
ENDMDL
MODEL 8
REMARK VINA RESULT:    -2.071     14.234     14.454
REMARK INTER + INTRA:          -2.071
REMARK INTER:                  -2.071
REMARK INTRA:                   0.000
REMARK UNBOUND:                 0.000
REMARK SMILES CC(=O)[O-]
REMARK SMILES IDX 1 1 2 2 3 3 4 4
REMARK H PARENT
REMARK Flexibility Score: inf
ROOT
ATOM      1  C   UNL     1      12.586 -26.822 -14.369  1.00  0.00     0.063 C 
ATOM      2  C   UNL     1      12.197 -25.410 -14.086  1.00  0.00     0.038 C 
ATOM      3  O   UNL     1      10.994 -25.054 -14.194  1.00  0.00    -0.550 OA
ATOM      4  O   UNL     1      13.167 -24.473 -13.755  1.00  0.00    -0.550 OA
ENDROOT
TORSDOF 0
ENDMDL
MODEL 9
REMARK VINA RESULT:    -1.932      2.026      2.201
REMARK INTER + INTRA:          -1.932
REMARK INTER:                  -1.932
REMARK INTRA:                   0.000
REMARK UNBOUND:                 0.000
REMARK SMILES CC(=O)[O-]
REMARK SMILES IDX 1 1 2 2 3 3 4 4
REMARK H PARENT
REMARK Flexibility Score: inf
ROOT
ATOM      1  C   UNL     1       5.408 -29.206  -2.712  1.00  0.00     0.063 C 
ATOM      2  C   UNL     1       4.952 -29.254  -1.293  1.00  0.00     0.038 C 
ATOM      3  O   UNL     1       3.780 -28.903  -0.995  1.00  0.00    -0.550 OA
ATOM      4  O   UNL     1       5.835 -29.635  -0.291  1.00  0.00    -0.550 OA
ENDROOT
TORSDOF 0
ENDMDL
