MODEL 1
REMARK VINA RESULT:    -5.391      0.000      0.000
REMARK INTER + INTRA:         -17.349
REMARK INTER:                 -13.585
REMARK INTRA:                  -3.764
REMARK UNBOUND:                -3.764
REMARK SMILES CCCCCCCCCCCCCCCCCCCCCCCCCCCC(=O)[O-]
REMARK SMILES IDX 15 1 16 2 17 3 18 4 19 5 20 6 21 7 22 8 23 9 24 10 25 11
REMARK SMILES IDX 26 12 27 13 28 14 29 15 30 16 14 17 13 18 12 19 11 20 10 21
REMARK SMILES IDX 9 22 8 23 7 24 6 25 5 26 4 27 3 28 2 29 1 30
REMARK H PARENT
REMARK Flexibility Score: inf
ROOT
ATOM      1  C   UNL     1      -8.657 -38.276  44.846  1.00  0.00     0.000 C 
ENDROOT
BRANCH   1   2
ATOM      2  C   UNL     1     -10.070 -38.234  44.238  1.00  0.00     0.000 C 
BRANCH   2   3
ATOM      3  C   UNL     1     -10.718 -36.845  44.344  1.00  0.00     0.000 C 
BRANCH   3   4
ATOM      4  C   UNL     1      -9.715 -35.699  44.137  1.00  0.00     0.000 C 
BRANCH   4   5
ATOM      5  C   UNL     1     -10.371 -34.341  44.436  1.00  0.00     0.000 C 
BRANCH   5   6
ATOM      6  C   UNL     1     -10.644 -33.516  43.168  1.00  0.00     0.000 C 
BRANCH   6   7
ATOM      7  C   UNL     1     -10.156 -34.217  41.889  1.00  0.00     0.000 C 
BRANCH   7   8
ATOM      8  C   UNL     1      -9.461 -33.256  40.907  1.00  0.00     0.000 C 
BRANCH   8   9
ATOM      9  C   UNL     1      -7.954 -33.044  41.151  1.00  0.00     0.000 C 
BRANCH   9  10
ATOM     10  C   UNL     1      -7.659 -31.841  42.065  1.00  0.00     0.000 C 
BRANCH  10  11
ATOM     11  C   UNL     1      -7.212 -32.267  43.474  1.00  0.00     0.000 C 
BRANCH  11  12
ATOM     12  C   UNL     1      -6.708 -31.083  44.318  1.00  0.00     0.006 C 
BRANCH  12  13
ATOM     13  C   UNL     1      -5.635 -31.509  45.329  1.00  0.00     0.053 C 
BRANCH  13  14
ATOM     14  C   UNL     1      -6.164 -31.532  46.729  1.00  0.00     0.041 C 
ATOM     15  O   UNL     1      -6.944 -32.450  47.098  1.00  0.00    -0.550 OA
ATOM     16  O   UNL     1      -5.773 -30.556  47.637  1.00  0.00    -0.550 OA
ENDBRANCH  13  14
ENDBRANCH  12  13
ENDBRANCH  11  12
ENDBRANCH  10  11
ENDBRANCH   9  10
ENDBRANCH   8   9
ENDBRANCH   7   8
ENDBRANCH   6   7
ENDBRANCH   5   6
ENDBRANCH   4   5
ENDBRANCH   3   4
ENDBRANCH   2   3
ENDBRANCH   1   2
BRANCH   1  17
ATOM     17  C   UNL     1      -8.487 -39.419  45.861  1.00  0.00     0.000 C 
BRANCH  17  18
ATOM     18  C   UNL     1      -8.355 -38.913  47.308  1.00  0.00     0.000 C 
BRANCH  18  19
ATOM     19  C   UNL     1      -8.738 -37.432  47.457  1.00  0.00     0.000 C 
BRANCH  19  20
ATOM     20  C   UNL     1     -10.204 -37.239  47.883  1.00  0.00     0.000 C 
BRANCH  20  21
ATOM     21  C   UNL     1     -10.801 -38.508  48.527  1.00  0.00     0.000 C 
BRANCH  21  22
ATOM     22  C   UNL     1     -11.831 -39.232  47.643  1.00  0.00    -0.000 C 
BRANCH  22  23
ATOM     23  C   UNL     1     -11.493 -40.716  47.422  1.00  0.00    -0.000 C 
BRANCH  23  24
ATOM     24  C   UNL     1     -12.443 -41.392  46.420  1.00  0.00    -0.000 C 
BRANCH  24  25
ATOM     25  C   UNL     1     -12.471 -40.677  45.060  1.00  0.00    -0.000 C 
BRANCH  25  26
ATOM     26  C   UNL     1     -12.332 -41.681  43.906  1.00  0.00    -0.000 C 
BRANCH  26  27
ATOM     27  C   UNL     1     -12.078 -40.983  42.553  1.00  0.00    -0.000 C 
BRANCH  27  28
ATOM     28  C   UNL     1     -10.760 -41.406  41.882  1.00  0.00    -0.000 C 
BRANCH  28  29
ATOM     29  C   UNL     1      -9.578 -41.448  42.860  1.00  0.00    -0.003 C 
ATOM     30  C   UNL     1      -8.283 -41.021  42.175  1.00  0.00     0.004 C 
ENDBRANCH  28  29
ENDBRANCH  27  28
ENDBRANCH  26  27
ENDBRANCH  25  26
ENDBRANCH  24  25
ENDBRANCH  23  24
ENDBRANCH  22  23
ENDBRANCH  21  22
ENDBRANCH  20  21
ENDBRANCH  19  20
ENDBRANCH  18  19
ENDBRANCH  17  18
ENDBRANCH   1  17
TORSDOF 26
ENDMDL
MODEL 2
REMARK VINA RESULT:    -5.277      2.201      8.214
REMARK INTER + INTRA:         -17.062
REMARK INTER:                 -13.391
REMARK INTRA:                  -3.671
REMARK UNBOUND:                -3.764
REMARK SMILES CCCCCCCCCCCCCCCCCCCCCCCCCCCC(=O)[O-]
REMARK SMILES IDX 15 1 16 2 17 3 18 4 19 5 20 6 21 7 22 8 23 9 24 10 25 11
REMARK SMILES IDX 26 12 27 13 28 14 29 15 30 16 14 17 13 18 12 19 11 20 10 21
REMARK SMILES IDX 9 22 8 23 7 24 6 25 5 26 4 27 3 28 2 29 1 30
REMARK H PARENT
REMARK Flexibility Score: inf
ROOT
ATOM      1  C   UNL     1      -8.691 -40.416  43.509  1.00  0.00     0.000 C 
ENDROOT
BRANCH   1   2
ATOM      2  C   UNL     1      -7.873 -40.757  42.251  1.00  0.00     0.000 C 
BRANCH   2   3
ATOM      3  C   UNL     1      -7.939 -42.249  41.889  1.00  0.00     0.000 C 
BRANCH   3   4
ATOM      4  C   UNL     1      -9.307 -42.879  42.194  1.00  0.00     0.000 C 
BRANCH   4   5
ATOM      5  C   UNL     1     -10.351 -42.446  41.153  1.00  0.00     0.000 C 
BRANCH   5   6
ATOM      6  C   UNL     1     -11.757 -42.277  41.749  1.00  0.00     0.000 C 
BRANCH   6   7
ATOM      7  C   UNL     1     -12.026 -40.842  42.236  1.00  0.00     0.000 C 
BRANCH   7   8
ATOM      8  C   UNL     1     -12.540 -40.787  43.686  1.00  0.00     0.000 C 
BRANCH   8   9
ATOM      9  C   UNL     1     -12.000 -41.889  44.618  1.00  0.00     0.000 C 
BRANCH   9  10
ATOM     10  C   UNL     1     -12.307 -41.622  46.102  1.00  0.00     0.000 C 
BRANCH  10  11
ATOM     11  C   UNL     1     -12.582 -40.137  46.390  1.00  0.00     0.000 C 
BRANCH  11  12
ATOM     12  C   UNL     1     -11.766 -39.604  47.582  1.00  0.00     0.006 C 
BRANCH  12  13
ATOM     13  C   UNL     1     -10.392 -40.278  47.689  1.00  0.00     0.053 C 
BRANCH  13  14
ATOM     14  C   UNL     1      -9.345 -39.334  48.193  1.00  0.00     0.041 C 
ATOM     15  O   UNL     1      -8.231 -39.772  48.584  1.00  0.00    -0.550 OA
ATOM     16  O   UNL     1      -9.588 -37.966  48.204  1.00  0.00    -0.550 OA
ENDBRANCH  13  14
ENDBRANCH  12  13
ENDBRANCH  11  12
ENDBRANCH  10  11
ENDBRANCH   9  10
ENDBRANCH   8   9
ENDBRANCH   7   8
ENDBRANCH   6   7
ENDBRANCH   5   6
ENDBRANCH   4   5
ENDBRANCH   3   4
ENDBRANCH   2   3
ENDBRANCH   1   2
BRANCH   1  17
ATOM     17  C   UNL     1      -7.911 -39.533  44.498  1.00  0.00     0.000 C 
BRANCH  17  18
ATOM     18  C   UNL     1      -8.653 -38.231  44.844  1.00  0.00     0.000 C 
BRANCH  18  19
ATOM     19  C   UNL     1     -10.167 -38.326  44.596  1.00  0.00     0.000 C 
BRANCH  19  20
ATOM     20  C   UNL     1     -10.758 -37.019  44.037  1.00  0.00     0.000 C 
BRANCH  20  21
ATOM     21  C   UNL     1     -10.617 -35.841  45.025  1.00  0.00     0.000 C 
BRANCH  21  22
ATOM     22  C   UNL     1     -10.124 -34.537  44.375  1.00  0.00    -0.000 C 
BRANCH  22  23
ATOM     23  C   UNL     1      -9.743 -34.713  42.895  1.00  0.00    -0.000 C 
BRANCH  23  24
ATOM     24  C   UNL     1     -10.187 -33.522  42.028  1.00  0.00    -0.000 C 
BRANCH  24  25
ATOM     25  C   UNL     1      -9.197 -33.220  40.893  1.00  0.00    -0.000 C 
BRANCH  25  26
ATOM     26  C   UNL     1      -7.767 -33.074  41.433  1.00  0.00    -0.000 C 
BRANCH  26  27
ATOM     27  C   UNL     1      -7.628 -31.877  42.399  1.00  0.00    -0.000 C 
BRANCH  27  28
ATOM     28  C   UNL     1      -7.181 -32.279  43.815  1.00  0.00    -0.000 C 
BRANCH  28  29
ATOM     29  C   UNL     1      -6.895 -31.071  44.717  1.00  0.00    -0.003 C 
ATOM     30  C   UNL     1      -6.497 -29.851  43.891  1.00  0.00     0.004 C 
ENDBRANCH  28  29
ENDBRANCH  27  28
ENDBRANCH  26  27
ENDBRANCH  25  26
ENDBRANCH  24  25
ENDBRANCH  23  24
ENDBRANCH  22  23
ENDBRANCH  21  22
ENDBRANCH  20  21
ENDBRANCH  19  20
ENDBRANCH  18  19
ENDBRANCH  17  18
ENDBRANCH   1  17
TORSDOF 26
ENDMDL
MODEL 3
REMARK VINA RESULT:    -5.261      2.507      4.413
REMARK INTER + INTRA:         -17.022
REMARK INTER:                 -12.595
REMARK INTRA:                  -4.428
REMARK UNBOUND:                -3.764
REMARK SMILES CCCCCCCCCCCCCCCCCCCCCCCCCCCC(=O)[O-]
REMARK SMILES IDX 15 1 16 2 17 3 18 4 19 5 20 6 21 7 22 8 23 9 24 10 25 11
REMARK SMILES IDX 26 12 27 13 28 14 29 15 30 16 14 17 13 18 12 19 11 20 10 21
REMARK SMILES IDX 9 22 8 23 7 24 6 25 5 26 4 27 3 28 2 29 1 30
REMARK H PARENT
REMARK Flexibility Score: inf
ROOT
ATOM      1  C   UNL     1      -8.806 -38.957  48.055  1.00  0.00     0.000 C 
ENDROOT
BRANCH   1   2
ATOM      2  C   UNL     1      -9.903 -40.036  48.082  1.00  0.00     0.000 C 
BRANCH   2   3
ATOM      3  C   UNL     1     -10.989 -39.748  49.130  1.00  0.00     0.000 C 
BRANCH   3   4
ATOM      4  C   UNL     1     -11.414 -38.271  49.161  1.00  0.00     0.000 C 
BRANCH   4   5
ATOM      5  C   UNL     1     -12.325 -37.941  47.968  1.00  0.00     0.000 C 
BRANCH   5   6
ATOM      6  C   UNL     1     -11.787 -36.790  47.104  1.00  0.00     0.000 C 
BRANCH   6   7
ATOM      7  C   UNL     1     -10.917 -35.805  47.904  1.00  0.00     0.000 C 
BRANCH   7   8
ATOM      8  C   UNL     1      -9.920 -35.032  47.021  1.00  0.00     0.000 C 
BRANCH   8   9
ATOM      9  C   UNL     1      -9.945 -35.398  45.524  1.00  0.00     0.000 C 
BRANCH   9  10
ATOM     10  C   UNL     1     -10.712 -34.373  44.669  1.00  0.00     0.000 C 
BRANCH  10  11
ATOM     11  C   UNL     1      -9.812 -33.674  43.637  1.00  0.00     0.000 C 
BRANCH  11  12
ATOM     12  C   UNL     1      -9.899 -34.319  42.242  1.00  0.00     0.006 C 
BRANCH  12  13
ATOM     13  C   UNL     1      -9.701 -33.294  41.118  1.00  0.00     0.053 C 
BRANCH  13  14
ATOM     14  C   UNL     1      -8.323 -32.708  41.134  1.00  0.00     0.041 C 
ATOM     15  O   UNL     1      -8.165 -31.459  41.164  1.00  0.00    -0.550 OA
ATOM     16  O   UNL     1      -7.212 -33.541  41.144  1.00  0.00    -0.550 OA
ENDBRANCH  13  14
ENDBRANCH  12  13
ENDBRANCH  11  12
ENDBRANCH  10  11
ENDBRANCH   9  10
ENDBRANCH   8   9
ENDBRANCH   7   8
ENDBRANCH   6   7
ENDBRANCH   5   6
ENDBRANCH   4   5
ENDBRANCH   3   4
ENDBRANCH   2   3
ENDBRANCH   1   2
BRANCH   1  17
ATOM     17  C   UNL     1      -8.411 -38.555  46.623  1.00  0.00     0.000 C 
BRANCH  17  18
ATOM     18  C   UNL     1      -9.010 -39.489  45.558  1.00  0.00     0.000 C 
BRANCH  18  19
ATOM     19  C   UNL     1      -9.463 -38.738  44.296  1.00  0.00     0.000 C 
BRANCH  19  20
ATOM     20  C   UNL     1     -10.946 -38.329  44.351  1.00  0.00     0.000 C 
BRANCH  20  21
ATOM     21  C   UNL     1     -11.799 -39.067  43.299  1.00  0.00     0.000 C 
BRANCH  21  22
ATOM     22  C   UNL     1     -12.891 -39.969  43.900  1.00  0.00    -0.000 C 
BRANCH  22  23
ATOM     23  C   UNL     1     -12.588 -40.390  45.348  1.00  0.00    -0.000 C 
BRANCH  23  24
ATOM     24  C   UNL     1     -12.291 -41.894  45.473  1.00  0.00    -0.000 C 
BRANCH  24  25
ATOM     25  C   UNL     1     -12.438 -42.636  44.135  1.00  0.00    -0.000 C 
BRANCH  25  26
ATOM     26  C   UNL     1     -11.156 -43.410  43.792  1.00  0.00    -0.000 C 
BRANCH  26  27
ATOM     27  C   UNL     1     -10.895 -43.460  42.271  1.00  0.00    -0.000 C 
BRANCH  27  28
ATOM     28  C   UNL     1     -10.528 -42.095  41.666  1.00  0.00    -0.000 C 
BRANCH  28  29
ATOM     29  C   UNL     1      -9.268 -41.482  42.293  1.00  0.00    -0.003 C 
ATOM     30  C   UNL     1      -8.015 -42.231  41.851  1.00  0.00     0.004 C 
ENDBRANCH  28  29
ENDBRANCH  27  28
ENDBRANCH  26  27
ENDBRANCH  25  26
ENDBRANCH  24  25
ENDBRANCH  23  24
ENDBRANCH  22  23
ENDBRANCH  21  22
ENDBRANCH  20  21
ENDBRANCH  19  20
ENDBRANCH  18  19
ENDBRANCH  17  18
ENDBRANCH   1  17
TORSDOF 26
ENDMDL
MODEL 4
REMARK VINA RESULT:    -5.212      1.420      2.339
REMARK INTER + INTRA:         -16.897
REMARK INTER:                 -12.867
REMARK INTRA:                  -4.030
REMARK UNBOUND:                -3.764
REMARK SMILES CCCCCCCCCCCCCCCCCCCCCCCCCCCC(=O)[O-]
REMARK SMILES IDX 15 1 16 2 17 3 18 4 19 5 20 6 21 7 22 8 23 9 24 10 25 11
REMARK SMILES IDX 26 12 27 13 28 14 29 15 30 16 14 17 13 18 12 19 11 20 10 21
REMARK SMILES IDX 9 22 8 23 7 24 6 25 5 26 4 27 3 28 2 29 1 30
REMARK H PARENT
REMARK Flexibility Score: inf
ROOT
ATOM      1  C   UNL     1      -8.847 -37.253  46.916  1.00  0.00     0.000 C 
ENDROOT
BRANCH   1   2
ATOM      2  C   UNL     1      -9.879 -36.253  47.466  1.00  0.00     0.000 C 
BRANCH   2   3
ATOM      3  C   UNL     1     -10.663 -35.540  46.354  1.00  0.00     0.000 C 
BRANCH   3   4
ATOM      4  C   UNL     1      -9.773 -35.102  45.180  1.00  0.00     0.000 C 
BRANCH   4   5
ATOM      5  C   UNL     1     -10.617 -34.462  44.066  1.00  0.00     0.000 C 
BRANCH   5   6
ATOM      6  C   UNL     1     -10.067 -34.746  42.660  1.00  0.00     0.000 C 
BRANCH   6   7
ATOM      7  C   UNL     1     -10.192 -33.536  41.719  1.00  0.00     0.000 C 
BRANCH   7   8
ATOM      8  C   UNL     1      -8.862 -33.165  41.038  1.00  0.00     0.000 C 
BRANCH   8   9
ATOM      9  C   UNL     1      -8.037 -32.078  41.754  1.00  0.00     0.000 C 
BRANCH   9  10
ATOM     10  C   UNL     1      -7.202 -32.632  42.922  1.00  0.00     0.000 C 
BRANCH  10  11
ATOM     11  C   UNL     1      -6.986 -31.596  44.037  1.00  0.00     0.000 C 
BRANCH  11  12
ATOM     12  C   UNL     1      -7.557 -32.054  45.391  1.00  0.00     0.006 C 
BRANCH  12  13
ATOM     13  C   UNL     1      -6.485 -32.087  46.488  1.00  0.00     0.053 C 
BRANCH  13  14
ATOM     14  C   UNL     1      -7.023 -32.627  47.778  1.00  0.00     0.041 C 
ATOM     15  O   UNL     1      -8.131 -33.225  47.802  1.00  0.00    -0.550 OA
ATOM     16  O   UNL     1      -6.287 -32.495  48.948  1.00  0.00    -0.550 OA
ENDBRANCH  13  14
ENDBRANCH  12  13
ENDBRANCH  11  12
ENDBRANCH  10  11
ENDBRANCH   9  10
ENDBRANCH   8   9
ENDBRANCH   7   8
ENDBRANCH   6   7
ENDBRANCH   5   6
ENDBRANCH   4   5
ENDBRANCH   3   4
ENDBRANCH   2   3
ENDBRANCH   1   2
BRANCH   1  17
ATOM     17  C   UNL     1      -8.370 -38.253  47.984  1.00  0.00     0.000 C 
BRANCH  17  18
ATOM     18  C   UNL     1      -8.805 -39.698  47.681  1.00  0.00     0.000 C 
BRANCH  18  19
ATOM     19  C   UNL     1     -10.013 -40.143  48.520  1.00  0.00     0.000 C 
BRANCH  19  20
ATOM     20  C   UNL     1     -11.274 -40.371  47.669  1.00  0.00     0.000 C 
BRANCH  20  21
ATOM     21  C   UNL     1     -12.116 -39.088  47.509  1.00  0.00     0.000 C 
BRANCH  21  22
ATOM     22  C   UNL     1     -13.015 -39.081  46.261  1.00  0.00    -0.000 C 
BRANCH  22  23
ATOM     23  C   UNL     1     -12.272 -39.518  44.987  1.00  0.00    -0.000 C 
BRANCH  23  24
ATOM     24  C   UNL     1     -11.637 -38.332  44.240  1.00  0.00    -0.000 C 
BRANCH  24  25
ATOM     25  C   UNL     1     -10.145 -38.552  43.949  1.00  0.00    -0.000 C 
BRANCH  25  26
ATOM     26  C   UNL     1      -9.732 -40.000  44.250  1.00  0.00    -0.000 C 
BRANCH  26  27
ATOM     27  C   UNL     1      -8.330 -40.334  43.696  1.00  0.00    -0.000 C 
BRANCH  27  28
ATOM     28  C   UNL     1      -8.363 -41.049  42.334  1.00  0.00    -0.000 C 
BRANCH  28  29
ATOM     29  C   UNL     1      -6.994 -41.607  41.919  1.00  0.00    -0.003 C 
ATOM     30  C   UNL     1      -6.682 -42.904  42.661  1.00  0.00     0.004 C 
ENDBRANCH  28  29
ENDBRANCH  27  28
ENDBRANCH  26  27
ENDBRANCH  25  26
ENDBRANCH  24  25
ENDBRANCH  23  24
ENDBRANCH  22  23
ENDBRANCH  21  22
ENDBRANCH  20  21
ENDBRANCH  19  20
ENDBRANCH  18  19
ENDBRANCH  17  18
ENDBRANCH   1  17
TORSDOF 26
ENDMDL
MODEL 5
REMARK VINA RESULT:    -5.169      1.746      3.303
REMARK INTER + INTRA:         -16.789
REMARK INTER:                 -12.662
REMARK INTRA:                  -4.127
REMARK UNBOUND:                -3.764
REMARK SMILES CCCCCCCCCCCCCCCCCCCCCCCCCCCC(=O)[O-]
REMARK SMILES IDX 15 1 16 2 17 3 18 4 19 5 20 6 21 7 22 8 23 9 24 10 25 11
REMARK SMILES IDX 26 12 27 13 28 14 29 15 30 16 14 17 13 18 12 19 11 20 10 21
REMARK SMILES IDX 9 22 8 23 7 24 6 25 5 26 4 27 3 28 2 29 1 30
REMARK H PARENT
REMARK Flexibility Score: inf
ROOT
ATOM      1  C   UNL     1      -9.944 -34.926  44.681  1.00  0.00     0.000 C 
ENDROOT
BRANCH   1   2
ATOM      2  C   UNL     1     -10.131 -35.019  43.156  1.00  0.00     0.000 C 
BRANCH   2   3
ATOM      3  C   UNL     1     -10.401 -33.652  42.509  1.00  0.00     0.000 C 
BRANCH   3   4
ATOM      4  C   UNL     1      -9.843 -33.546  41.080  1.00  0.00     0.000 C 
BRANCH   4   5
ATOM      5  C   UNL     1      -8.327 -33.291  41.106  1.00  0.00     0.000 C 
BRANCH   5   6
ATOM      6  C   UNL     1      -7.945 -32.031  41.898  1.00  0.00     0.000 C 
BRANCH   6   7
ATOM      7  C   UNL     1      -7.224 -32.356  43.218  1.00  0.00     0.000 C 
BRANCH   7   8
ATOM      8  C   UNL     1      -6.660 -31.106  43.917  1.00  0.00     0.000 C 
BRANCH   8   9
ATOM      9  C   UNL     1      -5.964 -31.366  45.268  1.00  0.00     0.000 C 
BRANCH   9  10
ATOM     10  C   UNL     1      -6.541 -30.515  46.413  1.00  0.00     0.000 C 
BRANCH  10  11
ATOM     11  C   UNL     1      -7.993 -30.890  46.754  1.00  0.00     0.000 C 
BRANCH  11  12
ATOM     12  C   UNL     1      -8.211 -32.412  46.820  1.00  0.00     0.006 C 
BRANCH  12  13
ATOM     13  C   UNL     1      -8.131 -32.947  48.256  1.00  0.00     0.053 C 
BRANCH  13  14
ATOM     14  C   UNL     1      -9.327 -32.554  49.066  1.00  0.00     0.041 C 
ATOM     15  O   UNL     1     -10.484 -32.878  48.688  1.00  0.00    -0.550 OA
ATOM     16  O   UNL     1      -9.164 -31.854  50.254  1.00  0.00    -0.550 OA
ENDBRANCH  13  14
ENDBRANCH  12  13
ENDBRANCH  11  12
ENDBRANCH  10  11
ENDBRANCH   9  10
ENDBRANCH   8   9
ENDBRANCH   7   8
ENDBRANCH   6   7
ENDBRANCH   5   6
ENDBRANCH   4   5
ENDBRANCH   3   4
ENDBRANCH   2   3
ENDBRANCH   1   2
BRANCH   1  17
ATOM     17  C   UNL     1     -10.897 -35.859  45.448  1.00  0.00     0.000 C 
BRANCH  17  18
ATOM     18  C   UNL     1     -10.546 -35.967  46.943  1.00  0.00     0.000 C 
BRANCH  18  19
ATOM     19  C   UNL     1      -9.157 -36.578  47.184  1.00  0.00     0.000 C 
BRANCH  19  20
ATOM     20  C   UNL     1      -9.223 -37.913  47.948  1.00  0.00     0.000 C 
BRANCH  20  21
ATOM     21  C   UNL     1     -10.670 -38.319  48.298  1.00  0.00     0.000 C 
BRANCH  21  22
ATOM     22  C   UNL     1     -10.925 -39.835  48.237  1.00  0.00    -0.000 C 
BRANCH  22  23
ATOM     23  C   UNL     1     -11.777 -40.250  47.026  1.00  0.00    -0.000 C 
BRANCH  23  24
ATOM     24  C   UNL     1     -12.584 -39.078  46.445  1.00  0.00    -0.000 C 
BRANCH  24  25
ATOM     25  C   UNL     1     -13.138 -39.381  45.043  1.00  0.00    -0.000 C 
BRANCH  25  26
ATOM     26  C   UNL     1     -12.129 -38.983  43.955  1.00  0.00    -0.000 C 
BRANCH  26  27
ATOM     27  C   UNL     1     -11.500 -40.212  43.265  1.00  0.00    -0.000 C 
BRANCH  27  28
ATOM     28  C   UNL     1      -9.983 -40.332  43.487  1.00  0.00    -0.000 C 
BRANCH  28  29
ATOM     29  C   UNL     1      -9.410 -39.186  44.332  1.00  0.00    -0.003 C 
ATOM     30  C   UNL     1      -8.083 -39.585  44.971  1.00  0.00     0.004 C 
ENDBRANCH  28  29
ENDBRANCH  27  28
ENDBRANCH  26  27
ENDBRANCH  25  26
ENDBRANCH  24  25
ENDBRANCH  23  24
ENDBRANCH  22  23
ENDBRANCH  21  22
ENDBRANCH  20  21
ENDBRANCH  19  20
ENDBRANCH  18  19
ENDBRANCH  17  18
ENDBRANCH   1  17
TORSDOF 26
ENDMDL
MODEL 6
REMARK VINA RESULT:    -5.152      1.419      4.097
REMARK INTER + INTRA:         -16.746
REMARK INTER:                 -13.145
REMARK INTRA:                  -3.601
REMARK UNBOUND:                -3.764
REMARK SMILES CCCCCCCCCCCCCCCCCCCCCCCCCCCC(=O)[O-]
REMARK SMILES IDX 15 1 16 2 17 3 18 4 19 5 20 6 21 7 22 8 23 9 24 10 25 11
REMARK SMILES IDX 26 12 27 13 28 14 29 15 30 16 14 17 13 18 12 19 11 20 10 21
REMARK SMILES IDX 9 22 8 23 7 24 6 25 5 26 4 27 3 28 2 29 1 30
REMARK H PARENT
REMARK Flexibility Score: inf
ROOT
ATOM      1  C   UNL     1     -10.645 -35.270  45.010  1.00  0.00     0.000 C 
ENDROOT
BRANCH   1   2
ATOM      2  C   UNL     1      -9.528 -34.350  44.488  1.00  0.00     0.000 C 
BRANCH   2   3
ATOM      3  C   UNL     1      -9.187 -34.611  43.013  1.00  0.00     0.000 C 
BRANCH   3   4
ATOM      4  C   UNL     1     -10.166 -33.930  42.042  1.00  0.00     0.000 C 
BRANCH   4   5
ATOM      5  C   UNL     1      -9.416 -33.338  40.839  1.00  0.00     0.000 C 
BRANCH   5   6
ATOM      6  C   UNL     1      -8.011 -32.830  41.199  1.00  0.00     0.000 C 
BRANCH   6   7
ATOM      7  C   UNL     1      -7.945 -31.296  41.304  1.00  0.00     0.000 C 
BRANCH   7   8
ATOM      8  C   UNL     1      -7.433 -30.810  42.672  1.00  0.00     0.000 C 
BRANCH   8   9
ATOM      9  C   UNL     1      -6.920 -31.917  43.614  1.00  0.00     0.000 C 
BRANCH   9  10
ATOM     10  C   UNL     1      -6.116 -31.366  44.805  1.00  0.00     0.000 C 
BRANCH  10  11
ATOM     11  C   UNL     1      -5.613 -29.933  44.565  1.00  0.00     0.000 C 
BRANCH  11  12
ATOM     12  C   UNL     1      -4.126 -29.759  44.924  1.00  0.00     0.006 C 
BRANCH  12  13
ATOM     13  C   UNL     1      -3.914 -28.701  46.014  1.00  0.00     0.053 C 
BRANCH  13  14
ATOM     14  C   UNL     1      -4.480 -29.135  47.331  1.00  0.00     0.041 C 
ATOM     15  O   UNL     1      -5.388 -28.460  47.885  1.00  0.00    -0.550 OA
ATOM     16  O   UNL     1      -4.026 -30.300  47.934  1.00  0.00    -0.550 OA
ENDBRANCH  13  14
ENDBRANCH  12  13
ENDBRANCH  11  12
ENDBRANCH  10  11
ENDBRANCH   9  10
ENDBRANCH   8   9
ENDBRANCH   7   8
ENDBRANCH   6   7
ENDBRANCH   5   6
ENDBRANCH   4   5
ENDBRANCH   3   4
ENDBRANCH   2   3
ENDBRANCH   1   2
BRANCH   1  17
ATOM     17  C   UNL     1     -10.453 -36.734  44.577  1.00  0.00     0.000 C 
BRANCH  17  18
ATOM     18  C   UNL     1      -9.441 -37.486  45.459  1.00  0.00     0.000 C 
BRANCH  18  19
ATOM     19  C   UNL     1      -8.419 -38.288  44.638  1.00  0.00     0.000 C 
BRANCH  19  20
ATOM     20  C   UNL     1      -8.650 -39.808  44.726  1.00  0.00     0.000 C 
BRANCH  20  21
ATOM     21  C   UNL     1      -9.127 -40.408  43.387  1.00  0.00     0.000 C 
BRANCH  21  22
ATOM     22  C   UNL     1     -10.654 -40.383  43.200  1.00  0.00    -0.000 C 
BRANCH  22  23
ATOM     23  C   UNL     1     -11.350 -41.616  43.801  1.00  0.00    -0.000 C 
BRANCH  23  24
ATOM     24  C   UNL     1     -12.519 -41.239  44.727  1.00  0.00    -0.000 C 
BRANCH  24  25
ATOM     25  C   UNL     1     -12.409 -39.801  45.257  1.00  0.00    -0.000 C 
BRANCH  25  26
ATOM     26  C   UNL     1     -12.529 -39.768  46.789  1.00  0.00    -0.000 C 
BRANCH  26  27
ATOM     27  C   UNL     1     -11.220 -40.196  47.485  1.00  0.00    -0.000 C 
BRANCH  27  28
ATOM     28  C   UNL     1     -10.649 -39.125  48.430  1.00  0.00    -0.000 C 
BRANCH  28  29
ATOM     29  C   UNL     1     -11.718 -38.150  48.944  1.00  0.00    -0.003 C 
ATOM     30  C   UNL     1     -11.447 -36.731  48.454  1.00  0.00     0.004 C 
ENDBRANCH  28  29
ENDBRANCH  27  28
ENDBRANCH  26  27
ENDBRANCH  25  26
ENDBRANCH  24  25
ENDBRANCH  23  24
ENDBRANCH  22  23
ENDBRANCH  21  22
ENDBRANCH  20  21
ENDBRANCH  19  20
ENDBRANCH  18  19
ENDBRANCH  17  18
ENDBRANCH   1  17
TORSDOF 26
ENDMDL
MODEL 7
REMARK VINA RESULT:    -5.138      2.608      6.213
REMARK INTER + INTRA:         -16.712
REMARK INTER:                 -11.814
REMARK INTRA:                  -4.897
REMARK UNBOUND:                -3.764
REMARK SMILES CCCCCCCCCCCCCCCCCCCCCCCCCCCC(=O)[O-]
REMARK SMILES IDX 15 1 16 2 17 3 18 4 19 5 20 6 21 7 22 8 23 9 24 10 25 11
REMARK SMILES IDX 26 12 27 13 28 14 29 15 30 16 14 17 13 18 12 19 11 20 10 21
REMARK SMILES IDX 9 22 8 23 7 24 6 25 5 26 4 27 3 28 2 29 1 30
REMARK H PARENT
REMARK Flexibility Score: inf
ROOT
ATOM      1  C   UNL     1     -10.640 -39.164  44.702  1.00  0.00     0.000 C 
ENDROOT
BRANCH   1   2
ATOM      2  C   UNL     1      -9.413 -38.243  44.585  1.00  0.00     0.000 C 
BRANCH   2   3
ATOM      3  C   UNL     1      -8.426 -38.421  45.749  1.00  0.00     0.000 C 
BRANCH   3   4
ATOM      4  C   UNL     1      -8.628 -39.743  46.507  1.00  0.00     0.000 C 
BRANCH   4   5
ATOM      5  C   UNL     1      -8.848 -39.483  48.006  1.00  0.00     0.000 C 
BRANCH   5   6
ATOM      6  C   UNL     1      -9.880 -40.433  48.633  1.00  0.00     0.000 C 
BRANCH   6   7
ATOM      7  C   UNL     1     -11.015 -39.685  49.352  1.00  0.00     0.000 C 
BRANCH   7   8
ATOM      8  C   UNL     1     -11.106 -38.201  48.949  1.00  0.00     0.000 C 
BRANCH   8   9
ATOM      9  C   UNL     1     -12.171 -37.873  47.886  1.00  0.00     0.000 C 
BRANCH   9  10
ATOM     10  C   UNL     1     -11.781 -36.680  46.995  1.00  0.00     0.000 C 
BRANCH  10  11
ATOM     11  C   UNL     1     -10.473 -36.010  47.445  1.00  0.00     0.000 C 
BRANCH  11  12
ATOM     12  C   UNL     1     -10.036 -34.871  46.506  1.00  0.00     0.006 C 
BRANCH  12  13
ATOM     13  C   UNL     1     -10.611 -35.036  45.093  1.00  0.00     0.053 C 
BRANCH  13  14
ATOM     14  C   UNL     1      -9.986 -34.083  44.122  1.00  0.00     0.041 C 
ATOM     15  O   UNL     1      -9.135 -33.242  44.515  1.00  0.00    -0.550 OA
ATOM     16  O   UNL     1     -10.322 -34.142  42.775  1.00  0.00    -0.550 OA
ENDBRANCH  13  14
ENDBRANCH  12  13
ENDBRANCH  11  12
ENDBRANCH  10  11
ENDBRANCH   9  10
ENDBRANCH   8   9
ENDBRANCH   7   8
ENDBRANCH   6   7
ENDBRANCH   5   6
ENDBRANCH   4   5
ENDBRANCH   3   4
ENDBRANCH   2   3
ENDBRANCH   1   2
BRANCH   1  17
ATOM     17  C   UNL     1     -11.419 -39.278  43.380  1.00  0.00     0.000 C 
BRANCH  17  18
ATOM     18  C   UNL     1     -12.445 -40.425  43.392  1.00  0.00     0.000 C 
BRANCH  18  19
ATOM     19  C   UNL     1     -12.218 -41.412  44.548  1.00  0.00     0.000 C 
BRANCH  19  20
ATOM     20  C   UNL     1     -12.275 -42.881  44.092  1.00  0.00     0.000 C 
BRANCH  20  21
ATOM     21  C   UNL     1     -10.942 -43.356  43.475  1.00  0.00     0.000 C 
BRANCH  21  22
ATOM     22  C   UNL     1     -11.039 -43.721  41.984  1.00  0.00    -0.000 C 
BRANCH  22  23
ATOM     23  C   UNL     1      -9.760 -43.379  41.200  1.00  0.00    -0.000 C 
BRANCH  23  24
ATOM     24  C   UNL     1      -9.527 -41.863  41.087  1.00  0.00    -0.000 C 
BRANCH  24  25
ATOM     25  C   UNL     1      -8.119 -41.449  41.544  1.00  0.00    -0.000 C 
BRANCH  25  26
ATOM     26  C   UNL     1      -8.112 -41.073  43.033  1.00  0.00    -0.000 C 
BRANCH  26  27
ATOM     27  C   UNL     1      -6.788 -41.461  43.726  1.00  0.00    -0.000 C 
BRANCH  27  28
ATOM     28  C   UNL     1      -6.004 -42.556  42.982  1.00  0.00    -0.000 C 
BRANCH  28  29
ATOM     29  C   UNL     1      -6.038 -43.910  43.703  1.00  0.00    -0.003 C 
ATOM     30  C   UNL     1      -7.063 -44.845  43.069  1.00  0.00     0.004 C 
ENDBRANCH  28  29
ENDBRANCH  27  28
ENDBRANCH  26  27
ENDBRANCH  25  26
ENDBRANCH  24  25
ENDBRANCH  23  24
ENDBRANCH  22  23
ENDBRANCH  21  22
ENDBRANCH  20  21
ENDBRANCH  19  20
ENDBRANCH  18  19
ENDBRANCH  17  18
ENDBRANCH   1  17
TORSDOF 26
ENDMDL
MODEL 8
REMARK VINA RESULT:    -5.123      7.082     11.436
REMARK INTER + INTRA:         -16.675
REMARK INTER:                 -12.515
REMARK INTRA:                  -4.160
REMARK UNBOUND:                -3.764
REMARK SMILES CCCCCCCCCCCCCCCCCCCCCCCCCCCC(=O)[O-]
REMARK SMILES IDX 15 1 16 2 17 3 18 4 19 5 20 6 21 7 22 8 23 9 24 10 25 11
REMARK SMILES IDX 26 12 27 13 28 14 29 15 30 16 14 17 13 18 12 19 11 20 10 21
REMARK SMILES IDX 9 22 8 23 7 24 6 25 5 26 4 27 3 28 2 29 1 30
REMARK H PARENT
REMARK Flexibility Score: inf
ROOT
ATOM      1  C   UNL     1      -5.727 -31.747  45.784  1.00  0.00     0.000 C 
ENDROOT
BRANCH   1   2
ATOM      2  C   UNL     1      -6.311 -32.122  47.158  1.00  0.00     0.000 C 
BRANCH   2   3
ATOM      3  C   UNL     1      -7.837 -32.292  47.126  1.00  0.00     0.000 C 
BRANCH   3   4
ATOM      4  C   UNL     1      -8.549 -31.516  48.246  1.00  0.00     0.000 C 
BRANCH   4   5
ATOM      5  C   UNL     1      -8.096 -32.017  49.627  1.00  0.00     0.000 C 
BRANCH   5   6
ATOM      6  C   UNL     1      -7.785 -30.874  50.605  1.00  0.00     0.000 C 
BRANCH   6   7
ATOM      7  C   UNL     1      -6.409 -31.026  51.276  1.00  0.00     0.000 C 
BRANCH   7   8
ATOM      8  C   UNL     1      -5.683 -32.322  50.870  1.00  0.00     0.000 C 
BRANCH   8   9
ATOM      9  C   UNL     1      -4.973 -33.065  52.018  1.00  0.00     0.000 C 
BRANCH   9  10
ATOM     10  C   UNL     1      -5.096 -34.596  51.908  1.00  0.00     0.000 C 
BRANCH  10  11
ATOM     11  C   UNL     1      -5.563 -35.246  53.221  1.00  0.00     0.000 C 
BRANCH  11  12
ATOM     12  C   UNL     1      -4.666 -34.877  54.416  1.00  0.00     0.006 C 
BRANCH  12  13
ATOM     13  C   UNL     1      -3.504 -35.864  54.593  1.00  0.00     0.053 C 
BRANCH  13  14
ATOM     14  C   UNL     1      -2.174 -35.184  54.494  1.00  0.00     0.041 C 
ATOM     15  O   UNL     1      -2.059 -34.103  53.858  1.00  0.00    -0.550 OA
ATOM     16  O   UNL     1      -1.065 -35.729  55.129  1.00  0.00    -0.550 OA
ENDBRANCH  13  14
ENDBRANCH  12  13
ENDBRANCH  11  12
ENDBRANCH  10  11
ENDBRANCH   9  10
ENDBRANCH   8   9
ENDBRANCH   7   8
ENDBRANCH   6   7
ENDBRANCH   5   6
ENDBRANCH   4   5
ENDBRANCH   3   4
ENDBRANCH   2   3
ENDBRANCH   1   2
BRANCH   1  17
ATOM     17  C   UNL     1      -6.795 -31.723  44.677  1.00  0.00     0.000 C 
BRANCH  17  18
ATOM     18  C   UNL     1      -6.766 -30.424  43.852  1.00  0.00     0.000 C 
BRANCH  18  19
ATOM     19  C   UNL     1      -5.776 -29.389  44.408  1.00  0.00     0.000 C 
BRANCH  19  20
ATOM     20  C   UNL     1      -6.480 -28.148  44.987  1.00  0.00     0.000 C 
BRANCH  20  21
ATOM     21  C   UNL     1      -7.181 -28.443  46.329  1.00  0.00     0.000 C 
BRANCH  21  22
ATOM     22  C   UNL     1      -6.483 -27.819  47.549  1.00  0.00    -0.000 C 
BRANCH  22  23
ATOM     23  C   UNL     1      -5.590 -28.818  48.304  1.00  0.00    -0.000 C 
BRANCH  23  24
ATOM     24  C   UNL     1      -4.095 -28.480  48.182  1.00  0.00    -0.000 C 
BRANCH  24  25
ATOM     25  C   UNL     1      -3.301 -29.577  47.456  1.00  0.00    -0.000 C 
BRANCH  25  26
ATOM     26  C   UNL     1      -2.699 -29.045  46.146  1.00  0.00    -0.000 C 
BRANCH  26  27
ATOM     27  C   UNL     1      -1.243 -29.516  45.940  1.00  0.00    -0.000 C 
BRANCH  27  28
ATOM     28  C   UNL     1      -0.608 -30.118  47.205  1.00  0.00    -0.000 C 
BRANCH  28  29
ATOM     29  C   UNL     1       0.347 -29.148  47.915  1.00  0.00    -0.003 C 
ATOM     30  C   UNL     1      -0.046 -28.964  49.378  1.00  0.00     0.004 C 
ENDBRANCH  28  29
ENDBRANCH  27  28
ENDBRANCH  26  27
ENDBRANCH  25  26
ENDBRANCH  24  25
ENDBRANCH  23  24
ENDBRANCH  22  23
ENDBRANCH  21  22
ENDBRANCH  20  21
ENDBRANCH  19  20
ENDBRANCH  18  19
ENDBRANCH  17  18
ENDBRANCH   1  17
TORSDOF 26
ENDMDL
MODEL 9
REMARK VINA RESULT:    -5.037      1.755      3.606
REMARK INTER + INTRA:         -16.458
REMARK INTER:                 -12.637
REMARK INTRA:                  -3.822
REMARK UNBOUND:                -3.764
REMARK SMILES CCCCCCCCCCCCCCCCCCCCCCCCCCCC(=O)[O-]
REMARK SMILES IDX 15 1 16 2 17 3 18 4 19 5 20 6 21 7 22 8 23 9 24 10 25 11
REMARK SMILES IDX 26 12 27 13 28 14 29 15 30 16 14 17 13 18 12 19 11 20 10 21
REMARK SMILES IDX 9 22 8 23 7 24 6 25 5 26 4 27 3 28 2 29 1 30
REMARK H PARENT
REMARK Flexibility Score: inf
ROOT
ATOM      1  C   UNL     1     -10.202 -35.448  43.529  1.00  0.00     0.000 C 
ENDROOT
BRANCH   1   2
ATOM      2  C   UNL     1     -10.129 -33.911  43.527  1.00  0.00     0.000 C 
BRANCH   2   3
ATOM      3  C   UNL     1     -10.460 -33.305  42.155  1.00  0.00     0.000 C 
BRANCH   3   4
ATOM      4  C   UNL     1      -9.446 -33.694  41.068  1.00  0.00     0.000 C 
BRANCH   4   5
ATOM      5  C   UNL     1      -8.047 -33.156  41.410  1.00  0.00     0.000 C 
BRANCH   5   6
ATOM      6  C   UNL     1      -7.983 -31.621  41.422  1.00  0.00     0.000 C 
BRANCH   6   7
ATOM      7  C   UNL     1      -7.375 -31.063  42.720  1.00  0.00     0.000 C 
BRANCH   7   8
ATOM      8  C   UNL     1      -6.974 -32.165  43.717  1.00  0.00     0.000 C 
BRANCH   8   9
ATOM      9  C   UNL     1      -6.143 -31.689  44.925  1.00  0.00     0.000 C 
BRANCH   9  10
ATOM     10  C   UNL     1      -6.970 -31.587  46.219  1.00  0.00     0.000 C 
BRANCH  10  11
ATOM     11  C   UNL     1      -8.234 -32.463  46.182  1.00  0.00     0.000 C 
BRANCH  11  12
ATOM     12  C   UNL     1      -9.006 -32.443  47.514  1.00  0.00     0.006 C 
BRANCH  12  13
ATOM     13  C   UNL     1      -9.170 -31.021  48.066  1.00  0.00     0.053 C 
BRANCH  13  14
ATOM     14  C   UNL     1      -8.713 -30.919  49.489  1.00  0.00     0.041 C 
ATOM     15  O   UNL     1      -8.909 -29.861  50.143  1.00  0.00    -0.550 OA
ATOM     16  O   UNL     1      -8.098 -32.002  50.101  1.00  0.00    -0.550 OA
ENDBRANCH  13  14
ENDBRANCH  12  13
ENDBRANCH  11  12
ENDBRANCH  10  11
ENDBRANCH   9  10
ENDBRANCH   8   9
ENDBRANCH   7   8
ENDBRANCH   6   7
ENDBRANCH   5   6
ENDBRANCH   4   5
ENDBRANCH   3   4
ENDBRANCH   2   3
ENDBRANCH   1   2
BRANCH   1  17
ATOM     17  C   UNL     1     -10.642 -36.015  44.890  1.00  0.00     0.000 C 
BRANCH  17  18
ATOM     18  C   UNL     1      -9.504 -36.748  45.623  1.00  0.00     0.000 C 
BRANCH  18  19
ATOM     19  C   UNL     1      -9.025 -38.001  44.875  1.00  0.00     0.000 C 
BRANCH  19  20
ATOM     20  C   UNL     1      -8.340 -39.020  45.803  1.00  0.00     0.000 C 
BRANCH  20  21
ATOM     21  C   UNL     1      -8.469 -38.636  47.293  1.00  0.00     0.000 C 
BRANCH  21  22
ATOM     22  C   UNL     1      -8.766 -39.827  48.220  1.00  0.00    -0.000 C 
BRANCH  22  23
ATOM     23  C   UNL     1     -10.263 -39.979  48.538  1.00  0.00    -0.000 C 
BRANCH  23  24
ATOM     24  C   UNL     1     -11.017 -38.640  48.471  1.00  0.00    -0.000 C 
BRANCH  24  25
ATOM     25  C   UNL     1     -12.251 -38.705  47.556  1.00  0.00    -0.000 C 
BRANCH  25  26
ATOM     26  C   UNL     1     -12.005 -39.644  46.366  1.00  0.00    -0.000 C 
BRANCH  26  27
ATOM     27  C   UNL     1     -12.952 -39.347  45.184  1.00  0.00    -0.000 C 
BRANCH  27  28
ATOM     28  C   UNL     1     -12.221 -39.155  43.844  1.00  0.00    -0.000 C 
BRANCH  28  29
ATOM     29  C   UNL     1     -12.091 -40.457  43.041  1.00  0.00    -0.003 C 
ATOM     30  C   UNL     1     -10.629 -40.867  42.894  1.00  0.00     0.004 C 
ENDBRANCH  28  29
ENDBRANCH  27  28
ENDBRANCH  26  27
ENDBRANCH  25  26
ENDBRANCH  24  25
ENDBRANCH  23  24
ENDBRANCH  22  23
ENDBRANCH  21  22
ENDBRANCH  20  21
ENDBRANCH  19  20
ENDBRANCH  18  19
ENDBRANCH  17  18
ENDBRANCH   1  17
TORSDOF 26
ENDMDL
