MODEL 1
REMARK VINA RESULT:    -4.901      0.000      0.000
REMARK INTER + INTRA:         -10.339
REMARK INTER:                  -7.480
REMARK INTRA:                  -2.858
REMARK UNBOUND:                -2.858
REMARK SMILES CC(=O)CCC=C(C)CCC=C(C)CCC=C(C)C
REMARK SMILES IDX 10 1 11 2 12 3 13 4 14 5 15 6 16 7 18 8 17 9 19 10 9 11 7 12
REMARK SMILES IDX 6 13 8 14 5 15 4 16 2 17 3 18 1 19
REMARK H PARENT
REMARK Flexibility Score: inf
ROOT
ATOM      1  C   UNL     1      32.210  40.136  85.168  1.00  0.00     0.032 C 
ENDROOT
BRANCH   1   2
ATOM      2  C   UNL     1      33.668  39.795  84.987  1.00  0.00    -0.028 C 
ATOM      3  C   UNL     1      34.368  40.116  83.877  1.00  0.00    -0.077 C 
ATOM      4  C   UNL     1      33.726  40.859  82.729  1.00  0.00     0.039 C 
BRANCH   3   5
ATOM      5  C   UNL     1      35.827  39.727  83.783  1.00  0.00     0.034 C 
BRANCH   5   6
ATOM      6  C   UNL     1      36.575  40.102  85.067  1.00  0.00     0.032 C 
BRANCH   6   7
ATOM      7  C   UNL     1      36.845  41.585  85.118  1.00  0.00    -0.028 C 
ATOM      8  C   UNL     1      35.586  41.906  87.261  1.00  0.00     0.039 C 
ATOM      9  C   UNL     1      36.427  42.405  86.108  1.00  0.00    -0.080 C 
ATOM     10  C   UNL     1      36.802  43.863  86.040  1.00  0.00     0.039 C 
ENDBRANCH   6   7
ENDBRANCH   5   6
ENDBRANCH   3   5
ENDBRANCH   1   2
BRANCH   1  11
ATOM     11  C   UNL     1      32.031  41.315  86.130  1.00  0.00     0.034 C 
BRANCH  11  12
ATOM     12  C   UNL     1      31.861  42.606  85.361  1.00  0.00    -0.077 C 
ATOM     13  C   UNL     1      32.880  43.497  85.341  1.00  0.00    -0.028 C 
ATOM     14  C   UNL     1      30.562  42.863  84.634  1.00  0.00     0.039 C 
BRANCH  13  15
ATOM     15  C   UNL     1      32.870  44.786  84.560  1.00  0.00     0.035 C 
BRANCH  15  16
ATOM     16  C   UNL     1      33.412  44.562  83.145  1.00  0.00     0.079 C 
BRANCH  16  17
ATOM     17  C   UNL     1      34.878  44.896  83.076  1.00  0.00     0.130 C 
ATOM     18  O   UNL     1      35.268  45.979  83.484  1.00  0.00    -0.300 OA
ATOM     19  C   UNL     1      35.874  43.934  82.498  1.00  0.00     0.087 C 
ENDBRANCH  16  17
ENDBRANCH  15  16
ENDBRANCH  13  15
ENDBRANCH  11  12
ENDBRANCH   1  11
TORSDOF 9
ENDMDL
MODEL 2
REMARK VINA RESULT:    -4.861      1.826      4.686
REMARK INTER + INTRA:         -10.276
REMARK INTER:                  -8.035
REMARK INTRA:                  -2.241
REMARK UNBOUND:                -2.858
REMARK SMILES CC(=O)CCC=C(C)CCC=C(C)CCC=C(C)C
REMARK SMILES IDX 10 1 11 2 12 3 13 4 14 5 15 6 16 7 18 8 17 9 19 10 9 11 7 12
REMARK SMILES IDX 6 13 8 14 5 15 4 16 2 17 3 18 1 19
REMARK H PARENT
REMARK Flexibility Score: inf
ROOT
ATOM      1  C   UNL     1      36.971  39.738  84.898  1.00  0.00     0.032 C 
ENDROOT
BRANCH   1   2
ATOM      2  C   UNL     1      37.354  41.023  84.206  1.00  0.00    -0.028 C 
ATOM      3  C   UNL     1      37.101  42.244  84.726  1.00  0.00    -0.077 C 
ATOM      4  C   UNL     1      36.415  42.404  86.062  1.00  0.00     0.039 C 
BRANCH   3   5
ATOM      5  C   UNL     1      37.517  43.477  83.955  1.00  0.00     0.034 C 
BRANCH   5   6
ATOM      6  C   UNL     1      36.467  43.839  82.899  1.00  0.00     0.032 C 
BRANCH   6   7
ATOM      7  C   UNL     1      35.467  44.825  83.449  1.00  0.00    -0.028 C 
ATOM      8  C   UNL     1      33.490  43.429  82.806  1.00  0.00     0.039 C 
ATOM      9  C   UNL     1      34.128  44.646  83.436  1.00  0.00    -0.080 C 
ATOM     10  C   UNL     1      33.254  45.706  84.054  1.00  0.00     0.039 C 
ENDBRANCH   6   7
ENDBRANCH   5   6
ENDBRANCH   3   5
ENDBRANCH   1   2
BRANCH   1  11
ATOM     11  C   UNL     1      35.988  38.923  84.051  1.00  0.00     0.034 C 
BRANCH  11  12
ATOM     12  C   UNL     1      34.646  39.616  83.983  1.00  0.00    -0.077 C 
ATOM     13  C   UNL     1      33.901  39.717  85.108  1.00  0.00    -0.028 C 
ATOM     14  C   UNL     1      34.175  40.177  82.661  1.00  0.00     0.039 C 
BRANCH  13  15
ATOM     15  C   UNL     1      32.581  40.440  85.195  1.00  0.00     0.035 C 
BRANCH  15  16
ATOM     16  C   UNL     1      32.738  41.755  85.964  1.00  0.00     0.079 C 
BRANCH  16  17
ATOM     17  C   UNL     1      31.395  42.383  86.228  1.00  0.00     0.130 C 
ATOM     18  O   UNL     1      30.910  42.316  87.347  1.00  0.00    -0.300 OA
ATOM     19  C   UNL     1      30.627  43.074  85.141  1.00  0.00     0.087 C 
ENDBRANCH  16  17
ENDBRANCH  15  16
ENDBRANCH  13  15
ENDBRANCH  11  12
ENDBRANCH   1  11
TORSDOF 9
ENDMDL
MODEL 3
REMARK VINA RESULT:    -4.853      1.991      3.333
REMARK INTER + INTRA:         -10.264
REMARK INTER:                  -7.935
REMARK INTRA:                  -2.329
REMARK UNBOUND:                -2.858
REMARK SMILES CC(=O)CCC=C(C)CCC=C(C)CCC=C(C)C
REMARK SMILES IDX 10 1 11 2 12 3 13 4 14 5 15 6 16 7 18 8 17 9 19 10 9 11 7 12
REMARK SMILES IDX 6 13 8 14 5 15 4 16 2 17 3 18 1 19
REMARK H PARENT
REMARK Flexibility Score: inf
ROOT
ATOM      1  C   UNL     1      33.061  41.176  82.686  1.00  0.00     0.032 C 
ENDROOT
BRANCH   1   2
ATOM      2  C   UNL     1      34.301  40.331  82.848  1.00  0.00    -0.028 C 
ATOM      3  C   UNL     1      34.636  39.728  84.010  1.00  0.00    -0.077 C 
ATOM      4  C   UNL     1      33.770  39.856  85.241  1.00  0.00     0.039 C 
BRANCH   3   5
ATOM      5  C   UNL     1      35.903  38.906  84.079  1.00  0.00     0.034 C 
BRANCH   5   6
ATOM      6  C   UNL     1      36.990  39.644  84.868  1.00  0.00     0.032 C 
BRANCH   6   7
ATOM      7  C   UNL     1      37.497  40.838  84.099  1.00  0.00    -0.028 C 
ATOM      8  C   UNL     1      36.400  42.494  85.624  1.00  0.00     0.039 C 
ATOM      9  C   UNL     1      37.260  42.124  84.437  1.00  0.00    -0.080 C 
ATOM     10  C   UNL     1      37.861  43.214  83.589  1.00  0.00     0.039 C 
ENDBRANCH   6   7
ENDBRANCH   5   6
ENDBRANCH   3   5
ENDBRANCH   1   2
BRANCH   1  11
ATOM     11  C   UNL     1      33.390  42.669  82.789  1.00  0.00     0.034 C 
BRANCH  11  12
ATOM     12  C   UNL     1      32.620  43.305  83.926  1.00  0.00    -0.077 C 
ATOM     13  C   UNL     1      31.529  42.671  84.415  1.00  0.00    -0.028 C 
ATOM     14  C   UNL     1      33.094  44.626  84.484  1.00  0.00     0.039 C 
BRANCH  13  15
ATOM     15  C   UNL     1      30.715  43.158  85.586  1.00  0.00     0.035 C 
BRANCH  15  16
ATOM     16  C   UNL     1      31.114  42.414  86.864  1.00  0.00     0.079 C 
BRANCH  16  17
ATOM     17  C   UNL     1      31.979  43.282  87.739  1.00  0.00     0.130 C 
ATOM     18  O   UNL     1      31.473  44.205  88.358  1.00  0.00    -0.300 OA
ATOM     19  C   UNL     1      33.457  43.051  87.853  1.00  0.00     0.087 C 
ENDBRANCH  16  17
ENDBRANCH  15  16
ENDBRANCH  13  15
ENDBRANCH  11  12
ENDBRANCH   1  11
TORSDOF 9
ENDMDL
MODEL 4
REMARK VINA RESULT:    -4.838      2.167      3.140
REMARK INTER + INTRA:         -10.242
REMARK INTER:                  -8.143
REMARK INTRA:                  -2.099
REMARK UNBOUND:                -2.858
REMARK SMILES CC(=O)CCC=C(C)CCC=C(C)CCC=C(C)C
REMARK SMILES IDX 10 1 11 2 12 3 13 4 14 5 15 6 16 7 18 8 17 9 19 10 9 11 7 12
REMARK SMILES IDX 6 13 8 14 5 15 4 16 2 17 3 18 1 19
REMARK H PARENT
REMARK Flexibility Score: inf
ROOT
ATOM      1  C   UNL     1      32.536  40.393  85.137  1.00  0.00     0.032 C 
ENDROOT
BRANCH   1   2
ATOM      2  C   UNL     1      33.888  39.732  85.048  1.00  0.00    -0.028 C 
ATOM      3  C   UNL     1      34.644  39.747  83.928  1.00  0.00    -0.077 C 
ATOM      4  C   UNL     1      34.179  40.449  82.674  1.00  0.00     0.039 C 
BRANCH   3   5
ATOM      5  C   UNL     1      35.987  39.051  83.931  1.00  0.00     0.034 C 
BRANCH   5   6
ATOM      6  C   UNL     1      36.966  39.759  84.874  1.00  0.00     0.032 C 
BRANCH   6   7
ATOM      7  C   UNL     1      37.188  41.188  84.446  1.00  0.00    -0.028 C 
ATOM      8  C   UNL     1      36.276  42.141  86.575  1.00  0.00     0.039 C 
ATOM      9  C   UNL     1      36.904  42.268  85.207  1.00  0.00    -0.080 C 
ATOM     10  C   UNL     1      37.212  43.636  84.655  1.00  0.00     0.039 C 
ENDBRANCH   6   7
ENDBRANCH   5   6
ENDBRANCH   3   5
ENDBRANCH   1   2
BRANCH   1  11
ATOM     11  C   UNL     1      32.624  41.744  85.855  1.00  0.00     0.034 C 
BRANCH  11  12
ATOM     12  C   UNL     1      32.519  42.880  84.863  1.00  0.00    -0.077 C 
ATOM     13  C   UNL     1      31.583  42.816  83.887  1.00  0.00    -0.028 C 
ATOM     14  C   UNL     1      33.460  44.056  84.990  1.00  0.00     0.039 C 
BRANCH  13  15
ATOM     15  C   UNL     1      31.326  43.907  82.879  1.00  0.00     0.035 C 
BRANCH  15  16
ATOM     16  C   UNL     1      30.078  44.708  83.261  1.00  0.00     0.079 C 
BRANCH  16  17
ATOM     17  C   UNL     1      29.002  44.549  82.220  1.00  0.00     0.130 C 
ATOM     18  O   UNL     1      29.298  44.606  81.036  1.00  0.00    -0.300 OA
ATOM     19  C   UNL     1      27.567  44.341  82.603  1.00  0.00     0.087 C 
ENDBRANCH  16  17
ENDBRANCH  15  16
ENDBRANCH  13  15
ENDBRANCH  11  12
ENDBRANCH   1  11
TORSDOF 9
ENDMDL
MODEL 5
REMARK VINA RESULT:    -4.829      1.350      3.786
REMARK INTER + INTRA:         -10.228
REMARK INTER:                  -7.340
REMARK INTRA:                  -2.888
REMARK UNBOUND:                -2.858
REMARK SMILES CC(=O)CCC=C(C)CCC=C(C)CCC=C(C)C
REMARK SMILES IDX 10 1 11 2 12 3 13 4 14 5 15 6 16 7 18 8 17 9 19 10 9 11 7 12
REMARK SMILES IDX 6 13 8 14 5 15 4 16 2 17 3 18 1 19
REMARK H PARENT
REMARK Flexibility Score: inf
ROOT
ATOM      1  C   UNL     1      34.448  39.384  85.104  1.00  0.00     0.032 C 
ENDROOT
BRANCH   1   2
ATOM      2  C   UNL     1      33.266  40.245  84.734  1.00  0.00    -0.028 C 
ATOM      3  C   UNL     1      33.149  40.864  83.539  1.00  0.00    -0.077 C 
ATOM      4  C   UNL     1      34.211  40.722  82.472  1.00  0.00     0.039 C 
BRANCH   3   5
ATOM      5  C   UNL     1      31.930  41.713  83.260  1.00  0.00     0.034 C 
BRANCH   5   6
ATOM      6  C   UNL     1      31.334  42.256  84.565  1.00  0.00     0.032 C 
BRANCH   6   7
ATOM      7  C   UNL     1      31.955  43.581  84.929  1.00  0.00    -0.028 C 
ATOM      8  C   UNL     1      32.803  42.763  87.139  1.00  0.00     0.039 C 
ATOM      9  C   UNL     1      32.637  43.819  86.071  1.00  0.00    -0.080 C 
ATOM     10  C   UNL     1      33.230  45.188  86.282  1.00  0.00     0.039 C 
ENDBRANCH   6   7
ENDBRANCH   5   6
ENDBRANCH   3   5
ENDBRANCH   1   2
BRANCH   1  11
ATOM     11  C   UNL     1      35.324  40.067  86.160  1.00  0.00     0.034 C 
BRANCH  11  12
ATOM     12  C   UNL     1      36.295  41.023  85.506  1.00  0.00    -0.077 C 
ATOM     13  C   UNL     1      36.283  42.325  85.874  1.00  0.00    -0.028 C 
ATOM     14  C   UNL     1      37.253  40.498  84.462  1.00  0.00     0.039 C 
BRANCH  13  15
ATOM     15  C   UNL     1      37.240  43.368  85.354  1.00  0.00     0.035 C 
BRANCH  15  16
ATOM     16  C   UNL     1      36.476  44.511  84.681  1.00  0.00     0.079 C 
BRANCH  16  17
ATOM     17  C   UNL     1      36.061  44.128  83.286  1.00  0.00     0.130 C 
ATOM     18  O   UNL     1      36.854  43.547  82.561  1.00  0.00    -0.300 OA
ATOM     19  C   UNL     1      34.698  44.460  82.756  1.00  0.00     0.087 C 
ENDBRANCH  16  17
ENDBRANCH  15  16
ENDBRANCH  13  15
ENDBRANCH  11  12
ENDBRANCH   1  11
TORSDOF 9
ENDMDL
MODEL 6
REMARK VINA RESULT:    -4.803      2.985      4.157
REMARK INTER + INTRA:         -10.189
REMARK INTER:                  -8.693
REMARK INTRA:                  -1.496
REMARK UNBOUND:                -2.858
REMARK SMILES CC(=O)CCC=C(C)CCC=C(C)CCC=C(C)C
REMARK SMILES IDX 10 1 11 2 12 3 13 4 14 5 15 6 16 7 18 8 17 9 19 10 9 11 7 12
REMARK SMILES IDX 6 13 8 14 5 15 4 16 2 17 3 18 1 19
REMARK H PARENT
REMARK Flexibility Score: inf
ROOT
ATOM      1  C   UNL     1      32.908  41.184  82.599  1.00  0.00     0.032 C 
ENDROOT
BRANCH   1   2
ATOM      2  C   UNL     1      34.233  40.487  82.783  1.00  0.00    -0.028 C 
ATOM      3  C   UNL     1      34.580  39.850  83.923  1.00  0.00    -0.077 C 
ATOM      4  C   UNL     1      33.641  39.786  85.105  1.00  0.00     0.039 C 
BRANCH   3   5
ATOM      5  C   UNL     1      35.934  39.184  84.017  1.00  0.00     0.034 C 
BRANCH   5   6
ATOM      6  C   UNL     1      36.860  39.962  84.959  1.00  0.00     0.032 C 
BRANCH   6   7
ATOM      7  C   UNL     1      37.542  41.093  84.231  1.00  0.00    -0.028 C 
ATOM      8  C   UNL     1      36.043  42.845  85.209  1.00  0.00     0.039 C 
ATOM      9  C   UNL     1      37.202  42.396  84.350  1.00  0.00    -0.080 C 
ATOM     10  C   UNL     1      37.998  43.419  83.583  1.00  0.00     0.039 C 
ENDBRANCH   6   7
ENDBRANCH   5   6
ENDBRANCH   3   5
ENDBRANCH   1   2
BRANCH   1  11
ATOM     11  C   UNL     1      33.021  42.680  82.910  1.00  0.00     0.034 C 
BRANCH  11  12
ATOM     12  C   UNL     1      31.698  43.220  83.407  1.00  0.00    -0.077 C 
ATOM     13  C   UNL     1      31.078  44.192  82.698  1.00  0.00    -0.028 C 
ATOM     14  C   UNL     1      31.104  42.656  84.677  1.00  0.00     0.039 C 
BRANCH  13  15
ATOM     15  C   UNL     1      29.728  44.768  83.041  1.00  0.00     0.035 C 
BRANCH  15  16
ATOM     16  C   UNL     1      28.770  44.635  81.854  1.00  0.00     0.079 C 
BRANCH  16  17
ATOM     17  C   UNL     1      27.348  44.499  82.328  1.00  0.00     0.130 C 
ATOM     18  O   UNL     1      27.083  43.699  83.213  1.00  0.00    -0.300 OA
ATOM     19  C   UNL     1      26.240  45.311  81.725  1.00  0.00     0.087 C 
ENDBRANCH  16  17
ENDBRANCH  15  16
ENDBRANCH  13  15
ENDBRANCH  11  12
ENDBRANCH   1  11
TORSDOF 9
ENDMDL
MODEL 7
REMARK VINA RESULT:    -4.745      1.360      3.808
REMARK INTER + INTRA:         -10.100
REMARK INTER:                  -7.649
REMARK INTRA:                  -2.451
REMARK UNBOUND:                -2.858
REMARK SMILES CC(=O)CCC=C(C)CCC=C(C)CCC=C(C)C
REMARK SMILES IDX 10 1 11 2 12 3 13 4 14 5 15 6 16 7 18 8 17 9 19 10 9 11 7 12
REMARK SMILES IDX 6 13 8 14 5 15 4 16 2 17 3 18 1 19
REMARK H PARENT
REMARK Flexibility Score: inf
ROOT
ATOM      1  C   UNL     1      35.781  39.481  84.006  1.00  0.00     0.032 C 
ENDROOT
BRANCH   1   2
ATOM      2  C   UNL     1      34.515  39.547  84.823  1.00  0.00    -0.028 C 
ATOM      3  C   UNL     1      33.402  40.190  84.407  1.00  0.00    -0.077 C 
ATOM      4  C   UNL     1      33.350  40.888  83.068  1.00  0.00     0.039 C 
BRANCH   3   5
ATOM      5  C   UNL     1      32.181  40.209  85.299  1.00  0.00     0.034 C 
BRANCH   5   6
ATOM      6  C   UNL     1      31.783  41.648  85.649  1.00  0.00     0.032 C 
BRANCH   6   7
ATOM      7  C   UNL     1      32.854  42.317  86.474  1.00  0.00    -0.028 C 
ATOM      8  C   UNL     1      31.233  43.181  88.176  1.00  0.00     0.039 C 
ATOM      9  C   UNL     1      32.626  42.990  87.623  1.00  0.00    -0.080 C 
ATOM     10  C   UNL     1      33.803  43.579  88.357  1.00  0.00     0.039 C 
ENDBRANCH   6   7
ENDBRANCH   5   6
ENDBRANCH   3   5
ENDBRANCH   1   2
BRANCH   1  11
ATOM     11  C   UNL     1      36.951  40.144  84.740  1.00  0.00     0.034 C 
BRANCH  11  12
ATOM     12  C   UNL     1      36.770  41.644  84.781  1.00  0.00    -0.077 C 
ATOM     13  C   UNL     1      36.789  42.340  83.620  1.00  0.00    -0.028 C 
ATOM     14  C   UNL     1      36.571  42.324  86.116  1.00  0.00     0.039 C 
BRANCH  13  15
ATOM     15  C   UNL     1      36.553  43.825  83.512  1.00  0.00     0.035 C 
BRANCH  15  16
ATOM     16  C   UNL     1      35.225  44.108  82.804  1.00  0.00     0.079 C 
BRANCH  16  17
ATOM     17  C   UNL     1      34.189  44.589  83.784  1.00  0.00     0.130 C 
ATOM     18  O   UNL     1      34.540  44.984  84.885  1.00  0.00    -0.300 OA
ATOM     19  C   UNL     1      32.727  44.575  83.448  1.00  0.00     0.087 C 
ENDBRANCH  16  17
ENDBRANCH  15  16
ENDBRANCH  13  15
ENDBRANCH  11  12
ENDBRANCH   1  11
TORSDOF 9
ENDMDL
MODEL 8
REMARK VINA RESULT:    -4.698      2.021      4.811
REMARK INTER + INTRA:         -10.028
REMARK INTER:                  -7.729
REMARK INTRA:                  -2.300
REMARK UNBOUND:                -2.858
REMARK SMILES CC(=O)CCC=C(C)CCC=C(C)CCC=C(C)C
REMARK SMILES IDX 10 1 11 2 12 3 13 4 14 5 15 6 16 7 18 8 17 9 19 10 9 11 7 12
REMARK SMILES IDX 6 13 8 14 5 15 4 16 2 17 3 18 1 19
REMARK H PARENT
REMARK Flexibility Score: inf
ROOT
ATOM      1  C   UNL     1      34.536  44.114  82.512  1.00  0.00     0.032 C 
ENDROOT
BRANCH   1   2
ATOM      2  C   UNL     1      33.322  43.382  83.028  1.00  0.00    -0.028 C 
ATOM      3  C   UNL     1      33.179  42.041  82.946  1.00  0.00    -0.077 C 
ATOM      4  C   UNL     1      34.250  41.172  82.330  1.00  0.00     0.039 C 
BRANCH   3   5
ATOM      5  C   UNL     1      31.922  41.396  83.486  1.00  0.00     0.034 C 
BRANCH   5   6
ATOM      6  C   UNL     1      32.231  40.565  84.737  1.00  0.00     0.032 C 
BRANCH   6   7
ATOM      7  C   UNL     1      32.961  41.392  85.765  1.00  0.00    -0.028 C 
ATOM      8  C   UNL     1      30.883  42.556  86.543  1.00  0.00     0.039 C 
ATOM      9  C   UNL     1      32.367  42.275  86.600  1.00  0.00    -0.080 C 
ATOM     10  C   UNL     1      33.224  43.006  87.600  1.00  0.00     0.039 C 
ENDBRANCH   6   7
ENDBRANCH   5   6
ENDBRANCH   3   5
ENDBRANCH   1   2
BRANCH   1  11
ATOM     11  C   UNL     1      35.359  44.704  83.661  1.00  0.00     0.034 C 
BRANCH  11  12
ATOM     12  C   UNL     1      36.380  43.701  84.153  1.00  0.00    -0.077 C 
ATOM     13  C   UNL     1      36.117  42.994  85.276  1.00  0.00    -0.028 C 
ATOM     14  C   UNL     1      37.661  43.516  83.374  1.00  0.00     0.039 C 
BRANCH  13  15
ATOM     15  C   UNL     1      37.012  41.918  85.835  1.00  0.00     0.035 C 
BRANCH  15  16
ATOM     16  C   UNL     1      36.317  40.554  85.773  1.00  0.00     0.079 C 
BRANCH  16  17
ATOM     17  C   UNL     1      36.827  39.747  84.609  1.00  0.00     0.130 C 
ATOM     18  O   UNL     1      37.921  40.006  84.132  1.00  0.00    -0.300 OA
ATOM     19  C   UNL     1      36.013  38.640  84.008  1.00  0.00     0.087 C 
ENDBRANCH  16  17
ENDBRANCH  15  16
ENDBRANCH  13  15
ENDBRANCH  11  12
ENDBRANCH   1  11
TORSDOF 9
ENDMDL
MODEL 9
REMARK VINA RESULT:    -4.686      2.095      4.486
REMARK INTER + INTRA:         -10.010
REMARK INTER:                  -7.512
REMARK INTRA:                  -2.498
REMARK UNBOUND:                -2.858
REMARK SMILES CC(=O)CCC=C(C)CCC=C(C)CCC=C(C)C
REMARK SMILES IDX 10 1 11 2 12 3 13 4 14 5 15 6 16 7 18 8 17 9 19 10 9 11 7 12
REMARK SMILES IDX 6 13 8 14 5 15 4 16 2 17 3 18 1 19
REMARK H PARENT
REMARK Flexibility Score: inf
ROOT
ATOM      1  C   UNL     1      36.191  43.868  83.630  1.00  0.00     0.032 C 
ENDROOT
BRANCH   1   2
ATOM      2  C   UNL     1      36.475  42.387  83.617  1.00  0.00    -0.028 C 
ATOM      3  C   UNL     1      36.706  41.670  84.739  1.00  0.00    -0.077 C 
ATOM      4  C   UNL     1      36.683  42.317  86.104  1.00  0.00     0.039 C 
BRANCH   3   5
ATOM      5  C   UNL     1      36.988  40.189  84.627  1.00  0.00     0.034 C 
BRANCH   5   6
ATOM      6  C   UNL     1      35.785  39.449  84.030  1.00  0.00     0.032 C 
BRANCH   6   7
ATOM      7  C   UNL     1      34.550  39.665  84.869  1.00  0.00    -0.028 C 
ATOM      8  C   UNL     1      33.232  40.634  82.972  1.00  0.00     0.039 C 
ATOM      9  C   UNL     1      33.389  40.176  84.404  1.00  0.00    -0.080 C 
ATOM     10  C   UNL     1      32.227  40.302  85.355  1.00  0.00     0.039 C 
ENDBRANCH   6   7
ENDBRANCH   5   6
ENDBRANCH   3   5
ENDBRANCH   1   2
BRANCH   1  11
ATOM     11  C   UNL     1      34.916  44.196  82.846  1.00  0.00     0.034 C 
BRANCH  11  12
ATOM     12  C   UNL     1      33.706  44.133  83.751  1.00  0.00    -0.077 C 
ATOM     13  C   UNL     1      33.886  44.171  85.092  1.00  0.00    -0.028 C 
ATOM     14  C   UNL     1      32.331  44.032  83.133  1.00  0.00     0.039 C 
BRANCH  13  15
ATOM     15  C   UNL     1      32.768  44.186  86.103  1.00  0.00     0.035 C 
BRANCH  15  16
ATOM     16  C   UNL     1      33.122  43.311  87.308  1.00  0.00     0.079 C 
BRANCH  16  17
ATOM     17  C   UNL     1      31.921  43.112  88.194  1.00  0.00     0.130 C 
ATOM     18  O   UNL     1      32.049  43.192  89.406  1.00  0.00    -0.300 OA
ATOM     19  C   UNL     1      30.571  42.797  87.623  1.00  0.00     0.087 C 
ENDBRANCH  16  17
ENDBRANCH  15  16
ENDBRANCH  13  15
ENDBRANCH  11  12
ENDBRANCH   1  11
TORSDOF 9
ENDMDL
