MODEL 1
REMARK VINA RESULT:    -4.376      0.000      0.000
REMARK INTER + INTRA:          -5.363
REMARK INTER:                  -5.271
REMARK INTRA:                  -0.092
REMARK UNBOUND:                -0.092
REMARK SMILES COC(=O)c1cc(O)c(O)c(O)c1
REMARK SMILES IDX 5 1 13 2 11 3 9 4 7 5 6 6 3 7 4 8 2 9 1 10 12 11 8 13 10 15
REMARK H PARENT 12 12 8 14 10 16
REMARK Flexibility Score: inf
ROOT
ATOM      1  C   UNL     1      20.317   6.496 -34.184  1.00  0.00     0.067 A 
ATOM      2  C   UNL     1      20.290   5.283 -33.479  1.00  0.00     0.066 A 
ATOM      3  C   UNL     1      20.664   5.224 -32.130  1.00  0.00     0.162 A 
ATOM      4  C   UNL     1      21.077   6.403 -31.468  1.00  0.00     0.200 A 
ATOM      5  C   UNL     1      21.105   7.616 -32.170  1.00  0.00     0.162 A 
ATOM      6  C   UNL     1      20.727   7.662 -33.518  1.00  0.00     0.066 A 
ENDROOT
BRANCH   1   7
ATOM      7  C   UNL     1      19.918   6.541 -35.609  1.00  0.00     0.338 C 
ATOM      8  O   UNL     1      20.515   5.823 -36.457  1.00  0.00    -0.246 OA
BRANCH   7   9
ATOM      9  O   UNL     1      18.876   7.383 -36.014  1.00  0.00    -0.465 OA
ATOM     10  C   UNL     1      17.697   6.898 -36.647  1.00  0.00     0.282 C 
ENDBRANCH   7   9
ENDBRANCH   1   7
BRANCH   3  11
ATOM     11  O   UNL     1      20.612   3.981 -31.496  1.00  0.00    -0.504 OA
ATOM     12  H   UNL     1      19.895   3.289 -31.663  1.00  0.00     0.293 HD
ENDBRANCH   3  11
BRANCH   5  13
ATOM     13  O   UNL     1      21.511   8.780 -31.517  1.00  0.00    -0.504 OA
ATOM     14  H   UNL     1      21.164   9.692 -31.791  1.00  0.00     0.293 HD
ENDBRANCH   5  13
BRANCH   4  15
ATOM     15  O   UNL     1      21.464   6.414 -30.125  1.00  0.00    -0.502 OA
ATOM     16  H   UNL     1      21.063   5.818 -29.415  1.00  0.00     0.293 HD
ENDBRANCH   4  15
TORSDOF 5
ENDMDL
MODEL 2
REMARK VINA RESULT:    -4.352     17.503     19.563
REMARK INTER + INTRA:          -5.334
REMARK INTER:                  -5.217
REMARK INTRA:                  -0.117
REMARK UNBOUND:                -0.092
REMARK SMILES COC(=O)c1cc(O)c(O)c(O)c1
REMARK SMILES IDX 5 1 13 2 11 3 9 4 7 5 6 6 3 7 4 8 2 9 1 10 12 11 8 13 10 15
REMARK H PARENT 12 12 8 14 10 16
REMARK Flexibility Score: inf
ROOT
ATOM      1  C   UNL     1      30.535  -5.936 -23.788  1.00  0.00     0.067 A 
ATOM      2  C   UNL     1      30.863  -6.962 -24.689  1.00  0.00     0.066 A 
ATOM      3  C   UNL     1      32.020  -7.730 -24.516  1.00  0.00     0.162 A 
ATOM      4  C   UNL     1      32.875  -7.469 -23.420  1.00  0.00     0.200 A 
ATOM      5  C   UNL     1      32.550  -6.445 -22.519  1.00  0.00     0.162 A 
ATOM      6  C   UNL     1      31.388  -5.684 -22.703  1.00  0.00     0.066 A 
ENDROOT
BRANCH   1   7
ATOM      7  C   UNL     1      29.306  -5.133 -23.985  1.00  0.00     0.338 C 
ATOM      8  O   UNL     1      28.343  -5.602 -24.652  1.00  0.00    -0.246 OA
BRANCH   7   9
ATOM      9  O   UNL     1      29.215  -3.852 -23.429  1.00  0.00    -0.465 OA
ATOM     10  C   UNL     1      29.435  -2.668 -24.188  1.00  0.00     0.282 C 
ENDBRANCH   7   9
ENDBRANCH   1   7
BRANCH   3  11
ATOM     11  O   UNL     1      32.280  -8.733 -25.453  1.00  0.00    -0.504 OA
ATOM     12  H   UNL     1      33.051  -8.714 -26.104  1.00  0.00     0.293 HD
ENDBRANCH   3  11
BRANCH   5  13
ATOM     13  O   UNL     1      33.392  -6.188 -21.437  1.00  0.00    -0.504 OA
ATOM     14  H   UNL     1      33.080  -6.311 -20.481  1.00  0.00     0.293 HD
ENDBRANCH   5  13
BRANCH   4  15
ATOM     15  O   UNL     1      34.046  -8.197 -23.190  1.00  0.00    -0.502 OA
ATOM     16  H   UNL     1      34.344  -8.981 -23.752  1.00  0.00     0.293 HD
ENDBRANCH   4  15
TORSDOF 5
ENDMDL
MODEL 3
REMARK VINA RESULT:    -4.333      0.349      2.353
REMARK INTER + INTRA:          -5.311
REMARK INTER:                  -5.211
REMARK INTRA:                  -0.100
REMARK UNBOUND:                -0.092
REMARK SMILES COC(=O)c1cc(O)c(O)c(O)c1
REMARK SMILES IDX 5 1 13 2 11 3 9 4 7 5 6 6 3 7 4 8 2 9 1 10 12 11 8 13 10 15
REMARK H PARENT 12 12 8 14 10 16
REMARK Flexibility Score: inf
ROOT
ATOM      1  C   UNL     1      20.580   6.457 -34.060  1.00  0.00     0.067 A 
ATOM      2  C   UNL     1      20.800   7.671 -33.392  1.00  0.00     0.066 A 
ATOM      3  C   UNL     1      21.158   7.694 -32.038  1.00  0.00     0.162 A 
ATOM      4  C   UNL     1      21.298   6.477 -31.331  1.00  0.00     0.200 A 
ATOM      5  C   UNL     1      21.077   5.263 -31.997  1.00  0.00     0.162 A 
ATOM      6  C   UNL     1      20.721   5.254 -33.352  1.00  0.00     0.066 A 
ENDROOT
BRANCH   1   7
ATOM      7  C   UNL     1      20.203   6.450 -35.492  1.00  0.00     0.338 C 
ATOM      8  O   UNL     1      20.754   5.641 -36.289  1.00  0.00    -0.246 OA
BRANCH   7   9
ATOM      9  O   UNL     1      19.234   7.344 -35.961  1.00  0.00    -0.465 OA
ATOM     10  C   UNL     1      17.964   6.917 -36.442  1.00  0.00     0.282 C 
ENDBRANCH   7   9
ENDBRANCH   1   7
BRANCH   3  11
ATOM     11  O   UNL     1      21.361   8.941 -31.441  1.00  0.00    -0.504 OA
ATOM     12  H   UNL     1      22.035   9.115 -30.709  1.00  0.00     0.293 HD
ENDBRANCH   3  11
BRANCH   5  13
ATOM     13  O   UNL     1      21.216   4.063 -31.301  1.00  0.00    -0.504 OA
ATOM     14  H   UNL     1      21.386   4.044 -30.302  1.00  0.00     0.293 HD
ENDBRANCH   5  13
BRANCH   4  15
ATOM     15  O   UNL     1      21.651   6.429 -29.980  1.00  0.00    -0.502 OA
ATOM     16  H   UNL     1      21.762   5.575 -29.454  1.00  0.00     0.293 HD
ENDBRANCH   4  15
TORSDOF 5
ENDMDL
MODEL 4
REMARK VINA RESULT:    -4.284     17.390     19.529
REMARK INTER + INTRA:          -5.252
REMARK INTER:                  -5.138
REMARK INTRA:                  -0.114
REMARK UNBOUND:                -0.092
REMARK SMILES COC(=O)c1cc(O)c(O)c(O)c1
REMARK SMILES IDX 5 1 13 2 11 3 9 4 7 5 6 6 3 7 4 8 2 9 1 10 12 11 8 13 10 15
REMARK H PARENT 12 12 8 14 10 16
REMARK Flexibility Score: inf
ROOT
ATOM      1  C   UNL     1      30.421  -5.903 -23.864  1.00  0.00     0.067 A 
ATOM      2  C   UNL     1      31.226  -5.706 -22.730  1.00  0.00     0.066 A 
ATOM      3  C   UNL     1      32.362  -6.492 -22.506  1.00  0.00     0.162 A 
ATOM      4  C   UNL     1      32.706  -7.503 -23.434  1.00  0.00     0.200 A 
ATOM      5  C   UNL     1      31.904  -7.703 -24.567  1.00  0.00     0.162 A 
ATOM      6  C   UNL     1      30.770  -6.909 -24.779  1.00  0.00     0.066 A 
ENDROOT
BRANCH   1   7
ATOM      7  C   UNL     1      29.223  -5.063 -24.086  1.00  0.00     0.338 C 
ATOM      8  O   UNL     1      28.278  -5.483 -24.809  1.00  0.00    -0.246 OA
BRANCH   7   9
ATOM      9  O   UNL     1      29.140  -3.798 -23.493  1.00  0.00    -0.465 OA
ATOM     10  C   UNL     1      29.294  -2.591 -24.232  1.00  0.00     0.282 C 
ENDBRANCH   7   9
ENDBRANCH   1   7
BRANCH   3  11
ATOM     11  O   UNL     1      33.113  -6.237 -21.356  1.00  0.00    -0.504 OA
ATOM     12  H   UNL     1      32.747  -6.296 -20.417  1.00  0.00     0.293 HD
ENDBRANCH   3  11
BRANCH   5  13
ATOM     13  O   UNL     1      32.243  -8.699 -25.482  1.00  0.00    -0.504 OA
ATOM     14  H   UNL     1      32.046  -9.677 -25.301  1.00  0.00     0.293 HD
ENDBRANCH   5  13
BRANCH   4  15
ATOM     15  O   UNL     1      33.825  -8.324 -23.270  1.00  0.00    -0.502 OA
ATOM     16  H   UNL     1      34.004  -8.879 -22.446  1.00  0.00     0.293 HD
ENDBRANCH   4  15
TORSDOF 5
ENDMDL
MODEL 5
REMARK VINA RESULT:    -4.194     17.023     19.327
REMARK INTER + INTRA:          -5.144
REMARK INTER:                  -5.026
REMARK INTRA:                  -0.118
REMARK UNBOUND:                -0.092
REMARK SMILES COC(=O)c1cc(O)c(O)c(O)c1
REMARK SMILES IDX 5 1 13 2 11 3 9 4 7 5 6 6 3 7 4 8 2 9 1 10 12 11 8 13 10 15
REMARK H PARENT 12 12 8 14 10 16
REMARK Flexibility Score: inf
ROOT
ATOM      1  C   UNL     1      31.108  -6.331 -23.657  1.00  0.00     0.067 A 
ATOM      2  C   UNL     1      30.460  -7.514 -24.048  1.00  0.00     0.066 A 
ATOM      3  C   UNL     1      29.121  -7.501 -24.456  1.00  0.00     0.162 A 
ATOM      4  C   UNL     1      28.407  -6.280 -24.474  1.00  0.00     0.200 A 
ATOM      5  C   UNL     1      29.052  -5.097 -24.084  1.00  0.00     0.162 A 
ATOM      6  C   UNL     1      30.393  -5.124 -23.678  1.00  0.00     0.066 A 
ENDROOT
BRANCH   1   7
ATOM      7  C   UNL     1      32.525  -6.362 -23.229  1.00  0.00     0.338 C 
ATOM      8  O   UNL     1      33.263  -7.336 -23.547  1.00  0.00    -0.246 OA
BRANCH   7   9
ATOM      9  O   UNL     1      33.046  -5.309 -22.469  1.00  0.00    -0.465 OA
ATOM     10  C   UNL     1      33.156  -5.366 -21.051  1.00  0.00     0.282 C 
ENDBRANCH   7   9
ENDBRANCH   1   7
BRANCH   3  11
ATOM     11  O   UNL     1      28.545  -8.717 -24.830  1.00  0.00    -0.504 OA
ATOM     12  H   UNL     1      28.507  -9.057 -25.781  1.00  0.00     0.293 HD
ENDBRANCH   3  11
BRANCH   5  13
ATOM     13  O   UNL     1      28.350  -3.893 -24.102  1.00  0.00    -0.504 OA
ATOM     14  H   UNL     1      28.398  -3.238 -23.331  1.00  0.00     0.293 HD
ENDBRANCH   5  13
BRANCH   4  15
ATOM     15  O   UNL     1      27.070  -6.197 -24.869  1.00  0.00    -0.502 OA
ATOM     16  H   UNL     1      26.512  -5.358 -24.807  1.00  0.00     0.293 HD
ENDBRANCH   4  15
TORSDOF 5
ENDMDL
MODEL 6
REMARK VINA RESULT:    -4.162     17.083     19.498
REMARK INTER + INTRA:          -5.106
REMARK INTER:                  -5.004
REMARK INTRA:                  -0.102
REMARK UNBOUND:                -0.092
REMARK SMILES COC(=O)c1cc(O)c(O)c(O)c1
REMARK SMILES IDX 5 1 13 2 11 3 9 4 7 5 6 6 3 7 4 8 2 9 1 10 12 11 8 13 10 15
REMARK H PARENT 12 12 8 14 10 16
REMARK Flexibility Score: inf
ROOT
ATOM      1  C   UNL     1      31.255  -6.385 -23.635  1.00  0.00     0.067 A 
ATOM      2  C   UNL     1      30.616  -5.137 -23.715  1.00  0.00     0.066 A 
ATOM      3  C   UNL     1      29.276  -5.037 -24.109  1.00  0.00     0.162 A 
ATOM      4  C   UNL     1      28.554  -6.209 -24.433  1.00  0.00     0.200 A 
ATOM      5  C   UNL     1      29.189  -7.456 -24.355  1.00  0.00     0.162 A 
ATOM      6  C   UNL     1      30.530  -7.542 -23.959  1.00  0.00     0.066 A 
ENDROOT
BRANCH   1   7
ATOM      7  C   UNL     1      32.672  -6.473 -23.216  1.00  0.00     0.338 C 
ATOM      8  O   UNL     1      33.119  -5.700 -22.324  1.00  0.00    -0.246 OA
BRANCH   7   9
ATOM      9  O   UNL     1      33.517  -7.416 -23.812  1.00  0.00    -0.465 OA
ATOM     10  C   UNL     1      33.960  -7.308 -25.160  1.00  0.00     0.282 C 
ENDBRANCH   7   9
ENDBRANCH   1   7
BRANCH   3  11
ATOM     11  O   UNL     1      28.709  -3.761 -24.164  1.00  0.00    -0.504 OA
ATOM     12  H   UNL     1      28.508  -3.268 -25.022  1.00  0.00     0.293 HD
ENDBRANCH   3  11
BRANCH   5  13
ATOM     13  O   UNL     1      28.477  -8.612 -24.674  1.00  0.00    -0.504 OA
ATOM     14  H   UNL     1      27.886  -8.661 -25.496  1.00  0.00     0.293 HD
ENDBRANCH   5  13
BRANCH   4  15
ATOM     15  O   UNL     1      27.216  -6.179 -24.835  1.00  0.00    -0.502 OA
ATOM     16  H   UNL     1      26.598  -5.395 -24.687  1.00  0.00     0.293 HD
ENDBRANCH   4  15
TORSDOF 5
ENDMDL
MODEL 7
REMARK VINA RESULT:    -4.151     17.043     19.513
REMARK INTER + INTRA:          -5.092
REMARK INTER:                  -4.975
REMARK INTRA:                  -0.118
REMARK UNBOUND:                -0.092
REMARK SMILES COC(=O)c1cc(O)c(O)c(O)c1
REMARK SMILES IDX 5 1 13 2 11 3 9 4 7 5 6 6 3 7 4 8 2 9 1 10 12 11 8 13 10 15
REMARK H PARENT 12 12 8 14 10 16
REMARK Flexibility Score: inf
ROOT
ATOM      1  C   UNL     1      31.205  -6.342 -23.628  1.00  0.00     0.067 A 
ATOM      2  C   UNL     1      30.550  -5.103 -23.700  1.00  0.00     0.066 A 
ATOM      3  C   UNL     1      29.210  -5.018 -24.098  1.00  0.00     0.162 A 
ATOM      4  C   UNL     1      28.505  -6.197 -24.435  1.00  0.00     0.200 A 
ATOM      5  C   UNL     1      29.157  -7.436 -24.365  1.00  0.00     0.162 A 
ATOM      6  C   UNL     1      30.498  -7.507 -23.964  1.00  0.00     0.066 A 
ENDROOT
BRANCH   1   7
ATOM      7  C   UNL     1      32.622  -6.415 -23.205  1.00  0.00     0.338 C 
ATOM      8  O   UNL     1      33.315  -7.433 -23.481  1.00  0.00    -0.246 OA
BRANCH   7   9
ATOM      9  O   UNL     1      33.192  -5.352 -22.495  1.00  0.00    -0.465 OA
ATOM     10  C   UNL     1      33.320  -5.355 -21.077  1.00  0.00     0.282 C 
ENDBRANCH   7   9
ENDBRANCH   1   7
BRANCH   3  11
ATOM     11  O   UNL     1      28.626  -3.750 -24.146  1.00  0.00    -0.504 OA
ATOM     12  H   UNL     1      27.710  -3.535 -23.778  1.00  0.00     0.293 HD
ENDBRANCH   3  11
BRANCH   5  13
ATOM     13  O   UNL     1      28.463  -8.599 -24.696  1.00  0.00    -0.504 OA
ATOM     14  H   UNL     1      28.649  -9.480 -24.231  1.00  0.00     0.293 HD
ENDBRANCH   5  13
BRANCH   4  15
ATOM     15  O   UNL     1      27.168  -6.182 -24.841  1.00  0.00    -0.502 OA
ATOM     16  H   UNL     1      26.741  -6.898 -25.411  1.00  0.00     0.293 HD
ENDBRANCH   4  15
TORSDOF 5
ENDMDL
MODEL 8
REMARK VINA RESULT:    -4.118     16.789     19.215
REMARK INTER + INTRA:          -5.052
REMARK INTER:                  -4.914
REMARK INTRA:                  -0.138
REMARK UNBOUND:                -0.092
REMARK SMILES COC(=O)c1cc(O)c(O)c(O)c1
REMARK SMILES IDX 5 1 13 2 11 3 9 4 7 5 6 6 3 7 4 8 2 9 1 10 12 11 8 13 10 15
REMARK H PARENT 12 12 8 14 10 16
REMARK Flexibility Score: inf
ROOT
ATOM      1  C   UNL     1      30.791  -7.253 -24.468  1.00  0.00     0.067 A 
ATOM      2  C   UNL     1      29.426  -7.136 -24.161  1.00  0.00     0.066 A 
ATOM      3  C   UNL     1      28.511  -6.668 -25.111  1.00  0.00     0.162 A 
ATOM      4  C   UNL     1      28.966  -6.306 -26.401  1.00  0.00     0.200 A 
ATOM      5  C   UNL     1      30.329  -6.421 -26.710  1.00  0.00     0.162 A 
ATOM      6  C   UNL     1      31.234  -6.892 -25.749  1.00  0.00     0.066 A 
ENDROOT
BRANCH   1   7
ATOM      7  C   UNL     1      31.746  -7.750 -23.451  1.00  0.00     0.338 C 
ATOM      8  O   UNL     1      32.434  -8.783 -23.680  1.00  0.00    -0.246 OA
BRANCH   7   9
ATOM      9  O   UNL     1      31.883  -7.073 -22.235  1.00  0.00    -0.465 OA
ATOM     10  C   UNL     1      32.413  -5.755 -22.144  1.00  0.00     0.282 C 
ENDBRANCH   7   9
ENDBRANCH   1   7
BRANCH   3  11
ATOM     11  O   UNL     1      27.169  -6.579 -24.732  1.00  0.00    -0.504 OA
ATOM     12  H   UNL     1      26.399  -6.909 -25.296  1.00  0.00     0.293 HD
ENDBRANCH   3  11
BRANCH   5  13
ATOM     13  O   UNL     1      30.778  -6.065 -27.981  1.00  0.00    -0.504 OA
ATOM     14  H   UNL     1      30.934  -6.759 -28.703  1.00  0.00     0.293 HD
ENDBRANCH   5  13
BRANCH   4  15
ATOM     15  O   UNL     1      28.106  -5.831 -27.395  1.00  0.00    -0.502 OA
ATOM     16  H   UNL     1      27.110  -5.718 -27.275  1.00  0.00     0.293 HD
ENDBRANCH   4  15
TORSDOF 5
ENDMDL
MODEL 9
REMARK VINA RESULT:    -3.990     18.896     20.608
REMARK INTER + INTRA:          -4.898
REMARK INTER:                  -4.804
REMARK INTRA:                  -0.094
REMARK UNBOUND:                -0.092
REMARK SMILES COC(=O)c1cc(O)c(O)c(O)c1
REMARK SMILES IDX 5 1 13 2 11 3 9 4 7 5 6 6 3 7 4 8 2 9 1 10 12 11 8 13 10 15
REMARK H PARENT 12 12 8 14 10 16
REMARK Flexibility Score: inf
ROOT
ATOM      1  C   UNL     1      32.595  -5.808 -23.042  1.00  0.00     0.067 A 
ATOM      2  C   UNL     1      33.387  -6.505 -23.967  1.00  0.00     0.066 A 
ATOM      3  C   UNL     1      32.805  -7.230 -25.014  1.00  0.00     0.162 A 
ATOM      4  C   UNL     1      31.396  -7.263 -25.142  1.00  0.00     0.200 A 
ATOM      5  C   UNL     1      30.603  -6.568 -24.218  1.00  0.00     0.162 A 
ATOM      6  C   UNL     1      31.199  -5.846 -23.176  1.00  0.00     0.066 A 
ENDROOT
BRANCH   1   7
ATOM      7  C   UNL     1      33.227  -5.046 -21.941  1.00  0.00     0.338 C 
ATOM      8  O   UNL     1      33.615  -3.860 -22.132  1.00  0.00    -0.246 OA
BRANCH   7   9
ATOM      9  O   UNL     1      33.396  -5.644 -20.687  1.00  0.00    -0.465 OA
ATOM     10  C   UNL     1      32.989  -5.018 -19.476  1.00  0.00     0.282 C 
ENDBRANCH   7   9
ENDBRANCH   1   7
BRANCH   3  11
ATOM     11  O   UNL     1      33.658  -7.897 -25.896  1.00  0.00    -0.504 OA
ATOM     12  H   UNL     1      33.404  -8.731 -26.407  1.00  0.00     0.293 HD
ENDBRANCH   3  11
BRANCH   5  13
ATOM     13  O   UNL     1      29.214  -6.599 -24.344  1.00  0.00    -0.504 OA
ATOM     14  H   UNL     1      28.620  -5.947 -23.845  1.00  0.00     0.293 HD
ENDBRANCH   5  13
BRANCH   4  15
ATOM     15  O   UNL     1      30.751  -7.967 -26.162  1.00  0.00    -0.502 OA
ATOM     16  H   UNL     1      31.156  -8.751 -26.653  1.00  0.00     0.293 HD
ENDBRANCH   4  15
TORSDOF 5
ENDMDL
