MODEL 1
REMARK VINA RESULT:     0.300      0.000      0.000
REMARK INTER + INTRA:           0.072
REMARK INTER:                   0.405
REMARK INTRA:                  -0.333
REMARK UNBOUND:                -0.333
REMARK SMILES CCCCCCC=CC(=O)[O-]
REMARK SMILES IDX 5 1 6 2 7 3 8 4 9 5 10 6 11 7 4 8 3 9 2 10 1 11
REMARK H PARENT
REMARK Flexibility Score: inf
ROOT
ATOM      1  C   UNL     1      93.455   8.018  63.266  1.00  0.00     0.004 C 
ENDROOT
BRANCH   1   2
ATOM      2  C   UNL     1      93.502   8.954  62.052  1.00  0.00     0.027 C 
BRANCH   2   3
ATOM      3  C   UNL     1      92.205   9.690  61.883  1.00  0.00    -0.025 C 
ATOM      4  C   UNL     1      91.027   9.090  62.093  1.00  0.00     0.020 C 
BRANCH   4   5
ATOM      5  C   UNL     1      89.744   9.795  61.947  1.00  0.00     0.064 C 
ATOM      6  O   UNL     1      89.696  11.052  61.876  1.00  0.00    -0.545 OA
ATOM      7  O   UNL     1      88.566   9.063  61.885  1.00  0.00    -0.545 OA
ENDBRANCH   4   5
ENDBRANCH   2   3
ENDBRANCH   1   2
BRANCH   1   8
ATOM      8  C   UNL     1      94.866   7.743  63.802  1.00  0.00     0.000 C 
BRANCH   8   9
ATOM      9  C   UNL     1      95.933   8.189  62.797  1.00  0.00    -0.000 C 
BRANCH   9  10
ATOM     10  C   UNL     1      96.733   9.381  63.336  1.00  0.00    -0.003 C 
ATOM     11  C   UNL     1      96.855  10.483  62.287  1.00  0.00     0.004 C 
ENDBRANCH   9  10
ENDBRANCH   8   9
ENDBRANCH   1   8
TORSDOF 6
ENDMDL
MODEL 2
REMARK VINA RESULT:     1.301     16.942     17.930
REMARK INTER + INTRA:           1.424
REMARK INTER:                   1.569
REMARK INTRA:                  -0.145
REMARK UNBOUND:                -0.333
REMARK SMILES CCCCCCC=CC(=O)[O-]
REMARK SMILES IDX 5 1 6 2 7 3 8 4 9 5 10 6 11 7 4 8 3 9 2 10 1 11
REMARK H PARENT
REMARK Flexibility Score: inf
ROOT
ATOM      1  C   UNL     1      77.953   0.545  64.008  1.00  0.00     0.004 C 
ENDROOT
BRANCH   1   2
ATOM      2  C   UNL     1      79.279   0.263  64.726  1.00  0.00     0.027 C 
BRANCH   2   3
ATOM      3  C   UNL     1      79.097  -0.741  65.827  1.00  0.00    -0.025 C 
ATOM      4  C   UNL     1      80.077  -1.010  66.698  1.00  0.00     0.020 C 
BRANCH   4   5
ATOM      5  C   UNL     1      79.916  -1.979  67.793  1.00  0.00     0.064 C 
ATOM      6  O   UNL     1      80.823  -2.150  68.650  1.00  0.00    -0.545 OA
ATOM      7  O   UNL     1      78.743  -2.716  67.885  1.00  0.00    -0.545 OA
ENDBRANCH   4   5
ENDBRANCH   2   3
ENDBRANCH   1   2
BRANCH   1   8
ATOM      8  C   UNL     1      78.197   1.204  62.644  1.00  0.00     0.000 C 
BRANCH   8   9
ATOM      9  C   UNL     1      76.882   1.689  62.024  1.00  0.00    -0.000 C 
BRANCH   9  10
ATOM     10  C   UNL     1      76.875   3.215  61.875  1.00  0.00    -0.003 C 
ATOM     11  C   UNL     1      77.627   3.885  63.022  1.00  0.00     0.004 C 
ENDBRANCH   9  10
ENDBRANCH   8   9
ENDBRANCH   1   8
TORSDOF 6
ENDMDL
MODEL 3
REMARK VINA RESULT:     3.153     16.582     17.658
REMARK INTER + INTRA:           3.926
REMARK INTER:                   3.900
REMARK INTRA:                   0.026
REMARK UNBOUND:                -0.333
REMARK SMILES CCCCCCC=CC(=O)[O-]
REMARK SMILES IDX 5 1 6 2 7 3 8 4 9 5 10 6 11 7 4 8 3 9 2 10 1 11
REMARK H PARENT
REMARK Flexibility Score: inf
ROOT
ATOM      1  C   UNL     1      79.868  -0.754  65.756  1.00  0.00     0.004 C 
ENDROOT
BRANCH   1   2
ATOM      2  C   UNL     1      78.524  -0.466  65.075  1.00  0.00     0.027 C 
BRANCH   2   3
ATOM      3  C   UNL     1      78.678   0.542  63.973  1.00  0.00    -0.025 C 
ATOM      4  C   UNL     1      77.689   1.383  63.651  1.00  0.00     0.020 C 
BRANCH   4   5
ATOM      5  C   UNL     1      77.823   2.388  62.585  1.00  0.00     0.064 C 
ATOM      6  O   UNL     1      76.876   3.170  62.304  1.00  0.00    -0.545 OA
ATOM      7  O   UNL     1      79.014   2.478  61.878  1.00  0.00    -0.545 OA
ENDBRANCH   4   5
ENDBRANCH   2   3
ENDBRANCH   1   2
BRANCH   1   8
ATOM      8  C   UNL     1      79.709  -0.809  67.281  1.00  0.00     0.000 C 
BRANCH   8   9
ATOM      9  C   UNL     1      79.961  -2.225  67.810  1.00  0.00    -0.000 C 
BRANCH   9  10
ATOM     10  C   UNL     1      78.734  -3.119  67.591  1.00  0.00    -0.003 C 
ATOM     11  C   UNL     1      77.446  -2.302  67.611  1.00  0.00     0.004 C 
ENDBRANCH   9  10
ENDBRANCH   8   9
ENDBRANCH   1   8
TORSDOF 6
ENDMDL
