MODEL 1
REMARK VINA RESULT:    -3.472      0.000      0.000
REMARK INTER + INTRA:          -4.366
REMARK INTER:                  -4.183
REMARK INTRA:                  -0.183
REMARK UNBOUND:                -0.183
REMARK SMILES OCC(O)CO
REMARK SMILES IDX 3 1 5 2 6 3 2 5 1 6 4 8
REMARK H PARENT 6 4 1 7 4 9
REMARK Flexibility Score: inf
ROOT
ATOM      1  C   UNL     1      15.791  13.123  13.912  1.00  0.00     0.165 C 
ENDROOT
BRANCH   1   2
ATOM      2  C   UNL     1      16.277  13.565  12.517  1.00  0.00     0.190 C 
BRANCH   2   3
ATOM      3  O   UNL     1      15.508  14.631  12.030  1.00  0.00    -0.394 OA
ATOM      4  H   UNL     1      16.090  15.436  12.053  1.00  0.00     0.210 HD
ENDBRANCH   2   3
ENDBRANCH   1   2
BRANCH   1   5
ATOM      5  C   UNL     1      14.259  13.017  13.991  1.00  0.00     0.190 C 
BRANCH   5   6
ATOM      6  O   UNL     1      13.682  14.294  13.996  1.00  0.00    -0.394 OA
ATOM      7  H   UNL     1      12.984  14.278  14.701  1.00  0.00     0.210 HD
ENDBRANCH   5   6
ENDBRANCH   1   5
BRANCH   1   8
ATOM      8  O   UNL     1      16.265  14.013  14.891  1.00  0.00    -0.388 OA
ATOM      9  H   UNL     1      15.913  14.915  14.672  1.00  0.00     0.211 HD
ENDBRANCH   1   8
TORSDOF 5
ENDMDL
MODEL 2
REMARK VINA RESULT:    -3.453     13.423     14.170
REMARK INTER + INTRA:          -4.343
REMARK INTER:                  -4.340
REMARK INTRA:                  -0.002
REMARK UNBOUND:                -0.183
REMARK SMILES OCC(O)CO
REMARK SMILES IDX 3 1 5 2 6 3 2 5 1 6 4 8
REMARK H PARENT 6 4 1 7 4 9
REMARK Flexibility Score: inf
ROOT
ATOM      1  C   UNL     1      22.239  22.375  21.990  1.00  0.00     0.165 C 
ENDROOT
BRANCH   1   2
ATOM      2  C   UNL     1      23.120  23.390  22.746  1.00  0.00     0.190 C 
BRANCH   2   3
ATOM      3  O   UNL     1      24.443  23.352  22.282  1.00  0.00    -0.394 OA
ATOM      4  H   UNL     1      24.532  24.085  21.618  1.00  0.00     0.210 HD
ENDBRANCH   2   3
ENDBRANCH   1   2
BRANCH   1   5
ATOM      5  C   UNL     1      21.320  21.581  22.933  1.00  0.00     0.190 C 
BRANCH   5   6
ATOM      6  O   UNL     1      20.841  20.431  22.292  1.00  0.00    -0.394 OA
ATOM      7  H   UNL     1      21.614  19.814  22.219  1.00  0.00     0.210 HD
ENDBRANCH   5   6
ENDBRANCH   1   5
BRANCH   1   8
ATOM      8  O   UNL     1      23.046  21.495  21.249  1.00  0.00    -0.388 OA
ATOM      9  H   UNL     1      23.804  21.221  21.829  1.00  0.00     0.211 HD
ENDBRANCH   1   8
TORSDOF 5
ENDMDL
MODEL 3
REMARK VINA RESULT:    -3.442     13.414     14.132
REMARK INTER + INTRA:          -4.329
REMARK INTER:                  -4.317
REMARK INTRA:                  -0.012
REMARK UNBOUND:                -0.183
REMARK SMILES OCC(O)CO
REMARK SMILES IDX 3 1 5 2 6 3 2 5 1 6 4 8
REMARK H PARENT 6 4 1 7 4 9
REMARK Flexibility Score: inf
ROOT
ATOM      1  C   UNL     1      22.165  22.801  22.588  1.00  0.00     0.165 C 
ENDROOT
BRANCH   1   2
ATOM      2  C   UNL     1      22.002  21.548  21.705  1.00  0.00     0.190 C 
BRANCH   2   3
ATOM      3  O   UNL     1      23.164  21.303  20.959  1.00  0.00    -0.394 OA
ATOM      4  H   UNL     1      23.761  22.084  21.097  1.00  0.00     0.210 HD
ENDBRANCH   2   3
ENDBRANCH   1   2
BRANCH   1   5
ATOM      5  C   UNL     1      21.178  22.819  23.767  1.00  0.00     0.190 C 
BRANCH   5   6
ATOM      6  O   UNL     1      20.821  21.511  24.123  1.00  0.00    -0.394 OA
ATOM      7  H   UNL     1      19.831  21.505  24.189  1.00  0.00     0.210 HD
ENDBRANCH   5   6
ENDBRANCH   1   5
BRANCH   1   8
ATOM      8  O   UNL     1      22.007  23.961  21.810  1.00  0.00    -0.388 OA
ATOM      9  H   UNL     1      21.717  23.678  20.903  1.00  0.00     0.211 HD
ENDBRANCH   1   8
TORSDOF 5
ENDMDL
MODEL 4
REMARK VINA RESULT:    -3.419      0.708      2.594
REMARK INTER + INTRA:          -4.301
REMARK INTER:                  -4.280
REMARK INTRA:                  -0.021
REMARK UNBOUND:                -0.183
REMARK SMILES OCC(O)CO
REMARK SMILES IDX 3 1 5 2 6 3 2 5 1 6 4 8
REMARK H PARENT 6 4 1 7 4 9
REMARK Flexibility Score: inf
ROOT
ATOM      1  C   UNL     1      15.114  13.147  13.802  1.00  0.00     0.165 C 
ENDROOT
BRANCH   1   2
ATOM      2  C   UNL     1      15.921  12.875  15.087  1.00  0.00     0.190 C 
BRANCH   2   3
ATOM      3  O   UNL     1      16.295  14.075  15.711  1.00  0.00    -0.394 OA
ATOM      4  H   UNL     1      17.268  14.188  15.549  1.00  0.00     0.210 HD
ENDBRANCH   2   3
ENDBRANCH   1   2
BRANCH   1   5
ATOM      5  C   UNL     1      16.018  13.463  12.598  1.00  0.00     0.190 C 
BRANCH   5   6
ATOM      6  O   UNL     1      15.672  14.701  12.041  1.00  0.00    -0.394 OA
ATOM      7  H   UNL     1      14.805  14.563  11.580  1.00  0.00     0.210 HD
ENDBRANCH   5   6
ENDBRANCH   1   5
BRANCH   1   8
ATOM      8  O   UNL     1      14.209  14.201  14.016  1.00  0.00    -0.388 OA
ATOM      9  H   UNL     1      14.738  15.036  14.115  1.00  0.00     0.211 HD
ENDBRANCH   1   8
TORSDOF 5
ENDMDL
MODEL 5
REMARK VINA RESULT:    -3.350     13.599     14.402
REMARK INTER + INTRA:          -4.219
REMARK INTER:                  -4.008
REMARK INTRA:                  -0.210
REMARK UNBOUND:                -0.183
REMARK SMILES OCC(O)CO
REMARK SMILES IDX 3 1 5 2 6 3 2 5 1 6 4 8
REMARK H PARENT 6 4 1 7 4 9
REMARK Flexibility Score: inf
ROOT
ATOM      1  C   UNL     1      22.114  22.767  22.351  1.00  0.00     0.165 C 
ENDROOT
BRANCH   1   2
ATOM      2  C   UNL     1      21.732  23.160  23.792  1.00  0.00     0.190 C 
BRANCH   2   3
ATOM      3  O   UNL     1      20.344  23.307  23.923  1.00  0.00    -0.394 OA
ATOM      4  H   UNL     1      19.928  22.671  23.283  1.00  0.00     0.210 HD
ENDBRANCH   2   3
ENDBRANCH   1   2
BRANCH   1   5
ATOM      5  C   UNL     1      21.662  21.342  21.993  1.00  0.00     0.190 C 
BRANCH   5   6
ATOM      6  O   UNL     1      21.068  20.726  23.102  1.00  0.00    -0.394 OA
ATOM      7  H   UNL     1      21.527  21.095  23.900  1.00  0.00     0.210 HD
ENDBRANCH   5   6
ENDBRANCH   1   5
BRANCH   1   8
ATOM      8  O   UNL     1      23.503  22.893  22.170  1.00  0.00    -0.388 OA
ATOM      9  H   UNL     1      23.925  22.057  22.500  1.00  0.00     0.211 HD
ENDBRANCH   1   8
TORSDOF 5
ENDMDL
MODEL 6
REMARK VINA RESULT:    -3.319     13.698     14.490
REMARK INTER + INTRA:          -4.182
REMARK INTER:                  -3.960
REMARK INTRA:                  -0.222
REMARK UNBOUND:                -0.183
REMARK SMILES OCC(O)CO
REMARK SMILES IDX 3 1 5 2 6 3 2 5 1 6 4 8
REMARK H PARENT 6 4 1 7 4 9
REMARK Flexibility Score: inf
ROOT
ATOM      1  C   UNL     1      21.641  22.621  22.728  1.00  0.00     0.165 C 
ENDROOT
BRANCH   1   2
ATOM      2  C   UNL     1      21.836  21.376  21.840  1.00  0.00     0.190 C 
BRANCH   2   3
ATOM      3  O   UNL     1      23.049  21.440  21.141  1.00  0.00    -0.394 OA
ATOM      4  H   UNL     1      23.458  22.318  21.359  1.00  0.00     0.210 HD
ENDBRANCH   2   3
ENDBRANCH   1   2
BRANCH   1   5
ATOM      5  C   UNL     1      22.976  23.280  23.113  1.00  0.00     0.190 C 
BRANCH   5   6
ATOM      6  O   UNL     1      23.404  24.142  22.095  1.00  0.00    -0.394 OA
ATOM      7  H   UNL     1      24.167  23.688  21.653  1.00  0.00     0.210 HD
ENDBRANCH   5   6
ENDBRANCH   1   5
BRANCH   1   8
ATOM      8  O   UNL     1      20.920  22.279  23.885  1.00  0.00    -0.388 OA
ATOM      9  H   UNL     1      21.573  22.172  24.625  1.00  0.00     0.211 HD
ENDBRANCH   1   8
TORSDOF 5
ENDMDL
MODEL 7
REMARK VINA RESULT:    -3.292     17.981     18.634
REMARK INTER + INTRA:          -4.149
REMARK INTER:                  -3.936
REMARK INTRA:                  -0.213
REMARK UNBOUND:                -0.183
REMARK SMILES OCC(O)CO
REMARK SMILES IDX 3 1 5 2 6 3 2 5 1 6 4 8
REMARK H PARENT 6 4 1 7 4 9
REMARK Flexibility Score: inf
ROOT
ATOM      1  C   UNL     1      26.274  26.284  23.188  1.00  0.00     0.165 C 
ENDROOT
BRANCH   1   2
ATOM      2  C   UNL     1      27.406  25.966  22.191  1.00  0.00     0.190 C 
BRANCH   2   3
ATOM      3  O   UNL     1      27.008  26.235  20.874  1.00  0.00    -0.394 OA
ATOM      4  H   UNL     1      27.379  27.126  20.640  1.00  0.00     0.210 HD
ENDBRANCH   2   3
ENDBRANCH   1   2
BRANCH   1   5
ATOM      5  C   UNL     1      25.221  25.165  23.254  1.00  0.00     0.190 C 
BRANCH   5   6
ATOM      6  O   UNL     1      25.642  24.056  22.509  1.00  0.00    -0.394 OA
ATOM      7  H   UNL     1      26.511  23.776  22.897  1.00  0.00     0.210 HD
ENDBRANCH   5   6
ENDBRANCH   1   5
BRANCH   1   8
ATOM      8  O   UNL     1      25.662  27.503  22.849  1.00  0.00    -0.388 OA
ATOM      9  H   UNL     1      24.693  27.328  22.725  1.00  0.00     0.211 HD
ENDBRANCH   1   8
TORSDOF 5
ENDMDL
MODEL 8
REMARK VINA RESULT:    -3.239      0.593      2.275
REMARK INTER + INTRA:          -4.086
REMARK INTER:                  -3.862
REMARK INTRA:                  -0.224
REMARK UNBOUND:                -0.183
REMARK SMILES OCC(O)CO
REMARK SMILES IDX 3 1 5 2 6 3 2 5 1 6 4 8
REMARK H PARENT 6 4 1 7 4 9
REMARK Flexibility Score: inf
ROOT
ATOM      1  C   UNL     1      15.814  13.685  14.171  1.00  0.00     0.165 C 
ENDROOT
BRANCH   1   2
ATOM      2  C   UNL     1      14.366  13.156  14.215  1.00  0.00     0.190 C 
BRANCH   2   3
ATOM      3  O   UNL     1      13.450  14.167  13.895  1.00  0.00    -0.394 OA
ATOM      4  H   UNL     1      12.706  13.732  13.401  1.00  0.00     0.210 HD
ENDBRANCH   2   3
ENDBRANCH   1   2
BRANCH   1   5
ATOM      5  C   UNL     1      16.365  13.767  12.738  1.00  0.00     0.190 C 
BRANCH   5   6
ATOM      6  O   UNL     1      15.640  14.704  11.991  1.00  0.00    -0.394 OA
ATOM      7  H   UNL     1      16.234  14.982  11.246  1.00  0.00     0.210 HD
ENDBRANCH   5   6
ENDBRANCH   1   5
BRANCH   1   8
ATOM      8  O   UNL     1      16.646  12.875  14.963  1.00  0.00    -0.388 OA
ATOM      9  H   UNL     1      16.867  13.385  15.786  1.00  0.00     0.211 HD
ENDBRANCH   1   8
TORSDOF 5
ENDMDL
MODEL 9
REMARK VINA RESULT:    -3.224      0.670      2.496
REMARK INTER + INTRA:          -4.067
REMARK INTER:                  -3.853
REMARK INTRA:                  -0.214
REMARK UNBOUND:                -0.183
REMARK SMILES OCC(O)CO
REMARK SMILES IDX 3 1 5 2 6 3 2 5 1 6 4 8
REMARK H PARENT 6 4 1 7 4 9
REMARK Flexibility Score: inf
ROOT
ATOM      1  C   UNL     1      15.252  13.352  13.072  1.00  0.00     0.165 C 
ENDROOT
BRANCH   1   2
ATOM      2  C   UNL     1      13.888  13.249  13.785  1.00  0.00     0.190 C 
BRANCH   2   3
ATOM      3  O   UNL     1      13.314  14.517  13.959  1.00  0.00    -0.394 OA
ATOM      4  H   UNL     1      13.187  14.899  13.052  1.00  0.00     0.210 HD
ENDBRANCH   2   3
ENDBRANCH   1   2
BRANCH   1   5
ATOM      5  C   UNL     1      16.426  13.432  14.061  1.00  0.00     0.190 C 
BRANCH   5   6
ATOM      6  O   UNL     1      15.997  13.966  15.284  1.00  0.00    -0.394 OA
ATOM      7  H   UNL     1      15.407  14.732  15.058  1.00  0.00     0.210 HD
ENDBRANCH   5   6
ENDBRANCH   1   5
BRANCH   1   8
ATOM      8  O   UNL     1      15.264  14.468  12.217  1.00  0.00    -0.388 OA
ATOM      9  H   UNL     1      16.032  14.361  11.596  1.00  0.00     0.211 HD
ENDBRANCH   1   8
TORSDOF 5
ENDMDL
