MODEL 1
REMARK VINA RESULT:    -3.813      0.000      0.000
REMARK INTER + INTRA:          -4.057
REMARK INTER:                  -4.036
REMARK INTRA:                  -0.021
REMARK UNBOUND:                -0.021
REMARK SMILES O=C([O-])c1cccnc1
REMARK SMILES IDX 4 1 5 2 9 3 6 4 8 5 7 6 2 7 1 8 3 9
REMARK H PARENT
REMARK Flexibility Score: inf
ROOT
ATOM      1  C   UNL     1      16.947  45.782   0.420  1.00  0.00     0.016 A 
ATOM      2  C   UNL     1      18.167  46.195  -0.136  1.00  0.00     0.013 A 
ATOM      3  C   UNL     1      16.976  44.924   1.534  1.00  0.00     0.120 A 
ATOM      4  C   UNL     1      19.373  45.757   0.415  1.00  0.00     0.021 A 
ATOM      5  N   UNL     1      18.164  44.512   2.053  1.00  0.00    -0.264 NA
ATOM      6  C   UNL     1      19.351  44.907   1.521  1.00  0.00     0.111 A 
ENDROOT
BRANCH   1   7
ATOM      7  C   UNL     1      15.664  46.239  -0.155  1.00  0.00     0.073 C 
ATOM      8  O   UNL     1      15.538  46.392  -1.400  1.00  0.00    -0.545 OA
ATOM      9  O   UNL     1      14.577  46.507   0.670  1.00  0.00    -0.545 OA
ENDBRANCH   1   7
TORSDOF 1
ENDMDL
MODEL 2
REMARK VINA RESULT:    -3.764      2.754      3.833
REMARK INTER + INTRA:          -4.006
REMARK INTER:                  -3.987
REMARK INTRA:                  -0.018
REMARK UNBOUND:                -0.021
REMARK SMILES O=C([O-])c1cccnc1
REMARK SMILES IDX 4 1 5 2 9 3 6 4 8 5 7 6 2 7 1 8 3 9
REMARK H PARENT
REMARK Flexibility Score: inf
ROOT
ATOM      1  C   UNL     1      17.249  45.442   0.707  1.00  0.00     0.016 A 
ATOM      2  C   UNL     1      16.566  45.105   1.886  1.00  0.00     0.013 A 
ATOM      3  C   UNL     1      16.555  46.152  -0.287  1.00  0.00     0.120 A 
ATOM      4  C   UNL     1      15.230  45.473   2.052  1.00  0.00     0.021 A 
ATOM      5  N   UNL     1      15.253  46.500  -0.101  1.00  0.00    -0.264 NA
ATOM      6  C   UNL     1      14.583  46.178   1.036  1.00  0.00     0.111 A 
ENDROOT
BRANCH   1   7
ATOM      7  C   UNL     1      18.665  45.057   0.521  1.00  0.00     0.073 C 
ATOM      8  O   UNL     1      19.533  45.925   0.239  1.00  0.00    -0.545 OA
ATOM      9  O   UNL     1      19.057  43.729   0.654  1.00  0.00    -0.545 OA
ENDBRANCH   1   7
TORSDOF 1
ENDMDL
MODEL 3
REMARK VINA RESULT:    -3.737      3.143      4.179
REMARK INTER + INTRA:          -3.977
REMARK INTER:                  -3.959
REMARK INTRA:                  -0.018
REMARK UNBOUND:                -0.021
REMARK SMILES O=C([O-])c1cccnc1
REMARK SMILES IDX 4 1 5 2 9 3 6 4 8 5 7 6 2 7 1 8 3 9
REMARK H PARENT
REMARK Flexibility Score: inf
ROOT
ATOM      1  C   UNL     1      18.278  45.063   1.426  1.00  0.00     0.016 A 
ATOM      2  C   UNL     1      16.918  44.872   1.718  1.00  0.00     0.013 A 
ATOM      3  C   UNL     1      18.618  45.854   0.315  1.00  0.00     0.120 A 
ATOM      4  C   UNL     1      15.940  45.460   0.915  1.00  0.00     0.021 A 
ATOM      5  N   UNL     1      17.646  46.416  -0.452  1.00  0.00    -0.264 NA
ATOM      6  C   UNL     1      16.327  46.237  -0.178  1.00  0.00     0.111 A 
ENDROOT
BRANCH   1   7
ATOM      7  C   UNL     1      19.323  44.445   2.270  1.00  0.00     0.073 C 
ATOM      8  O   UNL     1      19.426  44.748   3.489  1.00  0.00    -0.545 OA
ATOM      9  O   UNL     1      20.209  43.519   1.730  1.00  0.00    -0.545 OA
ENDBRANCH   1   7
TORSDOF 1
ENDMDL
MODEL 4
REMARK VINA RESULT:    -3.685      0.920      1.932
REMARK INTER + INTRA:          -3.921
REMARK INTER:                  -3.899
REMARK INTRA:                  -0.022
REMARK UNBOUND:                -0.021
REMARK SMILES O=C([O-])c1cccnc1
REMARK SMILES IDX 4 1 5 2 9 3 6 4 8 5 7 6 2 7 1 8 3 9
REMARK H PARENT
REMARK Flexibility Score: inf
ROOT
ATOM      1  C   UNL     1      17.060  45.758   0.438  1.00  0.00     0.016 A 
ATOM      2  C   UNL     1      17.058  44.869   1.524  1.00  0.00     0.013 A 
ATOM      3  C   UNL     1      18.297  46.152  -0.100  1.00  0.00     0.120 A 
ATOM      4  C   UNL     1      18.263  44.397   2.047  1.00  0.00     0.021 A 
ATOM      5  N   UNL     1      19.458  45.678   0.427  1.00  0.00    -0.264 NA
ATOM      6  C   UNL     1      19.467  44.818   1.478  1.00  0.00     0.111 A 
ENDROOT
BRANCH   1   7
ATOM      7  C   UNL     1      15.789  46.264  -0.123  1.00  0.00     0.073 C 
ATOM      8  O   UNL     1      14.771  46.392   0.609  1.00  0.00    -0.545 OA
ATOM      9  O   UNL     1      15.700  46.607  -1.468  1.00  0.00    -0.545 OA
ENDBRANCH   1   7
TORSDOF 1
ENDMDL
MODEL 5
REMARK VINA RESULT:    -3.617      2.066      2.577
REMARK INTER + INTRA:          -3.850
REMARK INTER:                  -3.833
REMARK INTRA:                  -0.016
REMARK UNBOUND:                -0.021
REMARK SMILES O=C([O-])c1cccnc1
REMARK SMILES IDX 4 1 5 2 9 3 6 4 8 5 7 6 2 7 1 8 3 9
REMARK H PARENT
REMARK Flexibility Score: inf
ROOT
ATOM      1  C   UNL     1      17.598  44.197   1.469  1.00  0.00     0.016 A 
ATOM      2  C   UNL     1      18.582  44.648   2.362  1.00  0.00     0.013 A 
ATOM      3  C   UNL     1      17.960  43.247   0.499  1.00  0.00     0.120 A 
ATOM      4  C   UNL     1      19.885  44.155   2.276  1.00  0.00     0.021 A 
ATOM      5  N   UNL     1      19.237  42.781   0.436  1.00  0.00    -0.264 NA
ATOM      6  C   UNL     1      20.197  43.211   1.296  1.00  0.00     0.111 A 
ENDROOT
BRANCH   1   7
ATOM      7  C   UNL     1      16.214  44.713   1.551  1.00  0.00     0.073 C 
ATOM      8  O   UNL     1      15.296  44.008   2.050  1.00  0.00    -0.545 OA
ATOM      9  O   UNL     1      15.907  45.984   1.078  1.00  0.00    -0.545 OA
ENDBRANCH   1   7
TORSDOF 1
ENDMDL
MODEL 6
REMARK VINA RESULT:    -3.464      2.911      3.964
REMARK INTER + INTRA:          -3.687
REMARK INTER:                  -3.671
REMARK INTRA:                  -0.017
REMARK UNBOUND:                -0.021
REMARK SMILES O=C([O-])c1cccnc1
REMARK SMILES IDX 4 1 5 2 9 3 6 4 8 5 7 6 2 7 1 8 3 9
REMARK H PARENT
REMARK Flexibility Score: inf
ROOT
ATOM      1  C   UNL     1      17.686  44.357   1.627  1.00  0.00     0.016 A 
ATOM      2  C   UNL     1      16.595  45.231   1.757  1.00  0.00     0.013 A 
ATOM      3  C   UNL     1      17.434  42.974   1.602  1.00  0.00     0.120 A 
ATOM      4  C   UNL     1      15.299  44.724   1.859  1.00  0.00     0.021 A 
ATOM      5  N   UNL     1      16.161  42.505   1.702  1.00  0.00    -0.264 NA
ATOM      6  C   UNL     1      15.099  43.343   1.828  1.00  0.00     0.111 A 
ENDROOT
BRANCH   1   7
ATOM      7  C   UNL     1      19.064  44.882   1.520  1.00  0.00     0.073 C 
ATOM      8  O   UNL     1      19.872  44.764   2.480  1.00  0.00    -0.545 OA
ATOM      9  O   UNL     1      19.488  45.515   0.356  1.00  0.00    -0.545 OA
ENDBRANCH   1   7
TORSDOF 1
ENDMDL
MODEL 7
REMARK VINA RESULT:    -3.385     22.536     23.120
REMARK INTER + INTRA:          -3.604
REMARK INTER:                  -3.585
REMARK INTRA:                  -0.019
REMARK UNBOUND:                -0.021
REMARK SMILES O=C([O-])c1cccnc1
REMARK SMILES IDX 4 1 5 2 9 3 6 4 8 5 7 6 2 7 1 8 3 9
REMARK H PARENT
REMARK Flexibility Score: inf
ROOT
ATOM      1  C   UNL     1      31.632  58.491 -11.969  1.00  0.00     0.016 A 
ATOM      2  C   UNL     1      30.400  59.161 -12.033  1.00  0.00     0.013 A 
ATOM      3  C   UNL     1      32.399  58.613 -10.797  1.00  0.00     0.120 A 
ATOM      4  C   UNL     1      29.962  59.927 -10.952  1.00  0.00     0.021 A 
ATOM      5  N   UNL     1      31.949  59.365  -9.757  1.00  0.00    -0.264 NA
ATOM      6  C   UNL     1      30.758  60.018  -9.810  1.00  0.00     0.111 A 
ENDROOT
BRANCH   1   7
ATOM      7  C   UNL     1      32.107  57.677 -13.109  1.00  0.00     0.073 C 
ATOM      8  O   UNL     1      31.365  56.797 -13.621  1.00  0.00    -0.545 OA
ATOM      9  O   UNL     1      33.381  57.872 -13.631  1.00  0.00    -0.545 OA
ENDBRANCH   1   7
TORSDOF 1
ENDMDL
MODEL 8
REMARK VINA RESULT:    -3.331      3.711      4.404
REMARK INTER + INTRA:          -3.547
REMARK INTER:                  -3.523
REMARK INTRA:                  -0.024
REMARK UNBOUND:                -0.021
REMARK SMILES O=C([O-])c1cccnc1
REMARK SMILES IDX 4 1 5 2 9 3 6 4 8 5 7 6 2 7 1 8 3 9
REMARK H PARENT
REMARK Flexibility Score: inf
ROOT
ATOM      1  C   UNL     1      18.515  43.483   0.884  1.00  0.00     0.016 A 
ATOM      2  C   UNL     1      18.426  42.302   0.131  1.00  0.00     0.013 A 
ATOM      3  C   UNL     1      17.411  44.354   0.893  1.00  0.00     0.120 A 
ATOM      4  C   UNL     1      17.264  42.013  -0.586  1.00  0.00     0.021 A 
ATOM      5  N   UNL     1      16.290  44.050   0.186  1.00  0.00    -0.264 NA
ATOM      6  C   UNL     1      16.194  42.909  -0.546  1.00  0.00     0.111 A 
ENDROOT
BRANCH   1   7
ATOM      7  C   UNL     1      19.741  43.799   1.647  1.00  0.00     0.073 C 
ATOM      8  O   UNL     1      20.796  43.134   1.469  1.00  0.00    -0.545 OA
ATOM      9  O   UNL     1      19.747  44.836   2.574  1.00  0.00    -0.545 OA
ENDBRANCH   1   7
TORSDOF 1
ENDMDL
MODEL 9
REMARK VINA RESULT:    -3.318     22.282     22.946
REMARK INTER + INTRA:          -3.534
REMARK INTER:                  -3.510
REMARK INTRA:                  -0.023
REMARK UNBOUND:                -0.021
REMARK SMILES O=C([O-])c1cccnc1
REMARK SMILES IDX 4 1 5 2 9 3 6 4 8 5 7 6 2 7 1 8 3 9
REMARK H PARENT
REMARK Flexibility Score: inf
ROOT
ATOM      1  C   UNL     1      30.919  59.106 -11.615  1.00  0.00     0.016 A 
ATOM      2  C   UNL     1      30.364  58.157 -12.487  1.00  0.00     0.013 A 
ATOM      3  C   UNL     1      32.314  59.283 -11.619  1.00  0.00     0.120 A 
ATOM      4  C   UNL     1      31.190  57.414 -13.332  1.00  0.00     0.021 A 
ATOM      5  N   UNL     1      33.097  58.547 -12.453  1.00  0.00    -0.264 NA
ATOM      6  C   UNL     1      32.569  57.626 -13.300  1.00  0.00     0.111 A 
ENDROOT
BRANCH   1   7
ATOM      7  C   UNL     1      30.054  59.898 -10.715  1.00  0.00     0.073 C 
ATOM      8  O   UNL     1      30.505  60.917 -10.124  1.00  0.00    -0.545 OA
ATOM      9  O   UNL     1      28.729  59.531 -10.507  1.00  0.00    -0.545 OA
ENDBRANCH   1   7
TORSDOF 1
ENDMDL
