MODEL 1
REMARK VINA RESULT:    -4.881      0.000      0.000
REMARK INTER + INTRA:          -8.273
REMARK INTER:                  -6.878
REMARK INTRA:                  -1.395
REMARK UNBOUND:                -1.395
REMARK SMILES OCC1=C[C@@H](O)[C@@H]2C=CO[C@@H](O[C@H]3O[C@@H](CO)[C@@H](O)[C@H](O)[C@H]3O)[C@H]12
REMARK SMILES IDX 12 1 11 2 8 3 9 4 7 5 10 6 24 7 5 8 3 9 4 10 6 11 2 13 1 14
REMARK SMILES IDX 13 16 22 17 14 18 20 19 15 20 18 21 23 22 21 24 16 26 17 27
REMARK SMILES IDX 19 29
REMARK H PARENT 6 12 1 15 23 23 21 25 17 28 19 30
REMARK Flexibility Score: inf
ROOT
ATOM      1  O   UNL     1     481.347  38.800 460.513  1.00  0.00    -0.310 OA
ENDROOT
BRANCH   1   2
ATOM      2  C   UNL     1     480.161  39.398 460.997  1.00  0.00     0.316 C 
ATOM      3  C   UNL     1     478.432  40.493 462.982  1.00  0.00     0.018 C 
ATOM      4  C   UNL     1     479.513  41.166 462.587  1.00  0.00     0.186 C 
ATOM      5  C   UNL     1     478.244  39.030 462.658  1.00  0.00     0.061 C 
ATOM      6  O   UNL     1     480.467  40.562 461.766  1.00  0.00    -0.472 OA
ATOM      7  C   UNL     1     479.407  38.378 461.874  1.00  0.00     0.096 C 
ATOM      8  C   UNL     1     476.992  38.770 461.805  1.00  0.00     0.145 C 
ATOM      9  C   UNL     1     478.697  37.373 461.018  1.00  0.00    -0.036 C 
ATOM     10  C   UNL     1     477.389  37.599 460.968  1.00  0.00     0.007 C 
BRANCH   8  11
ATOM     11  O   UNL     1     475.897  38.448 462.621  1.00  0.00    -0.388 OA
ATOM     12  H   UNL     1     475.413  37.710 462.166  1.00  0.00     0.211 HD
ENDBRANCH   8  11
BRANCH   9  13
ATOM     13  C   UNL     1     479.383  36.281 460.242  1.00  0.00     0.187 C 
BRANCH  13  14
ATOM     14  O   UNL     1     479.525  36.657 458.899  1.00  0.00    -0.392 OA
ATOM     15  H   UNL     1     479.811  35.846 458.403  1.00  0.00     0.211 HD
ENDBRANCH  13  14
ENDBRANCH   9  13
ENDBRANCH   1   2
BRANCH   1  16
ATOM     16  C   UNL     1     481.992  39.617 459.548  1.00  0.00     0.286 C 
ATOM     17  C   UNL     1     482.698  38.735 458.499  1.00  0.00     0.202 C 
ATOM     18  O   UNL     1     482.879  40.538 460.172  1.00  0.00    -0.341 OA
ATOM     19  C   UNL     1     483.890  38.006 459.127  1.00  0.00     0.179 C 
ATOM     20  C   UNL     1     484.025  39.938 460.772  1.00  0.00     0.178 C 
ATOM     21  C   UNL     1     484.811  39.032 459.789  1.00  0.00     0.177 C 
BRANCH  17  22
ATOM     22  O   UNL     1     481.797  37.795 457.976  1.00  0.00    -0.385 OA
ATOM     23  H   UNL     1     481.261  38.264 457.283  1.00  0.00     0.211 HD
ENDBRANCH  17  22
BRANCH  19  24
ATOM     24  O   UNL     1     484.608  37.318 458.133  1.00  0.00    -0.387 OA
ATOM     25  H   UNL     1     484.116  36.476 457.951  1.00  0.00     0.211 HD
ENDBRANCH  19  24
BRANCH  20  26
ATOM     26  C   UNL     1     483.713  39.270 462.130  1.00  0.00     0.191 C 
BRANCH  26  27
ATOM     27  O   UNL     1     482.958  40.126 462.943  1.00  0.00    -0.394 OA
ATOM     28  H   UNL     1     483.537  40.907 463.149  1.00  0.00     0.210 HD
ENDBRANCH  26  27
ENDBRANCH  20  26
BRANCH  21  29
ATOM     29  O   UNL     1     485.860  38.367 460.447  1.00  0.00    -0.387 OA
ATOM     30  H   UNL     1     486.516  39.062 460.715  1.00  0.00     0.211 HD
ENDBRANCH  21  29
ENDBRANCH   1  16
TORSDOF 10
ENDMDL
MODEL 2
REMARK VINA RESULT:    -4.788      1.781      2.960
REMARK INTER + INTRA:          -8.143
REMARK INTER:                  -7.008
REMARK INTRA:                  -1.134
REMARK UNBOUND:                -1.395
REMARK SMILES OCC1=C[C@@H](O)[C@@H]2C=CO[C@@H](O[C@H]3O[C@@H](CO)[C@@H](O)[C@H](O)[C@H]3O)[C@H]12
REMARK SMILES IDX 12 1 11 2 8 3 9 4 7 5 10 6 24 7 5 8 3 9 4 10 6 11 2 13 1 14
REMARK SMILES IDX 13 16 22 17 14 18 20 19 15 20 18 21 23 22 21 24 16 26 17 27
REMARK SMILES IDX 19 29
REMARK H PARENT 6 12 1 15 23 23 21 25 17 28 19 30
REMARK Flexibility Score: inf
ROOT
ATOM      1  O   UNL     1     482.176  39.128 460.997  1.00  0.00    -0.310 OA
ENDROOT
BRANCH   1   2
ATOM      2  C   UNL     1     480.904  39.123 461.612  1.00  0.00     0.316 C 
ATOM      3  C   UNL     1     478.321  40.157 462.234  1.00  0.00     0.018 C 
ATOM      4  C   UNL     1     478.577  39.674 461.018  1.00  0.00     0.186 C 
ATOM      5  C   UNL     1     479.427  40.475 463.212  1.00  0.00     0.061 C 
ATOM      6  O   UNL     1     479.880  39.347 460.642  1.00  0.00    -0.472 OA
ATOM      7  C   UNL     1     480.860  40.233 462.682  1.00  0.00     0.096 C 
ATOM      8  C   UNL     1     479.333  39.645 464.502  1.00  0.00     0.145 C 
ATOM      9  C   UNL     1     481.593  39.803 463.915  1.00  0.00    -0.036 C 
ATOM     10  C   UNL     1     480.761  39.467 464.896  1.00  0.00     0.007 C 
BRANCH   8  11
ATOM     11  O   UNL     1     478.629  40.348 465.491  1.00  0.00    -0.388 OA
ATOM     12  H   UNL     1     478.320  41.192 465.071  1.00  0.00     0.211 HD
ENDBRANCH   8  11
BRANCH   9  13
ATOM     13  C   UNL     1     483.090  39.688 464.018  1.00  0.00     0.187 C 
BRANCH  13  14
ATOM     14  O   UNL     1     483.484  38.350 463.880  1.00  0.00    -0.392 OA
ATOM     15  H   UNL     1     484.049  38.134 464.667  1.00  0.00     0.211 HD
ENDBRANCH  13  14
ENDBRANCH   9  13
ENDBRANCH   1   2
BRANCH   1  16
ATOM     16  C   UNL     1     482.135  39.712 459.704  1.00  0.00     0.286 C 
ATOM     17  C   UNL     1     482.465  38.652 458.635  1.00  0.00     0.202 C 
ATOM     18  O   UNL     1     482.992  40.846 459.631  1.00  0.00    -0.341 OA
ATOM     19  C   UNL     1     483.935  38.232 458.733  1.00  0.00     0.179 C 
ATOM     20  C   UNL     1     484.383  40.538 459.702  1.00  0.00     0.178 C 
ATOM     21  C   UNL     1     484.817  39.479 458.656  1.00  0.00     0.177 C 
BRANCH  17  22
ATOM     22  O   UNL     1     481.644  37.526 458.806  1.00  0.00    -0.385 OA
ATOM     23  H   UNL     1     482.164  36.740 458.491  1.00  0.00     0.211 HD
ENDBRANCH  17  22
BRANCH  19  24
ATOM     24  O   UNL     1     484.259  37.374 457.669  1.00  0.00    -0.387 OA
ATOM     25  H   UNL     1     484.499  37.948 456.896  1.00  0.00     0.211 HD
ENDBRANCH  19  24
BRANCH  20  26
ATOM     26  C   UNL     1     484.858  40.231 461.141  1.00  0.00     0.191 C 
BRANCH  26  27
ATOM     27  O   UNL     1     485.074  38.857 461.310  1.00  0.00    -0.394 OA
ATOM     28  H   UNL     1     485.916  38.639 460.830  1.00  0.00     0.210 HD
ENDBRANCH  26  27
ENDBRANCH  20  26
BRANCH  21  29
ATOM     29  O   UNL     1     486.162  39.115 458.836  1.00  0.00    -0.387 OA
ATOM     30  H   UNL     1     486.658  39.949 459.050  1.00  0.00     0.211 HD
ENDBRANCH  21  29
ENDBRANCH   1  16
TORSDOF 10
ENDMDL
MODEL 3
REMARK VINA RESULT:    -4.737      4.001      6.161
REMARK INTER + INTRA:          -8.070
REMARK INTER:                  -6.568
REMARK INTRA:                  -1.501
REMARK UNBOUND:                -1.395
REMARK SMILES OCC1=C[C@@H](O)[C@@H]2C=CO[C@@H](O[C@H]3O[C@@H](CO)[C@@H](O)[C@H](O)[C@H]3O)[C@H]12
REMARK SMILES IDX 12 1 11 2 8 3 9 4 7 5 10 6 24 7 5 8 3 9 4 10 6 11 2 13 1 14
REMARK SMILES IDX 13 16 22 17 14 18 20 19 15 20 18 21 23 22 21 24 16 26 17 27
REMARK SMILES IDX 19 29
REMARK H PARENT 6 12 1 15 23 23 21 25 17 28 19 30
REMARK Flexibility Score: inf
ROOT
ATOM      1  O   UNL     1     483.598  40.459 458.471  1.00  0.00    -0.310 OA
ENDROOT
BRANCH   1   2
ATOM      2  C   UNL     1     483.769  41.408 459.505  1.00  0.00     0.316 C 
ATOM      3  C   UNL     1     484.750  43.811 460.684  1.00  0.00     0.018 C 
ATOM      4  C   UNL     1     483.786  43.858 459.764  1.00  0.00     0.186 C 
ATOM      5  C   UNL     1     485.573  42.566 460.908  1.00  0.00     0.061 C 
ATOM      6  O   UNL     1     483.434  42.716 459.042  1.00  0.00    -0.472 OA
ATOM      7  C   UNL     1     485.238  41.380 459.974  1.00  0.00     0.096 C 
ATOM      8  C   UNL     1     485.424  42.007 462.332  1.00  0.00     0.145 C 
ATOM      9  C   UNL     1     485.486  40.193 460.854  1.00  0.00    -0.036 C 
ATOM     10  C   UNL     1     485.568  40.534 462.136  1.00  0.00     0.007 C 
BRANCH   8  11
ATOM     11  O   UNL     1     486.440  42.498 463.166  1.00  0.00    -0.388 OA
ATOM     12  H   UNL     1     486.505  41.869 463.931  1.00  0.00     0.211 HD
ENDBRANCH   8  11
BRANCH   9  13
ATOM     13  C   UNL     1     485.559  38.772 460.365  1.00  0.00     0.187 C 
BRANCH  13  14
ATOM     14  O   UNL     1     485.802  38.746 458.984  1.00  0.00    -0.392 OA
ATOM     15  H   UNL     1     486.774  38.911 458.861  1.00  0.00     0.211 HD
ENDBRANCH  13  14
ENDBRANCH   9  13
ENDBRANCH   1   2
BRANCH   1  16
ATOM     16  C   UNL     1     482.239  40.077 458.326  1.00  0.00     0.286 C 
ATOM     17  C   UNL     1     482.137  38.550 458.144  1.00  0.00     0.202 C 
ATOM     18  O   UNL     1     481.619  40.795 457.265  1.00  0.00    -0.341 OA
ATOM     19  C   UNL     1     482.717  38.132 456.789  1.00  0.00     0.179 C 
ATOM     20  C   UNL     1     482.096  40.454 455.965  1.00  0.00     0.178 C 
ATOM     21  C   UNL     1     482.028  38.931 455.682  1.00  0.00     0.177 C 
BRANCH  17  22
ATOM     22  O   UNL     1     482.832  37.896 459.173  1.00  0.00    -0.385 OA
ATOM     23  H   UNL     1     482.153  37.590 459.830  1.00  0.00     0.211 HD
ENDBRANCH  17  22
BRANCH  19  24
ATOM     24  O   UNL     1     482.493  36.761 456.574  1.00  0.00    -0.387 OA
ATOM     25  H   UNL     1     481.510  36.635 456.514  1.00  0.00     0.211 HD
ENDBRANCH  19  24
BRANCH  20  26
ATOM     26  C   UNL     1     483.466  41.093 455.640  1.00  0.00     0.191 C 
BRANCH  26  27
ATOM     27  O   UNL     1     483.534  42.402 456.137  1.00  0.00    -0.394 OA
ATOM     28  H   UNL     1     482.662  42.584 456.577  1.00  0.00     0.210 HD
ENDBRANCH  26  27
ENDBRANCH  20  26
BRANCH  21  29
ATOM     29  O   UNL     1     482.616  38.622 454.444  1.00  0.00    -0.387 OA
ATOM     30  H   UNL     1     483.299  39.322 454.269  1.00  0.00     0.211 HD
ENDBRANCH  21  29
ENDBRANCH   1  16
TORSDOF 10
ENDMDL
MODEL 4
REMARK VINA RESULT:    -4.700      3.019      5.824
REMARK INTER + INTRA:          -8.018
REMARK INTER:                  -6.916
REMARK INTRA:                  -1.101
REMARK UNBOUND:                -1.395
REMARK SMILES OCC1=C[C@@H](O)[C@@H]2C=CO[C@@H](O[C@H]3O[C@@H](CO)[C@@H](O)[C@H](O)[C@H]3O)[C@H]12
REMARK SMILES IDX 12 1 11 2 8 3 9 4 7 5 10 6 24 7 5 8 3 9 4 10 6 11 2 13 1 14
REMARK SMILES IDX 13 16 22 17 14 18 20 19 15 20 18 21 23 22 21 24 16 26 17 27
REMARK SMILES IDX 19 29
REMARK H PARENT 6 12 1 15 23 23 21 25 17 28 19 30
REMARK Flexibility Score: inf
ROOT
ATOM      1  O   UNL     1     483.697  39.949 460.530  1.00  0.00    -0.310 OA
ENDROOT
BRANCH   1   2
ATOM      2  C   UNL     1     484.401  40.931 461.263  1.00  0.00     0.316 C 
ATOM      3  C   UNL     1     486.720  42.249 462.272  1.00  0.00     0.018 C 
ATOM      4  C   UNL     1     486.393  42.354 460.983  1.00  0.00     0.186 C 
ATOM      5  C   UNL     1     486.095  41.205 463.166  1.00  0.00     0.061 C 
ATOM      6  O   UNL     1     485.380  41.564 460.438  1.00  0.00    -0.472 OA
ATOM      7  C   UNL     1     485.089  40.260 462.469  1.00  0.00     0.096 C 
ATOM      8  C   UNL     1     485.315  41.822 464.339  1.00  0.00     0.145 C 
ATOM      9  C   UNL     1     484.095  39.985 463.555  1.00  0.00    -0.036 C 
ATOM     10  C   UNL     1     484.208  40.846 464.561  1.00  0.00     0.007 C 
BRANCH   8  11
ATOM     11  O   UNL     1     486.130  41.917 465.478  1.00  0.00    -0.388 OA
ATOM     12  H   UNL     1     485.526  41.841 466.263  1.00  0.00     0.211 HD
ENDBRANCH   8  11
BRANCH   9  13
ATOM     13  C   UNL     1     483.040  38.914 463.492  1.00  0.00     0.187 C 
BRANCH  13  14
ATOM     14  O   UNL     1     483.192  38.020 464.561  1.00  0.00    -0.392 OA
ATOM     15  H   UNL     1     482.560  37.271 464.401  1.00  0.00     0.211 HD
ENDBRANCH  13  14
ENDBRANCH   9  13
ENDBRANCH   1   2
BRANCH   1  16
ATOM     16  C   UNL     1     482.845  40.531 459.554  1.00  0.00     0.286 C 
ATOM     17  C   UNL     1     481.522  39.743 459.472  1.00  0.00     0.202 C 
ATOM     18  O   UNL     1     483.503  40.625 458.296  1.00  0.00    -0.341 OA
ATOM     19  C   UNL     1     481.764  38.352 458.877  1.00  0.00     0.179 C 
ATOM     20  C   UNL     1     483.753  39.370 457.667  1.00  0.00     0.178 C 
ATOM     21  C   UNL     1     482.476  38.501 457.531  1.00  0.00     0.177 C 
BRANCH  17  22
ATOM     22  O   UNL     1     480.960  39.613 460.752  1.00  0.00    -0.385 OA
ATOM     23  H   UNL     1     480.732  40.529 461.060  1.00  0.00     0.211 HD
ENDBRANCH  17  22
BRANCH  19  24
ATOM     24  O   UNL     1     480.536  37.698 458.676  1.00  0.00    -0.387 OA
ATOM     25  H   UNL     1     479.954  37.934 459.444  1.00  0.00     0.211 HD
ENDBRANCH  19  24
BRANCH  20  26
ATOM     26  C   UNL     1     484.960  38.621 458.278  1.00  0.00     0.191 C 
BRANCH  26  27
ATOM     27  O   UNL     1     486.058  39.481 458.418  1.00  0.00    -0.394 OA
ATOM     28  H   UNL     1     485.796  40.347 458.007  1.00  0.00     0.210 HD
ENDBRANCH  26  27
ENDBRANCH  20  26
BRANCH  21  29
ATOM     29  O   UNL     1     482.784  37.230 457.019  1.00  0.00    -0.387 OA
ATOM     30  H   UNL     1     482.939  36.637 457.800  1.00  0.00     0.211 HD
ENDBRANCH  21  29
ENDBRANCH   1  16
TORSDOF 10
ENDMDL
MODEL 5
REMARK VINA RESULT:    -4.677      2.966      6.000
REMARK INTER + INTRA:          -7.986
REMARK INTER:                  -7.061
REMARK INTRA:                  -0.925
REMARK UNBOUND:                -1.395
REMARK SMILES OCC1=C[C@@H](O)[C@@H]2C=CO[C@@H](O[C@H]3O[C@@H](CO)[C@@H](O)[C@H](O)[C@H]3O)[C@H]12
REMARK SMILES IDX 12 1 11 2 8 3 9 4 7 5 10 6 24 7 5 8 3 9 4 10 6 11 2 13 1 14
REMARK SMILES IDX 13 16 22 17 14 18 20 19 15 20 18 21 23 22 21 24 16 26 17 27
REMARK SMILES IDX 19 29
REMARK H PARENT 6 12 1 15 23 23 21 25 17 28 19 30
REMARK Flexibility Score: inf
ROOT
ATOM      1  O   UNL     1     482.886  39.931 458.908  1.00  0.00    -0.310 OA
ENDROOT
BRANCH   1   2
ATOM      2  C   UNL     1     483.227  41.032 459.726  1.00  0.00     0.316 C 
ATOM      3  C   UNL     1     484.264  43.629 460.280  1.00  0.00     0.018 C 
ATOM      4  C   UNL     1     483.103  43.491 459.639  1.00  0.00     0.186 C 
ATOM      5  C   UNL     1     485.218  42.472 460.452  1.00  0.00     0.061 C 
ATOM      6  O   UNL     1     482.680  42.239 459.192  1.00  0.00    -0.472 OA
ATOM      7  C   UNL     1     484.763  41.144 459.803  1.00  0.00     0.096 C 
ATOM      8  C   UNL     1     485.471  42.128 461.929  1.00  0.00     0.145 C 
ATOM      9  C   UNL     1     485.318  40.117 460.742  1.00  0.00    -0.036 C 
ATOM     10  C   UNL     1     485.685  40.651 461.902  1.00  0.00     0.007 C 
BRANCH   8  11
ATOM     11  O   UNL     1     486.616  42.788 462.401  1.00  0.00    -0.388 OA
ATOM     12  H   UNL     1     487.296  42.722 461.680  1.00  0.00     0.211 HD
ENDBRANCH   8  11
BRANCH   9  13
ATOM     13  C   UNL     1     485.386  38.643 460.447  1.00  0.00     0.187 C 
BRANCH  13  14
ATOM     14  O   UNL     1     485.638  38.433 459.084  1.00  0.00    -0.392 OA
ATOM     15  H   UNL     1     486.611  38.581 458.946  1.00  0.00     0.211 HD
ENDBRANCH  13  14
ENDBRANCH   9  13
ENDBRANCH   1   2
BRANCH   1  16
ATOM     16  C   UNL     1     481.624  40.109 458.284  1.00  0.00     0.286 C 
ATOM     17  C   UNL     1     480.609  39.096 458.849  1.00  0.00     0.202 C 
ATOM     18  O   UNL     1     481.741  40.031 456.868  1.00  0.00    -0.341 OA
ATOM     19  C   UNL     1     480.969  37.674 458.409  1.00  0.00     0.179 C 
ATOM     20  C   UNL     1     482.063  38.732 456.374  1.00  0.00     0.178 C 
ATOM     21  C   UNL     1     481.090  37.638 456.884  1.00  0.00     0.177 C 
BRANCH  17  22
ATOM     22  O   UNL     1     480.594  39.162 460.252  1.00  0.00    -0.385 OA
ATOM     23  H   UNL     1     481.215  38.459 460.579  1.00  0.00     0.211 HD
ENDBRANCH  17  22
BRANCH  19  24
ATOM     24  O   UNL     1     479.963  36.779 458.811  1.00  0.00    -0.387 OA
ATOM     25  H   UNL     1     480.169  35.904 458.391  1.00  0.00     0.211 HD
ENDBRANCH  19  24
BRANCH  20  26
ATOM     26  C   UNL     1     483.557  38.375 456.549  1.00  0.00     0.191 C 
BRANCH  26  27
ATOM     27  O   UNL     1     483.720  37.395 457.537  1.00  0.00    -0.394 OA
ATOM     28  H   UNL     1     482.959  37.497 458.168  1.00  0.00     0.210 HD
ENDBRANCH  26  27
ENDBRANCH  20  26
BRANCH  21  29
ATOM     29  O   UNL     1     481.509  36.361 456.476  1.00  0.00    -0.387 OA
ATOM     30  H   UNL     1     482.445  36.455 456.159  1.00  0.00     0.211 HD
ENDBRANCH  21  29
ENDBRANCH   1  16
TORSDOF 10
ENDMDL
MODEL 6
REMARK VINA RESULT:    -4.674      2.574      5.554
REMARK INTER + INTRA:          -7.982
REMARK INTER:                  -6.532
REMARK INTRA:                  -1.450
REMARK UNBOUND:                -1.395
REMARK SMILES OCC1=C[C@@H](O)[C@@H]2C=CO[C@@H](O[C@H]3O[C@@H](CO)[C@@H](O)[C@H](O)[C@H]3O)[C@H]12
REMARK SMILES IDX 12 1 11 2 8 3 9 4 7 5 10 6 24 7 5 8 3 9 4 10 6 11 2 13 1 14
REMARK SMILES IDX 13 16 22 17 14 18 20 19 15 20 18 21 23 22 21 24 16 26 17 27
REMARK SMILES IDX 19 29
REMARK H PARENT 6 12 1 15 23 23 21 25 17 28 19 30
REMARK Flexibility Score: inf
ROOT
ATOM      1  O   UNL     1     481.516  38.721 458.180  1.00  0.00    -0.310 OA
ENDROOT
BRANCH   1   2
ATOM      2  C   UNL     1     481.820  38.849 459.554  1.00  0.00     0.316 C 
ATOM      3  C   UNL     1     481.992  40.203 462.057  1.00  0.00     0.018 C 
ATOM      4  C   UNL     1     480.806  39.831 461.574  1.00  0.00     0.186 C 
ATOM      5  C   UNL     1     483.231  40.223 461.194  1.00  0.00     0.061 C 
ATOM      6  O   UNL     1     480.689  39.345 460.271  1.00  0.00    -0.472 OA
ATOM      7  C   UNL     1     483.008  39.818 459.718  1.00  0.00     0.096 C 
ATOM      8  C   UNL     1     484.325  39.273 461.708  1.00  0.00     0.145 C 
ATOM      9  C   UNL     1     484.295  39.134 459.371  1.00  0.00    -0.036 C 
ATOM     10  C   UNL     1     485.000  38.823 460.455  1.00  0.00     0.007 C 
BRANCH   8  11
ATOM     11  O   UNL     1     485.225  39.959 462.538  1.00  0.00    -0.388 OA
ATOM     12  H   UNL     1     485.033  40.926 462.422  1.00  0.00     0.211 HD
ENDBRANCH   8  11
BRANCH   9  13
ATOM     13  C   UNL     1     484.715  38.770 457.973  1.00  0.00     0.187 C 
BRANCH  13  14
ATOM     14  O   UNL     1     484.419  37.424 457.714  1.00  0.00    -0.392 OA
ATOM     15  H   UNL     1     485.076  36.882 458.224  1.00  0.00     0.211 HD
ENDBRANCH  13  14
ENDBRANCH   9  13
ENDBRANCH   1   2
BRANCH   1  16
ATOM     16  C   UNL     1     480.492  37.764 457.953  1.00  0.00     0.286 C 
ATOM     17  C   UNL     1     480.753  37.015 456.632  1.00  0.00     0.202 C 
ATOM     18  O   UNL     1     479.208  38.377 457.988  1.00  0.00    -0.341 OA
ATOM     19  C   UNL     1     480.564  37.954 455.437  1.00  0.00     0.179 C 
ATOM     20  C   UNL     1     478.947  39.260 456.899  1.00  0.00     0.178 C 
ATOM     21  C   UNL     1     479.177  38.593 455.518  1.00  0.00     0.177 C 
BRANCH  17  22
ATOM     22  O   UNL     1     482.060  36.501 456.622  1.00  0.00    -0.385 OA
ATOM     23  H   UNL     1     482.287  36.311 455.673  1.00  0.00     0.211 HD
ENDBRANCH  17  22
BRANCH  19  24
ATOM     24  O   UNL     1     480.666  37.228 454.237  1.00  0.00    -0.387 OA
ATOM     25  H   UNL     1     479.754  37.179 453.850  1.00  0.00     0.211 HD
ENDBRANCH  19  24
BRANCH  20  26
ATOM     26  C   UNL     1     479.641  40.632 457.056  1.00  0.00     0.191 C 
BRANCH  26  27
ATOM     27  O   UNL     1     479.479  41.124 458.359  1.00  0.00    -0.394 OA
ATOM     28  H   UNL     1     479.668  40.367 458.974  1.00  0.00     0.210 HD
ENDBRANCH  26  27
ENDBRANCH  20  26
BRANCH  21  29
ATOM     29  O   UNL     1     479.027  39.524 454.477  1.00  0.00    -0.387 OA
ATOM     30  H   UNL     1     479.741  40.204 454.597  1.00  0.00     0.211 HD
ENDBRANCH  21  29
ENDBRANCH   1  16
TORSDOF 10
ENDMDL
MODEL 7
REMARK VINA RESULT:    -4.544      3.273      6.156
REMARK INTER + INTRA:          -7.798
REMARK INTER:                  -6.714
REMARK INTRA:                  -1.083
REMARK UNBOUND:                -1.395
REMARK SMILES OCC1=C[C@@H](O)[C@@H]2C=CO[C@@H](O[C@H]3O[C@@H](CO)[C@@H](O)[C@H](O)[C@H]3O)[C@H]12
REMARK SMILES IDX 12 1 11 2 8 3 9 4 7 5 10 6 24 7 5 8 3 9 4 10 6 11 2 13 1 14
REMARK SMILES IDX 13 16 22 17 14 18 20 19 15 20 18 21 23 22 21 24 16 26 17 27
REMARK SMILES IDX 19 29
REMARK H PARENT 6 12 1 15 23 23 21 25 17 28 19 30
REMARK Flexibility Score: inf
ROOT
ATOM      1  O   UNL     1     483.548  40.600 458.205  1.00  0.00    -0.310 OA
ENDROOT
BRANCH   1   2
ATOM      2  C   UNL     1     483.676  41.054 456.872  1.00  0.00     0.316 C 
ATOM      3  C   UNL     1     482.896  42.485 454.533  1.00  0.00     0.018 C 
ATOM      4  C   UNL     1     483.346  43.140 455.604  1.00  0.00     0.186 C 
ATOM      5  C   UNL     1     482.479  41.036 454.606  1.00  0.00     0.061 C 
ATOM      6  O   UNL     1     483.546  42.475 456.814  1.00  0.00    -0.472 OA
ATOM      7  C   UNL     1     482.581  40.394 456.010  1.00  0.00     0.096 C 
ATOM      8  C   UNL     1     483.321  40.132 453.692  1.00  0.00     0.145 C 
ATOM      9  C   UNL     1     482.946  38.976 455.692  1.00  0.00    -0.036 C 
ATOM     10  C   UNL     1     483.365  38.840 454.438  1.00  0.00     0.007 C 
BRANCH   8  11
ATOM     11  O   UNL     1     482.693  39.966 452.448  1.00  0.00    -0.388 OA
ATOM     12  H   UNL     1     481.840  40.471 452.493  1.00  0.00     0.211 HD
ENDBRANCH   8  11
BRANCH   9  13
ATOM     13  C   UNL     1     482.918  37.847 456.687  1.00  0.00     0.187 C 
BRANCH  13  14
ATOM     14  O   UNL     1     484.210  37.598 457.173  1.00  0.00    -0.392 OA
ATOM     15  H   UNL     1     484.322  38.156 457.987  1.00  0.00     0.211 HD
ENDBRANCH  13  14
ENDBRANCH   9  13
ENDBRANCH   1   2
BRANCH   1  16
ATOM     16  C   UNL     1     484.556  41.141 459.045  1.00  0.00     0.286 C 
ATOM     17  C   UNL     1     485.574  40.046 459.420  1.00  0.00     0.202 C 
ATOM     18  O   UNL     1     483.983  41.768 460.187  1.00  0.00    -0.341 OA
ATOM     19  C   UNL     1     484.929  39.011 460.346  1.00  0.00     0.179 C 
ATOM     20  C   UNL     1     483.372  40.869 461.108  1.00  0.00     0.178 C 
ATOM     21  C   UNL     1     484.323  39.728 461.554  1.00  0.00     0.177 C 
BRANCH  17  22
ATOM     22  O   UNL     1     486.044  39.409 458.261  1.00  0.00    -0.385 OA
ATOM     23  H   UNL     1     486.610  40.069 457.780  1.00  0.00     0.211 HD
ENDBRANCH  17  22
BRANCH  19  24
ATOM     24  O   UNL     1     485.899  38.098 460.794  1.00  0.00    -0.387 OA
ATOM     25  H   UNL     1     486.733  38.293 460.293  1.00  0.00     0.211 HD
ENDBRANCH  19  24
BRANCH  20  26
ATOM     26  C   UNL     1     481.982  40.380 460.640  1.00  0.00     0.191 C 
BRANCH  26  27
ATOM     27  O   UNL     1     482.049  39.058 460.181  1.00  0.00    -0.394 OA
ATOM     28  H   UNL     1     482.415  38.515 460.929  1.00  0.00     0.210 HD
ENDBRANCH  26  27
ENDBRANCH  20  26
BRANCH  21  29
ATOM     29  O   UNL     1     483.649  38.798 462.364  1.00  0.00    -0.387 OA
ATOM     30  H   UNL     1     484.311  38.097 462.605  1.00  0.00     0.211 HD
ENDBRANCH  21  29
ENDBRANCH   1  16
TORSDOF 10
ENDMDL
MODEL 8
REMARK VINA RESULT:    -4.533      1.459      2.672
REMARK INTER + INTRA:          -7.783
REMARK INTER:                  -6.876
REMARK INTRA:                  -0.907
REMARK UNBOUND:                -1.395
REMARK SMILES OCC1=C[C@@H](O)[C@@H]2C=CO[C@@H](O[C@H]3O[C@@H](CO)[C@@H](O)[C@H](O)[C@H]3O)[C@H]12
REMARK SMILES IDX 12 1 11 2 8 3 9 4 7 5 10 6 24 7 5 8 3 9 4 10 6 11 2 13 1 14
REMARK SMILES IDX 13 16 22 17 14 18 20 19 15 20 18 21 23 22 21 24 16 26 17 27
REMARK SMILES IDX 19 29
REMARK H PARENT 6 12 1 15 23 23 21 25 17 28 19 30
REMARK Flexibility Score: inf
ROOT
ATOM      1  O   UNL     1     482.098  39.833 460.438  1.00  0.00    -0.310 OA
ENDROOT
BRANCH   1   2
ATOM      2  C   UNL     1     480.877  39.915 461.146  1.00  0.00     0.316 C 
ATOM      3  C   UNL     1     479.140  39.526 463.373  1.00  0.00     0.018 C 
ATOM      4  C   UNL     1     480.111  40.437 463.429  1.00  0.00     0.186 C 
ATOM      5  C   UNL     1     479.109  38.463 462.301  1.00  0.00     0.061 C 
ATOM      6  O   UNL     1     481.084  40.504 462.431  1.00  0.00    -0.472 OA
ATOM      7  C   UNL     1     480.297  38.496 461.311  1.00  0.00     0.096 C 
ATOM      8  C   UNL     1     477.852  38.549 461.420  1.00  0.00     0.145 C 
ATOM      9  C   UNL     1     479.666  38.034 460.032  1.00  0.00    -0.036 C 
ATOM     10  C   UNL     1     478.339  38.082 460.088  1.00  0.00     0.007 C 
BRANCH   8  11
ATOM     11  O   UNL     1     476.848  37.699 461.907  1.00  0.00    -0.388 OA
ATOM     12  H   UNL     1     475.989  38.182 461.789  1.00  0.00     0.211 HD
ENDBRANCH   8  11
BRANCH   9  13
ATOM     13  C   UNL     1     480.433  37.637 458.800  1.00  0.00     0.187 C 
BRANCH  13  14
ATOM     14  O   UNL     1     480.007  36.380 458.349  1.00  0.00    -0.392 OA
ATOM     15  H   UNL     1     479.019  36.359 458.449  1.00  0.00     0.211 HD
ENDBRANCH  13  14
ENDBRANCH   9  13
ENDBRANCH   1   2
BRANCH   1  16
ATOM     16  C   UNL     1     483.217  39.881 461.310  1.00  0.00     0.286 C 
ATOM     17  C   UNL     1     484.060  41.137 461.018  1.00  0.00     0.202 C 
ATOM     18  O   UNL     1     483.978  38.681 461.225  1.00  0.00    -0.341 OA
ATOM     19  C   UNL     1     484.743  41.019 459.652  1.00  0.00     0.179 C 
ATOM     20  C   UNL     1     484.658  38.501 459.985  1.00  0.00     0.178 C 
ATOM     21  C   UNL     1     485.543  39.716 459.604  1.00  0.00     0.177 C 
BRANCH  17  22
ATOM     22  O   UNL     1     483.243  42.279 461.036  1.00  0.00    -0.385 OA
ATOM     23  H   UNL     1     483.477  42.787 461.856  1.00  0.00     0.211 HD
ENDBRANCH  17  22
BRANCH  19  24
ATOM     24  O   UNL     1     485.617  42.102 459.458  1.00  0.00    -0.387 OA
ATOM     25  H   UNL     1     486.188  41.877 458.678  1.00  0.00     0.211 HD
ENDBRANCH  19  24
BRANCH  20  26
ATOM     26  C   UNL     1     483.722  38.025 458.850  1.00  0.00     0.191 C 
BRANCH  26  27
ATOM     27  O   UNL     1     484.432  37.270 457.906  1.00  0.00    -0.394 OA
ATOM     28  H   UNL     1     484.883  37.919 457.304  1.00  0.00     0.210 HD
ENDBRANCH  26  27
ENDBRANCH  20  26
BRANCH  21  29
ATOM     29  O   UNL     1     486.099  39.552 458.324  1.00  0.00    -0.387 OA
ATOM     30  H   UNL     1     486.501  40.425 458.074  1.00  0.00     0.211 HD
ENDBRANCH  21  29
ENDBRANCH   1  16
TORSDOF 10
ENDMDL
MODEL 9
REMARK VINA RESULT:    -4.441      2.364      4.684
REMARK INTER + INTRA:          -7.654
REMARK INTER:                  -6.463
REMARK INTRA:                  -1.191
REMARK UNBOUND:                -1.395
REMARK SMILES OCC1=C[C@@H](O)[C@@H]2C=CO[C@@H](O[C@H]3O[C@@H](CO)[C@@H](O)[C@H](O)[C@H]3O)[C@H]12
REMARK SMILES IDX 12 1 11 2 8 3 9 4 7 5 10 6 24 7 5 8 3 9 4 10 6 11 2 13 1 14
REMARK SMILES IDX 13 16 22 17 14 18 20 19 15 20 18 21 23 22 21 24 16 26 17 27
REMARK SMILES IDX 19 29
REMARK H PARENT 6 12 1 15 23 23 21 25 17 28 19 30
REMARK Flexibility Score: inf
ROOT
ATOM      1  O   UNL     1     482.781  39.090 459.810  1.00  0.00    -0.310 OA
ENDROOT
BRANCH   1   2
ATOM      2  C   UNL     1     482.375  39.282 461.150  1.00  0.00     0.316 C 
ATOM      3  C   UNL     1     481.108  40.654 463.305  1.00  0.00     0.018 C 
ATOM      4  C   UNL     1     480.376  40.048 462.370  1.00  0.00     0.186 C 
ATOM      5  C   UNL     1     482.582  40.919 463.111  1.00  0.00     0.061 C 
ATOM      6  O   UNL     1     480.972  39.544 461.214  1.00  0.00    -0.472 OA
ATOM      7  C   UNL     1     483.155  40.472 461.746  1.00  0.00     0.096 C 
ATOM      8  C   UNL     1     483.453  40.211 464.161  1.00  0.00     0.145 C 
ATOM      9  C   UNL     1     484.551  40.060 462.099  1.00  0.00    -0.036 C 
ATOM     10  C   UNL     1     484.706  39.902 463.410  1.00  0.00     0.007 C 
BRANCH   8  11
ATOM     11  O   UNL     1     483.721  41.068 465.240  1.00  0.00    -0.388 OA
ATOM     12  H   UNL     1     484.326  41.775 464.895  1.00  0.00     0.211 HD
ENDBRANCH   8  11
BRANCH   9  13
ATOM     13  C   UNL     1     485.636  39.782 461.094  1.00  0.00     0.187 C 
BRANCH  13  14
ATOM     14  O   UNL     1     485.650  38.420 460.761  1.00  0.00    -0.392 OA
ATOM     15  H   UNL     1     486.278  38.318 459.999  1.00  0.00     0.211 HD
ENDBRANCH  13  14
ENDBRANCH   9  13
ENDBRANCH   1   2
BRANCH   1  16
ATOM     16  C   UNL     1     481.779  39.499 458.892  1.00  0.00     0.286 C 
ATOM     17  C   UNL     1     481.252  38.280 458.109  1.00  0.00     0.202 C 
ATOM     18  O   UNL     1     482.263  40.529 458.037  1.00  0.00    -0.341 OA
ATOM     19  C   UNL     1     482.332  37.743 457.164  1.00  0.00     0.179 C 
ATOM     20  C   UNL     1     483.264  40.106 457.114  1.00  0.00     0.178 C 
ATOM     21  C   UNL     1     482.825  38.883 456.270  1.00  0.00     0.177 C 
BRANCH  17  22
ATOM     22  O   UNL     1     480.866  37.267 459.001  1.00  0.00    -0.385 OA
ATOM     23  H   UNL     1     481.537  37.257 459.733  1.00  0.00     0.211 HD
ENDBRANCH  17  22
BRANCH  19  24
ATOM     24  O   UNL     1     481.798  36.724 456.357  1.00  0.00    -0.387 OA
ATOM     25  H   UNL     1     481.168  36.206 456.923  1.00  0.00     0.211 HD
ENDBRANCH  19  24
BRANCH  20  26
ATOM     26  C   UNL     1     484.657  39.952 457.767  1.00  0.00     0.191 C 
BRANCH  26  27
ATOM     27  O   UNL     1     484.987  38.598 457.919  1.00  0.00    -0.394 OA
ATOM     28  H   UNL     1     485.430  38.510 458.803  1.00  0.00     0.210 HD
ENDBRANCH  26  27
ENDBRANCH  20  26
BRANCH  21  29
ATOM     29  O   UNL     1     483.879  38.423 455.462  1.00  0.00    -0.387 OA
ATOM     30  H   UNL     1     483.691  38.742 454.540  1.00  0.00     0.211 HD
ENDBRANCH  21  29
ENDBRANCH   1  16
TORSDOF 10
ENDMDL
