MODEL 1
REMARK VINA RESULT:    -5.581      0.000      0.000
REMARK INTER + INTRA:         -10.897
REMARK INTER:                 -10.149
REMARK INTRA:                  -0.748
REMARK UNBOUND:                -0.748
REMARK SMILES CCCCCCCCCCCCCC[C@@H](C)C(=O)[O-]
REMARK SMILES IDX 9 1 10 2 11 3 12 4 13 5 14 6 15 7 16 8 17 9 18 10 19 11 8 12
REMARK SMILES IDX 7 13 6 14 5 15 4 16 3 17 2 18 1 19
REMARK H PARENT
REMARK Flexibility Score: inf
ROOT
ATOM      1  C   UNL     1      -5.836 -32.159  48.923  1.00  0.00     0.000 C 
ENDROOT
BRANCH   1   2
ATOM      2  C   UNL     1      -6.062 -32.982  50.202  1.00  0.00     0.000 C 
BRANCH   2   3
ATOM      3  C   UNL     1      -5.586 -32.254  51.469  1.00  0.00     0.000 C 
BRANCH   3   4
ATOM      4  C   UNL     1      -4.778 -33.199  52.371  1.00  0.00     0.000 C 
BRANCH   4   5
ATOM      5  C   UNL     1      -5.000 -34.682  52.029  1.00  0.00     0.001 C 
BRANCH   5   6
ATOM      6  C   UNL     1      -4.306 -35.628  53.029  1.00  0.00     0.009 C 
BRANCH   6   7
ATOM      7  C   UNL     1      -3.712 -34.919  54.268  1.00  0.00     0.032 C 
ATOM      8  C   UNL     1      -4.288 -35.447  55.589  1.00  0.00     0.014 C 
BRANCH   7   9
ATOM      9  C   UNL     1      -2.206 -34.962  54.265  1.00  0.00     0.044 C 
ATOM     10  O   UNL     1      -1.559 -34.205  53.493  1.00  0.00    -0.550 OA
ATOM     11  O   UNL     1      -1.518 -35.867  55.066  1.00  0.00    -0.550 OA
ENDBRANCH   7   9
ENDBRANCH   6   7
ENDBRANCH   5   6
ENDBRANCH   4   5
ENDBRANCH   3   4
ENDBRANCH   2   3
ENDBRANCH   1   2
BRANCH   1  12
ATOM     12  C   UNL     1      -6.773 -32.579  47.778  1.00  0.00     0.000 C 
BRANCH  12  13
ATOM     13  C   UNL     1      -6.376 -31.967  46.422  1.00  0.00    -0.000 C 
BRANCH  13  14
ATOM     14  C   UNL     1      -7.512 -31.865  45.387  1.00  0.00    -0.000 C 
BRANCH  14  15
ATOM     15  C   UNL     1      -7.000 -31.789  43.938  1.00  0.00    -0.000 C 
BRANCH  15  16
ATOM     16  C   UNL     1      -7.734 -32.761  43.002  1.00  0.00    -0.000 C 
BRANCH  16  17
ATOM     17  C   UNL     1      -8.998 -33.363  43.642  1.00  0.00    -0.000 C 
BRANCH  17  18
ATOM     18  C   UNL     1     -10.133 -33.565  42.625  1.00  0.00    -0.003 C 
ATOM     19  C   UNL     1      -9.660 -33.433  41.178  1.00  0.00     0.004 C 
ENDBRANCH  17  18
ENDBRANCH  16  17
ENDBRANCH  15  16
ENDBRANCH  14  15
ENDBRANCH  13  14
ENDBRANCH  12  13
ENDBRANCH   1  12
TORSDOF 14
ENDMDL
MODEL 2
REMARK VINA RESULT:    -5.403      7.085      8.382
REMARK INTER + INTRA:         -10.573
REMARK INTER:                  -9.437
REMARK INTRA:                  -1.136
REMARK UNBOUND:                -0.748
REMARK SMILES CCCCCCCCCCCCCC[C@@H](C)C(=O)[O-]
REMARK SMILES IDX 9 1 10 2 11 3 12 4 13 5 14 6 15 7 16 8 17 9 18 10 19 11 8 12
REMARK SMILES IDX 7 13 6 14 5 15 4 16 3 17 2 18 1 19
REMARK H PARENT
REMARK Flexibility Score: inf
ROOT
ATOM      1  C   UNL     1      -9.741 -35.465  44.183  1.00  0.00     0.000 C 
ENDROOT
BRANCH   1   2
ATOM      2  C   UNL     1     -10.633 -36.457  44.947  1.00  0.00     0.000 C 
BRANCH   2   3
ATOM      3  C   UNL     1     -10.960 -37.715  44.127  1.00  0.00     0.000 C 
BRANCH   3   4
ATOM      4  C   UNL     1     -10.342 -38.964  44.772  1.00  0.00     0.000 C 
BRANCH   4   5
ATOM      5  C   UNL     1      -9.790 -38.694  46.182  1.00  0.00     0.001 C 
BRANCH   5   6
ATOM      6  C   UNL     1      -9.836 -39.944  47.083  1.00  0.00     0.009 C 
BRANCH   6   7
ATOM      7  C   UNL     1     -11.016 -39.965  48.081  1.00  0.00     0.032 C 
ATOM      8  C   UNL     1     -10.602 -40.434  49.483  1.00  0.00     0.014 C 
BRANCH   7   9
ATOM      9  C   UNL     1     -11.728 -38.639  48.129  1.00  0.00     0.044 C 
ATOM     10  O   UNL     1     -11.372 -37.767  48.967  1.00  0.00    -0.550 OA
ATOM     11  O   UNL     1     -12.810 -38.381  47.296  1.00  0.00    -0.550 OA
ENDBRANCH   7   9
ENDBRANCH   6   7
ENDBRANCH   5   6
ENDBRANCH   4   5
ENDBRANCH   3   4
ENDBRANCH   2   3
ENDBRANCH   1   2
BRANCH   1  12
ATOM     12  C   UNL     1     -10.242 -34.015  44.295  1.00  0.00     0.000 C 
BRANCH  12  13
ATOM     13  C   UNL     1     -10.630 -33.406  42.935  1.00  0.00    -0.000 C 
BRANCH  13  14
ATOM     14  C   UNL     1     -10.021 -34.103  41.704  1.00  0.00    -0.000 C 
BRANCH  14  15
ATOM     15  C   UNL     1      -9.199 -33.149  40.820  1.00  0.00    -0.000 C 
BRANCH  15  16
ATOM     16  C   UNL     1      -7.760 -32.966  41.327  1.00  0.00    -0.000 C 
BRANCH  16  17
ATOM     17  C   UNL     1      -7.604 -31.741  42.246  1.00  0.00    -0.000 C 
BRANCH  17  18
ATOM     18  C   UNL     1      -7.054 -32.112  43.633  1.00  0.00    -0.003 C 
ATOM     19  C   UNL     1      -6.433 -30.921  44.360  1.00  0.00     0.004 C 
ENDBRANCH  17  18
ENDBRANCH  16  17
ENDBRANCH  15  16
ENDBRANCH  14  15
ENDBRANCH  13  14
ENDBRANCH  12  13
ENDBRANCH   1  12
TORSDOF 14
ENDMDL
MODEL 3
REMARK VINA RESULT:    -5.387      7.210     11.012
REMARK INTER + INTRA:         -10.545
REMARK INTER:                  -9.106
REMARK INTRA:                  -1.439
REMARK UNBOUND:                -0.748
REMARK SMILES CCCCCCCCCCCCCC[C@@H](C)C(=O)[O-]
REMARK SMILES IDX 9 1 10 2 11 3 12 4 13 5 14 6 15 7 16 8 17 9 18 10 19 11 8 12
REMARK SMILES IDX 7 13 6 14 5 15 4 16 3 17 2 18 1 19
REMARK H PARENT
REMARK Flexibility Score: inf
ROOT
ATOM      1  C   UNL     1     -10.706 -39.408  44.325  1.00  0.00     0.000 C 
ENDROOT
BRANCH   1   2
ATOM      2  C   UNL     1     -11.177 -37.991  43.960  1.00  0.00     0.000 C 
BRANCH   2   3
ATOM      3  C   UNL     1     -10.576 -36.911  44.873  1.00  0.00     0.000 C 
BRANCH   3   4
ATOM      4  C   UNL     1      -9.665 -35.966  44.075  1.00  0.00     0.000 C 
BRANCH   4   5
ATOM      5  C   UNL     1     -10.452 -34.906  43.287  1.00  0.00     0.001 C 
BRANCH   5   6
ATOM      6  C   UNL     1      -9.720 -33.550  43.227  1.00  0.00     0.009 C 
BRANCH   6   7
ATOM      7  C   UNL     1      -8.800 -33.379  41.998  1.00  0.00     0.032 C 
ATOM      8  C   UNL     1      -9.576 -33.329  40.675  1.00  0.00     0.014 C 
BRANCH   7   9
ATOM      9  C   UNL     1      -7.887 -32.190  42.148  1.00  0.00     0.044 C 
ATOM     10  O   UNL     1      -7.089 -32.131  43.122  1.00  0.00    -0.550 OA
ATOM     11  O   UNL     1      -7.950 -31.127  41.255  1.00  0.00    -0.550 OA
ENDBRANCH   7   9
ENDBRANCH   6   7
ENDBRANCH   5   6
ENDBRANCH   4   5
ENDBRANCH   3   4
ENDBRANCH   2   3
ENDBRANCH   1   2
BRANCH   1  12
ATOM     12  C   UNL     1     -11.877 -40.372  44.580  1.00  0.00     0.000 C 
BRANCH  12  13
ATOM     13  C   UNL     1     -12.004 -40.785  46.059  1.00  0.00    -0.000 C 
BRANCH  13  14
ATOM     14  C   UNL     1     -12.269 -39.632  47.044  1.00  0.00    -0.000 C 
BRANCH  14  15
ATOM     15  C   UNL     1     -11.297 -39.627  48.237  1.00  0.00    -0.000 C 
BRANCH  15  16
ATOM     16  C   UNL     1     -10.524 -38.304  48.362  1.00  0.00    -0.000 C 
BRANCH  16  17
ATOM     17  C   UNL     1      -9.100 -38.391  47.785  1.00  0.00    -0.000 C 
BRANCH  17  18
ATOM     18  C   UNL     1      -8.681 -39.835  47.467  1.00  0.00    -0.003 C 
ATOM     19  C   UNL     1      -7.810 -40.453  48.560  1.00  0.00     0.004 C 
ENDBRANCH  17  18
ENDBRANCH  16  17
ENDBRANCH  15  16
ENDBRANCH  14  15
ENDBRANCH  13  14
ENDBRANCH  12  13
ENDBRANCH   1  12
TORSDOF 14
ENDMDL
MODEL 4
REMARK VINA RESULT:    -5.375      7.499     11.049
REMARK INTER + INTRA:         -10.522
REMARK INTER:                  -9.028
REMARK INTRA:                  -1.494
REMARK UNBOUND:                -0.748
REMARK SMILES CCCCCCCCCCCCCC[C@@H](C)C(=O)[O-]
REMARK SMILES IDX 9 1 10 2 11 3 12 4 13 5 14 6 15 7 16 8 17 9 18 10 19 11 8 12
REMARK SMILES IDX 7 13 6 14 5 15 4 16 3 17 2 18 1 19
REMARK H PARENT
REMARK Flexibility Score: inf
ROOT
ATOM      1  C   UNL     1     -11.977 -38.665  43.709  1.00  0.00     0.000 C 
ENDROOT
BRANCH   1   2
ATOM      2  C   UNL     1     -10.776 -37.752  44.010  1.00  0.00     0.000 C 
BRANCH   2   3
ATOM      3  C   UNL     1     -11.031 -36.807  45.195  1.00  0.00     0.000 C 
BRANCH   3   4
ATOM      4  C   UNL     1     -10.519 -35.392  44.885  1.00  0.00     0.000 C 
BRANCH   4   5
ATOM      5  C   UNL     1     -10.236 -35.177  43.389  1.00  0.00     0.001 C 
BRANCH   5   6
ATOM      6  C   UNL     1      -9.949 -33.700  43.049  1.00  0.00     0.009 C 
BRANCH   6   7
ATOM      7  C   UNL     1      -9.012 -33.498  41.837  1.00  0.00     0.032 C 
ATOM      8  C   UNL     1      -9.777 -33.290  40.522  1.00  0.00     0.014 C 
BRANCH   7   9
ATOM      9  C   UNL     1      -8.019 -32.391  42.080  1.00  0.00     0.044 C 
ATOM     10  O   UNL     1      -7.265 -32.436  43.088  1.00  0.00    -0.550 OA
ATOM     11  O   UNL     1      -7.960 -31.290  41.233  1.00  0.00    -0.550 OA
ENDBRANCH   7   9
ENDBRANCH   6   7
ENDBRANCH   5   6
ENDBRANCH   4   5
ENDBRANCH   3   4
ENDBRANCH   2   3
ENDBRANCH   1   2
BRANCH   1  12
ATOM     12  C   UNL     1     -11.574 -40.142  43.567  1.00  0.00     0.000 C 
BRANCH  12  13
ATOM     13  C   UNL     1     -10.998 -40.735  44.867  1.00  0.00    -0.000 C 
BRANCH  13  14
ATOM     14  C   UNL     1     -12.036 -41.086  45.948  1.00  0.00    -0.000 C 
BRANCH  14  15
ATOM     15  C   UNL     1     -11.656 -40.555  47.341  1.00  0.00    -0.000 C 
BRANCH  15  16
ATOM     16  C   UNL     1     -10.350 -39.746  47.327  1.00  0.00    -0.000 C 
BRANCH  16  17
ATOM     17  C   UNL     1     -10.307 -38.667  48.425  1.00  0.00    -0.000 C 
BRANCH  17  18
ATOM     18  C   UNL     1     -11.707 -38.157  48.803  1.00  0.00    -0.003 C 
ATOM     19  C   UNL     1     -11.828 -36.637  48.707  1.00  0.00     0.004 C 
ENDBRANCH  17  18
ENDBRANCH  16  17
ENDBRANCH  15  16
ENDBRANCH  14  15
ENDBRANCH  13  14
ENDBRANCH  12  13
ENDBRANCH   1  12
TORSDOF 14
ENDMDL
MODEL 5
REMARK VINA RESULT:    -5.281      6.974      8.789
REMARK INTER + INTRA:         -10.352
REMARK INTER:                  -8.512
REMARK INTRA:                  -1.840
REMARK UNBOUND:                -0.748
REMARK SMILES CCCCCCCCCCCCCC[C@@H](C)C(=O)[O-]
REMARK SMILES IDX 9 1 10 2 11 3 12 4 13 5 14 6 15 7 16 8 17 9 18 10 19 11 8 12
REMARK SMILES IDX 7 13 6 14 5 15 4 16 3 17 2 18 1 19
REMARK H PARENT
REMARK Flexibility Score: inf
ROOT
ATOM      1  C   UNL     1     -10.178 -40.072  43.430  1.00  0.00     0.000 C 
ENDROOT
BRANCH   1   2
ATOM      2  C   UNL     1     -11.533 -40.579  43.950  1.00  0.00     0.000 C 
BRANCH   2   3
ATOM      3  C   UNL     1     -12.544 -39.444  44.179  1.00  0.00     0.000 C 
BRANCH   3   4
ATOM      4  C   UNL     1     -12.530 -38.986  45.645  1.00  0.00     0.000 C 
BRANCH   4   5
ATOM      5  C   UNL     1     -12.643 -40.158  46.634  1.00  0.00     0.001 C 
BRANCH   5   6
ATOM      6  C   UNL     1     -11.352 -40.369  47.450  1.00  0.00     0.009 C 
BRANCH   6   7
ATOM      7  C   UNL     1     -10.712 -39.063  47.975  1.00  0.00     0.032 C 
ATOM      8  C   UNL     1     -11.479 -38.459  49.160  1.00  0.00     0.014 C 
BRANCH   7   9
ATOM      9  C   UNL     1      -9.252 -39.250  48.298  1.00  0.00     0.044 C 
ATOM     10  O   UNL     1      -8.865 -40.310  48.860  1.00  0.00    -0.550 OA
ATOM     11  O   UNL     1      -8.330 -38.243  48.035  1.00  0.00    -0.550 OA
ENDBRANCH   7   9
ENDBRANCH   6   7
ENDBRANCH   5   6
ENDBRANCH   4   5
ENDBRANCH   3   4
ENDBRANCH   2   3
ENDBRANCH   1   2
BRANCH   1  12
ATOM     12  C   UNL     1      -9.239 -39.629  44.564  1.00  0.00     0.000 C 
BRANCH  12  13
ATOM     13  C   UNL     1      -8.715 -38.192  44.384  1.00  0.00    -0.000 C 
BRANCH  13  14
ATOM     14  C   UNL     1      -9.618 -37.085  44.958  1.00  0.00    -0.000 C 
BRANCH  14  15
ATOM     15  C   UNL     1     -10.071 -36.069  43.896  1.00  0.00    -0.000 C 
BRANCH  15  16
ATOM     16  C   UNL     1     -10.435 -34.704  44.503  1.00  0.00    -0.000 C 
BRANCH  16  17
ATOM     17  C   UNL     1     -10.520 -33.587  43.448  1.00  0.00    -0.000 C 
BRANCH  17  18
ATOM     18  C   UNL     1     -10.045 -34.050  42.061  1.00  0.00    -0.003 C 
ATOM     19  C   UNL     1      -8.883 -33.214  41.526  1.00  0.00     0.004 C 
ENDBRANCH  17  18
ENDBRANCH  16  17
ENDBRANCH  15  16
ENDBRANCH  14  15
ENDBRANCH  13  14
ENDBRANCH  12  13
ENDBRANCH   1  12
TORSDOF 14
ENDMDL
MODEL 6
REMARK VINA RESULT:    -5.271      6.456      9.287
REMARK INTER + INTRA:         -10.333
REMARK INTER:                  -9.064
REMARK INTRA:                  -1.269
REMARK UNBOUND:                -0.748
REMARK SMILES CCCCCCCCCCCCCC[C@@H](C)C(=O)[O-]
REMARK SMILES IDX 9 1 10 2 11 3 12 4 13 5 14 6 15 7 16 8 17 9 18 10 19 11 8 12
REMARK SMILES IDX 7 13 6 14 5 15 4 16 3 17 2 18 1 19
REMARK H PARENT
REMARK Flexibility Score: inf
ROOT
ATOM      1  C   UNL     1     -10.647 -33.560  43.070  1.00  0.00     0.000 C 
ENDROOT
BRANCH   1   2
ATOM      2  C   UNL     1      -9.920 -34.129  41.841  1.00  0.00     0.000 C 
BRANCH   2   3
ATOM      3  C   UNL     1      -9.315 -33.033  40.949  1.00  0.00     0.000 C 
BRANCH   3   4
ATOM      4  C   UNL     1      -7.818 -32.854  41.244  1.00  0.00     0.000 C 
BRANCH   4   5
ATOM      5  C   UNL     1      -7.541 -31.725  42.251  1.00  0.00     0.001 C 
BRANCH   5   6
ATOM      6  C   UNL     1      -7.214 -32.259  43.661  1.00  0.00     0.009 C 
BRANCH   6   7
ATOM      7  C   UNL     1      -6.591 -31.210  44.609  1.00  0.00     0.032 C 
ATOM      8  C   UNL     1      -6.526 -29.808  43.987  1.00  0.00     0.014 C 
BRANCH   7   9
ATOM      9  C   UNL     1      -7.282 -31.190  45.947  1.00  0.00     0.044 C 
ATOM     10  O   UNL     1      -8.436 -31.682  46.064  1.00  0.00    -0.550 OA
ATOM     11  O   UNL     1      -6.685 -30.585  47.048  1.00  0.00    -0.550 OA
ENDBRANCH   7   9
ENDBRANCH   6   7
ENDBRANCH   5   6
ENDBRANCH   4   5
ENDBRANCH   3   4
ENDBRANCH   2   3
ENDBRANCH   1   2
BRANCH   1  12
ATOM     12  C   UNL     1     -10.280 -34.300  44.368  1.00  0.00     0.000 C 
BRANCH  12  13
ATOM     13  C   UNL     1      -9.953 -35.787  44.138  1.00  0.00    -0.000 C 
BRANCH  13  14
ATOM     14  C   UNL     1     -10.912 -36.785  44.812  1.00  0.00    -0.000 C 
BRANCH  14  15
ATOM     15  C   UNL     1     -11.236 -38.000  43.925  1.00  0.00    -0.000 C 
BRANCH  15  16
ATOM     16  C   UNL     1     -10.522 -39.278  44.393  1.00  0.00    -0.000 C 
BRANCH  16  17
ATOM     17  C   UNL     1     -10.221 -39.272  45.903  1.00  0.00    -0.000 C 
BRANCH  17  18
ATOM     18  C   UNL     1     -10.960 -40.392  46.654  1.00  0.00    -0.003 C 
ATOM     19  C   UNL     1     -12.479 -40.275  46.541  1.00  0.00     0.004 C 
ENDBRANCH  17  18
ENDBRANCH  16  17
ENDBRANCH  15  16
ENDBRANCH  14  15
ENDBRANCH  13  14
ENDBRANCH  12  13
ENDBRANCH   1  12
TORSDOF 14
ENDMDL
MODEL 7
REMARK VINA RESULT:    -5.265      7.305     10.336
REMARK INTER + INTRA:         -10.323
REMARK INTER:                  -8.267
REMARK INTRA:                  -2.056
REMARK UNBOUND:                -0.748
REMARK SMILES CCCCCCCCCCCCCC[C@@H](C)C(=O)[O-]
REMARK SMILES IDX 9 1 10 2 11 3 12 4 13 5 14 6 15 7 16 8 17 9 18 10 19 11 8 12
REMARK SMILES IDX 7 13 6 14 5 15 4 16 3 17 2 18 1 19
REMARK H PARENT
REMARK Flexibility Score: inf
ROOT
ATOM      1  C   UNL     1      -8.659 -38.837  44.641  1.00  0.00     0.000 C 
ENDROOT
BRANCH   1   2
ATOM      2  C   UNL     1      -9.192 -37.407  44.447  1.00  0.00     0.000 C 
BRANCH   2   3
ATOM      3  C   UNL     1      -9.528 -36.713  45.777  1.00  0.00     0.000 C 
BRANCH   3   4
ATOM      4  C   UNL     1     -10.760 -35.809  45.625  1.00  0.00     0.000 C 
BRANCH   4   5
ATOM      5  C   UNL     1     -10.678 -34.893  44.392  1.00  0.00     0.001 C 
BRANCH   5   6
ATOM      6  C   UNL     1      -9.367 -34.083  44.346  1.00  0.00     0.009 C 
BRANCH   6   7
ATOM      7  C   UNL     1      -8.747 -33.956  42.936  1.00  0.00     0.032 C 
ATOM      8  C   UNL     1      -9.795 -34.027  41.816  1.00  0.00     0.014 C 
BRANCH   7   9
ATOM      9  C   UNL     1      -7.889 -32.724  42.814  1.00  0.00     0.044 C 
ATOM     10  O   UNL     1      -7.252 -32.302  43.816  1.00  0.00    -0.550 OA
ATOM     11  O   UNL     1      -7.833 -32.011  41.621  1.00  0.00    -0.550 OA
ENDBRANCH   7   9
ENDBRANCH   6   7
ENDBRANCH   5   6
ENDBRANCH   4   5
ENDBRANCH   3   4
ENDBRANCH   2   3
ENDBRANCH   1   2
BRANCH   1  12
ATOM     12  C   UNL     1      -9.778 -39.892  44.611  1.00  0.00     0.000 C 
BRANCH  12  13
ATOM     13  C   UNL     1     -10.925 -39.525  43.652  1.00  0.00    -0.000 C 
BRANCH  13  14
ATOM     14  C   UNL     1     -12.254 -39.144  44.329  1.00  0.00    -0.000 C 
BRANCH  14  15
ATOM     15  C   UNL     1     -12.518 -39.935  45.622  1.00  0.00    -0.000 C 
BRANCH  15  16
ATOM     16  C   UNL     1     -12.832 -39.023  46.817  1.00  0.00    -0.000 C 
BRANCH  16  17
ATOM     17  C   UNL     1     -11.618 -38.811  47.740  1.00  0.00    -0.000 C 
BRANCH  17  18
ATOM     18  C   UNL     1     -10.944 -40.134  48.138  1.00  0.00    -0.003 C 
ATOM     19  C   UNL     1      -9.440 -39.986  48.365  1.00  0.00     0.004 C 
ENDBRANCH  17  18
ENDBRANCH  16  17
ENDBRANCH  15  16
ENDBRANCH  14  15
ENDBRANCH  13  14
ENDBRANCH  12  13
ENDBRANCH   1  12
TORSDOF 14
ENDMDL
MODEL 8
REMARK VINA RESULT:    -5.240      7.665      9.593
REMARK INTER + INTRA:         -10.276
REMARK INTER:                  -7.813
REMARK INTRA:                  -2.463
REMARK UNBOUND:                -0.748
REMARK SMILES CCCCCCCCCCCCCC[C@@H](C)C(=O)[O-]
REMARK SMILES IDX 9 1 10 2 11 3 12 4 13 5 14 6 15 7 16 8 17 9 18 10 19 11 8 12
REMARK SMILES IDX 7 13 6 14 5 15 4 16 3 17 2 18 1 19
REMARK H PARENT
REMARK Flexibility Score: inf
ROOT
ATOM      1  C   UNL     1     -10.969 -39.882  48.301  1.00  0.00     0.000 C 
ENDROOT
BRANCH   1   2
ATOM      2  C   UNL     1      -9.575 -40.054  48.927  1.00  0.00     0.000 C 
BRANCH   2   3
ATOM      3  C   UNL     1      -8.465 -39.391  48.096  1.00  0.00     0.000 C 
BRANCH   3   4
ATOM      4  C   UNL     1      -8.648 -39.694  46.601  1.00  0.00     0.000 C 
BRANCH   4   5
ATOM      5  C   UNL     1      -8.323 -38.487  45.706  1.00  0.00     0.001 C 
BRANCH   5   6
ATOM      6  C   UNL     1      -8.910 -38.629  44.287  1.00  0.00     0.009 C 
BRANCH   6   7
ATOM      7  C   UNL     1     -10.156 -39.540  44.203  1.00  0.00     0.032 C 
ATOM      8  C   UNL     1     -11.406 -38.795  43.714  1.00  0.00     0.014 C 
BRANCH   7   9
ATOM      9  C   UNL     1      -9.889 -40.773  43.379  1.00  0.00     0.044 C 
ATOM     10  O   UNL     1     -10.606 -41.797  43.533  1.00  0.00    -0.550 OA
ATOM     11  O   UNL     1      -8.824 -40.815  42.486  1.00  0.00    -0.550 OA
ENDBRANCH   7   9
ENDBRANCH   6   7
ENDBRANCH   5   6
ENDBRANCH   4   5
ENDBRANCH   3   4
ENDBRANCH   2   3
ENDBRANCH   1   2
BRANCH   1  12
ATOM     12  C   UNL     1     -11.547 -38.475  48.524  1.00  0.00     0.000 C 
BRANCH  12  13
ATOM     13  C   UNL     1     -11.745 -37.692  47.213  1.00  0.00    -0.000 C 
BRANCH  13  14
ATOM     14  C   UNL     1     -10.922 -36.397  47.088  1.00  0.00    -0.000 C 
BRANCH  14  15
ATOM     15  C   UNL     1     -10.984 -35.779  45.680  1.00  0.00    -0.000 C 
BRANCH  15  16
ATOM     16  C   UNL     1      -9.840 -34.786  45.421  1.00  0.00    -0.000 C 
BRANCH  16  17
ATOM     17  C   UNL     1      -9.199 -34.964  44.033  1.00  0.00    -0.000 C 
BRANCH  17  18
ATOM     18  C   UNL     1     -10.217 -34.809  42.891  1.00  0.00    -0.003 C 
ATOM     19  C   UNL     1     -10.564 -33.349  42.604  1.00  0.00     0.004 C 
ENDBRANCH  17  18
ENDBRANCH  16  17
ENDBRANCH  15  16
ENDBRANCH  14  15
ENDBRANCH  13  14
ENDBRANCH  12  13
ENDBRANCH   1  12
TORSDOF 14
ENDMDL
MODEL 9
REMARK VINA RESULT:    -5.224      6.223      8.695
REMARK INTER + INTRA:         -10.248
REMARK INTER:                  -8.905
REMARK INTRA:                  -1.343
REMARK UNBOUND:                -0.748
REMARK SMILES CCCCCCCCCCCCCC[C@@H](C)C(=O)[O-]
REMARK SMILES IDX 9 1 10 2 11 3 12 4 13 5 14 6 15 7 16 8 17 9 18 10 19 11 8 12
REMARK SMILES IDX 7 13 6 14 5 15 4 16 3 17 2 18 1 19
REMARK H PARENT
REMARK Flexibility Score: inf
ROOT
ATOM      1  C   UNL     1      -9.968 -34.233  41.961  1.00  0.00     0.000 C 
ENDROOT
BRANCH   1   2
ATOM      2  C   UNL     1     -10.602 -33.548  43.183  1.00  0.00     0.000 C 
BRANCH   2   3
ATOM      3  C   UNL     1     -10.620 -34.450  44.427  1.00  0.00     0.000 C 
BRANCH   3   4
ATOM      4  C   UNL     1      -9.875 -35.767  44.158  1.00  0.00     0.000 C 
BRANCH   4   5
ATOM      5  C   UNL     1     -10.726 -37.007  44.477  1.00  0.00     0.001 C 
BRANCH   5   6
ATOM      6  C   UNL     1     -10.596 -37.450  45.948  1.00  0.00     0.009 C 
BRANCH   6   7
ATOM      7  C   UNL     1     -11.922 -37.912  46.593  1.00  0.00     0.032 C 
ATOM      8  C   UNL     1     -12.669 -38.948  45.741  1.00  0.00     0.014 C 
BRANCH   7   9
ATOM      9  C   UNL     1     -11.715 -38.401  48.003  1.00  0.00     0.044 C 
ATOM     10  O   UNL     1     -11.522 -39.628  48.218  1.00  0.00    -0.550 OA
ATOM     11  O   UNL     1     -11.788 -37.523  49.078  1.00  0.00    -0.550 OA
ENDBRANCH   7   9
ENDBRANCH   6   7
ENDBRANCH   5   6
ENDBRANCH   4   5
ENDBRANCH   3   4
ENDBRANCH   2   3
ENDBRANCH   1   2
BRANCH   1  12
ATOM     12  C   UNL     1      -9.463 -33.224  40.916  1.00  0.00     0.000 C 
BRANCH  12  13
ATOM     13  C   UNL     1      -7.970 -32.885  41.080  1.00  0.00    -0.000 C 
BRANCH  13  14
ATOM     14  C   UNL     1      -7.652 -31.797  42.121  1.00  0.00    -0.000 C 
BRANCH  14  15
ATOM     15  C   UNL     1      -7.234 -32.374  43.485  1.00  0.00    -0.000 C 
BRANCH  15  16
ATOM     16  C   UNL     1      -6.530 -31.337  44.373  1.00  0.00    -0.000 C 
BRANCH  16  17
ATOM     17  C   UNL     1      -6.903 -31.477  45.861  1.00  0.00    -0.000 C 
BRANCH  17  18
ATOM     18  C   UNL     1      -8.321 -32.034  46.062  1.00  0.00    -0.003 C 
ATOM     19  C   UNL     1      -8.398 -33.058  47.193  1.00  0.00     0.004 C 
ENDBRANCH  17  18
ENDBRANCH  16  17
ENDBRANCH  15  16
ENDBRANCH  14  15
ENDBRANCH  13  14
ENDBRANCH  12  13
ENDBRANCH   1  12
TORSDOF 14
ENDMDL
