MODEL 1
REMARK VINA RESULT:    -5.566      0.000      0.000
REMARK INTER + INTRA:          -7.239
REMARK INTER:                  -6.868
REMARK INTRA:                  -0.371
REMARK UNBOUND:                -0.371
REMARK SMILES Oc1cc(O)c2cc(O)c(-c3cc(O)c(O)c(O)c3)[o+]c2c1
REMARK SMILES IDX 10 1 20 2 21 3 22 4 2 5 3 6 4 7 6 8 7 9 8 10 11 11 12 12
REMARK SMILES IDX 13 13 19 14 15 15 17 16 14 17 16 19 18 21 9 23 1 25 5 27
REMARK H PARENT 14 18 16 20 18 22 9 24 1 26 5 28
REMARK Flexibility Score: inf
ROOT
ATOM      1  C   UNL     1      18.912  22.101  15.428  1.00  0.00     0.402 A 
ATOM      2  O   UNL     1      19.773  22.094  16.442  1.00  0.00    -0.202 OA
ATOM      3  C   UNL     1      19.443  21.728  17.677  1.00  0.00     0.368 A 
ATOM      4  C   UNL     1      20.420  21.752  18.676  1.00  0.00     0.162 A 
ATOM      5  C   UNL     1      20.102  21.369  19.982  1.00  0.00     0.128 A 
ATOM      6  C   UNL     1      18.803  20.960  20.290  1.00  0.00     0.093 A 
ATOM      7  C   UNL     1      17.806  20.928  19.307  1.00  0.00     0.136 A 
ATOM      8  C   UNL     1      18.123  21.319  17.979  1.00  0.00     0.125 A 
ATOM      9  C   UNL     1      17.186  21.330  16.934  1.00  0.00     0.078 A 
ATOM     10  C   UNL     1      17.572  21.732  15.651  1.00  0.00     0.223 A 
ENDROOT
BRANCH   1  11
ATOM     11  C   UNL     1      19.403  22.519  14.096  1.00  0.00     0.091 A 
ATOM     12  C   UNL     1      19.587  23.885  13.826  1.00  0.00     0.068 A 
ATOM     13  C   UNL     1      20.068  24.308  12.582  1.00  0.00     0.162 A 
ATOM     14  C   UNL     1      19.741  21.577  13.111  1.00  0.00     0.068 A 
ATOM     15  C   UNL     1      20.385  23.362  11.593  1.00  0.00     0.200 A 
ATOM     16  C   UNL     1      20.224  21.992  11.862  1.00  0.00     0.162 A 
BRANCH  13  17
ATOM     17  O   UNL     1      20.224  25.675  12.350  1.00  0.00    -0.504 OA
ATOM     18  H   UNL     1      20.763  26.030  11.569  1.00  0.00     0.293 HD
ENDBRANCH  13  17
BRANCH  15  19
ATOM     19  O   UNL     1      20.861  23.793  10.354  1.00  0.00    -0.502 OA
ATOM     20  H   UNL     1      21.102  23.146   9.613  1.00  0.00     0.293 HD
ENDBRANCH  15  19
BRANCH  16  21
ATOM     21  O   UNL     1      20.551  21.048  10.890  1.00  0.00    -0.504 OA
ATOM     22  H   UNL     1      20.364  20.061  11.023  1.00  0.00     0.293 HD
ENDBRANCH  16  21
ENDBRANCH   1  11
BRANCH  10  23
ATOM     23  O   UNL     1      16.631  21.791  14.623  1.00  0.00    -0.500 OA
ATOM     24  H   UNL     1      16.405  22.661  14.156  1.00  0.00     0.294 HD
ENDBRANCH  10  23
BRANCH   5  25
ATOM     25  O   UNL     1      21.070  21.390  20.984  1.00  0.00    -0.507 OA
ATOM     26  H   UNL     1      21.229  20.589  21.585  1.00  0.00     0.293 HD
ENDBRANCH   5  25
BRANCH   7  27
ATOM     27  O   UNL     1      16.531  20.504  19.694  1.00  0.00    -0.507 OA
ATOM     28  H   UNL     1      15.768  21.123  19.923  1.00  0.00     0.293 HD
ENDBRANCH   7  27
TORSDOF 7
ENDMDL
MODEL 2
REMARK VINA RESULT:    -4.938      1.282      7.338
REMARK INTER + INTRA:          -6.463
REMARK INTER:                  -6.208
REMARK INTRA:                  -0.255
REMARK UNBOUND:                -0.371
REMARK SMILES Oc1cc(O)c2cc(O)c(-c3cc(O)c(O)c(O)c3)[o+]c2c1
REMARK SMILES IDX 10 1 20 2 21 3 22 4 2 5 3 6 4 7 6 8 7 9 8 10 11 11 12 12
REMARK SMILES IDX 13 13 19 14 15 15 17 16 14 17 16 19 18 21 9 23 1 25 5 27
REMARK H PARENT 14 18 16 20 18 22 9 24 1 26 5 28
REMARK Flexibility Score: inf
ROOT
ATOM      1  C   UNL     1      19.727  22.316  16.660  1.00  0.00     0.402 A 
ATOM      2  O   UNL     1      19.455  21.502  15.644  1.00  0.00    -0.202 OA
ATOM      3  C   UNL     1      19.703  21.811  14.375  1.00  0.00     0.368 A 
ATOM      4  C   UNL     1      19.384  20.888  13.376  1.00  0.00     0.162 A 
ATOM      5  C   UNL     1      19.637  21.185  12.034  1.00  0.00     0.128 A 
ATOM      6  C   UNL     1      20.212  22.410  11.690  1.00  0.00     0.093 A 
ATOM      7  C   UNL     1      20.541  23.353  12.672  1.00  0.00     0.136 A 
ATOM      8  C   UNL     1      20.283  23.056  14.036  1.00  0.00     0.125 A 
ATOM      9  C   UNL     1      20.568  23.944  15.085  1.00  0.00     0.078 A 
ATOM     10  C   UNL     1      20.282  23.584  16.406  1.00  0.00     0.223 A 
ENDROOT
BRANCH   1  11
ATOM     11  C   UNL     1      19.415  21.853  18.031  1.00  0.00     0.091 A 
ATOM     12  C   UNL     1      18.085  21.563  18.375  1.00  0.00     0.068 A 
ATOM     13  C   UNL     1      17.762  21.105  19.656  1.00  0.00     0.162 A 
ATOM     14  C   UNL     1      20.427  21.644  18.982  1.00  0.00     0.068 A 
ATOM     15  C   UNL     1      18.776  20.917  20.611  1.00  0.00     0.200 A 
ATOM     16  C   UNL     1      20.112  21.184  20.269  1.00  0.00     0.162 A 
BRANCH  13  17
ATOM     17  O   UNL     1      16.427  20.842  19.962  1.00  0.00    -0.504 OA
ATOM     18  H   UNL     1      15.671  21.102  19.340  1.00  0.00     0.293 HD
ENDBRANCH  13  17
BRANCH  15  19
ATOM     19  O   UNL     1      18.445  20.464  21.888  1.00  0.00    -0.502 OA
ATOM     20  H   UNL     1      17.804  19.693  22.039  1.00  0.00     0.293 HD
ENDBRANCH  15  19
BRANCH  16  21
ATOM     21  O   UNL     1      21.125  20.986  21.207  1.00  0.00    -0.504 OA
ATOM     22  H   UNL     1      22.051  20.680  20.933  1.00  0.00     0.293 HD
ENDBRANCH  16  21
ENDBRANCH   1  11
BRANCH  10  23
ATOM     23  O   UNL     1      20.519  24.485  17.444  1.00  0.00    -0.500 OA
ATOM     24  H   UNL     1      19.762  24.883  17.988  1.00  0.00     0.294 HD
ENDBRANCH  10  23
BRANCH   5  25
ATOM     25  O   UNL     1      19.321  20.270  11.031  1.00  0.00    -0.507 OA
ATOM     26  H   UNL     1      18.511  19.664  11.104  1.00  0.00     0.293 HD
ENDBRANCH   5  25
BRANCH   7  27
ATOM     27  O   UNL     1      21.116  24.553  12.246  1.00  0.00    -0.507 OA
ATOM     28  H   UNL     1      21.455  25.275  12.864  1.00  0.00     0.293 HD
ENDBRANCH   7  27
TORSDOF 7
ENDMDL
MODEL 3
REMARK VINA RESULT:    -4.894      1.216      3.103
REMARK INTER + INTRA:          -6.409
REMARK INTER:                  -6.206
REMARK INTRA:                  -0.203
REMARK UNBOUND:                -0.371
REMARK SMILES Oc1cc(O)c2cc(O)c(-c3cc(O)c(O)c(O)c3)[o+]c2c1
REMARK SMILES IDX 10 1 20 2 21 3 22 4 2 5 3 6 4 7 6 8 7 9 8 10 11 11 12 12
REMARK SMILES IDX 13 13 19 14 15 15 17 16 14 17 16 19 18 21 9 23 1 25 5 27
REMARK H PARENT 14 18 16 20 18 22 9 24 1 26 5 28
REMARK Flexibility Score: inf
ROOT
ATOM      1  C   UNL     1      19.390  22.565  15.507  1.00  0.00     0.402 A 
ATOM      2  O   UNL     1      18.425  21.674  15.718  1.00  0.00    -0.202 OA
ATOM      3  C   UNL     1      18.023  21.306  16.931  1.00  0.00     0.368 A 
ATOM      4  C   UNL     1      16.999  20.363  17.051  1.00  0.00     0.162 A 
ATOM      5  C   UNL     1      16.555  19.961  18.314  1.00  0.00     0.128 A 
ATOM      6  C   UNL     1      17.137  20.504  19.460  1.00  0.00     0.093 A 
ATOM      7  C   UNL     1      18.165  21.451  19.368  1.00  0.00     0.136 A 
ATOM      8  C   UNL     1      18.621  21.861  18.087  1.00  0.00     0.125 A 
ATOM      9  C   UNL     1      19.654  22.793  17.898  1.00  0.00     0.078 A 
ATOM     10  C   UNL     1      20.052  23.145  16.605  1.00  0.00     0.223 A 
ENDROOT
BRANCH   1  11
ATOM     11  C   UNL     1      19.740  22.900  14.109  1.00  0.00     0.091 A 
ATOM     12  C   UNL     1      20.122  21.875  13.228  1.00  0.00     0.068 A 
ATOM     13  C   UNL     1      20.440  22.159  11.896  1.00  0.00     0.162 A 
ATOM     14  C   UNL     1      19.646  24.215  13.625  1.00  0.00     0.068 A 
ATOM     15  C   UNL     1      20.364  23.480  11.422  1.00  0.00     0.200 A 
ATOM     16  C   UNL     1      19.962  24.509  12.290  1.00  0.00     0.162 A 
BRANCH  13  17
ATOM     17  O   UNL     1      20.828  21.114  11.059  1.00  0.00    -0.504 OA
ATOM     18  H   UNL     1      21.007  21.253  10.071  1.00  0.00     0.293 HD
ENDBRANCH  13  17
BRANCH  15  19
ATOM     19  O   UNL     1      20.686  23.755  10.093  1.00  0.00    -0.502 OA
ATOM     20  H   UNL     1      21.644  23.859   9.780  1.00  0.00     0.293 HD
ENDBRANCH  15  19
BRANCH  16  21
ATOM     21  O   UNL     1      19.870  25.820  11.823  1.00  0.00    -0.504 OA
ATOM     22  H   UNL     1      19.141  26.105  11.181  1.00  0.00     0.293 HD
ENDBRANCH  16  21
ENDBRANCH   1  11
BRANCH  10  23
ATOM     23  O   UNL     1      21.111  24.033  16.416  1.00  0.00    -0.500 OA
ATOM     24  H   UNL     1      22.031  23.857  16.803  1.00  0.00     0.294 HD
ENDBRANCH  10  23
BRANCH   5  25
ATOM     25  O   UNL     1      15.534  19.021  18.441  1.00  0.00    -0.507 OA
ATOM     26  H   UNL     1      14.781  19.143  19.108  1.00  0.00     0.293 HD
ENDBRANCH   5  25
BRANCH   7  27
ATOM     27  O   UNL     1      18.693  21.950  20.562  1.00  0.00    -0.507 OA
ATOM     28  H   UNL     1      18.487  22.862  20.941  1.00  0.00     0.293 HD
ENDBRANCH   7  27
TORSDOF 7
ENDMDL
MODEL 4
REMARK VINA RESULT:    -4.851      1.695      7.405
REMARK INTER + INTRA:          -6.356
REMARK INTER:                  -6.166
REMARK INTRA:                  -0.191
REMARK UNBOUND:                -0.371
REMARK SMILES Oc1cc(O)c2cc(O)c(-c3cc(O)c(O)c(O)c3)[o+]c2c1
REMARK SMILES IDX 10 1 20 2 21 3 22 4 2 5 3 6 4 7 6 8 7 9 8 10 11 11 12 12
REMARK SMILES IDX 13 13 19 14 15 15 17 16 14 17 16 19 18 21 9 23 1 25 5 27
REMARK H PARENT 14 18 16 20 18 22 9 24 1 26 5 28
REMARK Flexibility Score: inf
ROOT
ATOM      1  C   UNL     1      18.939  21.975  14.211  1.00  0.00     0.402 A 
ATOM      2  O   UNL     1      18.951  21.075  13.230  1.00  0.00    -0.202 OA
ATOM      3  C   UNL     1      19.453  21.319  12.023  1.00  0.00     0.368 A 
ATOM      4  C   UNL     1      19.422  20.308  11.059  1.00  0.00     0.162 A 
ATOM      5  C   UNL     1      19.945  20.536   9.783  1.00  0.00     0.128 A 
ATOM      6  C   UNL     1      20.500  21.778   9.470  1.00  0.00     0.093 A 
ATOM      7  C   UNL     1      20.542  22.808  10.419  1.00  0.00     0.136 A 
ATOM      8  C   UNL     1      20.010  22.583  11.716  1.00  0.00     0.125 A 
ATOM      9  C   UNL     1      19.998  23.559  12.724  1.00  0.00     0.078 A 
ATOM     10  C   UNL     1      19.452  23.264  13.978  1.00  0.00     0.223 A 
ENDROOT
BRANCH   1  11
ATOM     11  C   UNL     1      18.363  21.580  15.516  1.00  0.00     0.091 A 
ATOM     12  C   UNL     1      19.168  21.615  16.665  1.00  0.00     0.068 A 
ATOM     13  C   UNL     1      18.646  21.265  17.914  1.00  0.00     0.162 A 
ATOM     14  C   UNL     1      17.011  21.221  15.641  1.00  0.00     0.068 A 
ATOM     15  C   UNL     1      17.297  20.888  18.031  1.00  0.00     0.200 A 
ATOM     16  C   UNL     1      16.478  20.870  16.890  1.00  0.00     0.162 A 
BRANCH  13  17
ATOM     17  O   UNL     1      19.484  21.300  19.029  1.00  0.00    -0.504 OA
ATOM     18  H   UNL     1      20.346  21.832  19.039  1.00  0.00     0.293 HD
ENDBRANCH  13  17
BRANCH  15  19
ATOM     19  O   UNL     1      16.785  20.537  19.281  1.00  0.00    -0.502 OA
ATOM     20  H   UNL     1      16.764  21.187  20.058  1.00  0.00     0.293 HD
ENDBRANCH  15  19
BRANCH  16  21
ATOM     21  O   UNL     1      15.135  20.511  17.001  1.00  0.00    -0.504 OA
ATOM     22  H   UNL     1      14.540  20.895  17.725  1.00  0.00     0.293 HD
ENDBRANCH  16  21
ENDBRANCH   1  11
BRANCH  10  23
ATOM     23  O   UNL     1      19.394  24.249  14.965  1.00  0.00    -0.500 OA
ATOM     24  H   UNL     1      18.843  25.091  14.846  1.00  0.00     0.294 HD
ENDBRANCH  10  23
BRANCH   5  25
ATOM     25  O   UNL     1      19.918  19.533   8.815  1.00  0.00    -0.507 OA
ATOM     26  H   UNL     1      20.625  19.477   8.091  1.00  0.00     0.293 HD
ENDBRANCH   5  25
BRANCH   7  27
ATOM     27  O   UNL     1      21.117  24.021  10.029  1.00  0.00    -0.507 OA
ATOM     28  H   UNL     1      22.086  24.264  10.168  1.00  0.00     0.293 HD
ENDBRANCH   7  27
TORSDOF 7
ENDMDL
MODEL 5
REMARK VINA RESULT:    -4.793      2.596      7.776
REMARK INTER + INTRA:          -6.285
REMARK INTER:                  -6.071
REMARK INTRA:                  -0.214
REMARK UNBOUND:                -0.371
REMARK SMILES Oc1cc(O)c2cc(O)c(-c3cc(O)c(O)c(O)c3)[o+]c2c1
REMARK SMILES IDX 10 1 20 2 21 3 22 4 2 5 3 6 4 7 6 8 7 9 8 10 11 11 12 12
REMARK SMILES IDX 13 13 19 14 15 15 17 16 14 17 16 19 18 21 9 23 1 25 5 27
REMARK H PARENT 14 18 16 20 18 22 9 24 1 26 5 28
REMARK Flexibility Score: inf
ROOT
ATOM      1  C   UNL     1      19.255  21.357  12.792  1.00  0.00     0.402 A 
ATOM      2  O   UNL     1      18.587  20.440  12.095  1.00  0.00    -0.202 OA
ATOM      3  C   UNL     1      18.833  20.174  10.816  1.00  0.00     0.368 A 
ATOM      4  C   UNL     1      18.080  19.191  10.170  1.00  0.00     0.162 A 
ATOM      5  C   UNL     1      18.319  18.888   8.827  1.00  0.00     0.128 A 
ATOM      6  C   UNL     1      19.315  19.572   8.127  1.00  0.00     0.093 A 
ATOM      7  C   UNL     1      20.084  20.562   8.751  1.00  0.00     0.136 A 
ATOM      8  C   UNL     1      19.843  20.875  10.115  1.00  0.00     0.125 A 
ATOM      9  C   UNL     1      20.555  21.860  10.818  1.00  0.00     0.078 A 
ATOM     10  C   UNL     1      20.258  22.115  12.160  1.00  0.00     0.223 A 
ENDROOT
BRANCH   1  11
ATOM     11  C   UNL     1      18.896  21.553  14.214  1.00  0.00     0.091 A 
ATOM     12  C   UNL     1      17.575  21.888  14.553  1.00  0.00     0.068 A 
ATOM     13  C   UNL     1      17.202  22.061  15.890  1.00  0.00     0.162 A 
ATOM     14  C   UNL     1      19.835  21.359  15.240  1.00  0.00     0.068 A 
ATOM     15  C   UNL     1      18.151  21.886  16.912  1.00  0.00     0.200 A 
ATOM     16  C   UNL     1      19.470  21.529  16.584  1.00  0.00     0.162 A 
BRANCH  13  17
ATOM     17  O   UNL     1      15.883  22.408  16.182  1.00  0.00    -0.504 OA
ATOM     18  H   UNL     1      15.100  22.041  15.655  1.00  0.00     0.293 HD
ENDBRANCH  13  17
BRANCH  15  19
ATOM     19  O   UNL     1      17.772  22.064  18.243  1.00  0.00    -0.502 OA
ATOM     20  H   UNL     1      16.908  21.684  18.614  1.00  0.00     0.293 HD
ENDBRANCH  15  19
BRANCH  16  21
ATOM     21  O   UNL     1      20.413  21.339  17.593  1.00  0.00    -0.504 OA
ATOM     22  H   UNL     1      20.262  20.674  18.343  1.00  0.00     0.293 HD
ENDBRANCH  16  21
ENDBRANCH   1  11
BRANCH  10  23
ATOM     23  O   UNL     1      20.930  23.127  12.845  1.00  0.00    -0.500 OA
ATOM     24  H   UNL     1      20.475  23.999  13.091  1.00  0.00     0.294 HD
ENDBRANCH  10  23
BRANCH   5  25
ATOM     25  O   UNL     1      17.571  17.909   8.175  1.00  0.00    -0.507 OA
ATOM     26  H   UNL     1      17.140  17.146   8.684  1.00  0.00     0.293 HD
ENDBRANCH   5  25
BRANCH   7  27
ATOM     27  O   UNL     1      21.064  21.198   7.983  1.00  0.00    -0.507 OA
ATOM     28  H   UNL     1      21.767  20.717   7.443  1.00  0.00     0.293 HD
ENDBRANCH   7  27
TORSDOF 7
ENDMDL
MODEL 6
REMARK VINA RESULT:    -4.623      8.906     11.158
REMARK INTER + INTRA:          -6.075
REMARK INTER:                  -5.754
REMARK INTRA:                  -0.321
REMARK UNBOUND:                -0.371
REMARK SMILES Oc1cc(O)c2cc(O)c(-c3cc(O)c(O)c(O)c3)[o+]c2c1
REMARK SMILES IDX 10 1 20 2 21 3 22 4 2 5 3 6 4 7 6 8 7 9 8 10 11 11 12 12
REMARK SMILES IDX 13 13 19 14 15 15 17 16 14 17 16 19 18 21 9 23 1 25 5 27
REMARK H PARENT 14 18 16 20 18 22 9 24 1 26 5 28
REMARK Flexibility Score: inf
ROOT
ATOM      1  C   UNL     1      16.622  19.044   6.311  1.00  0.00     0.402 A 
ATOM      2  O   UNL     1      16.697  17.788   5.877  1.00  0.00    -0.202 OA
ATOM      3  C   UNL     1      17.115  16.778   6.635  1.00  0.00     0.368 A 
ATOM      4  C   UNL     1      17.156  15.492   6.090  1.00  0.00     0.162 A 
ATOM      5  C   UNL     1      17.588  14.412   6.864  1.00  0.00     0.128 A 
ATOM      6  C   UNL     1      17.980  14.619   8.188  1.00  0.00     0.093 A 
ATOM      7  C   UNL     1      17.948  15.898   8.758  1.00  0.00     0.136 A 
ATOM      8  C   UNL     1      17.513  16.999   7.975  1.00  0.00     0.125 A 
ATOM      9  C   UNL     1      17.460  18.316   8.457  1.00  0.00     0.078 A 
ATOM     10  C   UNL     1      17.023  19.351   7.624  1.00  0.00     0.223 A 
ENDROOT
BRANCH   1  11
ATOM     11  C   UNL     1      16.129  20.079   5.375  1.00  0.00     0.091 A 
ATOM     12  C   UNL     1      17.047  20.943   4.756  1.00  0.00     0.068 A 
ATOM     13  C   UNL     1      16.612  21.918   3.853  1.00  0.00     0.162 A 
ATOM     14  C   UNL     1      14.767  20.183   5.048  1.00  0.00     0.068 A 
ATOM     15  C   UNL     1      15.246  22.031   3.544  1.00  0.00     0.200 A 
ATOM     16  C   UNL     1      14.322  21.157   4.142  1.00  0.00     0.162 A 
BRANCH  13  17
ATOM     17  O   UNL     1      17.555  22.766   3.271  1.00  0.00    -0.504 OA
ATOM     18  H   UNL     1      18.491  22.454   3.041  1.00  0.00     0.293 HD
ENDBRANCH  13  17
BRANCH  15  19
ATOM     19  O   UNL     1      14.820  23.009   2.645  1.00  0.00    -0.502 OA
ATOM     20  H   UNL     1      15.195  23.951   2.653  1.00  0.00     0.293 HD
ENDBRANCH  15  19
BRANCH  16  21
ATOM     21  O   UNL     1      12.967  21.253   3.830  1.00  0.00    -0.504 OA
ATOM     22  H   UNL     1      12.270  21.444   4.540  1.00  0.00     0.293 HD
ENDBRANCH  16  21
ENDBRANCH   1  11
BRANCH  10  23
ATOM     23  O   UNL     1      17.018  20.667   8.087  1.00  0.00    -0.500 OA
ATOM     24  H   UNL     1      16.661  20.908   9.004  1.00  0.00     0.294 HD
ENDBRANCH  10  23
BRANCH   5  25
ATOM     25  O   UNL     1      17.633  13.126   6.328  1.00  0.00    -0.507 OA
ATOM     26  H   UNL     1      17.633  12.305   6.921  1.00  0.00     0.293 HD
ENDBRANCH   5  25
BRANCH   7  27
ATOM     27  O   UNL     1      18.353  16.021  10.090  1.00  0.00    -0.507 OA
ATOM     28  H   UNL     1      18.005  16.718  10.731  1.00  0.00     0.293 HD
ENDBRANCH   7  27
TORSDOF 7
ENDMDL
MODEL 7
REMARK VINA RESULT:    -4.578     11.297     13.098
REMARK INTER + INTRA:          -6.019
REMARK INTER:                  -5.735
REMARK INTRA:                  -0.284
REMARK UNBOUND:                -0.371
REMARK SMILES Oc1cc(O)c2cc(O)c(-c3cc(O)c(O)c(O)c3)[o+]c2c1
REMARK SMILES IDX 10 1 20 2 21 3 22 4 2 5 3 6 4 7 6 8 7 9 8 10 11 11 12 12
REMARK SMILES IDX 13 13 19 14 15 15 17 16 14 17 16 19 18 21 9 23 1 25 5 27
REMARK H PARENT 14 18 16 20 18 22 9 24 1 26 5 28
REMARK Flexibility Score: inf
ROOT
ATOM      1  C   UNL     1      15.341  18.054   4.977  1.00  0.00     0.402 A 
ATOM      2  O   UNL     1      15.863  17.176   4.124  1.00  0.00    -0.202 OA
ATOM      3  C   UNL     1      16.115  15.910   4.443  1.00  0.00     0.368 A 
ATOM      4  C   UNL     1      16.663  15.062   3.477  1.00  0.00     0.162 A 
ATOM      5  C   UNL     1      16.934  13.726   3.784  1.00  0.00     0.128 A 
ATOM      6  C   UNL     1      16.656  13.236   5.061  1.00  0.00     0.093 A 
ATOM      7  C   UNL     1      16.107  14.065   6.048  1.00  0.00     0.136 A 
ATOM      8  C   UNL     1      15.832  15.424   5.742  1.00  0.00     0.125 A 
ATOM      9  C   UNL     1      15.295  16.330   6.670  1.00  0.00     0.078 A 
ATOM     10  C   UNL     1      15.055  17.656   6.296  1.00  0.00     0.223 A 
ENDROOT
BRANCH   1  11
ATOM     11  C   UNL     1      15.097  19.434   4.500  1.00  0.00     0.091 A 
ATOM     12  C   UNL     1      15.934  20.473   4.936  1.00  0.00     0.068 A 
ATOM     13  C   UNL     1      15.739  21.783   4.487  1.00  0.00     0.162 A 
ATOM     14  C   UNL     1      14.079  19.719   3.575  1.00  0.00     0.068 A 
ATOM     15  C   UNL     1      14.706  22.067   3.577  1.00  0.00     0.200 A 
ATOM     16  C   UNL     1      13.877  21.030   3.118  1.00  0.00     0.162 A 
BRANCH  13  17
ATOM     17  O   UNL     1      16.584  22.789   4.956  1.00  0.00    -0.504 OA
ATOM     18  H   UNL     1      16.284  23.754   5.027  1.00  0.00     0.293 HD
ENDBRANCH  13  17
BRANCH  15  19
ATOM     19  O   UNL     1      14.516  23.378   3.137  1.00  0.00    -0.502 OA
ATOM     20  H   UNL     1      14.925  24.172   3.615  1.00  0.00     0.293 HD
ENDBRANCH  15  19
BRANCH  16  21
ATOM     21  O   UNL     1      12.860  21.302   2.205  1.00  0.00    -0.504 OA
ATOM     22  H   UNL     1      12.598  20.637   1.487  1.00  0.00     0.293 HD
ENDBRANCH  16  21
ENDBRANCH   1  11
BRANCH  10  23
ATOM     23  O   UNL     1      14.568  18.569   7.232  1.00  0.00    -0.500 OA
ATOM     24  H   UNL     1      14.014  18.273   8.027  1.00  0.00     0.294 HD
ENDBRANCH  10  23
BRANCH   5  25
ATOM     25  O   UNL     1      17.480  12.874   2.825  1.00  0.00    -0.507 OA
ATOM     26  H   UNL     1      17.224  12.944   1.847  1.00  0.00     0.293 HD
ENDBRANCH   5  25
BRANCH   7  27
ATOM     27  O   UNL     1      15.855  13.497   7.300  1.00  0.00    -0.507 OA
ATOM     28  H   UNL     1      15.322  13.942   8.032  1.00  0.00     0.293 HD
ENDBRANCH   7  27
TORSDOF 7
ENDMDL
MODEL 8
REMARK VINA RESULT:    -4.526      1.357      7.270
REMARK INTER + INTRA:          -5.955
REMARK INTER:                  -5.588
REMARK INTRA:                  -0.367
REMARK UNBOUND:                -0.371
REMARK SMILES Oc1cc(O)c2cc(O)c(-c3cc(O)c(O)c(O)c3)[o+]c2c1
REMARK SMILES IDX 10 1 20 2 21 3 22 4 2 5 3 6 4 7 6 8 7 9 8 10 11 11 12 12
REMARK SMILES IDX 13 13 19 14 15 15 17 16 14 17 16 19 18 21 9 23 1 25 5 27
REMARK H PARENT 14 18 16 20 18 22 9 24 1 26 5 28
REMARK Flexibility Score: inf
ROOT
ATOM      1  C   UNL     1      19.773  21.813  15.119  1.00  0.00     0.402 A 
ATOM      2  O   UNL     1      19.594  23.008  14.562  1.00  0.00    -0.202 OA
ATOM      3  C   UNL     1      19.861  23.265  13.285  1.00  0.00     0.368 A 
ATOM      4  C   UNL     1      19.639  24.552  12.790  1.00  0.00     0.162 A 
ATOM      5  C   UNL     1      19.907  24.849  11.450  1.00  0.00     0.128 A 
ATOM      6  C   UNL     1      20.401  23.855  10.604  1.00  0.00     0.093 A 
ATOM      7  C   UNL     1      20.633  22.557  11.075  1.00  0.00     0.136 A 
ATOM      8  C   UNL     1      20.364  22.251  12.435  1.00  0.00     0.125 A 
ATOM      9  C   UNL     1      20.578  20.983  12.997  1.00  0.00     0.078 A 
ATOM     10  C   UNL     1      20.294  20.758  14.348  1.00  0.00     0.223 A 
ENDROOT
BRANCH   1  11
ATOM     11  C   UNL     1      19.428  21.649  16.549  1.00  0.00     0.091 A 
ATOM     12  C   UNL     1      18.192  21.084  16.900  1.00  0.00     0.068 A 
ATOM     13  C   UNL     1      17.847  20.899  18.243  1.00  0.00     0.162 A 
ATOM     14  C   UNL     1      20.333  21.998  17.565  1.00  0.00     0.068 A 
ATOM     15  C   UNL     1      18.748  21.268  19.257  1.00  0.00     0.200 A 
ATOM     16  C   UNL     1      19.996  21.815  18.914  1.00  0.00     0.162 A 
BRANCH  13  17
ATOM     17  O   UNL     1      16.604  20.347  18.550  1.00  0.00    -0.504 OA
ATOM     18  H   UNL     1      16.035  19.880  17.854  1.00  0.00     0.293 HD
ENDBRANCH  13  17
BRANCH  15  19
ATOM     19  O   UNL     1      18.394  21.084  20.594  1.00  0.00    -0.502 OA
ATOM     20  H   UNL     1      17.434  20.937  20.883  1.00  0.00     0.293 HD
ENDBRANCH  15  19
BRANCH  16  21
ATOM     21  O   UNL     1      20.900  22.170  19.914  1.00  0.00    -0.504 OA
ATOM     22  H   UNL     1      21.725  22.723  19.713  1.00  0.00     0.293 HD
ENDBRANCH  16  21
ENDBRANCH   1  11
BRANCH  10  23
ATOM     23  O   UNL     1      20.553  19.512  14.919  1.00  0.00    -0.500 OA
ATOM     24  H   UNL     1      21.322  19.370  15.565  1.00  0.00     0.294 HD
ENDBRANCH  10  23
BRANCH   5  25
ATOM     25  O   UNL     1      19.688  26.131  10.949  1.00  0.00    -0.507 OA
ATOM     26  H   UNL     1      20.306  26.544  10.261  1.00  0.00     0.293 HD
ENDBRANCH   5  25
BRANCH   7  27
ATOM     27  O   UNL     1      21.124  21.618  10.163  1.00  0.00    -0.507 OA
ATOM     28  H   UNL     1      20.845  21.561   9.196  1.00  0.00     0.293 HD
ENDBRANCH   7  27
TORSDOF 7
ENDMDL
MODEL 9
REMARK VINA RESULT:    -4.488     10.009     12.179
REMARK INTER + INTRA:          -5.908
REMARK INTER:                  -5.605
REMARK INTRA:                  -0.303
REMARK UNBOUND:                -0.371
REMARK SMILES Oc1cc(O)c2cc(O)c(-c3cc(O)c(O)c(O)c3)[o+]c2c1
REMARK SMILES IDX 10 1 20 2 21 3 22 4 2 5 3 6 4 7 6 8 7 9 8 10 11 11 12 12
REMARK SMILES IDX 13 13 19 14 15 15 17 16 14 17 16 19 18 21 9 23 1 25 5 27
REMARK H PARENT 14 18 16 20 18 22 9 24 1 26 5 28
REMARK Flexibility Score: inf
ROOT
ATOM      1  C   UNL     1      15.258  18.866   4.712  1.00  0.00     0.402 A 
ATOM      2  O   UNL     1      15.928  18.737   5.854  1.00  0.00    -0.202 OA
ATOM      3  C   UNL     1      16.224  17.560   6.397  1.00  0.00     0.368 A 
ATOM      4  C   UNL     1      16.935  17.526   7.600  1.00  0.00     0.162 A 
ATOM      5  C   UNL     1      17.262  16.302   8.191  1.00  0.00     0.128 A 
ATOM      6  C   UNL     1      16.878  15.109   7.577  1.00  0.00     0.093 A 
ATOM      7  C   UNL     1      16.165  15.115   6.371  1.00  0.00     0.136 A 
ATOM      8  C   UNL     1      15.828  16.355   5.768  1.00  0.00     0.125 A 
ATOM      9  C   UNL     1      15.105  16.459   4.569  1.00  0.00     0.078 A 
ATOM     10  C   UNL     1      14.806  17.717   4.037  1.00  0.00     0.223 A 
ENDROOT
BRANCH   1  11
ATOM     11  C   UNL     1      15.000  20.232   4.203  1.00  0.00     0.091 A 
ATOM     12  C   UNL     1      13.714  20.783   4.327  1.00  0.00     0.068 A 
ATOM     13  C   UNL     1      13.445  22.078   3.873  1.00  0.00     0.162 A 
ATOM     14  C   UNL     1      16.026  21.013   3.647  1.00  0.00     0.068 A 
ATOM     15  C   UNL     1      14.471  22.848   3.298  1.00  0.00     0.200 A 
ATOM     16  C   UNL     1      15.766  22.313   3.190  1.00  0.00     0.162 A 
BRANCH  13  17
ATOM     17  O   UNL     1      12.151  22.582   4.002  1.00  0.00    -0.504 OA
ATOM     18  H   UNL     1      11.877  23.471   3.601  1.00  0.00     0.293 HD
ENDBRANCH  13  17
BRANCH  15  19
ATOM     19  O   UNL     1      14.193  24.137   2.845  1.00  0.00    -0.502 OA
ATOM     20  H   UNL     1      13.308  24.596   3.029  1.00  0.00     0.293 HD
ENDBRANCH  15  19
BRANCH  16  21
ATOM     21  O   UNL     1      16.791  23.076   2.634  1.00  0.00    -0.504 OA
ATOM     22  H   UNL     1      16.606  23.790   1.939  1.00  0.00     0.293 HD
ENDBRANCH  16  21
ENDBRANCH   1  11
BRANCH  10  23
ATOM     23  O   UNL     1      14.046  17.821   2.872  1.00  0.00    -0.500 OA
ATOM     24  H   UNL     1      13.040  17.705   2.880  1.00  0.00     0.294 HD
ENDBRANCH  10  23
BRANCH   5  25
ATOM     25  O   UNL     1      17.970  16.260   9.391  1.00  0.00    -0.507 OA
ATOM     26  H   UNL     1      17.897  15.470  10.022  1.00  0.00     0.293 HD
ENDBRANCH   5  25
BRANCH   7  27
ATOM     27  O   UNL     1      15.821  13.878   5.819  1.00  0.00    -0.507 OA
ATOM     28  H   UNL     1      14.993  13.710   5.267  1.00  0.00     0.293 HD
ENDBRANCH   7  27
TORSDOF 7
ENDMDL
