MODEL 1
REMARK VINA RESULT:    -3.672      0.000      0.000
REMARK INTER + INTRA:          -6.047
REMARK INTER:                  -5.605
REMARK INTRA:                  -0.442
REMARK UNBOUND:                -0.442
REMARK SMILES O=C([O-])CCCCCCCCC(=O)[O-]
REMARK SMILES IDX 7 1 6 2 5 3 4 4 2 5 1 6 3 7 8 8 9 9 10 10 11 11 12 12 13 13
REMARK SMILES IDX 14 14
REMARK H PARENT
REMARK Flexibility Score: inf
ROOT
ATOM      1  C   UNL     1      27.153 160.622 116.758  1.00  0.00     0.000 C 
ENDROOT
BRANCH   1   2
ATOM      2  C   UNL     1      28.212 160.920 117.841  1.00  0.00     0.000 C 
BRANCH   2   3
ATOM      3  C   UNL     1      29.558 160.216 117.598  1.00  0.00     0.006 C 
BRANCH   3   4
ATOM      4  C   UNL     1      30.664 160.701 118.542  1.00  0.00     0.053 C 
BRANCH   4   5
ATOM      5  C   UNL     1      31.952 160.000 118.242  1.00  0.00     0.041 C 
ATOM      6  O   UNL     1      32.496 159.274 119.115  1.00  0.00    -0.550 OA
ATOM      7  O   UNL     1      32.576 160.187 117.015  1.00  0.00    -0.550 OA
ENDBRANCH   4   5
ENDBRANCH   3   4
ENDBRANCH   2   3
ENDBRANCH   1   2
BRANCH   1   8
ATOM      8  C   UNL     1      26.353 159.343 117.063  1.00  0.00     0.000 C 
BRANCH   8   9
ATOM      9  C   UNL     1      25.813 159.323 118.509  1.00  0.00     0.000 C 
BRANCH   9  10
ATOM     10  C   UNL     1      26.330 158.139 119.344  1.00  0.00     0.006 C 
BRANCH  10  11
ATOM     11  C   UNL     1      25.612 156.824 119.022  1.00  0.00     0.053 C 
BRANCH  11  12
ATOM     12  C   UNL     1      26.144 155.715 119.875  1.00  0.00     0.041 C 
ATOM     13  O   UNL     1      26.317 154.568 119.386  1.00  0.00    -0.550 OA
ATOM     14  O   UNL     1      26.496 155.962 121.196  1.00  0.00    -0.550 OA
ENDBRANCH  11  12
ENDBRANCH  10  11
ENDBRANCH   9  10
ENDBRANCH   8   9
ENDBRANCH   1   8
TORSDOF 9
ENDMDL
MODEL 2
REMARK VINA RESULT:    -3.626      0.487      5.895
REMARK INTER + INTRA:          -5.976
REMARK INTER:                  -5.448
REMARK INTRA:                  -0.529
REMARK UNBOUND:                -0.442
REMARK SMILES O=C([O-])CCCCCCCCC(=O)[O-]
REMARK SMILES IDX 7 1 6 2 5 3 4 4 2 5 1 6 3 7 8 8 9 9 10 10 11 11 12 12 13 13
REMARK SMILES IDX 14 14
REMARK H PARENT
REMARK Flexibility Score: inf
ROOT
ATOM      1  C   UNL     1      26.425 159.181 116.916  1.00  0.00     0.000 C 
ENDROOT
BRANCH   1   2
ATOM      2  C   UNL     1      25.701 159.605 118.213  1.00  0.00     0.000 C 
BRANCH   2   3
ATOM      3  C   UNL     1      25.693 158.515 119.299  1.00  0.00     0.006 C 
BRANCH   3   4
ATOM      4  C   UNL     1      25.637 157.098 118.720  1.00  0.00     0.053 C 
BRANCH   4   5
ATOM      5  C   UNL     1      26.275 156.123 119.660  1.00  0.00     0.041 C 
ATOM      6  O   UNL     1      26.018 154.894 119.568  1.00  0.00    -0.550 OA
ATOM      7  O   UNL     1      27.114 156.578 120.669  1.00  0.00    -0.550 OA
ENDBRANCH   4   5
ENDBRANCH   3   4
ENDBRANCH   2   3
ENDBRANCH   1   2
BRANCH   1   8
ATOM      8  C   UNL     1      27.484 160.209 116.479  1.00  0.00     0.000 C 
BRANCH   8   9
ATOM      9  C   UNL     1      28.208 160.849 117.682  1.00  0.00     0.000 C 
BRANCH   9  10
ATOM     10  C   UNL     1      29.416 160.037 118.180  1.00  0.00     0.006 C 
BRANCH  10  11
ATOM     11  C   UNL     1      30.660 160.901 118.415  1.00  0.00     0.053 C 
BRANCH  11  12
ATOM     12  C   UNL     1      31.903 160.112 118.148  1.00  0.00     0.041 C 
ATOM     13  O   UNL     1      32.521 160.254 117.060  1.00  0.00    -0.550 OA
ATOM     14  O   UNL     1      32.406 159.256 119.120  1.00  0.00    -0.550 OA
ENDBRANCH  11  12
ENDBRANCH  10  11
ENDBRANCH   9  10
ENDBRANCH   8   9
ENDBRANCH   1   8
TORSDOF 9
ENDMDL
MODEL 3
REMARK VINA RESULT:    -3.592      2.993      5.816
REMARK INTER + INTRA:          -5.925
REMARK INTER:                  -5.455
REMARK INTRA:                  -0.470
REMARK UNBOUND:                -0.442
REMARK SMILES O=C([O-])CCCCCCCCC(=O)[O-]
REMARK SMILES IDX 7 1 6 2 5 3 4 4 2 5 1 6 3 7 8 8 9 9 10 10 11 11 12 12 13 13
REMARK SMILES IDX 14 14
REMARK H PARENT
REMARK Flexibility Score: inf
ROOT
ATOM      1  C   UNL     1      26.407 155.631 120.866  1.00  0.00     0.000 C 
ENDROOT
BRANCH   1   2
ATOM      2  C   UNL     1      26.025 155.745 119.374  1.00  0.00     0.000 C 
BRANCH   2   3
ATOM      3  C   UNL     1      25.326 157.067 119.016  1.00  0.00     0.006 C 
BRANCH   3   4
ATOM      4  C   UNL     1      25.664 157.557 117.604  1.00  0.00     0.053 C 
BRANCH   4   5
ATOM      5  C   UNL     1      26.284 158.919 117.657  1.00  0.00     0.041 C 
ATOM      6  O   UNL     1      27.245 159.147 118.438  1.00  0.00    -0.550 OA
ATOM      7  O   UNL     1      25.768 159.948 116.879  1.00  0.00    -0.550 OA
ENDBRANCH   4   5
ENDBRANCH   3   4
ENDBRANCH   2   3
ENDBRANCH   1   2
BRANCH   1   8
ATOM      8  C   UNL     1      26.941 156.958 121.434  1.00  0.00     0.000 C 
BRANCH   8   9
ATOM      9  C   UNL     1      28.334 156.799 122.079  1.00  0.00     0.000 C 
BRANCH   9  10
ATOM     10  C   UNL     1      29.378 157.796 121.547  1.00  0.00     0.006 C 
BRANCH  10  11
ATOM     11  C   UNL     1      30.812 157.263 121.639  1.00  0.00     0.053 C 
BRANCH  11  12
ATOM     12  C   UNL     1      31.721 158.050 120.748  1.00  0.00     0.041 C 
ATOM     13  O   UNL     1      32.787 157.536 120.319  1.00  0.00    -0.550 OA
ATOM     14  O   UNL     1      31.365 159.333 120.351  1.00  0.00    -0.550 OA
ENDBRANCH  11  12
ENDBRANCH  10  11
ENDBRANCH   9  10
ENDBRANCH   8   9
ENDBRANCH   1   8
TORSDOF 9
ENDMDL
MODEL 4
REMARK VINA RESULT:    -3.533      2.449      6.846
REMARK INTER + INTRA:          -5.834
REMARK INTER:                  -5.384
REMARK INTRA:                  -0.450
REMARK UNBOUND:                -0.442
REMARK SMILES O=C([O-])CCCCCCCCC(=O)[O-]
REMARK SMILES IDX 7 1 6 2 5 3 4 4 2 5 1 6 3 7 8 8 9 9 10 10 11 11 12 12 13 13
REMARK SMILES IDX 14 14
REMARK H PARENT
REMARK Flexibility Score: inf
ROOT
ATOM      1  C   UNL     1      29.442 156.967 121.733  1.00  0.00     0.000 C 
ENDROOT
BRANCH   1   2
ATOM      2  C   UNL     1      28.531 158.192 121.501  1.00  0.00     0.000 C 
BRANCH   2   3
ATOM      3  C   UNL     1      27.296 157.887 120.636  1.00  0.00     0.006 C 
BRANCH   3   4
ATOM      4  C   UNL     1      26.713 156.494 120.899  1.00  0.00     0.053 C 
BRANCH   4   5
ATOM      5  C   UNL     1      26.157 155.913 119.637  1.00  0.00     0.041 C 
ATOM      6  O   UNL     1      26.268 154.680 119.405  1.00  0.00    -0.550 OA
ATOM      7  O   UNL     1      25.561 156.740 118.694  1.00  0.00    -0.550 OA
ENDBRANCH   4   5
ENDBRANCH   3   4
ENDBRANCH   2   3
ENDBRANCH   1   2
BRANCH   1   8
ATOM      8  C   UNL     1      30.911 157.260 121.381  1.00  0.00     0.000 C 
BRANCH   8   9
ATOM      9  C   UNL     1      31.120 158.715 120.910  1.00  0.00     0.000 C 
BRANCH   9  10
ATOM     10  C   UNL     1      32.319 158.891 119.962  1.00  0.00     0.006 C 
BRANCH  10  11
ATOM     11  C   UNL     1      32.355 160.270 119.296  1.00  0.00     0.053 C 
BRANCH  11  12
ATOM     12  C   UNL     1      31.848 160.186 117.891  1.00  0.00     0.041 C 
ATOM     13  O   UNL     1      30.614 160.070 117.669  1.00  0.00    -0.550 OA
ATOM     14  O   UNL     1      32.734 160.285 116.825  1.00  0.00    -0.550 OA
ENDBRANCH  11  12
ENDBRANCH  10  11
ENDBRANCH   9  10
ENDBRANCH   8   9
ENDBRANCH   1   8
TORSDOF 9
ENDMDL
MODEL 5
REMARK VINA RESULT:    -3.531      1.680      2.233
REMARK INTER + INTRA:          -5.831
REMARK INTER:                  -5.501
REMARK INTRA:                  -0.330
REMARK UNBOUND:                -0.442
REMARK SMILES O=C([O-])CCCCCCCCC(=O)[O-]
REMARK SMILES IDX 7 1 6 2 5 3 4 4 2 5 1 6 3 7 8 8 9 9 10 10 11 11 12 12 13 13
REMARK SMILES IDX 14 14
REMARK H PARENT
REMARK Flexibility Score: inf
ROOT
ATOM      1  C   UNL     1      28.363 159.896 118.023  1.00  0.00     0.000 C 
ENDROOT
BRANCH   1   2
ATOM      2  C   UNL     1      29.862 160.267 118.010  1.00  0.00     0.000 C 
BRANCH   2   3
ATOM      3  C   UNL     1      30.583 159.966 119.335  1.00  0.00     0.006 C 
BRANCH   3   4
ATOM      4  C   UNL     1      32.037 159.523 119.135  1.00  0.00     0.053 C 
BRANCH   4   5
ATOM      5  C   UNL     1      32.539 158.812 120.353  1.00  0.00     0.041 C 
ATOM      6  O   UNL     1      33.393 159.361 121.099  1.00  0.00    -0.550 OA
ATOM      7  O   UNL     1      32.101 157.525 120.636  1.00  0.00    -0.550 OA
ENDBRANCH   4   5
ENDBRANCH   3   4
ENDBRANCH   2   3
ENDBRANCH   1   2
BRANCH   1   8
ATOM      8  C   UNL     1      27.630 160.392 116.764  1.00  0.00     0.000 C 
BRANCH   8   9
ATOM      9  C   UNL     1      26.468 159.459 116.360  1.00  0.00     0.000 C 
BRANCH   9  10
ATOM     10  C   UNL     1      25.713 158.858 117.558  1.00  0.00     0.006 C 
BRANCH  10  11
ATOM     11  C   UNL     1      25.603 157.331 117.489  1.00  0.00     0.053 C 
BRANCH  11  12
ATOM     12  C   UNL     1      25.591 156.745 118.866  1.00  0.00     0.041 C 
ATOM     13  O   UNL     1      26.006 155.572 119.058  1.00  0.00    -0.550 OA
ATOM     14  O   UNL     1      25.168 157.511 119.944  1.00  0.00    -0.550 OA
ENDBRANCH  11  12
ENDBRANCH  10  11
ENDBRANCH   9  10
ENDBRANCH   8   9
ENDBRANCH   1   8
TORSDOF 9
ENDMDL
MODEL 6
REMARK VINA RESULT:    -3.454      1.859      5.419
REMARK INTER + INTRA:          -5.713
REMARK INTER:                  -5.185
REMARK INTRA:                  -0.529
REMARK UNBOUND:                -0.442
REMARK SMILES O=C([O-])CCCCCCCCC(=O)[O-]
REMARK SMILES IDX 7 1 6 2 5 3 4 4 2 5 1 6 3 7 8 8 9 9 10 10 11 11 12 12 13 13
REMARK SMILES IDX 14 14
REMARK H PARENT
REMARK Flexibility Score: inf
ROOT
ATOM      1  C   UNL     1      27.654 160.390 117.710  1.00  0.00     0.000 C 
ENDROOT
BRANCH   1   2
ATOM      2  C   UNL     1      26.742 159.145 117.675  1.00  0.00     0.000 C 
BRANCH   2   3
ATOM      3  C   UNL     1      26.337 158.638 119.070  1.00  0.00     0.006 C 
BRANCH   3   4
ATOM      4  C   UNL     1      25.575 157.310 119.024  1.00  0.00     0.053 C 
BRANCH   4   5
ATOM      5  C   UNL     1      26.316 156.255 119.784  1.00  0.00     0.041 C 
ATOM      6  O   UNL     1      26.056 155.037 119.595  1.00  0.00    -0.550 OA
ATOM      7  O   UNL     1      27.260 156.618 120.736  1.00  0.00    -0.550 OA
ENDBRANCH   4   5
ENDBRANCH   3   4
ENDBRANCH   2   3
ENDBRANCH   1   2
BRANCH   1   8
ATOM      8  C   UNL     1      29.119 160.031 118.016  1.00  0.00     0.000 C 
BRANCH   8   9
ATOM      9  C   UNL     1      29.576 160.564 119.391  1.00  0.00     0.000 C 
BRANCH   9  10
ATOM     10  C   UNL     1      29.721 159.468 120.460  1.00  0.00     0.006 C 
BRANCH  10  11
ATOM     11  C   UNL     1      31.154 159.336 120.988  1.00  0.00     0.053 C 
BRANCH  11  12
ATOM     12  C   UNL     1      31.641 157.929 120.832  1.00  0.00     0.041 C 
ATOM     13  O   UNL     1      32.775 157.704 120.333  1.00  0.00    -0.550 OA
ATOM     14  O   UNL     1      30.864 156.870 121.284  1.00  0.00    -0.550 OA
ENDBRANCH  11  12
ENDBRANCH  10  11
ENDBRANCH   9  10
ENDBRANCH   8   9
ENDBRANCH   1   8
TORSDOF 9
ENDMDL
MODEL 7
REMARK VINA RESULT:    -3.387      3.097      4.268
REMARK INTER + INTRA:          -5.611
REMARK INTER:                  -5.170
REMARK INTRA:                  -0.441
REMARK UNBOUND:                -0.442
REMARK SMILES O=C([O-])CCCCCCCCC(=O)[O-]
REMARK SMILES IDX 7 1 6 2 5 3 4 4 2 5 1 6 3 7 8 8 9 9 10 10 11 11 12 12 13 13
REMARK SMILES IDX 14 14
REMARK H PARENT
REMARK Flexibility Score: inf
ROOT
ATOM      1  C   UNL     1      27.873 157.370 120.836  1.00  0.00     0.000 C 
ENDROOT
BRANCH   1   2
ATOM      2  C   UNL     1      28.677 157.091 122.125  1.00  0.00     0.000 C 
BRANCH   2   3
ATOM      3  C   UNL     1      30.183 156.895 121.882  1.00  0.00     0.006 C 
BRANCH   3   4
ATOM      4  C   UNL     1      30.964 158.214 121.883  1.00  0.00     0.053 C 
BRANCH   4   5
ATOM      5  C   UNL     1      31.656 158.413 120.571  1.00  0.00     0.041 C 
ATOM      6  O   UNL     1      32.652 157.704 120.267  1.00  0.00    -0.550 OA
ATOM      7  O   UNL     1      31.233 159.414 119.706  1.00  0.00    -0.550 OA
ENDBRANCH   4   5
ENDBRANCH   3   4
ENDBRANCH   2   3
ENDBRANCH   1   2
BRANCH   1   8
ATOM      8  C   UNL     1      26.541 156.600 120.802  1.00  0.00     0.000 C 
BRANCH   8   9
ATOM      9  C   UNL     1      25.744 156.869 119.508  1.00  0.00     0.000 C 
BRANCH   9  10
ATOM     10  C   UNL     1      25.813 158.331 119.033  1.00  0.00     0.006 C 
BRANCH  10  11
ATOM     11  C   UNL     1      25.785 158.463 117.507  1.00  0.00     0.053 C 
BRANCH  11  12
ATOM     12  C   UNL     1      26.817 159.447 117.048  1.00  0.00     0.041 C 
ATOM     13  O   UNL     1      26.729 159.970 115.907  1.00  0.00    -0.550 OA
ATOM     14  O   UNL     1      27.847 159.822 117.901  1.00  0.00    -0.550 OA
ENDBRANCH  11  12
ENDBRANCH  10  11
ENDBRANCH   9  10
ENDBRANCH   8   9
ENDBRANCH   1   8
TORSDOF 9
ENDMDL
MODEL 8
REMARK VINA RESULT:    -3.371      1.753      5.230
REMARK INTER + INTRA:          -5.586
REMARK INTER:                  -4.885
REMARK INTRA:                  -0.701
REMARK UNBOUND:                -0.442
REMARK SMILES O=C([O-])CCCCCCCCC(=O)[O-]
REMARK SMILES IDX 7 1 6 2 5 3 4 4 2 5 1 6 3 7 8 8 9 9 10 10 11 11 12 12 13 13
REMARK SMILES IDX 14 14
REMARK H PARENT
REMARK Flexibility Score: inf
ROOT
ATOM      1  C   UNL     1      25.604 157.795 117.500  1.00  0.00     0.000 C 
ENDROOT
BRANCH   1   2
ATOM      2  C   UNL     1      25.606 156.696 118.586  1.00  0.00     0.000 C 
BRANCH   2   3
ATOM      3  C   UNL     1      25.575 157.248 120.021  1.00  0.00     0.006 C 
BRANCH   3   4
ATOM      4  C   UNL     1      26.609 156.584 120.937  1.00  0.00     0.053 C 
BRANCH   4   5
ATOM      5  C   UNL     1      27.664 157.568 121.336  1.00  0.00     0.041 C 
ATOM      6  O   UNL     1      27.347 158.752 121.628  1.00  0.00    -0.550 OA
ATOM      7  O   UNL     1      29.001 157.192 121.338  1.00  0.00    -0.550 OA
ENDBRANCH   4   5
ENDBRANCH   3   4
ENDBRANCH   2   3
ENDBRANCH   1   2
BRANCH   1   8
ATOM      8  C   UNL     1      26.224 159.111 118.002  1.00  0.00     0.000 C 
BRANCH   8   9
ATOM      9  C   UNL     1      27.019 159.840 116.898  1.00  0.00     0.000 C 
BRANCH   9  10
ATOM     10  C   UNL     1      28.256 160.589 117.420  1.00  0.00     0.006 C 
BRANCH  10  11
ATOM     11  C   UNL     1      28.832 159.971 118.699  1.00  0.00     0.053 C 
BRANCH  11  12
ATOM     12  C   UNL     1      30.328 159.974 118.654  1.00  0.00     0.041 C 
ATOM     13  O   UNL     1      30.928 160.193 117.569  1.00  0.00    -0.550 OA
ATOM     14  O   UNL     1      31.059 159.784 119.819  1.00  0.00    -0.550 OA
ENDBRANCH  11  12
ENDBRANCH  10  11
ENDBRANCH   9  10
ENDBRANCH   8   9
ENDBRANCH   1   8
TORSDOF 9
ENDMDL
MODEL 9
REMARK VINA RESULT:    -3.347      2.353      3.686
REMARK INTER + INTRA:          -5.550
REMARK INTER:                  -5.067
REMARK INTRA:                  -0.483
REMARK UNBOUND:                -0.442
REMARK SMILES O=C([O-])CCCCCCCCC(=O)[O-]
REMARK SMILES IDX 7 1 6 2 5 3 4 4 2 5 1 6 3 7 8 8 9 9 10 10 11 11 12 12 13 13
REMARK SMILES IDX 14 14
REMARK H PARENT
REMARK Flexibility Score: inf
ROOT
ATOM      1  C   UNL     1      31.175 160.240 117.619  1.00  0.00     0.000 C 
ENDROOT
BRANCH   1   2
ATOM      2  C   UNL     1      32.370 159.753 118.468  1.00  0.00     0.000 C 
BRANCH   2   3
ATOM      3  C   UNL     1      32.087 159.735 119.979  1.00  0.00     0.006 C 
BRANCH   3   4
ATOM      4  C   UNL     1      32.219 158.337 120.594  1.00  0.00     0.053 C 
BRANCH   4   5
ATOM      5  C   UNL     1      30.960 157.960 121.311  1.00  0.00     0.041 C 
ATOM      6  O   UNL     1      30.636 156.748 121.426  1.00  0.00    -0.550 OA
ATOM      7  O   UNL     1      30.120 158.948 121.808  1.00  0.00    -0.550 OA
ENDBRANCH   4   5
ENDBRANCH   3   4
ENDBRANCH   2   3
ENDBRANCH   1   2
BRANCH   1   8
ATOM      8  C   UNL     1      29.947 160.577 118.484  1.00  0.00     0.000 C 
BRANCH   8   9
ATOM      9  C   UNL     1      28.620 160.305 117.744  1.00  0.00     0.000 C 
BRANCH   9  10
ATOM     10  C   UNL     1      27.616 159.477 118.563  1.00  0.00     0.006 C 
BRANCH  10  11
ATOM     11  C   UNL     1      26.394 159.042 117.746  1.00  0.00     0.053 C 
BRANCH  11  12
ATOM     12  C   UNL     1      25.870 157.732 118.245  1.00  0.00     0.041 C 
ATOM     13  O   UNL     1      25.924 157.455 119.472  1.00  0.00    -0.550 OA
ATOM     14  O   UNL     1      25.276 156.839 117.362  1.00  0.00    -0.550 OA
ENDBRANCH  11  12
ENDBRANCH  10  11
ENDBRANCH   9  10
ENDBRANCH   8   9
ENDBRANCH   1   8
TORSDOF 9
ENDMDL
