MODEL 1
REMARK VINA RESULT:    -4.264      0.000      0.000
REMARK INTER + INTRA:          -8.258
REMARK INTER:                  -7.504
REMARK INTRA:                  -0.754
REMARK UNBOUND:                -0.754
REMARK SMILES CCCCCCC=CCCCCCCCC(=O)[O-]
REMARK SMILES IDX 10 1 11 2 12 3 13 4 14 5 15 6 16 7 17 8 18 9 9 10 8 11 7 12
REMARK SMILES IDX 6 13 5 14 4 15 3 16 2 17 1 18
REMARK H PARENT
REMARK Flexibility Score: inf
ROOT
ATOM      1  C   UNL     1       4.667   1.419 -25.095  1.00  0.00     0.004 C 
ENDROOT
BRANCH   1   2
ATOM      2  C   UNL     1       5.845   1.259 -26.080  1.00  0.00     0.000 C 
BRANCH   2   3
ATOM      3  C   UNL     1       6.010  -0.150 -26.680  1.00  0.00     0.000 C 
BRANCH   3   4
ATOM      4  C   UNL     1       7.387  -0.769 -26.386  1.00  0.00     0.000 C 
BRANCH   4   5
ATOM      5  C   UNL     1       7.305  -2.270 -26.066  1.00  0.00     0.006 C 
BRANCH   5   6
ATOM      6  C   UNL     1       6.716  -2.551 -24.678  1.00  0.00     0.053 C 
BRANCH   6   7
ATOM      7  C   UNL     1       7.716  -3.262 -23.822  1.00  0.00     0.041 C 
ATOM      8  O   UNL     1       8.886  -3.461 -24.244  1.00  0.00    -0.550 OA
ATOM      9  O   UNL     1       7.343  -3.744 -22.572  1.00  0.00    -0.550 OA
ENDBRANCH   6   7
ENDBRANCH   5   6
ENDBRANCH   4   5
ENDBRANCH   3   4
ENDBRANCH   2   3
ENDBRANCH   1   2
BRANCH   1  10
ATOM     10  C   UNL     1       4.210   2.873 -24.887  1.00  0.00     0.027 C 
BRANCH  10  11
ATOM     11  C   UNL     1       4.155   3.256 -23.432  1.00  0.00    -0.031 C 
ATOM     12  C   UNL     1       3.718   2.384 -22.511  1.00  0.00    -0.031 C 
BRANCH  12  13
ATOM     13  C   UNL     1       3.639   2.750 -21.053  1.00  0.00     0.027 C 
BRANCH  13  14
ATOM     14  C   UNL     1       3.932   1.555 -20.129  1.00  0.00     0.004 C 
BRANCH  14  15
ATOM     15  C   UNL     1       4.902   1.878 -18.977  1.00  0.00     0.000 C 
BRANCH  15  16
ATOM     16  C   UNL     1       6.358   1.509 -19.307  1.00  0.00    -0.000 C 
BRANCH  16  17
ATOM     17  C   UNL     1       7.267   1.531 -18.067  1.00  0.00    -0.003 C 
ATOM     18  C   UNL     1       6.642   2.282 -16.892  1.00  0.00     0.004 C 
ENDBRANCH  16  17
ENDBRANCH  15  16
ENDBRANCH  14  15
ENDBRANCH  13  14
ENDBRANCH  12  13
ENDBRANCH  10  11
ENDBRANCH   1  10
TORSDOF 13
ENDMDL
MODEL 2
REMARK VINA RESULT:    -4.022      1.373      3.219
REMARK INTER + INTRA:          -7.833
REMARK INTER:                  -7.109
REMARK INTRA:                  -0.725
REMARK UNBOUND:                -0.754
REMARK SMILES CCCCCCC=CCCCCCCCC(=O)[O-]
REMARK SMILES IDX 10 1 11 2 12 3 13 4 14 5 15 6 16 7 17 8 18 9 9 10 8 11 7 12
REMARK SMILES IDX 6 13 5 14 4 15 3 16 2 17 1 18
REMARK H PARENT
REMARK Flexibility Score: inf
ROOT
ATOM      1  C   UNL     1       7.529   0.005 -26.922  1.00  0.00     0.004 C 
ENDROOT
BRANCH   1   2
ATOM      2  C   UNL     1       6.745  -1.314 -26.748  1.00  0.00     0.000 C 
BRANCH   2   3
ATOM      3  C   UNL     1       7.042  -2.085 -25.448  1.00  0.00     0.000 C 
BRANCH   3   4
ATOM      4  C   UNL     1       8.417  -2.773 -25.460  1.00  0.00     0.000 C 
BRANCH   4   5
ATOM      5  C   UNL     1       8.424  -4.096 -24.677  1.00  0.00     0.006 C 
BRANCH   5   6
ATOM      6  C   UNL     1       9.112  -3.973 -23.311  1.00  0.00     0.053 C 
BRANCH   6   7
ATOM      7  C   UNL     1       8.099  -4.034 -22.211  1.00  0.00     0.041 C 
ATOM      8  O   UNL     1       8.391  -3.630 -21.055  1.00  0.00    -0.550 OA
ATOM      9  O   UNL     1       6.843  -4.579 -22.454  1.00  0.00    -0.550 OA
ENDBRANCH   6   7
ENDBRANCH   5   6
ENDBRANCH   4   5
ENDBRANCH   3   4
ENDBRANCH   2   3
ENDBRANCH   1   2
BRANCH   1  10
ATOM     10  C   UNL     1       6.706   1.153 -27.532  1.00  0.00     0.027 C 
BRANCH  10  11
ATOM     11  C   UNL     1       5.426   1.405 -26.780  1.00  0.00    -0.031 C 
ATOM     12  C   UNL     1       5.442   2.021 -25.589  1.00  0.00    -0.031 C 
BRANCH  12  13
ATOM     13  C   UNL     1       4.176   2.268 -24.812  1.00  0.00     0.027 C 
BRANCH  13  14
ATOM     14  C   UNL     1       4.439   2.963 -23.464  1.00  0.00     0.004 C 
BRANCH  14  15
ATOM     15  C   UNL     1       3.365   2.682 -22.396  1.00  0.00     0.000 C 
BRANCH  15  16
ATOM     16  C   UNL     1       3.866   2.954 -20.967  1.00  0.00    -0.000 C 
BRANCH  16  17
ATOM     17  C   UNL     1       3.900   1.683 -20.104  1.00  0.00    -0.003 C 
ATOM     18  C   UNL     1       5.032   1.697 -19.078  1.00  0.00     0.004 C 
ENDBRANCH  16  17
ENDBRANCH  15  16
ENDBRANCH  14  15
ENDBRANCH  13  14
ENDBRANCH  12  13
ENDBRANCH  10  11
ENDBRANCH   1  10
TORSDOF 13
ENDMDL
MODEL 3
REMARK VINA RESULT:    -3.950      3.005      6.659
REMARK INTER + INTRA:          -7.706
REMARK INTER:                  -6.930
REMARK INTRA:                  -0.777
REMARK UNBOUND:                -0.754
REMARK SMILES CCCCCCC=CCCCCCCCC(=O)[O-]
REMARK SMILES IDX 10 1 11 2 12 3 13 4 14 5 15 6 16 7 17 8 18 9 9 10 8 11 7 12
REMARK SMILES IDX 6 13 5 14 4 15 3 16 2 17 1 18
REMARK H PARENT
REMARK Flexibility Score: inf
ROOT
ATOM      1  C   UNL     1       5.862   1.690 -25.834  1.00  0.00     0.004 C 
ENDROOT
BRANCH   1   2
ATOM      2  C   UNL     1       4.522   2.032 -25.146  1.00  0.00     0.000 C 
BRANCH   2   3
ATOM      3  C   UNL     1       4.620   3.042 -23.988  1.00  0.00     0.000 C 
BRANCH   3   4
ATOM      4  C   UNL     1       3.246   3.463 -23.442  1.00  0.00     0.000 C 
BRANCH   4   5
ATOM      5  C   UNL     1       2.876   2.732 -22.141  1.00  0.00     0.006 C 
BRANCH   5   6
ATOM      6  C   UNL     1       3.927   2.913 -21.038  1.00  0.00     0.053 C 
BRANCH   6   7
ATOM      7  C   UNL     1       3.919   1.736 -20.114  1.00  0.00     0.041 C 
ATOM      8  O   UNL     1       3.026   0.854 -20.217  1.00  0.00    -0.550 OA
ATOM      9  O   UNL     1       4.875   1.636 -19.110  1.00  0.00    -0.550 OA
ENDBRANCH   6   7
ENDBRANCH   5   6
ENDBRANCH   4   5
ENDBRANCH   3   4
ENDBRANCH   2   3
ENDBRANCH   1   2
BRANCH   1  10
ATOM     10  C   UNL     1       5.718   1.177 -27.277  1.00  0.00     0.027 C 
BRANCH  10  11
ATOM     11  C   UNL     1       6.509  -0.081 -27.521  1.00  0.00    -0.031 C 
ATOM     12  C   UNL     1       7.297  -0.591 -26.562  1.00  0.00    -0.031 C 
BRANCH  12  13
ATOM     13  C   UNL     1       8.109  -1.838 -26.788  1.00  0.00     0.027 C 
BRANCH  13  14
ATOM     14  C   UNL     1       8.288  -2.666 -25.504  1.00  0.00     0.004 C 
BRANCH  14  15
ATOM     15  C   UNL     1       6.981  -2.903 -24.725  1.00  0.00     0.000 C 
BRANCH  15  16
ATOM     16  C   UNL     1       7.226  -3.251 -23.247  1.00  0.00    -0.000 C 
BRANCH  16  17
ATOM     17  C   UNL     1       8.418  -4.203 -23.057  1.00  0.00    -0.003 C 
ATOM     18  C   UNL     1       9.009  -4.135 -21.649  1.00  0.00     0.004 C 
ENDBRANCH  16  17
ENDBRANCH  15  16
ENDBRANCH  14  15
ENDBRANCH  13  14
ENDBRANCH  12  13
ENDBRANCH  10  11
ENDBRANCH   1  10
TORSDOF 13
ENDMDL
MODEL 4
REMARK VINA RESULT:    -3.913     14.517     18.065
REMARK INTER + INTRA:          -7.640
REMARK INTER:                  -7.217
REMARK INTRA:                  -0.423
REMARK UNBOUND:                -0.754
REMARK SMILES CCCCCCC=CCCCCCCCC(=O)[O-]
REMARK SMILES IDX 10 1 11 2 12 3 13 4 14 5 15 6 16 7 17 8 18 9 9 10 8 11 7 12
REMARK SMILES IDX 6 13 5 14 4 15 3 16 2 17 1 18
REMARK H PARENT
REMARK Flexibility Score: inf
ROOT
ATOM      1  C   UNL     1       9.710  14.124 -14.464  1.00  0.00     0.004 C 
ENDROOT
BRANCH   1   2
ATOM      2  C   UNL     1      10.845  14.899 -13.760  1.00  0.00     0.000 C 
BRANCH   2   3
ATOM      3  C   UNL     1      11.938  14.021 -13.122  1.00  0.00     0.000 C 
BRANCH   3   4
ATOM      4  C   UNL     1      13.017  14.840 -12.395  1.00  0.00     0.000 C 
BRANCH   4   5
ATOM      5  C   UNL     1      13.534  14.144 -11.125  1.00  0.00     0.006 C 
BRANCH   5   6
ATOM      6  C   UNL     1      14.786  14.817 -10.547  1.00  0.00     0.053 C 
BRANCH   6   7
ATOM      7  C   UNL     1      15.787  13.785 -10.133  1.00  0.00     0.041 C 
ATOM      8  O   UNL     1      16.243  12.968 -10.977  1.00  0.00    -0.550 OA
ATOM      9  O   UNL     1      16.186  13.698  -8.804  1.00  0.00    -0.550 OA
ENDBRANCH   6   7
ENDBRANCH   5   6
ENDBRANCH   4   5
ENDBRANCH   3   4
ENDBRANCH   2   3
ENDBRANCH   1   2
BRANCH   1  10
ATOM     10  C   UNL     1       8.327  14.301 -13.814  1.00  0.00     0.027 C 
BRANCH  10  11
ATOM     11  C   UNL     1       7.322  14.909 -14.757  1.00  0.00    -0.031 C 
ATOM     12  C   UNL     1       6.044  14.503 -14.749  1.00  0.00    -0.031 C 
BRANCH  12  13
ATOM     13  C   UNL     1       5.026  15.084 -15.693  1.00  0.00     0.027 C 
BRANCH  13  14
ATOM     14  C   UNL     1       4.226  14.001 -16.438  1.00  0.00     0.004 C 
BRANCH  14  15
ATOM     15  C   UNL     1       3.280  14.554 -17.520  1.00  0.00     0.000 C 
BRANCH  15  16
ATOM     16  C   UNL     1       3.215  13.656 -18.767  1.00  0.00    -0.000 C 
BRANCH  16  17
ATOM     17  C   UNL     1       4.188  12.468 -18.687  1.00  0.00    -0.003 C 
ATOM     18  C   UNL     1       3.999  11.473 -19.832  1.00  0.00     0.004 C 
ENDBRANCH  16  17
ENDBRANCH  15  16
ENDBRANCH  14  15
ENDBRANCH  13  14
ENDBRANCH  12  13
ENDBRANCH  10  11
ENDBRANCH   1  10
TORSDOF 13
ENDMDL
MODEL 5
REMARK VINA RESULT:    -3.874      1.454      3.144
REMARK INTER + INTRA:          -7.573
REMARK INTER:                  -5.964
REMARK INTRA:                  -1.609
REMARK UNBOUND:                -0.754
REMARK SMILES CCCCCCC=CCCCCCCCC(=O)[O-]
REMARK SMILES IDX 10 1 11 2 12 3 13 4 14 5 15 6 16 7 17 8 18 9 9 10 8 11 7 12
REMARK SMILES IDX 6 13 5 14 4 15 3 16 2 17 1 18
REMARK H PARENT
REMARK Flexibility Score: inf
ROOT
ATOM      1  C   UNL     1       4.323  -0.098 -27.079  1.00  0.00     0.004 C 
ENDROOT
BRANCH   1   2
ATOM      2  C   UNL     1       4.211  -1.488 -26.416  1.00  0.00     0.000 C 
BRANCH   2   3
ATOM      3  C   UNL     1       3.749  -1.476 -24.947  1.00  0.00     0.000 C 
BRANCH   3   4
ATOM      4  C   UNL     1       4.734  -2.184 -24.002  1.00  0.00     0.000 C 
BRANCH   4   5
ATOM      5  C   UNL     1       5.975  -2.720 -24.733  1.00  0.00     0.006 C 
BRANCH   5   6
ATOM      6  C   UNL     1       6.547  -3.987 -24.083  1.00  0.00     0.053 C 
BRANCH   6   7
ATOM      7  C   UNL     1       7.760  -3.653 -23.273  1.00  0.00     0.041 C 
ATOM      8  O   UNL     1       7.646  -3.333 -22.060  1.00  0.00    -0.550 OA
ATOM      9  O   UNL     1       9.016  -3.655 -23.870  1.00  0.00    -0.550 OA
ENDBRANCH   6   7
ENDBRANCH   5   6
ENDBRANCH   4   5
ENDBRANCH   3   4
ENDBRANCH   2   3
ENDBRANCH   1   2
BRANCH   1  10
ATOM     10  C   UNL     1       5.728   0.526 -27.004  1.00  0.00     0.027 C 
BRANCH  10  11
ATOM     11  C   UNL     1       5.879   1.459 -25.831  1.00  0.00    -0.031 C 
ATOM     12  C   UNL     1       4.820   2.123 -25.343  1.00  0.00    -0.031 C 
BRANCH  12  13
ATOM     13  C   UNL     1       4.951   3.072 -24.183  1.00  0.00     0.027 C 
BRANCH  13  14
ATOM     14  C   UNL     1       3.740   3.016 -23.235  1.00  0.00     0.004 C 
BRANCH  14  15
ATOM     15  C   UNL     1       3.228   1.590 -22.958  1.00  0.00     0.000 C 
BRANCH  15  16
ATOM     16  C   UNL     1       3.208   1.247 -21.459  1.00  0.00    -0.000 C 
BRANCH  16  17
ATOM     17  C   UNL     1       3.933   2.301 -20.605  1.00  0.00    -0.003 C 
ATOM     18  C   UNL     1       4.604   1.700 -19.371  1.00  0.00     0.004 C 
ENDBRANCH  16  17
ENDBRANCH  15  16
ENDBRANCH  14  15
ENDBRANCH  13  14
ENDBRANCH  12  13
ENDBRANCH  10  11
ENDBRANCH   1  10
TORSDOF 13
ENDMDL
MODEL 6
REMARK VINA RESULT:    -3.752      1.745      3.982
REMARK INTER + INTRA:          -7.358
REMARK INTER:                  -6.461
REMARK INTRA:                  -0.897
REMARK UNBOUND:                -0.754
REMARK SMILES CCCCCCC=CCCCCCCCC(=O)[O-]
REMARK SMILES IDX 10 1 11 2 12 3 13 4 14 5 15 6 16 7 17 8 18 9 9 10 8 11 7 12
REMARK SMILES IDX 6 13 5 14 4 15 3 16 2 17 1 18
REMARK H PARENT
REMARK Flexibility Score: inf
ROOT
ATOM      1  C   UNL     1       7.296  -1.476 -26.203  1.00  0.00     0.004 C 
ENDROOT
BRANCH   1   2
ATOM      2  C   UNL     1       6.302  -2.024 -25.157  1.00  0.00     0.000 C 
BRANCH   2   3
ATOM      3  C   UNL     1       6.919  -2.944 -24.088  1.00  0.00     0.000 C 
BRANCH   3   4
ATOM      4  C   UNL     1       7.021  -4.409 -24.544  1.00  0.00     0.000 C 
BRANCH   4   5
ATOM      5  C   UNL     1       8.400  -5.024 -24.258  1.00  0.00     0.006 C 
BRANCH   5   6
ATOM      6  C   UNL     1       9.460  -4.615 -25.289  1.00  0.00     0.053 C 
BRANCH   6   7
ATOM      7  C   UNL     1      10.552  -3.831 -24.631  1.00  0.00     0.041 C 
ATOM      8  O   UNL     1      10.581  -3.714 -23.377  1.00  0.00    -0.550 OA
ATOM      9  O   UNL     1      11.514  -3.195 -25.406  1.00  0.00    -0.550 OA
ENDBRANCH   6   7
ENDBRANCH   5   6
ENDBRANCH   4   5
ENDBRANCH   3   4
ENDBRANCH   2   3
ENDBRANCH   1   2
BRANCH   1  10
ATOM     10  C   UNL     1       7.063  -0.004 -26.586  1.00  0.00     0.027 C 
BRANCH  10  11
ATOM     11  C   UNL     1       5.626   0.414 -26.416  1.00  0.00    -0.031 C 
ATOM     12  C   UNL     1       5.305   1.467 -25.648  1.00  0.00    -0.031 C 
BRANCH  12  13
ATOM     13  C   UNL     1       3.875   1.892 -25.450  1.00  0.00     0.027 C 
BRANCH  13  14
ATOM     14  C   UNL     1       3.493   1.999 -23.964  1.00  0.00     0.004 C 
BRANCH  14  15
ATOM     15  C   UNL     1       4.370   2.978 -23.161  1.00  0.00     0.000 C 
BRANCH  15  16
ATOM     16  C   UNL     1       3.699   3.443 -21.857  1.00  0.00    -0.000 C 
BRANCH  16  17
ATOM     17  C   UNL     1       3.295   2.268 -20.952  1.00  0.00    -0.003 C 
ATOM     18  C   UNL     1       4.373   1.914 -19.929  1.00  0.00     0.004 C 
ENDBRANCH  16  17
ENDBRANCH  15  16
ENDBRANCH  14  15
ENDBRANCH  13  14
ENDBRANCH  12  13
ENDBRANCH  10  11
ENDBRANCH   1  10
TORSDOF 13
ENDMDL
MODEL 7
REMARK VINA RESULT:    -3.744      2.630      6.561
REMARK INTER + INTRA:          -7.343
REMARK INTER:                  -5.797
REMARK INTRA:                  -1.547
REMARK UNBOUND:                -0.754
REMARK SMILES CCCCCCC=CCCCCCCCC(=O)[O-]
REMARK SMILES IDX 10 1 11 2 12 3 13 4 14 5 15 6 16 7 17 8 18 9 9 10 8 11 7 12
REMARK SMILES IDX 6 13 5 14 4 15 3 16 2 17 1 18
REMARK H PARENT
REMARK Flexibility Score: inf
ROOT
ATOM      1  C   UNL     1       3.442   2.715 -23.249  1.00  0.00     0.004 C 
ENDROOT
BRANCH   1   2
ATOM      2  C   UNL     1       3.143   1.225 -22.974  1.00  0.00     0.000 C 
BRANCH   2   3
ATOM      3  C   UNL     1       3.113   0.828 -21.486  1.00  0.00     0.000 C 
BRANCH   3   4
ATOM      4  C   UNL     1       3.414   2.006 -20.545  1.00  0.00     0.000 C 
BRANCH   4   5
ATOM      5  C   UNL     1       4.375   1.625 -19.407  1.00  0.00     0.006 C 
BRANCH   5   6
ATOM      6  C   UNL     1       5.845   1.625 -19.847  1.00  0.00     0.053 C 
BRANCH   6   7
ATOM      7  C   UNL     1       6.744   1.546 -18.654  1.00  0.00     0.041 C 
ATOM      8  O   UNL     1       7.891   1.034 -18.756  1.00  0.00    -0.550 OA
ATOM      9  O   UNL     1       6.300   2.001 -17.418  1.00  0.00    -0.550 OA
ENDBRANCH   6   7
ENDBRANCH   5   6
ENDBRANCH   4   5
ENDBRANCH   3   4
ENDBRANCH   2   3
ENDBRANCH   1   2
BRANCH   1  10
ATOM     10  C   UNL     1       4.606   2.956 -24.227  1.00  0.00     0.027 C 
BRANCH  10  11
ATOM     11  C   UNL     1       4.707   1.880 -25.275  1.00  0.00    -0.031 C 
ATOM     12  C   UNL     1       5.875   1.625 -25.884  1.00  0.00    -0.031 C 
BRANCH  12  13
ATOM     13  C   UNL     1       5.996   0.566 -26.947  1.00  0.00     0.027 C 
BRANCH  13  14
ATOM     14  C   UNL     1       6.899  -0.603 -26.514  1.00  0.00     0.004 C 
BRANCH  14  15
ATOM     15  C   UNL     1       6.137  -1.912 -26.237  1.00  0.00     0.000 C 
BRANCH  15  16
ATOM     16  C   UNL     1       6.140  -2.297 -24.748  1.00  0.00    -0.000 C 
BRANCH  16  17
ATOM     17  C   UNL     1       4.734  -2.259 -24.128  1.00  0.00    -0.003 C 
ATOM     18  C   UNL     1       3.671  -1.758 -25.105  1.00  0.00     0.004 C 
ENDBRANCH  16  17
ENDBRANCH  15  16
ENDBRANCH  14  15
ENDBRANCH  13  14
ENDBRANCH  12  13
ENDBRANCH  10  11
ENDBRANCH   1  10
TORSDOF 13
ENDMDL
MODEL 8
REMARK VINA RESULT:    -3.631     14.296     17.294
REMARK INTER + INTRA:          -7.145
REMARK INTER:                  -6.474
REMARK INTRA:                  -0.672
REMARK UNBOUND:                -0.754
REMARK SMILES CCCCCCC=CCCCCCCCC(=O)[O-]
REMARK SMILES IDX 10 1 11 2 12 3 13 4 14 5 15 6 16 7 17 8 18 9 9 10 8 11 7 12
REMARK SMILES IDX 6 13 5 14 4 15 3 16 2 17 1 18
REMARK H PARENT
REMARK Flexibility Score: inf
ROOT
ATOM      1  C   UNL     1       6.722  14.357 -14.421  1.00  0.00     0.004 C 
ENDROOT
BRANCH   1   2
ATOM      2  C   UNL     1       8.145  14.866 -14.739  1.00  0.00     0.000 C 
BRANCH   2   3
ATOM      3  C   UNL     1       9.172  14.690 -13.605  1.00  0.00     0.000 C 
BRANCH   3   4
ATOM      4  C   UNL     1      10.567  14.292 -14.115  1.00  0.00     0.000 C 
BRANCH   4   5
ATOM      5  C   UNL     1      11.701  14.939 -13.304  1.00  0.00     0.006 C 
BRANCH   5   6
ATOM      6  C   UNL     1      12.512  13.915 -12.497  1.00  0.00     0.053 C 
BRANCH   6   7
ATOM      7  C   UNL     1      13.500  14.613 -11.617  1.00  0.00     0.041 C 
ATOM      8  O   UNL     1      13.253  14.782 -10.394  1.00  0.00    -0.550 OA
ATOM      9  O   UNL     1      14.679  15.114 -12.157  1.00  0.00    -0.550 OA
ENDBRANCH   6   7
ENDBRANCH   5   6
ENDBRANCH   4   5
ENDBRANCH   3   4
ENDBRANCH   2   3
ENDBRANCH   1   2
BRANCH   1  10
ATOM     10  C   UNL     1       5.601  15.125 -15.141  1.00  0.00     0.027 C 
BRANCH  10  11
ATOM     11  C   UNL     1       5.000  14.336 -16.275  1.00  0.00    -0.031 C 
ATOM     12  C   UNL     1       3.737  14.556 -16.668  1.00  0.00    -0.031 C 
BRANCH  12  13
ATOM     13  C   UNL     1       3.110  13.769 -17.787  1.00  0.00     0.027 C 
BRANCH  13  14
ATOM     14  C   UNL     1       4.084  12.752 -18.409  1.00  0.00     0.004 C 
BRANCH  14  15
ATOM     15  C   UNL     1       3.981  12.645 -19.942  1.00  0.00     0.000 C 
BRANCH  15  16
ATOM     16  C   UNL     1       5.260  13.116 -20.657  1.00  0.00    -0.000 C 
BRANCH  16  17
ATOM     17  C   UNL     1       5.168  14.577 -21.124  1.00  0.00    -0.003 C 
ATOM     18  C   UNL     1       3.748  14.983 -21.516  1.00  0.00     0.004 C 
ENDBRANCH  16  17
ENDBRANCH  15  16
ENDBRANCH  14  15
ENDBRANCH  13  14
ENDBRANCH  12  13
ENDBRANCH  10  11
ENDBRANCH   1  10
TORSDOF 13
ENDMDL
MODEL 9
REMARK VINA RESULT:    -3.629      3.443      7.057
REMARK INTER + INTRA:          -7.140
REMARK INTER:                  -6.233
REMARK INTRA:                  -0.908
REMARK UNBOUND:                -0.754
REMARK SMILES CCCCCCC=CCCCCCCCC(=O)[O-]
REMARK SMILES IDX 10 1 11 2 12 3 13 4 14 5 15 6 16 7 17 8 18 9 9 10 8 11 7 12
REMARK SMILES IDX 6 13 5 14 4 15 3 16 2 17 1 18
REMARK H PARENT
REMARK Flexibility Score: inf
ROOT
ATOM      1  C   UNL     1       5.652  -0.961 -26.074  1.00  0.00     0.004 C 
ENDROOT
BRANCH   1   2
ATOM      2  C   UNL     1       6.452   0.345 -26.273  1.00  0.00     0.000 C 
BRANCH   2   3
ATOM      3  C   UNL     1       5.601   1.625 -26.366  1.00  0.00     0.000 C 
BRANCH   3   4
ATOM      4  C   UNL     1       5.426   2.329 -25.010  1.00  0.00     0.000 C 
BRANCH   4   5
ATOM      5  C   UNL     1       3.958   2.381 -24.555  1.00  0.00     0.006 C 
BRANCH   5   6
ATOM      6  C   UNL     1       3.748   3.284 -23.332  1.00  0.00     0.053 C 
BRANCH   6   7
ATOM      7  C   UNL     1       3.621   2.457 -22.091  1.00  0.00     0.041 C 
ATOM      8  O   UNL     1       3.189   1.275 -22.157  1.00  0.00    -0.550 OA
ATOM      9  O   UNL     1       3.939   3.006 -20.855  1.00  0.00    -0.550 OA
ENDBRANCH   6   7
ENDBRANCH   5   6
ENDBRANCH   4   5
ENDBRANCH   3   4
ENDBRANCH   2   3
ENDBRANCH   1   2
BRANCH   1  10
ATOM     10  C   UNL     1       6.411  -2.055 -25.303  1.00  0.00     0.027 C 
BRANCH  10  11
ATOM     11  C   UNL     1       7.867  -2.119 -25.681  1.00  0.00    -0.031 C 
ATOM     12  C   UNL     1       8.462  -3.299 -25.915  1.00  0.00    -0.031 C 
BRANCH  12  13
ATOM     13  C   UNL     1       9.920  -3.389 -26.277  1.00  0.00     0.027 C 
BRANCH  13  14
ATOM     14  C   UNL     1      10.781  -3.936 -25.125  1.00  0.00     0.004 C 
BRANCH  14  15
ATOM     15  C   UNL     1       9.988  -4.742 -24.080  1.00  0.00     0.000 C 
BRANCH  15  16
ATOM     16  C   UNL     1      10.088  -4.142 -22.667  1.00  0.00    -0.000 C 
BRANCH  16  17
ATOM     17  C   UNL     1       8.721  -4.042 -21.972  1.00  0.00    -0.003 C 
ATOM     18  C   UNL     1       8.721  -4.667 -20.578  1.00  0.00     0.004 C 
ENDBRANCH  16  17
ENDBRANCH  15  16
ENDBRANCH  14  15
ENDBRANCH  13  14
ENDBRANCH  12  13
ENDBRANCH  10  11
ENDBRANCH   1  10
TORSDOF 13
ENDMDL
