MODEL 1
REMARK VINA RESULT:    -4.255      0.000      0.000
REMARK INTER + INTRA:          -6.015
REMARK INTER:                  -5.623
REMARK INTRA:                  -0.392
REMARK UNBOUND:                -0.392
REMARK SMILES CCCCC=CC=CCO
REMARK SMILES IDX 5 1 6 2 4 3 3 4 2 5 1 6 7 7 8 8 9 9 10 10
REMARK H PARENT 10 11
REMARK Flexibility Score: inf
ROOT
ATOM      1  C   UNL     1       2.225   0.174 -10.754  1.00  0.00    -0.027 C 
ATOM      2  C   UNL     1       2.113  -0.891  -9.956  1.00  0.00    -0.005 C 
ENDROOT
BRANCH   1   3
ATOM      3  C   UNL     1       3.297   0.262 -11.804  1.00  0.00     0.027 C 
BRANCH   3   4
ATOM      4  C   UNL     1       4.172   1.516 -11.645  1.00  0.00     0.004 C 
BRANCH   4   5
ATOM      5  C   UNL     1       4.656   1.703 -10.200  1.00  0.00    -0.003 C 
ATOM      6  C   UNL     1       5.524   0.528  -9.755  1.00  0.00     0.004 C 
ENDBRANCH   4   5
ENDBRANCH   3   4
ENDBRANCH   1   3
BRANCH   2   7
ATOM      7  C   UNL     1       1.049  -0.961  -8.934  1.00  0.00    -0.002 C 
ATOM      8  C   UNL     1       1.220  -0.601  -7.656  1.00  0.00     0.001 C 
BRANCH   8   9
ATOM      9  C   UNL     1       2.510  -0.077  -7.093  1.00  0.00     0.183 C 
BRANCH   9  10
ATOM     10  O   UNL     1       2.501   1.323  -7.110  1.00  0.00    -0.392 OA
ATOM     11  H   UNL     1       2.886   1.611  -6.242  1.00  0.00     0.210 HD
ENDBRANCH   9  10
ENDBRANCH   8   9
ENDBRANCH   2   7
TORSDOF 6
ENDMDL
MODEL 2
REMARK VINA RESULT:    -3.921     14.720     15.501
REMARK INTER + INTRA:          -5.574
REMARK INTER:                  -5.343
REMARK INTRA:                  -0.231
REMARK UNBOUND:                -0.392
REMARK SMILES CCCCC=CC=CCO
REMARK SMILES IDX 5 1 6 2 4 3 3 4 2 5 1 6 7 7 8 8 9 9 10 10
REMARK H PARENT 10 11
REMARK Flexibility Score: inf
ROOT
ATOM      1  C   UNL     1      -3.188  12.230 -14.793  1.00  0.00    -0.027 C 
ATOM      2  C   UNL     1      -3.736  12.482 -13.601  1.00  0.00    -0.005 C 
ENDROOT
BRANCH   1   3
ATOM      3  C   UNL     1      -3.286  13.212 -15.928  1.00  0.00     0.027 C 
BRANCH   3   4
ATOM      4  C   UNL     1      -3.242  14.670 -15.446  1.00  0.00     0.004 C 
BRANCH   4   5
ATOM      5  C   UNL     1      -3.505  15.664 -16.587  1.00  0.00    -0.003 C 
ATOM      6  C   UNL     1      -2.445  16.762 -16.614  1.00  0.00     0.004 C 
ENDBRANCH   4   5
ENDBRANCH   3   4
ENDBRANCH   1   3
BRANCH   2   7
ATOM      7  C   UNL     1      -3.624  11.507 -12.497  1.00  0.00    -0.002 C 
ATOM      8  C   UNL     1      -4.380  11.543 -11.393  1.00  0.00     0.001 C 
BRANCH   8   9
ATOM      9  C   UNL     1      -5.442  12.572 -11.131  1.00  0.00     0.183 C 
BRANCH   9  10
ATOM     10  O   UNL     1      -4.917  13.608 -10.349  1.00  0.00    -0.392 OA
ATOM     11  H   UNL     1      -4.010  13.791 -10.709  1.00  0.00     0.210 HD
ENDBRANCH   9  10
ENDBRANCH   8   9
ENDBRANCH   2   7
TORSDOF 6
ENDMDL
MODEL 3
REMARK VINA RESULT:    -3.870     15.265     16.373
REMARK INTER + INTRA:          -5.506
REMARK INTER:                  -5.168
REMARK INTRA:                  -0.338
REMARK UNBOUND:                -0.392
REMARK SMILES CCCCC=CC=CCO
REMARK SMILES IDX 5 1 6 2 4 3 3 4 2 5 1 6 7 7 8 8 9 9 10 10
REMARK H PARENT 10 11
REMARK Flexibility Score: inf
ROOT
ATOM      1  C   UNL     1      -4.152  12.106 -14.404  1.00  0.00    -0.027 C 
ATOM      2  C   UNL     1      -3.839  13.401 -14.492  1.00  0.00    -0.005 C 
ENDROOT
BRANCH   1   3
ATOM      3  C   UNL     1      -4.946  11.564 -13.247  1.00  0.00     0.027 C 
BRANCH   3   4
ATOM      4  C   UNL     1      -4.144  11.564 -11.936  1.00  0.00     0.004 C 
BRANCH   4   5
ATOM      5  C   UNL     1      -4.920  12.221 -10.785  1.00  0.00    -0.003 C 
ATOM      6  C   UNL     1      -5.999  13.162 -11.316  1.00  0.00     0.004 C 
ENDBRANCH   4   5
ENDBRANCH   3   4
ENDBRANCH   1   3
BRANCH   2   7
ATOM      7  C   UNL     1      -3.064  13.915 -15.639  1.00  0.00    -0.002 C 
ATOM      8  C   UNL     1      -3.118  15.183 -16.066  1.00  0.00     0.001 C 
BRANCH   8   9
ATOM      9  C   UNL     1      -3.967  16.249 -15.436  1.00  0.00     0.183 C 
BRANCH   9  10
ATOM     10  O   UNL     1      -3.220  17.425 -15.289  1.00  0.00    -0.392 OA
ATOM     11  H   UNL     1      -2.629  17.279 -14.505  1.00  0.00     0.210 HD
ENDBRANCH   9  10
ENDBRANCH   8   9
ENDBRANCH   2   7
TORSDOF 6
ENDMDL
MODEL 4
REMARK VINA RESULT:    -3.842     11.373     12.258
REMARK INTER + INTRA:          -5.470
REMARK INTER:                  -5.125
REMARK INTRA:                  -0.344
REMARK UNBOUND:                -0.392
REMARK SMILES CCCCC=CC=CCO
REMARK SMILES IDX 5 1 6 2 4 3 3 4 2 5 1 6 7 7 8 8 9 9 10 10
REMARK H PARENT 10 11
REMARK Flexibility Score: inf
ROOT
ATOM      1  C   UNL     1      -7.931   4.271 -16.830  1.00  0.00    -0.027 C 
ATOM      2  C   UNL     1      -7.091   4.516 -15.821  1.00  0.00    -0.005 C 
ENDROOT
BRANCH   1   3
ATOM      3  C   UNL     1      -7.502   4.416 -18.264  1.00  0.00     0.027 C 
BRANCH   3   4
ATOM      4  C   UNL     1      -6.005   4.130 -18.459  1.00  0.00     0.004 C 
BRANCH   4   5
ATOM      5  C   UNL     1      -5.326   5.184 -19.346  1.00  0.00    -0.003 C 
ATOM      6  C   UNL     1      -4.496   6.153 -18.508  1.00  0.00     0.004 C 
ENDBRANCH   4   5
ENDBRANCH   3   4
ENDBRANCH   1   3
BRANCH   2   7
ATOM      7  C   UNL     1      -7.531   4.362 -14.419  1.00  0.00    -0.002 C 
ATOM      8  C   UNL     1      -6.926   3.560 -13.533  1.00  0.00     0.001 C 
BRANCH   8   9
ATOM      9  C   UNL     1      -5.724   2.716 -13.844  1.00  0.00     0.183 C 
BRANCH   9  10
ATOM     10  O   UNL     1      -5.098   2.326 -12.653  1.00  0.00    -0.392 OA
ATOM     11  H   UNL     1      -5.461   1.429 -12.433  1.00  0.00     0.210 HD
ENDBRANCH   9  10
ENDBRANCH   8   9
ENDBRANCH   2   7
TORSDOF 6
ENDMDL
MODEL 5
REMARK VINA RESULT:    -3.825      1.159      3.909
REMARK INTER + INTRA:          -5.446
REMARK INTER:                  -4.979
REMARK INTRA:                  -0.467
REMARK UNBOUND:                -0.392
REMARK SMILES CCCCC=CC=CCO
REMARK SMILES IDX 5 1 6 2 4 3 3 4 2 5 1 6 7 7 8 8 9 9 10 10
REMARK H PARENT 10 11
REMARK Flexibility Score: inf
ROOT
ATOM      1  C   UNL     1       1.501  -0.206 -10.349  1.00  0.00    -0.027 C 
ATOM      2  C   UNL     1       2.634  -0.267 -11.052  1.00  0.00    -0.005 C 
ENDROOT
BRANCH   1   3
ATOM      3  C   UNL     1       0.730  -1.445  -9.987  1.00  0.00     0.027 C 
BRANCH   3   4
ATOM      4  C   UNL     1       0.323  -1.470  -8.505  1.00  0.00     0.004 C 
BRANCH   4   5
ATOM      5  C   UNL     1       1.331  -0.729  -7.616  1.00  0.00    -0.003 C 
ATOM      6  C   UNL     1       2.427  -1.673  -7.125  1.00  0.00     0.004 C 
ENDBRANCH   4   5
ENDBRANCH   3   4
ENDBRANCH   1   3
BRANCH   2   7
ATOM      7  C   UNL     1       3.379   0.962 -11.392  1.00  0.00    -0.002 C 
ATOM      8  C   UNL     1       4.484   1.364 -10.751  1.00  0.00     0.001 C 
BRANCH   8   9
ATOM      9  C   UNL     1       5.113   0.622  -9.608  1.00  0.00     0.183 C 
BRANCH   9  10
ATOM     10  O   UNL     1       4.521   1.017  -8.402  1.00  0.00    -0.392 OA
ATOM     11  H   UNL     1       3.543   0.903  -8.525  1.00  0.00     0.210 HD
ENDBRANCH   9  10
ENDBRANCH   8   9
ENDBRANCH   2   7
TORSDOF 6
ENDMDL
MODEL 6
REMARK VINA RESULT:    -3.823     14.677     15.392
REMARK INTER + INTRA:          -5.444
REMARK INTER:                  -5.139
REMARK INTRA:                  -0.304
REMARK UNBOUND:                -0.392
REMARK SMILES CCCCC=CC=CCO
REMARK SMILES IDX 5 1 6 2 4 3 3 4 2 5 1 6 7 7 8 8 9 9 10 10
REMARK H PARENT 10 11
REMARK Flexibility Score: inf
ROOT
ATOM      1  C   UNL     1      -3.136  12.167 -14.102  1.00  0.00    -0.027 C 
ATOM      2  C   UNL     1      -4.217  11.894 -13.367  1.00  0.00    -0.005 C 
ENDROOT
BRANCH   1   3
ATOM      3  C   UNL     1      -3.247  12.560 -15.549  1.00  0.00     0.027 C 
BRANCH   3   4
ATOM      4  C   UNL     1      -4.234  13.718 -15.768  1.00  0.00     0.004 C 
BRANCH   4   5
ATOM      5  C   UNL     1      -3.694  15.048 -15.224  1.00  0.00    -0.003 C 
ATOM      6  C   UNL     1      -2.951  15.823 -16.309  1.00  0.00     0.004 C 
ENDBRANCH   4   5
ENDBRANCH   3   4
ENDBRANCH   1   3
BRANCH   2   7
ATOM      7  C   UNL     1      -4.087  11.515 -11.945  1.00  0.00    -0.002 C 
ATOM      8  C   UNL     1      -4.835  12.037 -10.965  1.00  0.00     0.001 C 
BRANCH   8   9
ATOM      9  C   UNL     1      -5.903  13.070 -11.178  1.00  0.00     0.183 C 
BRANCH   9  10
ATOM     10  O   UNL     1      -5.467  14.311 -10.697  1.00  0.00    -0.392 OA
ATOM     11  H   UNL     1      -4.573  14.152 -10.297  1.00  0.00     0.210 HD
ENDBRANCH   9  10
ENDBRANCH   8   9
ENDBRANCH   2   7
TORSDOF 6
ENDMDL
MODEL 7
REMARK VINA RESULT:    -3.808      2.250      4.827
REMARK INTER + INTRA:          -5.424
REMARK INTER:                  -5.024
REMARK INTRA:                  -0.400
REMARK UNBOUND:                -0.392
REMARK SMILES CCCCC=CC=CCO
REMARK SMILES IDX 5 1 6 2 4 3 3 4 2 5 1 6 7 7 8 8 9 9 10 10
REMARK H PARENT 10 11
REMARK Flexibility Score: inf
ROOT
ATOM      1  C   UNL     1       3.193   0.460  -8.054  1.00  0.00    -0.027 C 
ATOM      2  C   UNL     1       3.942   0.312  -9.150  1.00  0.00    -0.005 C 
ENDROOT
BRANCH   1   3
ATOM      3  C   UNL     1       2.499  -0.708  -7.410  1.00  0.00     0.027 C 
BRANCH   3   4
ATOM      4  C   UNL     1       1.006  -0.771  -7.767  1.00  0.00     0.004 C 
BRANCH   4   5
ATOM      5  C   UNL     1       0.732  -1.715  -8.946  1.00  0.00    -0.003 C 
ATOM      6  C   UNL     1       0.625  -0.939 -10.257  1.00  0.00     0.004 C 
ENDBRANCH   4   5
ENDBRANCH   3   4
ENDBRANCH   1   3
BRANCH   2   7
ATOM      7  C   UNL     1       4.620   1.472  -9.764  1.00  0.00    -0.002 C 
ATOM      8  C   UNL     1       4.417   1.870 -11.026  1.00  0.00     0.001 C 
BRANCH   8   9
ATOM      9  C   UNL     1       3.475   1.196 -11.981  1.00  0.00     0.183 C 
BRANCH   9  10
ATOM     10  O   UNL     1       4.154   0.861 -13.159  1.00  0.00    -0.392 OA
ATOM     11  H   UNL     1       3.993  -0.108 -13.303  1.00  0.00     0.210 HD
ENDBRANCH   9  10
ENDBRANCH   8   9
ENDBRANCH   2   7
TORSDOF 6
ENDMDL
MODEL 8
REMARK VINA RESULT:    -3.727     11.704     13.043
REMARK INTER + INTRA:          -5.317
REMARK INTER:                  -4.975
REMARK INTRA:                  -0.342
REMARK UNBOUND:                -0.392
REMARK SMILES CCCCC=CC=CCO
REMARK SMILES IDX 5 1 6 2 4 3 3 4 2 5 1 6 7 7 8 8 9 9 10 10
REMARK H PARENT 10 11
REMARK Flexibility Score: inf
ROOT
ATOM      1  C   UNL     1      -7.407   5.136 -16.335  1.00  0.00    -0.027 C 
ATOM      2  C   UNL     1      -6.880   4.198 -17.127  1.00  0.00    -0.005 C 
ENDROOT
BRANCH   1   3
ATOM      3  C   UNL     1      -7.588   4.909 -14.859  1.00  0.00     0.027 C 
BRANCH   3   4
ATOM      4  C   UNL     1      -7.786   3.425 -14.514  1.00  0.00     0.004 C 
BRANCH   4   5
ATOM      5  C   UNL     1      -7.078   3.036 -13.209  1.00  0.00    -0.003 C 
ATOM      6  C   UNL     1      -5.615   2.679 -13.463  1.00  0.00     0.004 C 
ENDBRANCH   4   5
ENDBRANCH   3   4
ENDBRANCH   1   3
BRANCH   2   7
ATOM      7  C   UNL     1      -6.706   4.443 -18.573  1.00  0.00    -0.002 C 
ATOM      8  C   UNL     1      -5.617   5.011 -19.106  1.00  0.00     0.001 C 
BRANCH   8   9
ATOM      9  C   UNL     1      -4.431   5.470 -18.310  1.00  0.00     0.183 C 
BRANCH   9  10
ATOM     10  O   UNL     1      -4.404   6.870 -18.263  1.00  0.00    -0.392 OA
ATOM     11  H   UNL     1      -3.642   7.111 -17.674  1.00  0.00     0.210 HD
ENDBRANCH   9  10
ENDBRANCH   8   9
ENDBRANCH   2   7
TORSDOF 6
ENDMDL
MODEL 9
REMARK VINA RESULT:    -3.678      2.341      4.886
REMARK INTER + INTRA:          -5.253
REMARK INTER:                  -4.963
REMARK INTRA:                  -0.290
REMARK UNBOUND:                -0.392
REMARK SMILES CCCCC=CC=CCO
REMARK SMILES IDX 5 1 6 2 4 3 3 4 2 5 1 6 7 7 8 8 9 9 10 10
REMARK H PARENT 10 11
REMARK Flexibility Score: inf
ROOT
ATOM      1  C   UNL     1       1.704  -0.337  -9.800  1.00  0.00    -0.027 C 
ATOM      2  C   UNL     1       2.810  -0.789 -10.397  1.00  0.00    -0.005 C 
ENDROOT
BRANCH   1   3
ATOM      3  C   UNL     1       0.349  -0.905 -10.118  1.00  0.00     0.027 C 
BRANCH   3   4
ATOM      4  C   UNL     1      -0.299  -1.588  -8.903  1.00  0.00     0.004 C 
BRANCH   4   5
ATOM      5  C   UNL     1       0.387  -1.197  -7.586  1.00  0.00    -0.003 C 
ATOM      6  C   UNL     1      -0.638  -0.985  -6.475  1.00  0.00     0.004 C 
ENDBRANCH   4   5
ENDBRANCH   3   4
ENDBRANCH   1   3
BRANCH   2   7
ATOM      7  C   UNL     1       4.133  -0.221 -10.066  1.00  0.00    -0.002 C 
ATOM      8  C   UNL     1       4.693   0.797 -10.732  1.00  0.00     0.001 C 
BRANCH   8   9
ATOM      9  C   UNL     1       4.054   1.496 -11.896  1.00  0.00     0.183 C 
BRANCH   9  10
ATOM     10  O   UNL     1       4.337   0.803 -13.080  1.00  0.00    -0.392 OA
ATOM     11  H   UNL     1       5.126   1.253 -13.480  1.00  0.00     0.210 HD
ENDBRANCH   9  10
ENDBRANCH   8   9
ENDBRANCH   2   7
TORSDOF 6
ENDMDL
