MODEL 1
REMARK VINA RESULT:     8.330      0.000      0.000
REMARK INTER + INTRA:          12.636
REMARK INTER:                  11.738
REMARK INTRA:                   0.897
REMARK UNBOUND:                 0.897
REMARK SMILES C[C@@H](CO)CCC(=O)[C@H](C)[C@H]1C(=O)C[C@@H]2[C@@H]3CC=C4C[C@H](O)CC[C@@]4(C)[C@@H]3CC[C@@]21C
REMARK SMILES IDX 6 1 5 2 2 3 1 4 3 5 4 6 7 8 8 9 9 10 10 11 11 12 12 13 30 14
REMARK SMILES IDX 13 15 14 16 15 17 29 18 31 19 16 20 28 21 27 22 17 23 25 24
REMARK SMILES IDX 18 25 19 26 24 27 26 28 20 29 23 30 21 31 22 32
REMARK H PARENT 4 7 22 33
REMARK Flexibility Score: inf
ROOT
ATOM      1  C   UNL     1      70.927  33.175  56.752  1.00  0.00     0.076 C 
ENDROOT
BRANCH   1   2
ATOM      2  C   UNL     1      71.325  33.746  58.125  1.00  0.00     0.013 C 
BRANCH   2   3
ATOM      3  C   UNL     1      72.178  32.759  58.958  1.00  0.00     0.012 C 
ATOM      4  C   UNL     1      73.589  32.634  58.357  1.00  0.00     0.010 C 
BRANCH   3   5
ATOM      5  C   UNL     1      72.256  33.180  60.441  1.00  0.00     0.159 C 
BRANCH   5   6
ATOM      6  O   UNL     1      72.365  32.058  61.280  1.00  0.00    -0.396 OA
ATOM      7  H   UNL     1      73.255  32.133  61.706  1.00  0.00     0.210 HD
ENDBRANCH   5   6
ENDBRANCH   3   5
ENDBRANCH   2   3
ENDBRANCH   1   2
BRANCH   1   8
ATOM      8  C   UNL     1      71.449  34.058  55.649  1.00  0.00     0.136 C 
ATOM      9  O   UNL     1      70.696  34.342  54.726  1.00  0.00    -0.299 OA
BRANCH   8  10
ATOM     10  C   UNL     1      72.885  34.574  55.669  1.00  0.00     0.064 C 
ATOM     11  C   UNL     1      72.903  36.121  55.773  1.00  0.00     0.017 C 
BRANCH  10  12
ATOM     12  C   UNL     1      73.700  33.977  54.468  1.00  0.00     0.072 C 
ATOM     13  C   UNL     1      73.147  32.737  53.846  1.00  0.00     0.137 C 
ATOM     14  C   UNL     1      74.015  34.901  53.243  1.00  0.00    -0.019 C 
ATOM     15  O   UNL     1      72.712  31.797  54.489  1.00  0.00    -0.299 OA
ATOM     16  C   UNL     1      73.340  32.681  52.373  1.00  0.00     0.080 C 
ATOM     17  C   UNL     1      74.248  33.892  52.069  1.00  0.00     0.007 C 
ATOM     18  C   UNL     1      75.258  35.806  53.504  1.00  0.00     0.008 C 
ATOM     19  C   UNL     1      72.815  35.806  52.859  1.00  0.00     0.012 C 
ATOM     20  C   UNL     1      75.751  33.524  51.821  1.00  0.00     0.001 C 
ATOM     21  C   UNL     1      76.023  36.088  52.203  1.00  0.00     0.005 C 
ATOM     22  C   UNL     1      76.646  34.799  51.594  1.00  0.00     0.003 C 
ATOM     23  C   UNL     1      76.394  32.570  52.843  1.00  0.00     0.031 C 
ATOM     24  C   UNL     1      78.210  34.603  51.889  1.00  0.00    -0.008 C 
ATOM     25  C   UNL     1      77.758  32.186  52.353  1.00  0.00    -0.027 C 
ATOM     26  C   UNL     1      78.596  33.113  51.839  1.00  0.00    -0.065 C 
ATOM     27  C   UNL     1      79.007  35.404  50.809  1.00  0.00     0.014 C 
ATOM     28  C   UNL     1      78.639  35.114  53.297  1.00  0.00     0.016 C 
ATOM     29  C   UNL     1      80.019  32.688  51.523  1.00  0.00     0.063 C 
ATOM     30  C   UNL     1      80.492  35.040  50.731  1.00  0.00     0.033 C 
ATOM     31  C   UNL     1      80.647  33.546  50.421  1.00  0.00     0.118 C 
BRANCH  31  32
ATOM     32  O   UNL     1      82.002  33.212  50.229  1.00  0.00    -0.393 OA
ATOM     33  H   UNL     1      82.392  32.981  51.119  1.00  0.00     0.210 HD
ENDBRANCH  31  32
ENDBRANCH  10  12
ENDBRANCH   8  10
ENDBRANCH   1   8
TORSDOF 8
ENDMDL
MODEL 2
REMARK VINA RESULT:    10.987      2.147      8.832
REMARK INTER + INTRA:          16.381
REMARK INTER:                  14.706
REMARK INTRA:                   1.675
REMARK UNBOUND:                 0.897
REMARK SMILES C[C@@H](CO)CCC(=O)[C@H](C)[C@H]1C(=O)C[C@@H]2[C@@H]3CC=C4C[C@H](O)CC[C@@]4(C)[C@@H]3CC[C@@]21C
REMARK SMILES IDX 6 1 5 2 2 3 1 4 3 5 4 6 7 8 8 9 9 10 10 11 11 12 12 13 30 14
REMARK SMILES IDX 13 15 14 16 15 17 29 18 31 19 16 20 28 21 27 22 17 23 25 24
REMARK SMILES IDX 18 25 19 26 24 27 26 28 20 29 23 30 21 31 22 32
REMARK H PARENT 4 7 22 33
REMARK Flexibility Score: inf
ROOT
ATOM      1  C   UNL     1      80.803  34.442  51.474  1.00  0.00     0.076 C 
ENDROOT
BRANCH   1   2
ATOM      2  C   UNL     1      80.465  35.561  50.474  1.00  0.00     0.013 C 
BRANCH   2   3
ATOM      3  C   UNL     1      80.114  35.020  49.067  1.00  0.00     0.012 C 
ATOM      4  C   UNL     1      80.319  36.116  48.007  1.00  0.00     0.010 C 
BRANCH   3   5
ATOM      5  C   UNL     1      80.939  33.764  48.714  1.00  0.00     0.159 C 
BRANCH   5   6
ATOM      6  O   UNL     1      80.155  32.821  48.027  1.00  0.00    -0.396 OA
ATOM      7  H   UNL     1      79.221  33.004  48.301  1.00  0.00     0.210 HD
ENDBRANCH   5   6
ENDBRANCH   3   5
ENDBRANCH   2   3
ENDBRANCH   1   2
BRANCH   1   8
ATOM      8  C   UNL     1      79.814  34.442  52.610  1.00  0.00     0.136 C 
ATOM      9  O   UNL     1      79.876  35.342  53.436  1.00  0.00    -0.299 OA
BRANCH   8  10
ATOM     10  C   UNL     1      78.769  33.337  52.740  1.00  0.00     0.064 C 
ATOM     11  C   UNL     1      79.003  32.240  51.669  1.00  0.00     0.017 C 
BRANCH  10  12
ATOM     12  C   UNL     1      77.323  33.947  52.764  1.00  0.00     0.072 C 
ATOM     13  C   UNL     1      77.095  35.139  51.892  1.00  0.00     0.137 C 
ATOM     14  C   UNL     1      76.110  33.011  52.441  1.00  0.00    -0.019 C 
ATOM     15  O   UNL     1      77.877  36.070  51.805  1.00  0.00    -0.299 OA
ATOM     16  C   UNL     1      75.741  35.167  51.277  1.00  0.00     0.080 C 
ATOM     17  C   UNL     1      74.997  34.000  51.960  1.00  0.00     0.007 C 
ATOM     18  C   UNL     1      75.669  32.182  53.687  1.00  0.00     0.008 C 
ATOM     19  C   UNL     1      76.409  32.032  51.275  1.00  0.00     0.012 C 
ATOM     20  C   UNL     1      73.996  34.444  53.082  1.00  0.00     0.001 C 
ATOM     21  C   UNL     1      74.159  31.910  53.668  1.00  0.00     0.005 C 
ATOM     22  C   UNL     1      73.322  33.215  53.798  1.00  0.00     0.003 C 
ATOM     23  C   UNL     1      74.532  35.458  54.107  1.00  0.00     0.031 C 
ATOM     24  C   UNL     1      72.750  33.504  55.268  1.00  0.00    -0.008 C 
ATOM     25  C   UNL     1      73.400  35.903  54.984  1.00  0.00    -0.027 C 
ATOM     26  C   UNL     1      72.515  35.011  55.480  1.00  0.00    -0.065 C 
ATOM     27  C   UNL     1      71.406  32.720  55.424  1.00  0.00     0.014 C 
ATOM     28  C   UNL     1      73.717  33.053  56.404  1.00  0.00     0.016 C 
ATOM     29  C   UNL     1      71.499  35.505  56.495  1.00  0.00     0.063 C 
ATOM     30  C   UNL     1      70.560  33.163  56.620  1.00  0.00     0.033 C 
ATOM     31  C   UNL     1      70.226  34.655  56.499  1.00  0.00     0.118 C 
BRANCH  31  32
ATOM     32  O   UNL     1      69.351  35.058  57.527  1.00  0.00    -0.393 OA
ATOM     33  H   UNL     1      69.675  35.933  57.882  1.00  0.00     0.210 HD
ENDBRANCH  31  32
ENDBRANCH  10  12
ENDBRANCH   8  10
ENDBRANCH   1   8
TORSDOF 8
ENDMDL
