MODEL 1
REMARK VINA RESULT:    -4.334      0.000      0.000
REMARK INTER + INTRA:          -5.884
REMARK INTER:                  -6.108
REMARK INTRA:                   0.223
REMARK UNBOUND:                 0.223
REMARK SMILES CC1=CCC(=C(C)C)C(=O)CC(C)=CCC1
REMARK SMILES IDX 12 1 14 2 13 3 15 4 16 5 2 6 1 7 3 8 11 10 9 11 10 12 5 13
REMARK SMILES IDX 6 14 7 15 8 16 4 17
REMARK H PARENT
REMARK Flexibility Score: 60.00
ROOT
ATOM      1  C   UNL     1      36.099  10.846  28.301  1.00  0.00    -0.070 C 
ATOM      2  C   UNL     1      35.016  10.416  27.616  1.00  0.00    -0.027 C 
ATOM      3  C   UNL     1      36.111  12.279  28.775  1.00  0.00     0.039 C 
ENDROOT
BRANCH   2   4
ATOM      4  C   UNL     1      34.860   9.053  26.978  1.00  0.00     0.032 C 
BRANCH   4   5
ATOM      5  C   UNL     1      35.419   8.940  25.544  1.00  0.00     0.034 C 
BRANCH   5   6
ATOM      6  C   UNL     1      36.399   7.794  25.374  1.00  0.00    -0.077 C 
ATOM      7  C   UNL     1      35.838   6.395  25.309  1.00  0.00     0.039 C 
ATOM      8  C   UNL     1      37.747   7.938  25.345  1.00  0.00    -0.023 CG0
ATOM      9  G   UNL     1      38.528   9.236  25.376  1.00  0.00     0.000 G0
ENDBRANCH   5   6
ENDBRANCH   4   5
ENDBRANCH   2   4
BRANCH   1  10
ATOM     10  C   UNL     1      37.330   9.993  28.532  1.00  0.00     0.111 C 
BRANCH  10  11
ATOM     11  C   UNL     1      38.476  10.425  27.656  1.00  0.00     0.163 C 
ATOM     12  O   UNL     1      38.812  11.640  27.673  1.00  0.00    -0.294 OA
BRANCH  11  13
ATOM     13  C   UNL     1      39.179   9.484  26.734  1.00  0.00    -0.002 C 
ATOM     14  C   UNL     1      40.392   8.950  27.069  1.00  0.00    -0.069 C 
ATOM     15  C   UNL     1      41.200   8.122  26.094  1.00  0.00     0.039 C 
ATOM     16  C   UNL     1      40.990   9.165  28.442  1.00  0.00     0.039 C 
BRANCH  13  17
ATOM     17  C   UNL     1      38.534   9.226  25.381  1.00  0.00     0.066 CG0
ATOM     18  G   UNL     1      37.741   7.936  25.356  1.00  0.00     0.000 G0
ENDBRANCH  13  17
ENDBRANCH  11  13
ENDBRANCH  10  11
ENDBRANCH   1  10
TORSDOF 0
ENDMDL
MODEL 2
REMARK VINA RESULT:    -4.305      1.911      4.955
REMARK INTER + INTRA:          -5.843
REMARK INTER:                  -6.234
REMARK INTRA:                   0.392
REMARK UNBOUND:                 0.223
REMARK SMILES CC1=CCC(=C(C)C)C(=O)CC(C)=CCC1
REMARK SMILES IDX 12 1 14 2 13 3 15 4 16 5 2 6 1 7 3 8 11 10 9 11 10 12 5 13
REMARK SMILES IDX 6 14 7 15 8 16 4 17
REMARK H PARENT
REMARK Flexibility Score: 60.00
ROOT
ATOM      1  C   UNL     1      36.901   6.897  26.697  1.00  0.00    -0.070 C 
ATOM      2  C   UNL     1      38.192   6.896  27.097  1.00  0.00    -0.027 C 
ATOM      3  C   UNL     1      36.568   6.231  25.385  1.00  0.00     0.039 C 
ENDROOT
BRANCH   2   4
ATOM      4  C   UNL     1      38.736   7.592  28.326  1.00  0.00     0.032 C 
BRANCH   4   5
ATOM      5  C   UNL     1      39.787   8.685  28.040  1.00  0.00     0.034 C 
BRANCH   5   6
ATOM      6  C   UNL     1      39.314   9.721  27.036  1.00  0.00    -0.077 C 
ATOM      7  C   UNL     1      40.134   9.908  25.783  1.00  0.00     0.039 C 
ATOM      8  C   UNL     1      38.246  10.534  27.222  1.00  0.00    -0.023 CG0
ATOM      9  G   UNL     1      37.274  10.514  28.384  1.00  0.00     0.000 G0
ENDBRANCH   5   6
ENDBRANCH   4   5
ENDBRANCH   2   4
BRANCH   1  10
ATOM     10  C   UNL     1      35.797   7.609  27.452  1.00  0.00     0.111 C 
BRANCH  10  11
ATOM     11  C   UNL     1      35.657   9.042  27.009  1.00  0.00     0.163 C 
ATOM     12  O   UNL     1      35.432   9.267  25.789  1.00  0.00    -0.294 OA
BRANCH  11  13
ATOM     13  C   UNL     1      35.836  10.191  27.945  1.00  0.00    -0.002 C 
ATOM     14  C   UNL     1      34.771  10.965  28.314  1.00  0.00    -0.069 C 
ATOM     15  C   UNL     1      34.943  12.226  29.132  1.00  0.00     0.039 C 
ATOM     16  C   UNL     1      33.359  10.594  27.920  1.00  0.00     0.039 C 
BRANCH  13  17
ATOM     17  C   UNL     1      37.255  10.515  28.385  1.00  0.00     0.066 CG0
ATOM     18  G   UNL     1      38.228  10.539  27.224  1.00  0.00     0.000 G0
ENDBRANCH  13  17
ENDBRANCH  11  13
ENDBRANCH  10  11
ENDBRANCH   1  10
TORSDOF 0
ENDMDL
MODEL 3
REMARK VINA RESULT:    -4.164      2.142      2.900
REMARK INTER + INTRA:          -5.645
REMARK INTER:                  -5.923
REMARK INTRA:                   0.278
REMARK UNBOUND:                 0.223
REMARK SMILES CC1=CCC(=C(C)C)C(=O)CC(C)=CCC1
REMARK SMILES IDX 12 1 14 2 13 3 15 4 16 5 2 6 1 7 3 8 11 10 9 11 10 12 5 13
REMARK SMILES IDX 6 14 7 15 8 16 4 17
REMARK H PARENT
REMARK Flexibility Score: 60.00
ROOT
ATOM      1  C   UNL     1      35.565   9.100  26.725  1.00  0.00    -0.070 C 
ATOM      2  C   UNL     1      35.404   7.758  26.735  1.00  0.00    -0.027 C 
ATOM      3  C   UNL     1      34.350   9.959  26.977  1.00  0.00     0.039 C 
ENDROOT
BRANCH   2   4
ATOM      4  C   UNL     1      36.474   6.739  26.410  1.00  0.00     0.032 C 
BRANCH   4   5
ATOM      5  C   UNL     1      37.261   6.215  27.630  1.00  0.00     0.034 C 
BRANCH   5   6
ATOM      6  C   UNL     1      38.766   6.247  27.428  1.00  0.00    -0.077 C 
ATOM      7  C   UNL     1      39.393   5.115  26.653  1.00  0.00     0.039 C 
ATOM      8  C   UNL     1      39.588   7.187  27.956  1.00  0.00    -0.023 CG0
ATOM      9  G   UNL     1      39.184   8.414  28.747  1.00  0.00     0.000 G0
ENDBRANCH   5   6
ENDBRANCH   4   5
ENDBRANCH   2   4
BRANCH   1  10
ATOM     10  C   UNL     1      36.876   9.778  26.385  1.00  0.00     0.111 C 
BRANCH  10  11
ATOM     11  C   UNL     1      37.649  10.146  27.624  1.00  0.00     0.163 C 
ATOM     12  O   UNL     1      37.111  10.936  28.447  1.00  0.00    -0.294 OA
BRANCH  11  13
ATOM     13  C   UNL     1      39.039   9.663  27.875  1.00  0.00    -0.002 C 
ATOM     14  C   UNL     1      40.108  10.258  27.265  1.00  0.00    -0.069 C 
ATOM     15  C   UNL     1      41.509   9.696  27.374  1.00  0.00     0.039 C 
ATOM     16  C   UNL     1      39.941  11.518  26.445  1.00  0.00     0.039 C 
BRANCH  13  17
ATOM     17  C   UNL     1      39.199   8.432  28.754  1.00  0.00     0.066 CG0
ATOM     18  G   UNL     1      39.602   7.206  27.961  1.00  0.00     0.000 G0
ENDBRANCH  13  17
ENDBRANCH  11  13
ENDBRANCH  10  11
ENDBRANCH   1  10
TORSDOF 0
ENDMDL
MODEL 4
REMARK VINA RESULT:    -4.004      1.873      4.967
REMARK INTER + INTRA:          -5.419
REMARK INTER:                  -5.878
REMARK INTRA:                   0.459
REMARK UNBOUND:                 0.223
REMARK SMILES CC1=CCC(=C(C)C)C(=O)CC(C)=CCC1
REMARK SMILES IDX 12 1 14 2 13 3 15 4 16 5 2 6 1 7 3 8 11 10 9 11 10 12 5 13
REMARK SMILES IDX 6 14 7 15 8 16 4 17
REMARK H PARENT
REMARK Flexibility Score: 60.00
ROOT
ATOM      1  C   UNL     1      38.504   7.121  27.063  1.00  0.00    -0.070 C 
ATOM      2  C   UNL     1      39.628   7.194  27.810  1.00  0.00    -0.027 C 
ATOM      3  C   UNL     1      37.336   6.344  27.620  1.00  0.00     0.039 C 
ENDROOT
BRANCH   2   4
ATOM      4  C   UNL     1      40.929   7.840  27.384  1.00  0.00     0.032 C 
BRANCH   4   5
ATOM      5  C   UNL     1      41.186   9.237  27.987  1.00  0.00     0.034 C 
BRANCH   5   6
ATOM      6  C   UNL     1      40.753  10.370  27.073  1.00  0.00    -0.077 C 
ATOM      7  C   UNL     1      41.803  10.998  26.189  1.00  0.00     0.039 C 
ATOM      8  C   UNL     1      39.505  10.899  27.049  1.00  0.00    -0.023 CG0
ATOM      9  G   UNL     1      38.296  10.424  27.828  1.00  0.00     0.000 G0
ENDBRANCH   5   6
ENDBRANCH   4   5
ENDBRANCH   2   4
BRANCH   1  10
ATOM     10  C   UNL     1      38.394   7.697  25.666  1.00  0.00     0.111 C 
BRANCH  10  11
ATOM     11  C   UNL     1      37.791   9.077  25.680  1.00  0.00     0.163 C 
ATOM     12  O   UNL     1      37.778   9.730  24.601  1.00  0.00    -0.294 OA
BRANCH  11  13
ATOM     13  C   UNL     1      37.271   9.712  26.927  1.00  0.00    -0.002 C 
ATOM     14  C   UNL     1      35.932   9.716  27.204  1.00  0.00    -0.069 C 
ATOM     15  C   UNL     1      35.359  10.484  28.375  1.00  0.00     0.039 C 
ATOM     16  C   UNL     1      34.952   8.947  26.347  1.00  0.00     0.039 C 
BRANCH  13  17
ATOM     17  C   UNL     1      38.277  10.428  27.814  1.00  0.00     0.066 CG0
ATOM     18  G   UNL     1      39.498  10.891  27.046  1.00  0.00     0.000 G0
ENDBRANCH  13  17
ENDBRANCH  11  13
ENDBRANCH  10  11
ENDBRANCH   1  10
TORSDOF 0
ENDMDL
MODEL 5
REMARK VINA RESULT:    -4.001      1.833      4.514
REMARK INTER + INTRA:          -5.414
REMARK INTER:                  -5.860
REMARK INTRA:                   0.445
REMARK UNBOUND:                 0.223
REMARK SMILES CC1=CCC(=C(C)C)C(=O)CC(C)=CCC1
REMARK SMILES IDX 12 1 14 2 13 3 15 4 16 5 2 6 1 7 3 8 11 10 9 11 10 12 5 13
REMARK SMILES IDX 6 14 7 15 8 16 4 17
REMARK H PARENT
REMARK Flexibility Score: 60.00
ROOT
ATOM      1  C   UNL     1      36.234   8.567  25.899  1.00  0.00    -0.070 C 
ATOM      2  C   UNL     1      37.488   8.262  25.496  1.00  0.00    -0.027 C 
ATOM      3  C   UNL     1      35.204   7.465  25.898  1.00  0.00     0.039 C 
ENDROOT
BRANCH   2   4
ATOM      4  C   UNL     1      38.627   9.245  25.336  1.00  0.00     0.032 C 
BRANCH   4   5
ATOM      5  C   UNL     1      39.789   9.059  26.333  1.00  0.00     0.034 C 
BRANCH   5   6
ATOM      6  C   UNL     1      39.322   8.715  27.737  1.00  0.00    -0.077 C 
ATOM      7  C   UNL     1      39.559   7.309  28.230  1.00  0.00     0.039 C 
ATOM      8  C   UNL     1      38.648   9.567  28.548  1.00  0.00    -0.023 CG0
ATOM      9  G   UNL     1      38.315  11.019  28.275  1.00  0.00     0.000 G0
ENDBRANCH   5   6
ENDBRANCH   4   5
ENDBRANCH   2   4
BRANCH   1  10
ATOM     10  C   UNL     1      35.795   9.972  26.260  1.00  0.00     0.111 C 
BRANCH  10  11
ATOM     11  C   UNL     1      35.923  10.231  27.738  1.00  0.00     0.163 C 
ATOM     12  O   UNL     1      35.211   9.549  28.524  1.00  0.00    -0.294 OA
BRANCH  11  13
ATOM     13  C   UNL     1      36.807  11.299  28.291  1.00  0.00    -0.002 C 
ATOM     14  C   UNL     1      36.287  12.496  28.699  1.00  0.00    -0.069 C 
ATOM     15  C   UNL     1      37.170  13.653  29.115  1.00  0.00     0.039 C 
ATOM     16  C   UNL     1      34.793  12.724  28.753  1.00  0.00     0.039 C 
BRANCH  13  17
ATOM     17  C   UNL     1      38.304  11.032  28.291  1.00  0.00     0.066 CG0
ATOM     18  G   UNL     1      38.630   9.574  28.542  1.00  0.00     0.000 G0
ENDBRANCH  13  17
ENDBRANCH  11  13
ENDBRANCH  10  11
ENDBRANCH   1  10
TORSDOF 0
ENDMDL
MODEL 6
REMARK VINA RESULT:    -3.939      1.858      4.401
REMARK INTER + INTRA:          -5.327
REMARK INTER:                  -5.992
REMARK INTRA:                   0.665
REMARK UNBOUND:                 0.223
REMARK SMILES CC1=CCC(=C(C)C)C(=O)CC(C)=CCC1
REMARK SMILES IDX 12 1 14 2 13 3 15 4 16 5 2 6 1 7 3 8 11 10 9 11 10 12 5 13
REMARK SMILES IDX 6 14 7 15 8 16 4 17
REMARK H PARENT
REMARK Flexibility Score: 60.00
ROOT
ATOM      1  C   UNL     1      38.438   7.208  28.096  1.00  0.00    -0.070 C 
ATOM      2  C   UNL     1      39.698   6.759  27.901  1.00  0.00    -0.027 C 
ATOM      3  C   UNL     1      37.311   6.462  27.426  1.00  0.00     0.039 C 
ENDROOT
BRANCH   2   4
ATOM      4  C   UNL     1      40.960   7.425  28.405  1.00  0.00     0.032 C 
BRANCH   4   5
ATOM      5  C   UNL     1      41.335   8.736  27.682  1.00  0.00     0.034 C 
BRANCH   5   6
ATOM      6  C   UNL     1      40.917   8.753  26.222  1.00  0.00    -0.077 C 
ATOM      7  C   UNL     1      41.704   7.899  25.258  1.00  0.00     0.039 C 
ATOM      8  C   UNL     1      39.931   9.534  25.718  1.00  0.00    -0.023 CG0
ATOM      9  G   UNL     1      39.004  10.450  26.492  1.00  0.00     0.000 G0
ENDBRANCH   5   6
ENDBRANCH   4   5
ENDBRANCH   2   4
BRANCH   1  10
ATOM     10  C   UNL     1      38.116   8.468  28.873  1.00  0.00     0.111 C 
BRANCH  10  11
ATOM     11  C   UNL     1      37.255   9.409  28.072  1.00  0.00     0.163 C 
ATOM     12  O   UNL     1      36.169   9.800  28.582  1.00  0.00    -0.294 OA
BRANCH  11  13
ATOM     13  C   UNL     1      37.610   9.838  26.687  1.00  0.00    -0.002 C 
ATOM     14  C   UNL     1      36.760   9.604  25.643  1.00  0.00    -0.069 C 
ATOM     15  C   UNL     1      37.155   9.884  24.209  1.00  0.00     0.039 C 
ATOM     16  C   UNL     1      35.371   9.050  25.871  1.00  0.00     0.039 C 
BRANCH  13  17
ATOM     17  C   UNL     1      38.985  10.454  26.481  1.00  0.00     0.066 CG0
ATOM     18  G   UNL     1      39.928   9.526  25.743  1.00  0.00     0.000 G0
ENDBRANCH  13  17
ENDBRANCH  11  13
ENDBRANCH  10  11
ENDBRANCH   1  10
TORSDOF 0
ENDMDL
MODEL 7
REMARK VINA RESULT:    -3.938      1.523      3.622
REMARK INTER + INTRA:          -5.326
REMARK INTER:                  -5.628
REMARK INTRA:                   0.302
REMARK UNBOUND:                 0.223
REMARK SMILES CC1=CCC(=C(C)C)C(=O)CC(C)=CCC1
REMARK SMILES IDX 12 1 14 2 13 3 15 4 16 5 2 6 1 7 3 8 11 10 9 11 10 12 5 13
REMARK SMILES IDX 6 14 7 15 8 16 4 17
REMARK H PARENT
REMARK Flexibility Score: 60.00
ROOT
ATOM      1  C   UNL     1      35.369  10.050  27.839  1.00  0.00    -0.070 C 
ATOM      2  C   UNL     1      36.270  10.864  28.432  1.00  0.00    -0.027 C 
ATOM      3  C   UNL     1      33.951  10.546  27.705  1.00  0.00     0.039 C 
ENDROOT
BRANCH   2   4
ATOM      4  C   UNL     1      37.708  10.510  28.744  1.00  0.00     0.032 C 
BRANCH   4   5
ATOM      5  C   UNL     1      38.724  10.900  27.650  1.00  0.00     0.034 C 
BRANCH   5   6
ATOM      6  C   UNL     1      39.697   9.784  27.314  1.00  0.00    -0.077 C 
ATOM      7  C   UNL     1      40.884   9.591  28.226  1.00  0.00     0.039 C 
ATOM      8  C   UNL     1      39.607   8.996  26.215  1.00  0.00    -0.023 CG0
ATOM      9  G   UNL     1      38.503   8.995  25.178  1.00  0.00     0.000 G0
ENDBRANCH   5   6
ENDBRANCH   4   5
ENDBRANCH   2   4
BRANCH   1  10
ATOM     10  C   UNL     1      35.691   8.639  27.391  1.00  0.00     0.111 C 
BRANCH  10  11
ATOM     11  C   UNL     1      36.088   8.594  25.939  1.00  0.00     0.163 C 
ATOM     12  O   UNL     1      35.261   9.015  25.084  1.00  0.00    -0.294 OA
BRANCH  11  13
ATOM     13  C   UNL     1      37.386   8.018  25.480  1.00  0.00    -0.002 C 
ATOM     14  C   UNL     1      37.574   6.664  25.438  1.00  0.00    -0.069 C 
ATOM     15  C   UNL     1      38.923   6.052  25.130  1.00  0.00     0.039 C 
ATOM     16  C   UNL     1      36.434   5.705  25.702  1.00  0.00     0.039 C 
BRANCH  13  17
ATOM     17  C   UNL     1      38.505   8.994  25.155  1.00  0.00     0.066 CG0
ATOM     18  G   UNL     1      39.601   8.984  26.202  1.00  0.00     0.000 G0
ENDBRANCH  13  17
ENDBRANCH  11  13
ENDBRANCH  10  11
ENDBRANCH   1  10
TORSDOF 0
ENDMDL
MODEL 8
REMARK VINA RESULT:    -3.932      1.840      2.848
REMARK INTER + INTRA:          -5.318
REMARK INTER:                  -5.631
REMARK INTRA:                   0.314
REMARK UNBOUND:                 0.223
REMARK SMILES CC1=CCC(=C(C)C)C(=O)CC(C)=CCC1
REMARK SMILES IDX 12 1 14 2 13 3 15 4 16 5 2 6 1 7 3 8 11 10 9 11 10 12 5 13
REMARK SMILES IDX 6 14 7 15 8 16 4 17
REMARK H PARENT
REMARK Flexibility Score: 60.00
ROOT
ATOM      1  C   UNL     1      37.478   7.057  27.611  1.00  0.00    -0.070 C 
ATOM      2  C   UNL     1      36.326   7.282  26.940  1.00  0.00    -0.027 C 
ATOM      3  C   UNL     1      38.205   5.761  27.350  1.00  0.00     0.039 C 
ENDROOT
BRANCH   2   4
ATOM      4  C   UNL     1      35.409   8.469  27.136  1.00  0.00     0.032 C 
BRANCH   4   5
ATOM      5  C   UNL     1      36.014   9.829  26.727  1.00  0.00     0.034 C 
BRANCH   5   6
ATOM      6  C   UNL     1      36.844   9.756  25.458  1.00  0.00    -0.077 C 
ATOM      7  C   UNL     1      36.125   9.455  24.166  1.00  0.00     0.039 C 
ATOM      8  C   UNL     1      38.194   9.876  25.419  1.00  0.00    -0.023 CG0
ATOM      9  G   UNL     1      39.117  10.195  26.577  1.00  0.00     0.000 G0
ENDBRANCH   5   6
ENDBRANCH   4   5
ENDBRANCH   2   4
BRANCH   1  10
ATOM     10  C   UNL     1      38.020   7.995  28.670  1.00  0.00     0.111 C 
BRANCH  10  11
ATOM     11  C   UNL     1      39.449   8.380  28.392  1.00  0.00     0.163 C 
ATOM     12  O   UNL     1      40.292   8.245  29.321  1.00  0.00    -0.294 OA
BRANCH  11  13
ATOM     13  C   UNL     1      39.883   8.966  27.090  1.00  0.00    -0.002 C 
ATOM     14  C   UNL     1      40.971   8.470  26.427  1.00  0.00    -0.069 C 
ATOM     15  C   UNL     1      41.528   9.139  25.189  1.00  0.00     0.039 C 
ATOM     16  C   UNL     1      41.675   7.219  26.902  1.00  0.00     0.039 C 
BRANCH  13  17
ATOM     17  C   UNL     1      39.125  10.186  26.590  1.00  0.00     0.066 CG0
ATOM     18  G   UNL     1      38.198   9.858  25.438  1.00  0.00     0.000 G0
ENDBRANCH  13  17
ENDBRANCH  11  13
ENDBRANCH  10  11
ENDBRANCH   1  10
TORSDOF 0
ENDMDL
MODEL 9
REMARK VINA RESULT:    -3.916      1.885      3.924
REMARK INTER + INTRA:          -5.295
REMARK INTER:                  -5.831
REMARK INTRA:                   0.536
REMARK UNBOUND:                 0.223
REMARK SMILES CC1=CCC(=C(C)C)C(=O)CC(C)=CCC1
REMARK SMILES IDX 12 1 14 2 13 3 15 4 16 5 2 6 1 7 3 8 11 10 9 11 10 12 5 13
REMARK SMILES IDX 6 14 7 15 8 16 4 17
REMARK H PARENT
REMARK Flexibility Score: 60.00
ROOT
ATOM      1  C   UNL     1      35.306   9.174  26.538  1.00  0.00    -0.070 C 
ATOM      2  C   UNL     1      34.550   9.877  27.410  1.00  0.00    -0.027 C 
ATOM      3  C   UNL     1      35.044   7.694  26.410  1.00  0.00     0.039 C 
ENDROOT
BRANCH   2   4
ATOM      4  C   UNL     1      34.725  11.342  27.748  1.00  0.00     0.032 C 
BRANCH   4   5
ATOM      5  C   UNL     1      35.545  11.618  29.026  1.00  0.00     0.034 C 
BRANCH   5   6
ATOM      6  C   UNL     1      36.864  12.318  28.750  1.00  0.00    -0.077 C 
ATOM      7  C   UNL     1      36.873  13.826  28.764  1.00  0.00     0.039 C 
ATOM      8  C   UNL     1      38.015  11.679  28.425  1.00  0.00    -0.023 CG0
ATOM      9  G   UNL     1      38.246  10.183  28.368  1.00  0.00     0.000 G0
ENDBRANCH   5   6
ENDBRANCH   4   5
ENDBRANCH   2   4
BRANCH   1  10
ATOM     10  C   UNL     1      36.456   9.779  25.758  1.00  0.00     0.111 C 
BRANCH  10  11
ATOM     11  C   UNL     1      37.764   9.111  26.091  1.00  0.00     0.163 C 
ATOM     12  O   UNL     1      37.989   7.970  25.604  1.00  0.00    -0.294 OA
BRANCH  11  13
ATOM     13  C   UNL     1      38.763   9.722  27.017  1.00  0.00    -0.002 C 
ATOM     14  C   UNL     1      40.086   9.780  26.678  1.00  0.00    -0.069 C 
ATOM     15  C   UNL     1      41.143  10.248  27.655  1.00  0.00     0.039 C 
ATOM     16  C   UNL     1      40.562   9.377  25.300  1.00  0.00     0.039 C 
BRANCH  13  17
ATOM     17  C   UNL     1      38.261  10.183  28.376  1.00  0.00     0.066 CG0
ATOM     18  G   UNL     1      38.006  11.676  28.421  1.00  0.00     0.000 G0
ENDBRANCH  13  17
ENDBRANCH  11  13
ENDBRANCH  10  11
ENDBRANCH   1  10
TORSDOF 0
ENDMDL
