MODEL 1
REMARK VINA RESULT:    -4.250      0.000      0.000
REMARK INTER + INTRA:          -5.169
REMARK INTER:                  -4.871
REMARK INTRA:                  -0.298
REMARK UNBOUND:                -0.298
REMARK SMILES O=C1C[C@H](c2ccc(O)cc2)Oc2cc(O)cc(O)c21
REMARK SMILES IDX 3 1 4 2 12 3 13 4 14 5 15 6 17 7 18 8 20 9 2 10 1 11 5 12
REMARK SMILES IDX 6 13 11 14 7 15 10 16 8 17 9 18 19 20 16 22
REMARK H PARENT 9 19 19 21 16 23
REMARK Flexibility Score: inf
ROOT
ATOM      1  C   UNL     1       8.009 -22.032  14.084  1.00  0.00     0.131 C 
ATOM      2  C   UNL     1       7.340 -22.892  13.002  1.00  0.00     0.211 C 
ATOM      3  O   UNL     1       5.916 -22.786  13.084  1.00  0.00    -0.484 OA
ATOM      4  C   UNL     1       5.230 -22.736  14.305  1.00  0.00     0.138 A 
ATOM      5  C   UNL     1       3.845 -22.913  14.312  1.00  0.00     0.093 A 
ATOM      6  C   UNL     1       3.137 -22.882  15.517  1.00  0.00     0.123 A 
ATOM      7  C   UNL     1       3.814 -22.645  16.714  1.00  0.00     0.093 A 
ATOM      8  C   UNL     1       5.196 -22.425  16.727  1.00  0.00     0.133 A 
ATOM      9  C   UNL     1       5.927 -22.502  15.511  1.00  0.00     0.102 A 
ATOM     10  C   UNL     1       7.400 -22.357  15.415  1.00  0.00     0.174 C 
ATOM     11  O   UNL     1       8.153 -22.552  16.406  1.00  0.00    -0.294 OA
ENDROOT
BRANCH   2  12
ATOM     12  C   UNL     1       7.810 -22.483  11.627  1.00  0.00    -0.007 A 
ATOM     13  C   UNL     1       8.710 -21.413  11.478  1.00  0.00     0.011 A 
ATOM     14  C   UNL     1       7.312 -23.125  10.480  1.00  0.00     0.011 A 
ATOM     15  C   UNL     1       9.124 -21.012  10.203  1.00  0.00     0.046 A 
ATOM     16  C   UNL     1       7.728 -22.722   9.208  1.00  0.00     0.046 A 
ATOM     17  C   UNL     1       8.636 -21.665   9.067  1.00  0.00     0.115 A 
BRANCH  17  18
ATOM     18  O   UNL     1       9.058 -21.254   7.804  1.00  0.00    -0.508 OA
ATOM     19  H   UNL     1       8.447 -21.311   6.998  1.00  0.00     0.293 HD
ENDBRANCH  17  18
ENDBRANCH   2  12
BRANCH   8  20
ATOM     20  O   UNL     1       5.784 -22.102  17.951  1.00  0.00    -0.507 OA
ATOM     21  H   UNL     1       6.738 -21.786  18.054  1.00  0.00     0.293 HD
ENDBRANCH   8  20
BRANCH   6  22
ATOM     22  O   UNL     1       1.757 -23.080  15.535  1.00  0.00    -0.508 OA
ATOM     23  H   UNL     1       1.111 -22.301  15.578  1.00  0.00     0.293 HD
ENDBRANCH   6  22
TORSDOF 4
ENDMDL
MODEL 2
REMARK VINA RESULT:    -3.433     12.504     17.457
REMARK INTER + INTRA:          -4.233
REMARK INTER:                  -3.921
REMARK INTRA:                  -0.312
REMARK UNBOUND:                -0.298
REMARK SMILES O=C1C[C@H](c2ccc(O)cc2)Oc2cc(O)cc(O)c21
REMARK SMILES IDX 3 1 4 2 12 3 13 4 14 5 15 6 17 7 18 8 20 9 2 10 1 11 5 12
REMARK SMILES IDX 6 13 11 14 7 15 10 16 8 17 9 18 19 20 16 22
REMARK H PARENT 9 19 19 21 16 23
REMARK Flexibility Score: inf
ROOT
ATOM      1  C   UNL     1      -9.917 -21.876  18.937  1.00  0.00     0.131 C 
ATOM      2  C   UNL     1      -9.193 -23.049  19.612  1.00  0.00     0.211 C 
ATOM      3  O   UNL     1      -7.789 -22.995  19.345  1.00  0.00    -0.484 OA
ATOM      4  C   UNL     1      -7.270 -22.621  18.098  1.00  0.00     0.138 A 
ATOM      5  C   UNL     1      -5.920 -22.856  17.828  1.00  0.00     0.093 A 
ATOM      6  C   UNL     1      -5.378 -22.506  16.588  1.00  0.00     0.123 A 
ATOM      7  C   UNL     1      -6.183 -21.892  15.627  1.00  0.00     0.093 A 
ATOM      8  C   UNL     1      -7.529 -21.610  15.891  1.00  0.00     0.133 A 
ATOM      9  C   UNL     1      -8.096 -22.007  17.131  1.00  0.00     0.102 A 
ATOM     10  C   UNL     1      -9.523 -21.823  17.491  1.00  0.00     0.174 C 
ATOM     11  O   UNL     1     -10.416 -21.679  16.614  1.00  0.00    -0.294 OA
ENDROOT
BRANCH   2  12
ATOM     12  C   UNL     1      -9.436 -23.042  21.102  1.00  0.00    -0.007 A 
ATOM     13  C   UNL     1      -8.351 -23.041  21.995  1.00  0.00     0.011 A 
ATOM     14  C   UNL     1     -10.745 -23.093  21.613  1.00  0.00     0.011 A 
ATOM     15  C   UNL     1      -8.574 -23.065  23.376  1.00  0.00     0.046 A 
ATOM     16  C   UNL     1     -10.964 -23.117  22.993  1.00  0.00     0.046 A 
ATOM     17  C   UNL     1      -9.878 -23.102  23.878  1.00  0.00     0.115 A 
BRANCH  17  18
ATOM     18  O   UNL     1     -10.084 -23.125  25.256  1.00  0.00    -0.508 OA
ATOM     19  H   UNL     1     -10.169 -22.270  25.793  1.00  0.00     0.293 HD
ENDBRANCH  17  18
ENDBRANCH   2  12
BRANCH   8  20
ATOM     20  O   UNL     1      -8.242 -20.910  14.915  1.00  0.00    -0.507 OA
ATOM     21  H   UNL     1      -8.471 -19.929  14.979  1.00  0.00     0.293 HD
ENDBRANCH   8  20
BRANCH   6  22
ATOM     22  O   UNL     1      -4.038 -22.758  16.302  1.00  0.00    -0.508 OA
ATOM     23  H   UNL     1      -3.451 -23.287  16.937  1.00  0.00     0.293 HD
ENDBRANCH   6  22
TORSDOF 4
ENDMDL
MODEL 3
REMARK VINA RESULT:    -2.605     14.483     17.832
REMARK INTER + INTRA:          -3.283
REMARK INTER:                  -2.968
REMARK INTRA:                  -0.316
REMARK UNBOUND:                -0.298
REMARK SMILES O=C1C[C@H](c2ccc(O)cc2)Oc2cc(O)cc(O)c21
REMARK SMILES IDX 3 1 4 2 12 3 13 4 14 5 15 6 17 7 18 8 20 9 2 10 1 11 5 12
REMARK SMILES IDX 6 13 11 14 7 15 10 16 8 17 9 18 19 20 16 22
REMARK H PARENT 9 19 19 21 16 23
REMARK Flexibility Score: inf
ROOT
ATOM      1  C   UNL     1      -7.627 -22.844  19.616  1.00  0.00     0.131 C 
ATOM      2  C   UNL     1      -8.543 -21.725  20.131  1.00  0.00     0.211 C 
ATOM      3  O   UNL     1      -9.546 -21.409  19.161  1.00  0.00    -0.484 OA
ATOM      4  C   UNL     1      -9.282 -21.370  17.785  1.00  0.00     0.138 A 
ATOM      5  C   UNL     1     -10.224 -20.791  16.932  1.00  0.00     0.093 A 
ATOM      6  C   UNL     1      -9.981 -20.724  15.557  1.00  0.00     0.123 A 
ATOM      7  C   UNL     1      -8.806 -21.265  15.032  1.00  0.00     0.093 A 
ATOM      8  C   UNL     1      -7.867 -21.887  15.864  1.00  0.00     0.133 A 
ATOM      9  C   UNL     1      -8.086 -21.914  17.267  1.00  0.00     0.102 A 
ATOM     10  C   UNL     1      -7.129 -22.482  18.249  1.00  0.00     0.174 C 
ATOM     11  O   UNL     1      -5.906 -22.615  17.982  1.00  0.00    -0.294 OA
ENDROOT
BRANCH   2  12
ATOM     12  C   UNL     1      -9.191 -22.122  21.435  1.00  0.00    -0.007 A 
ATOM     13  C   UNL     1     -10.530 -21.779  21.692  1.00  0.00     0.011 A 
ATOM     14  C   UNL     1      -8.451 -22.787  22.428  1.00  0.00     0.011 A 
ATOM     15  C   UNL     1     -11.124 -22.119  22.912  1.00  0.00     0.046 A 
ATOM     16  C   UNL     1      -9.047 -23.125  23.646  1.00  0.00     0.046 A 
ATOM     17  C   UNL     1     -10.386 -22.793  23.890  1.00  0.00     0.115 A 
BRANCH  17  18
ATOM     18  O   UNL     1     -10.991 -23.125  25.101  1.00  0.00    -0.508 OA
ATOM     19  H   UNL     1     -11.863 -23.640  25.132  1.00  0.00     0.293 HD
ENDBRANCH  17  18
ENDBRANCH   2  12
BRANCH   8  20
ATOM     20  O   UNL     1      -6.764 -22.486  15.253  1.00  0.00    -0.507 OA
ATOM     21  H   UNL     1      -5.838 -22.508  15.655  1.00  0.00     0.293 HD
ENDBRANCH   8  20
BRANCH   6  22
ATOM     22  O   UNL     1     -10.904 -20.127  14.701  1.00  0.00    -0.508 OA
ATOM     23  H   UNL     1     -11.886 -20.059  14.945  1.00  0.00     0.293 HD
ENDBRANCH   6  22
TORSDOF 4
ENDMDL
MODEL 4
REMARK VINA RESULT:    -1.611      1.415      2.932
REMARK INTER + INTRA:          -2.144
REMARK INTER:                  -1.831
REMARK INTRA:                  -0.314
REMARK UNBOUND:                -0.298
REMARK SMILES O=C1C[C@H](c2ccc(O)cc2)Oc2cc(O)cc(O)c21
REMARK SMILES IDX 3 1 4 2 12 3 13 4 14 5 15 6 17 7 18 8 20 9 2 10 1 11 5 12
REMARK SMILES IDX 6 13 11 14 7 15 10 16 8 17 9 18 19 20 16 22
REMARK H PARENT 9 19 19 21 16 23
REMARK Flexibility Score: inf
ROOT
ATOM      1  C   UNL     1       5.221 -23.028  12.613  1.00  0.00     0.131 C 
ATOM      2  C   UNL     1       6.345 -22.013  12.358  1.00  0.00     0.211 C 
ATOM      3  O   UNL     1       7.265 -21.995  13.453  1.00  0.00    -0.484 OA
ATOM      4  C   UNL     1       6.852 -22.095  14.789  1.00  0.00     0.138 A 
ATOM      5  C   UNL     1       7.763 -21.794  15.803  1.00  0.00     0.093 A 
ATOM      6  C   UNL     1       7.375 -21.871  17.144  1.00  0.00     0.123 A 
ATOM      7  C   UNL     1       6.081 -22.280  17.470  1.00  0.00     0.093 A 
ATOM      8  C   UNL     1       5.164 -22.626  16.471  1.00  0.00     0.133 A 
ATOM      9  C   UNL     1       5.538 -22.503  15.106  1.00  0.00     0.102 A 
ATOM     10  C   UNL     1       4.628 -22.774  13.966  1.00  0.00     0.174 C 
ATOM     11  O   UNL     1       3.375 -22.742  14.094  1.00  0.00    -0.294 OA
ENDROOT
BRANCH   2  12
ATOM     12  C   UNL     1       7.074 -22.334  11.076  1.00  0.00    -0.007 A 
ATOM     13  C   UNL     1       8.447 -22.057  10.955  1.00  0.00     0.011 A 
ATOM     14  C   UNL     1       6.381 -22.859   9.970  1.00  0.00     0.011 A 
ATOM     15  C   UNL     1       9.119 -22.325   9.758  1.00  0.00     0.046 A 
ATOM     16  C   UNL     1       7.055 -23.125   8.776  1.00  0.00     0.046 A 
ATOM     17  C   UNL     1       8.427 -22.860   8.667  1.00  0.00     0.115 A 
BRANCH  17  18
ATOM     18  O   UNL     1       9.109 -23.122   7.481  1.00  0.00    -0.508 OA
ATOM     19  H   UNL     1       9.112 -22.459   6.715  1.00  0.00     0.293 HD
ENDBRANCH  17  18
ENDBRANCH   2  12
BRANCH   8  20
ATOM     20  O   UNL     1       3.922 -23.115  16.880  1.00  0.00    -0.507 OA
ATOM     21  H   UNL     1       3.106 -22.537  17.022  1.00  0.00     0.293 HD
ENDBRANCH   8  20
BRANCH   6  22
ATOM     22  O   UNL     1       8.272 -21.549  18.162  1.00  0.00    -0.508 OA
ATOM     23  H   UNL     1       9.272 -21.530  18.000  1.00  0.00     0.293 HD
ENDBRANCH   6  22
TORSDOF 4
ENDMDL
