MODEL 1
REMARK VINA RESULT:     1.960      0.000      0.000
REMARK INTER + INTRA:           2.387
REMARK INTER:                   2.533
REMARK INTRA:                  -0.146
REMARK UNBOUND:                -0.146
REMARK SMILES CCCCCCC(=O)[O-]
REMARK SMILES IDX 5 1 6 2 7 3 8 4 9 5 4 6 3 7 2 8 1 9
REMARK H PARENT
REMARK Flexibility Score: inf
ROOT
ATOM      1  C   UNL     1     -34.549  14.525  17.833  1.00  0.00     0.006 C 
ENDROOT
BRANCH   1   2
ATOM      2  C   UNL     1     -35.180  15.629  16.980  1.00  0.00     0.053 C 
BRANCH   2   3
ATOM      3  C   UNL     1     -35.723  16.719  17.850  1.00  0.00     0.041 C 
ATOM      4  O   UNL     1     -36.921  16.685  18.233  1.00  0.00    -0.550 OA
ATOM      5  O   UNL     1     -34.891  17.745  18.278  1.00  0.00    -0.550 OA
ENDBRANCH   2   3
ENDBRANCH   1   2
BRANCH   1   6
ATOM      6  C   UNL     1     -33.737  13.556  16.967  1.00  0.00     0.000 C 
BRANCH   6   7
ATOM      7  C   UNL     1     -33.722  12.150  17.579  1.00  0.00    -0.000 C 
BRANCH   7   8
ATOM      8  C   UNL     1     -32.843  12.108  18.836  1.00  0.00    -0.003 C 
ATOM      9  C   UNL     1     -33.617  11.556  20.030  1.00  0.00     0.004 C 
ENDBRANCH   7   8
ENDBRANCH   6   7
ENDBRANCH   1   6
TORSDOF 5
ENDMDL
MODEL 2
REMARK VINA RESULT:     1.964      0.095      1.084
REMARK INTER + INTRA:           2.392
REMARK INTER:                   2.538
REMARK INTRA:                  -0.146
REMARK UNBOUND:                -0.146
REMARK SMILES CCCCCCC(=O)[O-]
REMARK SMILES IDX 5 1 6 2 7 3 8 4 9 5 4 6 3 7 2 8 1 9
REMARK H PARENT
REMARK Flexibility Score: inf
ROOT
ATOM      1  C   UNL     1     -34.523  14.457  17.848  1.00  0.00     0.006 C 
ENDROOT
BRANCH   1   2
ATOM      2  C   UNL     1     -35.128  15.575  16.994  1.00  0.00     0.053 C 
BRANCH   2   3
ATOM      3  C   UNL     1     -35.683  16.658  17.866  1.00  0.00     0.041 C 
ATOM      4  O   UNL     1     -34.954  17.620  18.222  1.00  0.00    -0.550 OA
ATOM      5  O   UNL     1     -37.019  16.629  18.244  1.00  0.00    -0.550 OA
ENDBRANCH   2   3
ENDBRANCH   1   2
BRANCH   1   6
ATOM      6  C   UNL     1     -33.670  13.513  16.993  1.00  0.00     0.000 C 
BRANCH   6   7
ATOM      7  C   UNL     1     -33.649  12.099  17.587  1.00  0.00    -0.000 C 
BRANCH   7   8
ATOM      8  C   UNL     1     -32.775  12.044  18.846  1.00  0.00    -0.003 C 
ATOM      9  C   UNL     1     -33.561  11.508  20.039  1.00  0.00     0.004 C 
ENDBRANCH   7   8
ENDBRANCH   6   7
ENDBRANCH   1   6
TORSDOF 5
ENDMDL
MODEL 3
REMARK VINA RESULT:     2.412      3.089      5.049
REMARK INTER + INTRA:           2.971
REMARK INTER:                   3.094
REMARK INTRA:                  -0.124
REMARK UNBOUND:                -0.146
REMARK SMILES CCCCCCC(=O)[O-]
REMARK SMILES IDX 5 1 6 2 7 3 8 4 9 5 4 6 3 7 2 8 1 9
REMARK H PARENT
REMARK Flexibility Score: inf
ROOT
ATOM      1  C   UNL     1     -34.411  14.396  18.142  1.00  0.00     0.006 C 
ENDROOT
BRANCH   1   2
ATOM      2  C   UNL     1     -34.035  13.122  17.381  1.00  0.00     0.053 C 
BRANCH   2   3
ATOM      3  C   UNL     1     -32.914  12.410  18.071  1.00  0.00     0.041 C 
ATOM      4  O   UNL     1     -31.755  12.428  17.580  1.00  0.00    -0.550 OA
ATOM      5  O   UNL     1     -33.139  11.770  19.283  1.00  0.00    -0.550 OA
ENDBRANCH   2   3
ENDBRANCH   1   2
BRANCH   1   6
ATOM      6  C   UNL     1     -35.251  15.332  17.266  1.00  0.00     0.000 C 
BRANCH   6   7
ATOM      7  C   UNL     1     -35.241  16.762  17.821  1.00  0.00    -0.000 C 
BRANCH   7   8
ATOM      8  C   UNL     1     -36.658  17.219  18.188  1.00  0.00    -0.003 C 
ATOM      9  C   UNL     1     -37.636  16.047  18.173  1.00  0.00     0.004 C 
ENDBRANCH   7   8
ENDBRANCH   6   7
ENDBRANCH   1   6
TORSDOF 5
ENDMDL
MODEL 4
REMARK VINA RESULT:     2.423      3.045      5.066
REMARK INTER + INTRA:           2.986
REMARK INTER:                   3.035
REMARK INTRA:                  -0.049
REMARK UNBOUND:                -0.146
REMARK SMILES CCCCCCC(=O)[O-]
REMARK SMILES IDX 5 1 6 2 7 3 8 4 9 5 4 6 3 7 2 8 1 9
REMARK H PARENT
REMARK Flexibility Score: inf
ROOT
ATOM      1  C   UNL     1     -34.490  14.520  18.121  1.00  0.00     0.006 C 
ENDROOT
BRANCH   1   2
ATOM      2  C   UNL     1     -34.137  13.271  17.309  1.00  0.00     0.053 C 
BRANCH   2   3
ATOM      3  C   UNL     1     -33.015  12.523  17.958  1.00  0.00     0.041 C 
ATOM      4  O   UNL     1     -31.880  12.490  17.416  1.00  0.00    -0.550 OA
ATOM      5  O   UNL     1     -33.211  11.904  19.186  1.00  0.00    -0.550 OA
ENDBRANCH   2   3
ENDBRANCH   1   2
BRANCH   1   6
ATOM      6  C   UNL     1     -35.185  15.568  17.244  1.00  0.00     0.000 C 
BRANCH   6   7
ATOM      7  C   UNL     1     -36.338  16.241  17.999  1.00  0.00    -0.000 C 
BRANCH   7   8
ATOM      8  C   UNL     1     -36.032  17.720  18.264  1.00  0.00    -0.003 C 
ATOM      9  C   UNL     1     -34.533  17.996  18.182  1.00  0.00     0.004 C 
ENDBRANCH   7   8
ENDBRANCH   6   7
ENDBRANCH   1   6
TORSDOF 5
ENDMDL
MODEL 5
REMARK VINA RESULT:     3.158      3.167      5.042
REMARK INTER + INTRA:           3.935
REMARK INTER:                   4.062
REMARK INTRA:                  -0.127
REMARK UNBOUND:                -0.146
REMARK SMILES CCCCCCC(=O)[O-]
REMARK SMILES IDX 5 1 6 2 7 3 8 4 9 5 4 6 3 7 2 8 1 9
REMARK H PARENT
REMARK Flexibility Score: inf
ROOT
ATOM      1  C   UNL     1     -34.233  13.608  16.998  1.00  0.00     0.006 C 
ENDROOT
BRANCH   1   2
ATOM      2  C   UNL     1     -32.971  12.919  17.527  1.00  0.00     0.053 C 
BRANCH   2   3
ATOM      3  C   UNL     1     -33.334  11.785  18.434  1.00  0.00     0.041 C 
ATOM      4  O   UNL     1     -33.751  10.699  17.953  1.00  0.00    -0.550 OA
ATOM      5  O   UNL     1     -33.165  11.912  19.806  1.00  0.00    -0.550 OA
ENDBRANCH   2   3
ENDBRANCH   1   2
BRANCH   1   6
ATOM      6  C   UNL     1     -34.663  14.752  17.923  1.00  0.00     0.000 C 
BRANCH   6   7
ATOM      7  C   UNL     1     -35.375  15.859  17.135  1.00  0.00    -0.000 C 
BRANCH   7   8
ATOM      8  C   UNL     1     -35.880  16.963  18.072  1.00  0.00    -0.003 C 
ATOM      9  C   UNL     1     -34.790  17.996  18.344  1.00  0.00     0.004 C 
ENDBRANCH   7   8
ENDBRANCH   6   7
ENDBRANCH   1   6
TORSDOF 5
ENDMDL
