MODEL 1
REMARK VINA RESULT:    -3.370      0.000      0.000
REMARK INTER + INTRA:          -4.015
REMARK INTER:                  -3.961
REMARK INTRA:                  -0.054
REMARK UNBOUND:                -0.054
REMARK SMILES O=C([O-])CCC(=O)[O-]
REMARK SMILES IDX 4 1 2 2 1 3 3 4 5 5 6 6 7 7 8 8
REMARK H PARENT
REMARK Flexibility Score: inf
ROOT
ATOM      1  C   UNL     1      27.887  42.125  26.716  1.00  0.00     0.059 C 
ENDROOT
BRANCH   1   2
ATOM      2  C   UNL     1      26.454  42.464  26.983  1.00  0.00     0.042 C 
ATOM      3  O   UNL     1      26.027  43.627  26.761  1.00  0.00    -0.550 OA
ATOM      4  O   UNL     1      25.580  41.482  27.430  1.00  0.00    -0.550 OA
ENDBRANCH   1   2
BRANCH   1   5
ATOM      5  C   UNL     1      28.578  43.267  25.971  1.00  0.00     0.059 C 
BRANCH   5   6
ATOM      6  C   UNL     1      30.014  43.367  26.380  1.00  0.00     0.042 C 
ATOM      7  O   UNL     1      30.509  42.517  27.166  1.00  0.00    -0.550 OA
ATOM      8  O   UNL     1      30.792  44.427  25.932  1.00  0.00    -0.550 OA
ENDBRANCH   5   6
ENDBRANCH   1   5
TORSDOF 3
ENDMDL
MODEL 2
REMARK VINA RESULT:    -3.360      0.053      4.352
REMARK INTER + INTRA:          -4.004
REMARK INTER:                  -3.950
REMARK INTRA:                  -0.054
REMARK UNBOUND:                -0.054
REMARK SMILES O=C([O-])CCC(=O)[O-]
REMARK SMILES IDX 4 1 2 2 1 3 3 4 5 5 6 6 7 7 8 8
REMARK H PARENT
REMARK Flexibility Score: inf
ROOT
ATOM      1  C   UNL     1      28.566  43.254  25.972  1.00  0.00     0.059 C 
ENDROOT
BRANCH   1   2
ATOM      2  C   UNL     1      30.002  43.362  26.378  1.00  0.00     0.042 C 
ATOM      3  O   UNL     1      30.524  42.474  27.102  1.00  0.00    -0.550 OA
ATOM      4  O   UNL     1      30.777  44.417  25.916  1.00  0.00    -0.550 OA
ENDBRANCH   1   2
BRANCH   1   5
ATOM      5  C   UNL     1      27.887  42.095  26.702  1.00  0.00     0.059 C 
BRANCH   5   6
ATOM      6  C   UNL     1      26.454  42.420  26.985  1.00  0.00     0.042 C 
ATOM      7  O   UNL     1      26.035  43.599  26.853  1.00  0.00    -0.550 OA
ATOM      8  O   UNL     1      25.595  41.430  27.442  1.00  0.00    -0.550 OA
ENDBRANCH   5   6
ENDBRANCH   1   5
TORSDOF 3
ENDMDL
MODEL 3
REMARK VINA RESULT:    -3.335      0.410      1.197
REMARK INTER + INTRA:          -3.975
REMARK INTER:                  -3.914
REMARK INTRA:                  -0.061
REMARK UNBOUND:                -0.054
REMARK SMILES O=C([O-])CCC(=O)[O-]
REMARK SMILES IDX 4 1 2 2 1 3 3 4 5 5 6 6 7 7 8 8
REMARK H PARENT
REMARK Flexibility Score: inf
ROOT
ATOM      1  C   UNL     1      27.927  41.876  26.436  1.00  0.00     0.059 C 
ENDROOT
BRANCH   1   2
ATOM      2  C   UNL     1      26.614  42.024  27.138  1.00  0.00     0.042 C 
ATOM      3  O   UNL     1      26.122  41.053  27.770  1.00  0.00    -0.550 OA
ATOM      4  O   UNL     1      25.958  43.248  27.134  1.00  0.00    -0.550 OA
ENDBRANCH   1   2
BRANCH   1   5
ATOM      5  C   UNL     1      28.463  43.243  26.009  1.00  0.00     0.059 C 
BRANCH   5   6
ATOM      6  C   UNL     1      29.925  43.351  26.311  1.00  0.00     0.042 C 
ATOM      7  O   UNL     1      30.473  42.528  27.089  1.00  0.00    -0.550 OA
ATOM      8  O   UNL     1      30.670  44.391  25.771  1.00  0.00    -0.550 OA
ENDBRANCH   5   6
ENDBRANCH   1   5
TORSDOF 3
ENDMDL
MODEL 4
REMARK VINA RESULT:    -3.273      0.895      4.206
REMARK INTER + INTRA:          -3.902
REMARK INTER:                  -3.853
REMARK INTRA:                  -0.049
REMARK UNBOUND:                -0.054
REMARK SMILES O=C([O-])CCC(=O)[O-]
REMARK SMILES IDX 4 1 2 2 1 3 3 4 5 5 6 6 7 7 8 8
REMARK H PARENT
REMARK Flexibility Score: inf
ROOT
ATOM      1  C   UNL     1      28.423  43.248  25.979  1.00  0.00     0.059 C 
ENDROOT
BRANCH   1   2
ATOM      2  C   UNL     1      29.885  43.334  26.285  1.00  0.00     0.042 C 
ATOM      3  O   UNL     1      30.569  44.295  25.846  1.00  0.00    -0.550 OA
ATOM      4  O   UNL     1      30.482  42.378  27.097  1.00  0.00    -0.550 OA
ENDBRANCH   1   2
BRANCH   1   5
ATOM      5  C   UNL     1      27.682  42.522  27.101  1.00  0.00     0.059 C 
BRANCH   5   6
ATOM      6  C   UNL     1      26.437  41.877  26.577  1.00  0.00     0.042 C 
ATOM      7  O   UNL     1      26.235  41.807  25.337  1.00  0.00    -0.550 OA
ATOM      8  O   UNL     1      25.478  41.399  27.461  1.00  0.00    -0.550 OA
ENDBRANCH   5   6
ENDBRANCH   1   5
TORSDOF 3
ENDMDL
MODEL 5
REMARK VINA RESULT:    -3.021      1.823      2.161
REMARK INTER + INTRA:          -3.605
REMARK INTER:                  -3.485
REMARK INTRA:                  -0.120
REMARK UNBOUND:                -0.054
REMARK SMILES O=C([O-])CCC(=O)[O-]
REMARK SMILES IDX 4 1 2 2 1 3 3 4 5 5 6 6 7 7 8 8
REMARK H PARENT
REMARK Flexibility Score: inf
ROOT
ATOM      1  C   UNL     1      26.983  43.224  25.911  1.00  0.00     0.059 C 
ENDROOT
BRANCH   1   2
ATOM      2  C   UNL     1      26.283  42.145  25.146  1.00  0.00     0.042 C 
ATOM      3  O   UNL     1      25.975  42.323  23.939  1.00  0.00    -0.550 OA
ATOM      4  O   UNL     1      26.014  40.926  25.754  1.00  0.00    -0.550 OA
ENDBRANCH   1   2
BRANCH   1   5
ATOM      5  C   UNL     1      28.499  43.065  25.796  1.00  0.00     0.059 C 
BRANCH   5   6
ATOM      6  C   UNL     1      29.076  42.583  27.089  1.00  0.00     0.042 C 
ATOM      7  O   UNL     1      30.318  42.408  27.203  1.00  0.00    -0.550 OA
ATOM      8  O   UNL     1      28.237  42.280  28.154  1.00  0.00    -0.550 OA
ENDBRANCH   5   6
ENDBRANCH   1   5
TORSDOF 3
ENDMDL
MODEL 6
REMARK VINA RESULT:    -2.857     15.217     15.663
REMARK INTER + INTRA:          -3.412
REMARK INTER:                  -3.254
REMARK INTRA:                  -0.158
REMARK UNBOUND:                -0.054
REMARK SMILES O=C([O-])CCC(=O)[O-]
REMARK SMILES IDX 4 1 2 2 1 3 3 4 5 5 6 6 7 7 8 8
REMARK H PARENT
REMARK Flexibility Score: inf
ROOT
ATOM      1  C   UNL     1      30.240  51.259  38.472  1.00  0.00     0.059 C 
ENDROOT
BRANCH   1   2
ATOM      2  C   UNL     1      29.992  50.327  39.617  1.00  0.00     0.042 C 
ATOM      3  O   UNL     1      30.693  50.404  40.659  1.00  0.00    -0.550 OA
ATOM      4  O   UNL     1      28.954  49.407  39.550  1.00  0.00    -0.550 OA
ENDBRANCH   1   2
BRANCH   1   5
ATOM      5  C   UNL     1      29.772  52.672  38.821  1.00  0.00     0.059 C 
BRANCH   5   6
ATOM      6  C   UNL     1      28.289  52.699  39.017  1.00  0.00     0.042 C 
ATOM      7  O   UNL     1      27.517  52.471  38.049  1.00  0.00    -0.550 OA
ATOM      8  O   UNL     1      27.759  53.027  40.259  1.00  0.00    -0.550 OA
ENDBRANCH   5   6
ENDBRANCH   1   5
TORSDOF 3
ENDMDL
MODEL 7
REMARK VINA RESULT:    -2.857     15.230     15.538
REMARK INTER + INTRA:          -3.412
REMARK INTER:                  -3.251
REMARK INTRA:                  -0.160
REMARK UNBOUND:                -0.054
REMARK SMILES O=C([O-])CCC(=O)[O-]
REMARK SMILES IDX 4 1 2 2 1 3 3 4 5 5 6 6 7 7 8 8
REMARK H PARENT
REMARK Flexibility Score: inf
ROOT
ATOM      1  C   UNL     1      29.703  52.718  38.859  1.00  0.00     0.059 C 
ENDROOT
BRANCH   1   2
ATOM      2  C   UNL     1      28.214  52.733  39.005  1.00  0.00     0.042 C 
ATOM      3  O   UNL     1      27.478  52.479  38.016  1.00  0.00    -0.550 OA
ATOM      4  O   UNL     1      27.641  52.979  40.246  1.00  0.00    -0.550 OA
ENDBRANCH   1   2
BRANCH   1   5
ATOM      5  C   UNL     1      30.193  51.313  38.506  1.00  0.00     0.059 C 
BRANCH   5   6
ATOM      6  C   UNL     1      29.945  50.370  39.641  1.00  0.00     0.042 C 
ATOM      7  O   UNL     1      30.684  50.397  40.660  1.00  0.00    -0.550 OA
ATOM      8  O   UNL     1      28.927  49.429  39.553  1.00  0.00    -0.550 OA
ENDBRANCH   5   6
ENDBRANCH   1   5
TORSDOF 3
ENDMDL
MODEL 8
REMARK VINA RESULT:    -2.785     15.739     16.151
REMARK INTER + INTRA:          -3.328
REMARK INTER:                  -3.182
REMARK INTRA:                  -0.145
REMARK UNBOUND:                -0.054
REMARK SMILES O=C([O-])CCC(=O)[O-]
REMARK SMILES IDX 4 1 2 2 1 3 3 4 5 5 6 6 7 7 8 8
REMARK H PARENT
REMARK Flexibility Score: inf
ROOT
ATOM      1  C   UNL     1      28.385  50.579  39.631  1.00  0.00     0.059 C 
ENDROOT
BRANCH   1   2
ATOM      2  C   UNL     1      29.874  50.620  39.491  1.00  0.00     0.042 C 
ATOM      3  O   UNL     1      30.607  50.080  40.360  1.00  0.00    -0.550 OA
ATOM      4  O   UNL     1      30.450  51.211  38.374  1.00  0.00    -0.550 OA
ENDBRANCH   1   2
BRANCH   1   5
ATOM      5  C   UNL     1      27.757  51.847  39.051  1.00  0.00     0.059 C 
BRANCH   5   6
ATOM      6  C   UNL     1      27.908  52.990  40.004  1.00  0.00     0.042 C 
ATOM      7  O   UNL     1      27.428  52.915  41.165  1.00  0.00    -0.550 OA
ATOM      8  O   UNL     1      28.536  54.159  39.593  1.00  0.00    -0.550 OA
ENDBRANCH   5   6
ENDBRANCH   1   5
TORSDOF 3
ENDMDL
MODEL 9
REMARK VINA RESULT:    -2.766     15.777     15.970
REMARK INTER + INTRA:          -3.305
REMARK INTER:                  -3.146
REMARK INTRA:                  -0.159
REMARK UNBOUND:                -0.054
REMARK SMILES O=C([O-])CCC(=O)[O-]
REMARK SMILES IDX 4 1 2 2 1 3 3 4 5 5 6 6 7 7 8 8
REMARK H PARENT
REMARK Flexibility Score: inf
ROOT
ATOM      1  C   UNL     1      27.808  51.893  39.021  1.00  0.00     0.059 C 
ENDROOT
BRANCH   1   2
ATOM      2  C   UNL     1      27.975  53.051  39.952  1.00  0.00     0.042 C 
ATOM      3  O   UNL     1      28.551  54.100  39.562  1.00  0.00    -0.550 OA
ATOM      4  O   UNL     1      27.451  52.991  41.237  1.00  0.00    -0.550 OA
ENDBRANCH   1   2
BRANCH   1   5
ATOM      5  C   UNL     1      28.424  50.629  39.620  1.00  0.00     0.059 C 
BRANCH   5   6
ATOM      6  C   UNL     1      29.916  50.673  39.515  1.00  0.00     0.042 C 
ATOM      7  O   UNL     1      30.631  50.296  40.481  1.00  0.00    -0.550 OA
ATOM      8  O   UNL     1      30.517  51.176  38.369  1.00  0.00    -0.550 OA
ENDBRANCH   5   6
ENDBRANCH   1   5
TORSDOF 3
ENDMDL
