MODEL 1
REMARK VINA RESULT:    -7.557      0.000      0.000
REMARK INTER + INTRA:          -8.777
REMARK INTER:                  -9.103
REMARK INTRA:                   0.326
REMARK UNBOUND:                 0.326
REMARK SMILES O=c1c(O)c(-c2ccc(O)c(O)c2)oc2cc(O)cc(O)c12
REMARK SMILES IDX 5 1 3 2 2 3 1 4 22 5 20 6 19 7 17 8 16 9 15 10 14 11 6 12
REMARK SMILES IDX 7 13 8 14 9 15 13 16 11 17 10 18 12 20 4 22 21 24 18 26
REMARK H PARENT 10 19 12 21 4 23 21 25 18 27
REMARK Flexibility Score: inf
ROOT
ATOM      1  C   UNL     1      16.368  29.991  23.773  1.00  0.00     0.180 A 
ATOM      2  C   UNL     1      16.274  31.291  23.245  1.00  0.00     0.208 A 
ATOM      3  C   UNL     1      15.316  31.555  22.254  1.00  0.00     0.238 A 
ATOM      4  O   UNL     1      15.273  32.706  21.747  1.00  0.00    -0.285 OA
ATOM      5  C   UNL     1      14.455  30.521  21.813  1.00  0.00     0.111 A 
ATOM      6  C   UNL     1      13.421  30.687  20.842  1.00  0.00     0.134 A 
ATOM      7  C   UNL     1      12.716  29.567  20.386  1.00  0.00     0.093 A 
ATOM      8  C   UNL     1      12.962  28.296  20.915  1.00  0.00     0.123 A 
ATOM      9  C   UNL     1      13.927  28.135  21.906  1.00  0.00     0.094 A 
ATOM     10  C   UNL     1      14.673  29.228  22.353  1.00  0.00     0.146 A 
ATOM     11  O   UNL     1      15.591  29.029  23.292  1.00  0.00    -0.452 OA
ENDROOT
BRANCH   1  12
ATOM     12  C   UNL     1      17.336  29.642  24.838  1.00  0.00     0.025 A 
ATOM     13  C   UNL     1      17.694  28.299  25.032  1.00  0.00     0.016 A 
ATOM     14  C   UNL     1      18.589  27.944  26.046  1.00  0.00     0.051 A 
ATOM     15  C   UNL     1      19.126  28.922  26.888  1.00  0.00     0.157 A 
ATOM     16  C   UNL     1      17.860  30.621  25.700  1.00  0.00     0.062 A 
ATOM     17  C   UNL     1      18.757  30.267  26.719  1.00  0.00     0.158 A 
BRANCH  15  18
ATOM     18  O   UNL     1      20.018  28.538  27.889  1.00  0.00    -0.504 OA
ATOM     19  H   UNL     1      19.821  28.688  28.872  1.00  0.00     0.293 HD
ENDBRANCH  15  18
BRANCH  17  20
ATOM     20  O   UNL     1      19.279  31.245  27.565  1.00  0.00    -0.504 OA
ATOM     21  H   UNL     1      19.900  31.009  28.329  1.00  0.00     0.293 HD
ENDBRANCH  17  20
ENDBRANCH   1  12
BRANCH   2  22
ATOM     22  O   UNL     1      17.149  32.290  23.678  1.00  0.00    -0.502 OA
ATOM     23  H   UNL     1      17.013  33.268  23.453  1.00  0.00     0.293 HD
ENDBRANCH   2  22
BRANCH   6  24
ATOM     24  O   UNL     1      13.033  31.924  20.318  1.00  0.00    -0.507 OA
ATOM     25  H   UNL     1      12.335  32.050  19.601  1.00  0.00     0.293 HD
ENDBRANCH   6  24
BRANCH   8  26
ATOM     26  O   UNL     1      12.245  27.190  20.467  1.00  0.00    -0.508 OA
ATOM     27  H   UNL     1      12.328  26.285  20.918  1.00  0.00     0.293 HD
ENDBRANCH   8  26
TORSDOF 6
ENDMDL
MODEL 2
REMARK VINA RESULT:    -7.261      5.728      7.334
REMARK INTER + INTRA:          -8.420
REMARK INTER:                  -8.100
REMARK INTRA:                  -0.320
REMARK UNBOUND:                 0.326
REMARK SMILES O=c1c(O)c(-c2ccc(O)c(O)c2)oc2cc(O)cc(O)c12
REMARK SMILES IDX 5 1 3 2 2 3 1 4 22 5 20 6 19 7 17 8 16 9 15 10 14 11 6 12
REMARK SMILES IDX 7 13 8 14 9 15 13 16 11 17 10 18 12 20 4 22 21 24 18 26
REMARK H PARENT 10 19 12 21 4 23 21 25 18 27
REMARK Flexibility Score: inf
ROOT
ATOM      1  C   UNL     1      11.740  32.615  21.328  1.00  0.00     0.180 A 
ATOM      2  C   UNL     1      10.530  32.823  20.642  1.00  0.00     0.208 A 
ATOM      3  C   UNL     1       9.348  32.992  21.380  1.00  0.00     0.238 A 
ATOM      4  O   UNL     1       8.261  33.123  20.760  1.00  0.00    -0.285 OA
ATOM      5  C   UNL     1       9.392  32.966  22.795  1.00  0.00     0.111 A 
ATOM      6  C   UNL     1       8.262  33.165  23.645  1.00  0.00     0.134 A 
ATOM      7  C   UNL     1       8.397  32.988  25.027  1.00  0.00     0.093 A 
ATOM      8  C   UNL     1       9.637  32.684  25.596  1.00  0.00     0.123 A 
ATOM      9  C   UNL     1      10.757  32.546  24.781  1.00  0.00     0.094 A 
ATOM     10  C   UNL     1      10.646  32.680  23.395  1.00  0.00     0.146 A 
ATOM     11  O   UNL     1      11.737  32.531  22.653  1.00  0.00    -0.452 OA
ENDROOT
BRANCH   1  12
ATOM     12  C   UNL     1      13.029  32.455  20.619  1.00  0.00     0.025 A 
ATOM     13  C   UNL     1      13.429  31.178  20.195  1.00  0.00     0.016 A 
ATOM     14  C   UNL     1      14.652  31.000  19.542  1.00  0.00     0.051 A 
ATOM     15  C   UNL     1      15.499  32.089  19.319  1.00  0.00     0.157 A 
ATOM     16  C   UNL     1      13.892  33.545  20.412  1.00  0.00     0.062 A 
ATOM     17  C   UNL     1      15.121  33.368  19.760  1.00  0.00     0.158 A 
BRANCH  15  18
ATOM     18  O   UNL     1      16.712  31.880  18.664  1.00  0.00    -0.504 OA
ATOM     19  H   UNL     1      17.561  32.363  18.936  1.00  0.00     0.293 HD
ENDBRANCH  15  18
BRANCH  17  20
ATOM     20  O   UNL     1      15.968  34.456  19.552  1.00  0.00    -0.504 OA
ATOM     21  H   UNL     1      16.647  34.740  20.247  1.00  0.00     0.293 HD
ENDBRANCH  17  20
ENDBRANCH   1  12
BRANCH   2  22
ATOM     22  O   UNL     1      10.505  32.823  19.245  1.00  0.00    -0.502 OA
ATOM     23  H   UNL     1      10.537  31.970  18.700  1.00  0.00     0.293 HD
ENDBRANCH   2  22
BRANCH   6  24
ATOM     24  O   UNL     1       7.002  33.561  23.188  1.00  0.00    -0.507 OA
ATOM     25  H   UNL     1       6.803  33.874  22.250  1.00  0.00     0.293 HD
ENDBRANCH   6  24
BRANCH   8  26
ATOM     26  O   UNL     1       9.766  32.525  26.974  1.00  0.00    -0.508 OA
ATOM     27  H   UNL     1       9.467  31.676  27.441  1.00  0.00     0.293 HD
ENDBRANCH   8  26
TORSDOF 6
ENDMDL
MODEL 3
REMARK VINA RESULT:    -7.150      5.790      7.844
REMARK INTER + INTRA:          -8.287
REMARK INTER:                  -8.294
REMARK INTRA:                   0.007
REMARK UNBOUND:                 0.326
REMARK SMILES O=c1c(O)c(-c2ccc(O)c(O)c2)oc2cc(O)cc(O)c12
REMARK SMILES IDX 5 1 3 2 2 3 1 4 22 5 20 6 19 7 17 8 16 9 15 10 14 11 6 12
REMARK SMILES IDX 7 13 8 14 9 15 13 16 11 17 10 18 12 20 4 22 21 24 18 26
REMARK H PARENT 10 19 12 21 4 23 21 25 18 27
REMARK Flexibility Score: inf
ROOT
ATOM      1  C   UNL     1      11.467  33.022  21.293  1.00  0.00     0.180 A 
ATOM      2  C   UNL     1      10.401  32.349  20.671  1.00  0.00     0.208 A 
ATOM      3  C   UNL     1       9.321  31.912  21.455  1.00  0.00     0.238 A 
ATOM      4  O   UNL     1       8.396  31.263  20.902  1.00  0.00    -0.285 OA
ATOM      5  C   UNL     1       9.314  32.166  22.848  1.00  0.00     0.111 A 
ATOM      6  C   UNL     1       8.252  31.803  23.732  1.00  0.00     0.134 A 
ATOM      7  C   UNL     1       8.410  31.987  25.111  1.00  0.00     0.093 A 
ATOM      8  C   UNL     1       9.563  32.581  25.632  1.00  0.00     0.123 A 
ATOM      9  C   UNL     1      10.577  32.993  24.771  1.00  0.00     0.094 A 
ATOM     10  C   UNL     1      10.466  32.789  23.394  1.00  0.00     0.146 A 
ATOM     11  O   UNL     1      11.461  33.186  22.610  1.00  0.00    -0.452 OA
ENDROOT
BRANCH   1  12
ATOM     12  C   UNL     1      12.627  33.535  20.529  1.00  0.00     0.025 A 
ATOM     13  C   UNL     1      12.408  34.327  19.391  1.00  0.00     0.016 A 
ATOM     14  C   UNL     1      13.488  34.804  18.643  1.00  0.00     0.051 A 
ATOM     15  C   UNL     1      14.798  34.484  19.009  1.00  0.00     0.157 A 
ATOM     16  C   UNL     1      13.945  33.196  20.884  1.00  0.00     0.062 A 
ATOM     17  C   UNL     1      15.029  33.672  20.132  1.00  0.00     0.158 A 
BRANCH  15  18
ATOM     18  O   UNL     1      15.854  34.976  18.243  1.00  0.00    -0.504 OA
ATOM     19  H   UNL     1      16.564  35.584  18.634  1.00  0.00     0.293 HD
ENDBRANCH  15  18
BRANCH  17  20
ATOM     20  O   UNL     1      16.333  33.338  20.495  1.00  0.00    -0.504 OA
ATOM     21  H   UNL     1      16.997  32.979  19.819  1.00  0.00     0.293 HD
ENDBRANCH  17  20
ENDBRANCH   1  12
BRANCH   2  22
ATOM     22  O   UNL     1      10.439  32.089  19.299  1.00  0.00    -0.502 OA
ATOM     23  H   UNL     1      10.161  31.197  18.906  1.00  0.00     0.293 HD
ENDBRANCH   2  22
BRANCH   6  24
ATOM     24  O   UNL     1       7.024  31.288  23.307  1.00  0.00    -0.507 OA
ATOM     25  H   UNL     1       6.201  31.219  23.885  1.00  0.00     0.293 HD
ENDBRANCH   6  24
BRANCH   8  26
ATOM     26  O   UNL     1       9.704  32.775  27.003  1.00  0.00    -0.508 OA
ATOM     27  H   UNL     1      10.442  33.357  27.384  1.00  0.00     0.293 HD
ENDBRANCH   8  26
TORSDOF 6
ENDMDL
MODEL 4
REMARK VINA RESULT:    -7.064      5.552      7.562
REMARK INTER + INTRA:          -8.184
REMARK INTER:                  -7.986
REMARK INTRA:                  -0.198
REMARK UNBOUND:                 0.326
REMARK SMILES O=c1c(O)c(-c2ccc(O)c(O)c2)oc2cc(O)cc(O)c12
REMARK SMILES IDX 5 1 3 2 2 3 1 4 22 5 20 6 19 7 17 8 16 9 15 10 14 11 6 12
REMARK SMILES IDX 7 13 8 14 9 15 13 16 11 17 10 18 12 20 4 22 21 24 18 26
REMARK H PARENT 10 19 12 21 4 23 21 25 18 27
REMARK Flexibility Score: inf
ROOT
ATOM      1  C   UNL     1      12.316  32.694  21.318  1.00  0.00     0.180 A 
ATOM      2  C   UNL     1      12.818  31.417  21.012  1.00  0.00     0.208 A 
ATOM      3  C   UNL     1      13.911  31.306  20.139  1.00  0.00     0.238 A 
ATOM      4  O   UNL     1      14.322  30.158  19.826  1.00  0.00    -0.285 OA
ATOM      5  C   UNL     1      14.499  32.473  19.594  1.00  0.00     0.111 A 
ATOM      6  C   UNL     1      15.635  32.480  18.730  1.00  0.00     0.134 A 
ATOM      7  C   UNL     1      16.051  33.684  18.146  1.00  0.00     0.093 A 
ATOM      8  C   UNL     1      15.412  34.889  18.447  1.00  0.00     0.123 A 
ATOM      9  C   UNL     1      14.340  34.900  19.336  1.00  0.00     0.094 A 
ATOM     10  C   UNL     1      13.878  33.711  19.905  1.00  0.00     0.146 A 
ATOM     11  O   UNL     1      12.847  33.764  20.739  1.00  0.00    -0.452 OA
ENDROOT
BRANCH   1  12
ATOM     12  C   UNL     1      11.182  32.892  22.249  1.00  0.00     0.025 A 
ATOM     13  C   UNL     1       9.993  33.469  21.777  1.00  0.00     0.016 A 
ATOM     14  C   UNL     1       8.918  33.685  22.643  1.00  0.00     0.051 A 
ATOM     15  C   UNL     1       9.020  33.342  23.995  1.00  0.00     0.157 A 
ATOM     16  C   UNL     1      11.291  32.568  23.613  1.00  0.00     0.062 A 
ATOM     17  C   UNL     1      10.213  32.786  24.485  1.00  0.00     0.158 A 
BRANCH  15  18
ATOM     18  O   UNL     1       7.930  33.568  24.834  1.00  0.00    -0.504 OA
ATOM     19  H   UNL     1       8.022  33.581  25.844  1.00  0.00     0.293 HD
ENDBRANCH  15  18
BRANCH  17  20
ATOM     20  O   UNL     1      10.326  32.456  25.834  1.00  0.00    -0.504 OA
ATOM     21  H   UNL     1      11.166  32.659  26.362  1.00  0.00     0.293 HD
ENDBRANCH  17  20
ENDBRANCH   1  12
BRANCH   2  22
ATOM     22  O   UNL     1      12.209  30.276  21.543  1.00  0.00    -0.502 OA
ATOM     23  H   UNL     1      11.595  29.683  20.998  1.00  0.00     0.293 HD
ENDBRANCH   2  22
BRANCH   6  24
ATOM     24  O   UNL     1      16.400  31.348  18.436  1.00  0.00    -0.507 OA
ATOM     25  H   UNL     1      17.370  31.366  18.159  1.00  0.00     0.293 HD
ENDBRANCH   6  24
BRANCH   8  26
ATOM     26  O   UNL     1      15.842  36.084  17.875  1.00  0.00    -0.508 OA
ATOM     27  H   UNL     1      16.275  36.813  18.430  1.00  0.00     0.293 HD
ENDBRANCH   8  26
TORSDOF 6
ENDMDL
MODEL 5
REMARK VINA RESULT:    -7.004      5.366      7.935
REMARK INTER + INTRA:          -8.111
REMARK INTER:                  -8.222
REMARK INTRA:                   0.111
REMARK UNBOUND:                 0.326
REMARK SMILES O=c1c(O)c(-c2ccc(O)c(O)c2)oc2cc(O)cc(O)c12
REMARK SMILES IDX 5 1 3 2 2 3 1 4 22 5 20 6 19 7 17 8 16 9 15 10 14 11 6 12
REMARK SMILES IDX 7 13 8 14 9 15 13 16 11 17 10 18 12 20 4 22 21 24 18 26
REMARK H PARENT 10 19 12 21 4 23 21 25 18 27
REMARK Flexibility Score: inf
ROOT
ATOM      1  C   UNL     1      10.475  33.021  22.082  1.00  0.00     0.180 A 
ATOM      2  C   UNL     1      10.006  33.691  20.938  1.00  0.00     0.208 A 
ATOM      3  C   UNL     1      10.925  34.077  19.950  1.00  0.00     0.238 A 
ATOM      4  O   UNL     1      10.508  34.723  18.955  1.00  0.00    -0.285 OA
ATOM      5  C   UNL     1      12.300  33.774  20.110  1.00  0.00     0.111 A 
ATOM      6  C   UNL     1      13.314  34.083  19.154  1.00  0.00     0.134 A 
ATOM      7  C   UNL     1      14.658  33.855  19.475  1.00  0.00     0.093 A 
ATOM      8  C   UNL     1      15.019  33.270  20.691  1.00  0.00     0.123 A 
ATOM      9  C   UNL     1      14.031  32.910  21.605  1.00  0.00     0.094 A 
ATOM     10  C   UNL     1      12.685  33.159  21.330  1.00  0.00     0.146 A 
ATOM     11  O   UNL     1      11.777  32.811  22.233  1.00  0.00    -0.452 OA
ENDROOT
BRANCH   1  12
ATOM     12  C   UNL     1       9.563  32.561  23.154  1.00  0.00     0.025 A 
ATOM     13  C   UNL     1       8.353  31.937  22.810  1.00  0.00     0.016 A 
ATOM     14  C   UNL     1       7.467  31.514  23.805  1.00  0.00     0.051 A 
ATOM     15  C   UNL     1       7.768  31.722  25.154  1.00  0.00     0.157 A 
ATOM     16  C   UNL     1       9.853  32.789  24.511  1.00  0.00     0.062 A 
ATOM     17  C   UNL     1       8.964  32.367  25.510  1.00  0.00     0.158 A 
BRANCH  15  18
ATOM     18  O   UNL     1       6.864  31.288  26.124  1.00  0.00    -0.504 OA
ATOM     19  H   UNL     1       7.126  30.624  26.843  1.00  0.00     0.293 HD
ENDBRANCH  15  18
BRANCH  17  20
ATOM     20  O   UNL     1       9.263  32.590  26.853  1.00  0.00    -0.504 OA
ATOM     21  H   UNL     1       8.911  33.400  27.349  1.00  0.00     0.293 HD
ENDBRANCH  17  20
ENDBRANCH   1  12
BRANCH   2  22
ATOM     22  O   UNL     1       8.649  33.999  20.811  1.00  0.00    -0.502 OA
ATOM     23  H   UNL     1       8.252  34.863  21.160  1.00  0.00     0.293 HD
ENDBRANCH   2  22
BRANCH   6  24
ATOM     24  O   UNL     1      13.054  34.584  17.875  1.00  0.00    -0.507 OA
ATOM     25  H   UNL     1      13.695  35.149  17.339  1.00  0.00     0.293 HD
ENDBRANCH   6  24
BRANCH   8  26
ATOM     26  O   UNL     1      16.356  33.032  20.996  1.00  0.00    -0.508 OA
ATOM     27  H   UNL     1      16.963  32.524  20.361  1.00  0.00     0.293 HD
ENDBRANCH   8  26
TORSDOF 6
ENDMDL
MODEL 6
REMARK VINA RESULT:    -6.928      4.925      6.328
REMARK INTER + INTRA:          -8.020
REMARK INTER:                  -7.708
REMARK INTRA:                  -0.312
REMARK UNBOUND:                 0.326
REMARK SMILES O=c1c(O)c(-c2ccc(O)c(O)c2)oc2cc(O)cc(O)c12
REMARK SMILES IDX 5 1 3 2 2 3 1 4 22 5 20 6 19 7 17 8 16 9 15 10 14 11 6 12
REMARK SMILES IDX 7 13 8 14 9 15 13 16 11 17 10 18 12 20 4 22 21 24 18 26
REMARK H PARENT 10 19 12 21 4 23 21 25 18 27
REMARK Flexibility Score: inf
ROOT
ATOM      1  C   UNL     1      12.264  31.750  21.968  1.00  0.00     0.180 A 
ATOM      2  C   UNL     1      13.505  32.258  21.546  1.00  0.00     0.208 A 
ATOM      3  C   UNL     1      14.303  31.484  20.689  1.00  0.00     0.238 A 
ATOM      4  O   UNL     1      15.436  31.920  20.358  1.00  0.00    -0.285 OA
ATOM      5  C   UNL     1      13.843  30.217  20.253  1.00  0.00     0.111 A 
ATOM      6  C   UNL     1      14.551  29.365  19.352  1.00  0.00     0.134 A 
ATOM      7  C   UNL     1      14.064  28.078  19.092  1.00  0.00     0.093 A 
ATOM      8  C   UNL     1      12.859  27.638  19.648  1.00  0.00     0.123 A 
ATOM      9  C   UNL     1      12.132  28.485  20.480  1.00  0.00     0.094 A 
ATOM     10  C   UNL     1      12.611  29.760  20.788  1.00  0.00     0.146 A 
ATOM     11  O   UNL     1      11.892  30.532  21.594  1.00  0.00    -0.452 OA
ENDROOT
BRANCH   1  12
ATOM     12  C   UNL     1      11.358  32.519  22.851  1.00  0.00     0.025 A 
ATOM     13  C   UNL     1      10.508  33.487  22.292  1.00  0.00     0.016 A 
ATOM     14  C   UNL     1       9.660  34.240  23.109  1.00  0.00     0.051 A 
ATOM     15  C   UNL     1       9.658  34.048  24.494  1.00  0.00     0.157 A 
ATOM     16  C   UNL     1      11.370  32.343  24.246  1.00  0.00     0.062 A 
ATOM     17  C   UNL     1      10.521  33.100  25.067  1.00  0.00     0.158 A 
BRANCH  15  18
ATOM     18  O   UNL     1       8.800  34.814  25.282  1.00  0.00    -0.504 OA
ATOM     19  H   UNL     1       8.535  35.758  25.028  1.00  0.00     0.293 HD
ENDBRANCH  15  18
BRANCH  17  20
ATOM     20  O   UNL     1      10.534  32.914  26.448  1.00  0.00    -0.504 OA
ATOM     21  H   UNL     1       9.914  32.252  26.901  1.00  0.00     0.293 HD
ENDBRANCH  17  20
ENDBRANCH   1  12
BRANCH   2  22
ATOM     22  O   UNL     1      13.950  33.501  22.007  1.00  0.00    -0.502 OA
ATOM     23  H   UNL     1      13.319  34.274  22.180  1.00  0.00     0.293 HD
ENDBRANCH   2  22
BRANCH   6  24
ATOM     24  O   UNL     1      15.713  29.741  18.672  1.00  0.00    -0.507 OA
ATOM     25  H   UNL     1      16.147  29.205  17.936  1.00  0.00     0.293 HD
ENDBRANCH   6  24
BRANCH   8  26
ATOM     26  O   UNL     1      12.373  26.363  19.371  1.00  0.00    -0.508 OA
ATOM     27  H   UNL     1      11.489  26.224  18.895  1.00  0.00     0.293 HD
ENDBRANCH   8  26
TORSDOF 6
ENDMDL
MODEL 7
REMARK VINA RESULT:    -6.775      2.663      3.931
REMARK INTER + INTRA:          -7.835
REMARK INTER:                  -7.650
REMARK INTRA:                  -0.184
REMARK UNBOUND:                 0.326
REMARK SMILES O=c1c(O)c(-c2ccc(O)c(O)c2)oc2cc(O)cc(O)c12
REMARK SMILES IDX 5 1 3 2 2 3 1 4 22 5 20 6 19 7 17 8 16 9 15 10 14 11 6 12
REMARK SMILES IDX 7 13 8 14 9 15 13 16 11 17 10 18 12 20 4 22 21 24 18 26
REMARK H PARENT 10 19 12 21 4 23 21 25 18 27
REMARK Flexibility Score: inf
ROOT
ATOM      1  C   UNL     1      14.508  31.675  22.115  1.00  0.00     0.180 A 
ATOM      2  C   UNL     1      14.744  31.996  20.766  1.00  0.00     0.208 A 
ATOM      3  C   UNL     1      13.741  32.655  20.038  1.00  0.00     0.238 A 
ATOM      4  O   UNL     1      13.936  32.892  18.818  1.00  0.00    -0.285 OA
ATOM      5  C   UNL     1      12.522  32.999  20.671  1.00  0.00     0.111 A 
ATOM      6  C   UNL     1      11.453  33.704  20.039  1.00  0.00     0.134 A 
ATOM      7  C   UNL     1      10.241  33.875  20.721  1.00  0.00     0.093 A 
ATOM      8  C   UNL     1      10.084  33.425  22.035  1.00  0.00     0.123 A 
ATOM      9  C   UNL     1      11.143  32.790  22.679  1.00  0.00     0.094 A 
ATOM     10  C   UNL     1      12.350  32.571  22.013  1.00  0.00     0.146 A 
ATOM     11  O   UNL     1      13.330  31.952  22.660  1.00  0.00    -0.452 OA
ENDROOT
BRANCH   1  12
ATOM     12  C   UNL     1      15.527  31.003  22.954  1.00  0.00     0.025 A 
ATOM     13  C   UNL     1      15.244  29.745  23.508  1.00  0.00     0.016 A 
ATOM     14  C   UNL     1      16.182  29.101  24.320  1.00  0.00     0.051 A 
ATOM     15  C   UNL     1      17.408  29.711  24.603  1.00  0.00     0.157 A 
ATOM     16  C   UNL     1      16.751  31.624  23.257  1.00  0.00     0.062 A 
ATOM     17  C   UNL     1      17.693  30.980  24.073  1.00  0.00     0.158 A 
BRANCH  15  18
ATOM     18  O   UNL     1      18.324  29.044  25.415  1.00  0.00    -0.504 OA
ATOM     19  H   UNL     1      18.082  28.718  26.344  1.00  0.00     0.293 HD
ENDBRANCH  15  18
BRANCH  17  20
ATOM     20  O   UNL     1      18.908  31.600  24.363  1.00  0.00    -0.504 OA
ATOM     21  H   UNL     1      19.002  32.608  24.369  1.00  0.00     0.293 HD
ENDBRANCH  17  20
ENDBRANCH   1  12
BRANCH   2  22
ATOM     22  O   UNL     1      15.945  31.627  20.156  1.00  0.00    -0.502 OA
ATOM     23  H   UNL     1      16.545  32.295  19.686  1.00  0.00     0.293 HD
ENDBRANCH   2  22
BRANCH   6  24
ATOM     24  O   UNL     1      11.537  34.274  18.766  1.00  0.00    -0.507 OA
ATOM     25  H   UNL     1      12.379  34.656  18.363  1.00  0.00     0.293 HD
ENDBRANCH   6  24
BRANCH   8  26
ATOM     26  O   UNL     1       8.882  33.614  22.711  1.00  0.00    -0.508 OA
ATOM     27  H   UNL     1       8.111  34.122  22.292  1.00  0.00     0.293 HD
ENDBRANCH   8  26
TORSDOF 6
ENDMDL
MODEL 8
REMARK VINA RESULT:    -6.726      5.500      7.716
REMARK INTER + INTRA:          -7.776
REMARK INTER:                  -7.636
REMARK INTRA:                  -0.140
REMARK UNBOUND:                 0.326
REMARK SMILES O=c1c(O)c(-c2ccc(O)c(O)c2)oc2cc(O)cc(O)c12
REMARK SMILES IDX 5 1 3 2 2 3 1 4 22 5 20 6 19 7 17 8 16 9 15 10 14 11 6 12
REMARK SMILES IDX 7 13 8 14 9 15 13 16 11 17 10 18 12 20 4 22 21 24 18 26
REMARK H PARENT 10 19 12 21 4 23 21 25 18 27
REMARK Flexibility Score: inf
ROOT
ATOM      1  C   UNL     1      10.396  32.446  22.468  1.00  0.00     0.180 A 
ATOM      2  C   UNL     1      10.101  32.935  23.753  1.00  0.00     0.208 A 
ATOM      3  C   UNL     1       9.007  32.399  24.451  1.00  0.00     0.238 A 
ATOM      4  O   UNL     1       8.715  32.878  25.578  1.00  0.00    -0.285 OA
ATOM      5  C   UNL     1       8.230  31.372  23.862  1.00  0.00     0.111 A 
ATOM      6  C   UNL     1       7.123  30.730  24.496  1.00  0.00     0.134 A 
ATOM      7  C   UNL     1       6.346  29.818  23.770  1.00  0.00     0.093 A 
ATOM      8  C   UNL     1       6.676  29.478  22.455  1.00  0.00     0.123 A 
ATOM      9  C   UNL     1       7.790  30.055  21.850  1.00  0.00     0.094 A 
ATOM     10  C   UNL     1       8.562  30.995  22.535  1.00  0.00     0.146 A 
ATOM     11  O   UNL     1       9.609  31.529  21.918  1.00  0.00    -0.452 OA
ENDROOT
BRANCH   1  12
ATOM     12  C   UNL     1      11.548  32.943  21.682  1.00  0.00     0.025 A 
ATOM     13  C   UNL     1      11.329  33.490  20.408  1.00  0.00     0.016 A 
ATOM     14  C   UNL     1      12.403  33.946  19.639  1.00  0.00     0.051 A 
ATOM     15  C   UNL     1      13.711  33.848  20.124  1.00  0.00     0.157 A 
ATOM     16  C   UNL     1      12.865  32.825  22.159  1.00  0.00     0.062 A 
ATOM     17  C   UNL     1      13.945  33.280  21.387  1.00  0.00     0.158 A 
BRANCH  15  18
ATOM     18  O   UNL     1      14.762  34.312  19.335  1.00  0.00    -0.504 OA
ATOM     19  H   UNL     1      15.031  33.854  18.472  1.00  0.00     0.293 HD
ENDBRANCH  15  18
BRANCH  17  20
ATOM     20  O   UNL     1      15.248  33.167  21.871  1.00  0.00    -0.504 OA
ATOM     21  H   UNL     1      15.963  33.844  21.634  1.00  0.00     0.293 HD
ENDBRANCH  17  20
ENDBRANCH   1  12
BRANCH   2  22
ATOM     22  O   UNL     1      10.867  33.964  24.306  1.00  0.00    -0.502 OA
ATOM     23  H   UNL     1      11.818  33.824  24.625  1.00  0.00     0.293 HD
ENDBRANCH   2  22
BRANCH   6  24
ATOM     24  O   UNL     1       6.765  30.929  25.832  1.00  0.00    -0.507 OA
ATOM     25  H   UNL     1       5.839  30.784  26.206  1.00  0.00     0.293 HD
ENDBRANCH   6  24
BRANCH   8  26
ATOM     26  O   UNL     1       5.908  28.558  21.745  1.00  0.00    -0.508 OA
ATOM     27  H   UNL     1       5.176  28.019  22.195  1.00  0.00     0.293 HD
ENDBRANCH   8  26
TORSDOF 6
ENDMDL
MODEL 9
REMARK VINA RESULT:    -6.582      2.412      4.170
REMARK INTER + INTRA:          -7.602
REMARK INTER:                  -7.568
REMARK INTRA:                  -0.034
REMARK UNBOUND:                 0.326
REMARK SMILES O=c1c(O)c(-c2ccc(O)c(O)c2)oc2cc(O)cc(O)c12
REMARK SMILES IDX 5 1 3 2 2 3 1 4 22 5 20 6 19 7 17 8 16 9 15 10 14 11 6 12
REMARK SMILES IDX 7 13 8 14 9 15 13 16 11 17 10 18 12 20 4 22 21 24 18 26
REMARK H PARENT 10 19 12 21 4 23 21 25 18 27
REMARK Flexibility Score: inf
ROOT
ATOM      1  C   UNL     1      14.091  30.648  22.373  1.00  0.00     0.180 A 
ATOM      2  C   UNL     1      13.747  29.642  21.453  1.00  0.00     0.208 A 
ATOM      3  C   UNL     1      12.554  29.764  20.724  1.00  0.00     0.238 A 
ATOM      4  O   UNL     1      12.225  28.835  19.942  1.00  0.00    -0.285 OA
ATOM      5  C   UNL     1      11.726  30.898  20.914  1.00  0.00     0.111 A 
ATOM      6  C   UNL     1      10.514  31.144  20.200  1.00  0.00     0.134 A 
ATOM      7  C   UNL     1       9.709  32.231  20.562  1.00  0.00     0.093 A 
ATOM      8  C   UNL     1      10.105  33.118  21.567  1.00  0.00     0.123 A 
ATOM      9  C   UNL     1      11.315  32.919  22.227  1.00  0.00     0.094 A 
ATOM     10  C   UNL     1      12.121  31.823  21.914  1.00  0.00     0.146 A 
ATOM     11  O   UNL     1      13.262  31.664  22.575  1.00  0.00    -0.452 OA
ENDROOT
BRANCH   1  12
ATOM     12  C   UNL     1      15.346  30.601  23.158  1.00  0.00     0.025 A 
ATOM     13  C   UNL     1      16.256  31.666  23.068  1.00  0.00     0.016 A 
ATOM     14  C   UNL     1      17.456  31.633  23.784  1.00  0.00     0.051 A 
ATOM     15  C   UNL     1      17.771  30.532  24.586  1.00  0.00     0.157 A 
ATOM     16  C   UNL     1      15.674  29.485  23.948  1.00  0.00     0.062 A 
ATOM     17  C   UNL     1      16.879  29.450  24.665  1.00  0.00     0.158 A 
BRANCH  15  18
ATOM     18  O   UNL     1      18.975  30.529  25.289  1.00  0.00    -0.504 OA
ATOM     19  H   UNL     1      19.761  29.953  25.008  1.00  0.00     0.293 HD
ENDBRANCH  15  18
BRANCH  17  20
ATOM     20  O   UNL     1      17.193  28.343  25.452  1.00  0.00    -0.504 OA
ATOM     21  H   UNL     1      16.558  27.998  26.162  1.00  0.00     0.293 HD
ENDBRANCH  17  20
ENDBRANCH   1  12
BRANCH   2  22
ATOM     22  O   UNL     1      14.568  28.521  21.297  1.00  0.00    -0.502 OA
ATOM     23  H   UNL     1      15.200  28.206  22.022  1.00  0.00     0.293 HD
ENDBRANCH   2  22
BRANCH   6  24
ATOM     24  O   UNL     1      10.073  30.374  19.120  1.00  0.00    -0.507 OA
ATOM     25  H   UNL     1      10.537  30.320  18.226  1.00  0.00     0.293 HD
ENDBRANCH   6  24
BRANCH   8  26
ATOM     26  O   UNL     1       9.305  34.206  21.909  1.00  0.00    -0.508 OA
ATOM     27  H   UNL     1       8.517  34.108  22.539  1.00  0.00     0.293 HD
ENDBRANCH   8  26
TORSDOF 6
ENDMDL
