MODEL 1
REMARK VINA RESULT:    -3.045      0.000      0.000
REMARK INTER + INTRA:          -6.846
REMARK INTER:                  -5.181
REMARK INTRA:                  -1.665
REMARK UNBOUND:                -1.665
REMARK SMILES CC(=O)CCC[C@@H](C)CCC[C@@H](C)CCCC(C)C
REMARK SMILES IDX 10 1 11 2 12 3 13 4 14 5 15 6 16 7 17 8 18 9 19 10 9 11 7 12
REMARK SMILES IDX 8 13 6 14 5 15 4 16 2 17 3 18 1 19
REMARK H PARENT
REMARK Flexibility Score: inf
ROOT
ATOM      1  C   UNL     1     128.011 125.251 114.975  1.00  0.00     0.001 C 
ENDROOT
BRANCH   1   2
ATOM      2  C   UNL     1     128.036 126.756 115.299  1.00  0.00     0.003 C 
BRANCH   2   3
ATOM      3  C   UNL     1     128.587 127.105 116.703  1.00  0.00    -0.014 C 
ATOM      4  C   UNL     1     129.738 128.121 116.626  1.00  0.00     0.007 C 
BRANCH   3   5
ATOM      5  C   UNL     1     127.463 127.578 117.660  1.00  0.00     0.003 C 
BRANCH   5   6
ATOM      6  C   UNL     1     127.314 126.747 118.949  1.00  0.00     0.001 C 
BRANCH   6   7
ATOM      7  C   UNL     1     126.039 126.992 119.790  1.00  0.00     0.003 C 
BRANCH   7   8
ATOM      8  C   UNL     1     125.108 128.163 119.371  1.00  0.00    -0.017 C 
ATOM      9  C   UNL     1     124.880 129.190 120.489  1.00  0.00     0.007 C 
ATOM     10  C   UNL     1     123.780 127.703 118.753  1.00  0.00     0.007 C 
ENDBRANCH   7   8
ENDBRANCH   6   7
ENDBRANCH   5   6
ENDBRANCH   3   5
ENDBRANCH   2   3
ENDBRANCH   1   2
BRANCH   1  11
ATOM     11  C   UNL     1     129.169 124.527 115.689  1.00  0.00     0.003 C 
BRANCH  11  12
ATOM     12  C   UNL     1     128.745 123.395 116.660  1.00  0.00    -0.014 C 
ATOM     13  C   UNL     1     129.235 123.677 118.090  1.00  0.00     0.007 C 
BRANCH  12  14
ATOM     14  C   UNL     1     129.169 121.969 116.196  1.00  0.00     0.004 C 
BRANCH  14  15
ATOM     15  C   UNL     1     128.180 121.294 115.221  1.00  0.00     0.008 C 
BRANCH  15  16
ATOM     16  C   UNL     1     126.703 121.362 115.649  1.00  0.00     0.075 C 
BRANCH  16  17
ATOM     17  C   UNL     1     126.394 120.424 116.793  1.00  0.00     0.129 C 
ATOM     18  O   UNL     1     126.348 119.220 116.587  1.00  0.00    -0.300 OA
ATOM     19  C   UNL     1     126.154 120.936 118.184  1.00  0.00     0.087 C 
ENDBRANCH  16  17
ENDBRANCH  15  16
ENDBRANCH  14  15
ENDBRANCH  12  14
ENDBRANCH  11  12
ENDBRANCH   1  11
TORSDOF 12
ENDMDL
MODEL 2
REMARK VINA RESULT:    -2.956     11.648     15.388
REMARK INTER + INTRA:          -6.696
REMARK INTER:                  -4.895
REMARK INTRA:                  -1.801
REMARK UNBOUND:                -1.665
REMARK SMILES CC(=O)CCC[C@@H](C)CCC[C@@H](C)CCCC(C)C
REMARK SMILES IDX 10 1 11 2 12 3 13 4 14 5 15 6 16 7 17 8 18 9 19 10 9 11 7 12
REMARK SMILES IDX 8 13 6 14 5 15 4 16 2 17 3 18 1 19
REMARK H PARENT
REMARK Flexibility Score: inf
ROOT
ATOM      1  C   UNL     1     112.627 127.942 118.129  1.00  0.00     0.001 C 
ENDROOT
BRANCH   1   2
ATOM      2  C   UNL     1     113.029 129.108 117.207  1.00  0.00     0.003 C 
BRANCH   2   3
ATOM      3  C   UNL     1     112.723 128.880 115.707  1.00  0.00    -0.014 C 
ATOM      4  C   UNL     1     111.815 129.982 115.137  1.00  0.00     0.007 C 
BRANCH   3   5
ATOM      5  C   UNL     1     114.020 128.714 114.875  1.00  0.00     0.003 C 
BRANCH   5   6
ATOM      6  C   UNL     1     115.045 129.854 115.031  1.00  0.00     0.001 C 
BRANCH   6   7
ATOM      7  C   UNL     1     116.382 129.496 115.723  1.00  0.00     0.003 C 
BRANCH   7   8
ATOM      8  C   UNL     1     116.493 128.109 116.412  1.00  0.00    -0.017 C 
ATOM      9  C   UNL     1     116.916 128.192 117.885  1.00  0.00     0.007 C 
ATOM     10  C   UNL     1     117.358 127.105 115.636  1.00  0.00     0.007 C 
ENDBRANCH   7   8
ENDBRANCH   6   7
ENDBRANCH   5   6
ENDBRANCH   3   5
ENDBRANCH   2   3
ENDBRANCH   1   2
BRANCH   1  11
ATOM     11  C   UNL     1     111.496 127.113 117.488  1.00  0.00     0.003 C 
BRANCH  11  12
ATOM     12  C   UNL     1     110.178 127.049 118.302  1.00  0.00    -0.014 C 
ATOM     13  C   UNL     1     110.071 128.232 119.280  1.00  0.00     0.007 C 
BRANCH  12  14
ATOM     14  C   UNL     1     109.953 125.695 119.040  1.00  0.00     0.004 C 
BRANCH  14  15
ATOM     15  C   UNL     1     110.938 124.576 118.635  1.00  0.00     0.008 C 
BRANCH  15  16
ATOM     16  C   UNL     1     111.539 123.788 119.811  1.00  0.00     0.075 C 
BRANCH  16  17
ATOM     17  C   UNL     1     112.140 124.693 120.862  1.00  0.00     0.129 C 
ATOM     18  O   UNL     1     111.550 124.859 121.920  1.00  0.00    -0.300 OA
ATOM     19  C   UNL     1     113.453 125.387 120.643  1.00  0.00     0.087 C 
ENDBRANCH  16  17
ENDBRANCH  15  16
ENDBRANCH  14  15
ENDBRANCH  12  14
ENDBRANCH  11  12
ENDBRANCH   1  11
TORSDOF 12
ENDMDL
MODEL 3
REMARK VINA RESULT:    -2.924      2.446      6.184
REMARK INTER + INTRA:          -6.641
REMARK INTER:                  -4.653
REMARK INTRA:                  -1.987
REMARK UNBOUND:                -1.665
REMARK SMILES CC(=O)CCC[C@@H](C)CCC[C@@H](C)CCCC(C)C
REMARK SMILES IDX 10 1 11 2 12 3 13 4 14 5 15 6 16 7 17 8 18 9 19 10 9 11 7 12
REMARK SMILES IDX 8 13 6 14 5 15 4 16 2 17 3 18 1 19
REMARK H PARENT
REMARK Flexibility Score: inf
ROOT
ATOM      1  C   UNL     1     126.903 128.137 118.453  1.00  0.00     0.001 C 
ENDROOT
BRANCH   1   2
ATOM      2  C   UNL     1     127.298 127.167 117.324  1.00  0.00     0.003 C 
BRANCH   2   3
ATOM      3  C   UNL     1     128.651 127.486 116.643  1.00  0.00    -0.014 C 
ATOM      4  C   UNL     1     129.842 127.117 117.543  1.00  0.00     0.007 C 
BRANCH   3   5
ATOM      5  C   UNL     1     128.759 126.829 115.243  1.00  0.00     0.003 C 
BRANCH   5   6
ATOM      6  C   UNL     1     128.165 125.411 115.142  1.00  0.00     0.001 C 
BRANCH   6   7
ATOM      7  C   UNL     1     129.168 124.234 115.177  1.00  0.00     0.003 C 
BRANCH   7   8
ATOM      8  C   UNL     1     128.907 123.090 116.195  1.00  0.00    -0.017 C 
ATOM      9  C   UNL     1     127.787 122.133 115.762  1.00  0.00     0.007 C 
ATOM     10  C   UNL     1     128.698 123.582 117.634  1.00  0.00     0.007 C 
ENDBRANCH   7   8
ENDBRANCH   6   7
ENDBRANCH   5   6
ENDBRANCH   3   5
ENDBRANCH   2   3
ENDBRANCH   1   2
BRANCH   1  11
ATOM     11  C   UNL     1     125.479 128.681 118.222  1.00  0.00     0.003 C 
BRANCH  11  12
ATOM     12  C   UNL     1     124.418 128.220 119.254  1.00  0.00    -0.014 C 
ATOM     13  C   UNL     1     124.773 128.705 120.670  1.00  0.00     0.007 C 
BRANCH  12  14
ATOM     14  C   UNL     1     124.147 126.686 119.242  1.00  0.00     0.004 C 
BRANCH  14  15
ATOM     15  C   UNL     1     124.435 125.976 120.584  1.00  0.00     0.008 C 
BRANCH  15  16
ATOM     16  C   UNL     1     125.660 125.046 120.574  1.00  0.00     0.075 C 
BRANCH  16  17
ATOM     17  C   UNL     1     126.823 125.622 121.348  1.00  0.00     0.129 C 
ATOM     18  O   UNL     1     126.632 126.087 122.462  1.00  0.00    -0.300 OA
ATOM     19  C   UNL     1     128.216 125.625 120.788  1.00  0.00     0.087 C 
ENDBRANCH  16  17
ENDBRANCH  15  16
ENDBRANCH  14  15
ENDBRANCH  12  14
ENDBRANCH  11  12
ENDBRANCH   1  11
TORSDOF 12
ENDMDL
MODEL 4
REMARK VINA RESULT:    -2.909      4.733      8.256
REMARK INTER + INTRA:          -6.615
REMARK INTER:                  -5.059
REMARK INTRA:                  -1.556
REMARK UNBOUND:                -1.665
REMARK SMILES CC(=O)CCC[C@@H](C)CCC[C@@H](C)CCCC(C)C
REMARK SMILES IDX 10 1 11 2 12 3 13 4 14 5 15 6 16 7 17 8 18 9 19 10 9 11 7 12
REMARK SMILES IDX 8 13 6 14 5 15 4 16 2 17 3 18 1 19
REMARK H PARENT
REMARK Flexibility Score: inf
ROOT
ATOM      1  C   UNL     1     120.648 125.658 119.492  1.00  0.00     0.001 C 
ENDROOT
BRANCH   1   2
ATOM      2  C   UNL     1     119.695 125.353 118.322  1.00  0.00     0.003 C 
BRANCH   2   3
ATOM      3  C   UNL     1     120.380 125.268 116.937  1.00  0.00    -0.014 C 
ATOM      4  C   UNL     1     119.862 124.075 116.117  1.00  0.00     0.007 C 
BRANCH   3   5
ATOM      5  C   UNL     1     120.260 126.601 116.154  1.00  0.00     0.003 C 
BRANCH   5   6
ATOM      6  C   UNL     1     119.134 126.641 115.103  1.00  0.00     0.001 C 
BRANCH   6   7
ATOM      7  C   UNL     1     117.823 127.349 115.517  1.00  0.00     0.003 C 
BRANCH   7   8
ATOM      8  C   UNL     1     117.883 128.351 116.703  1.00  0.00    -0.017 C 
ATOM      9  C   UNL     1     117.060 127.904 117.920  1.00  0.00     0.007 C 
ATOM     10  C   UNL     1     117.555 129.797 116.305  1.00  0.00     0.007 C 
ENDBRANCH   7   8
ENDBRANCH   6   7
ENDBRANCH   5   6
ENDBRANCH   3   5
ENDBRANCH   2   3
ENDBRANCH   1   2
BRANCH   1  11
ATOM     11  C   UNL     1     122.096 125.282 119.120  1.00  0.00     0.003 C 
BRANCH  11  12
ATOM     12  C   UNL     1     123.189 126.233 119.671  1.00  0.00    -0.014 C 
ATOM     13  C   UNL     1     122.729 126.914 120.972  1.00  0.00     0.007 C 
BRANCH  12  14
ATOM     14  C   UNL     1     123.694 127.286 118.640  1.00  0.00     0.004 C 
BRANCH  14  15
ATOM     15  C   UNL     1     124.483 128.460 119.260  1.00  0.00     0.008 C 
BRANCH  15  16
ATOM     16  C   UNL     1     125.753 128.864 118.490  1.00  0.00     0.075 C 
BRANCH  16  17
ATOM     17  C   UNL     1     126.766 127.744 118.427  1.00  0.00     0.129 C 
ATOM     18  O   UNL     1     127.136 127.212 119.463  1.00  0.00    -0.300 OA
ATOM     19  C   UNL     1     127.320 127.260 117.119  1.00  0.00     0.087 C 
ENDBRANCH  16  17
ENDBRANCH  15  16
ENDBRANCH  14  15
ENDBRANCH  12  14
ENDBRANCH  11  12
ENDBRANCH   1  11
TORSDOF 12
ENDMDL
MODEL 5
REMARK VINA RESULT:    -2.907      2.631      6.162
REMARK INTER + INTRA:          -6.611
REMARK INTER:                  -4.739
REMARK INTRA:                  -1.872
REMARK UNBOUND:                -1.665
REMARK SMILES CC(=O)CCC[C@@H](C)CCC[C@@H](C)CCCC(C)C
REMARK SMILES IDX 10 1 11 2 12 3 13 4 14 5 15 6 16 7 17 8 18 9 19 10 9 11 7 12
REMARK SMILES IDX 8 13 6 14 5 15 4 16 2 17 3 18 1 19
REMARK H PARENT
REMARK Flexibility Score: inf
ROOT
ATOM      1  C   UNL     1     127.976 126.378 115.387  1.00  0.00     0.001 C 
ENDROOT
BRANCH   1   2
ATOM      2  C   UNL     1     128.804 125.157 114.945  1.00  0.00     0.003 C 
BRANCH   2   3
ATOM      3  C   UNL     1     128.894 124.023 115.994  1.00  0.00    -0.014 C 
ATOM      4  C   UNL     1     128.971 122.638 115.331  1.00  0.00     0.007 C 
BRANCH   3   5
ATOM      5  C   UNL     1     130.060 124.253 116.990  1.00  0.00     0.003 C 
BRANCH   5   6
ATOM      6  C   UNL     1     129.751 123.875 118.452  1.00  0.00     0.001 C 
BRANCH   6   7
ATOM      7  C   UNL     1     128.259 123.838 118.860  1.00  0.00     0.003 C 
BRANCH   7   8
ATOM      8  C   UNL     1     127.707 122.519 119.466  1.00  0.00    -0.017 C 
ATOM      9  C   UNL     1     128.754 121.731 120.266  1.00  0.00     0.007 C 
ATOM     10  C   UNL     1     126.992 121.624 118.444  1.00  0.00     0.007 C 
ENDBRANCH   7   8
ENDBRANCH   6   7
ENDBRANCH   5   6
ENDBRANCH   3   5
ENDBRANCH   2   3
ENDBRANCH   1   2
BRANCH   1  11
ATOM     11  C   UNL     1     128.869 127.396 116.123  1.00  0.00     0.003 C 
BRANCH  11  12
ATOM     12  C   UNL     1     128.327 127.886 117.491  1.00  0.00    -0.014 C 
ATOM     13  C   UNL     1     129.301 127.541 118.630  1.00  0.00     0.007 C 
BRANCH  12  14
ATOM     14  C   UNL     1     126.888 127.385 117.818  1.00  0.00     0.004 C 
BRANCH  14  15
ATOM     15  C   UNL     1     125.891 128.506 118.190  1.00  0.00     0.008 C 
BRANCH  15  16
ATOM     16  C   UNL     1     124.548 128.015 118.758  1.00  0.00     0.075 C 
BRANCH  16  17
ATOM     17  C   UNL     1     124.349 128.428 120.198  1.00  0.00     0.129 C 
ATOM     18  O   UNL     1     123.620 127.762 120.919  1.00  0.00    -0.300 OA
ATOM     19  C   UNL     1     125.036 129.633 120.771  1.00  0.00     0.087 C 
ENDBRANCH  16  17
ENDBRANCH  15  16
ENDBRANCH  14  15
ENDBRANCH  12  14
ENDBRANCH  11  12
ENDBRANCH   1  11
TORSDOF 12
ENDMDL
MODEL 6
REMARK VINA RESULT:    -2.907     10.513     14.099
REMARK INTER + INTRA:          -6.611
REMARK INTER:                  -5.224
REMARK INTRA:                  -1.387
REMARK UNBOUND:                -1.665
REMARK SMILES CC(=O)CCC[C@@H](C)CCC[C@@H](C)CCCC(C)C
REMARK SMILES IDX 10 1 11 2 12 3 13 4 14 5 15 6 16 7 17 8 18 9 19 10 9 11 7 12
REMARK SMILES IDX 8 13 6 14 5 15 4 16 2 17 3 18 1 19
REMARK H PARENT
REMARK Flexibility Score: inf
ROOT
ATOM      1  C   UNL     1     114.018 128.473 115.143  1.00  0.00     0.001 C 
ENDROOT
BRANCH   1   2
ATOM      2  C   UNL     1     112.489 128.332 115.263  1.00  0.00     0.003 C 
BRANCH   2   3
ATOM      3  C   UNL     1     111.922 128.627 116.672  1.00  0.00    -0.014 C 
ATOM      4  C   UNL     1     110.831 129.710 116.632  1.00  0.00     0.007 C 
BRANCH   3   5
ATOM      5  C   UNL     1     111.428 127.337 117.375  1.00  0.00     0.003 C 
BRANCH   5   6
ATOM      6  C   UNL     1     112.183 126.969 118.667  1.00  0.00     0.001 C 
BRANCH   6   7
ATOM      7  C   UNL     1     111.334 126.404 119.830  1.00  0.00     0.003 C 
BRANCH   7   8
ATOM      8  C   UNL     1     110.573 125.071 119.591  1.00  0.00    -0.017 C 
ATOM      9  C   UNL     1     109.876 124.534 120.848  1.00  0.00     0.007 C 
ATOM     10  C   UNL     1     111.427 123.988 118.917  1.00  0.00     0.007 C 
ENDBRANCH   7   8
ENDBRANCH   6   7
ENDBRANCH   5   6
ENDBRANCH   3   5
ENDBRANCH   2   3
ENDBRANCH   1   2
BRANCH   1  11
ATOM     11  C   UNL     1     114.594 129.170 116.392  1.00  0.00     0.003 C 
BRANCH  11  12
ATOM     12  C   UNL     1     115.821 128.472 117.033  1.00  0.00    -0.014 C 
ATOM     13  C   UNL     1     115.748 128.521 118.569  1.00  0.00     0.007 C 
BRANCH  12  14
ATOM     14  C   UNL     1     117.193 129.006 116.524  1.00  0.00     0.004 C 
BRANCH  14  15
ATOM     15  C   UNL     1     117.757 128.250 115.299  1.00  0.00     0.008 C 
BRANCH  15  16
ATOM     16  C   UNL     1     117.526 126.729 115.316  1.00  0.00     0.075 C 
BRANCH  16  17
ATOM     17  C   UNL     1     118.818 125.955 115.442  1.00  0.00     0.129 C 
ATOM     18  O   UNL     1     118.861 124.794 115.062  1.00  0.00    -0.300 OA
ATOM     19  C   UNL     1     120.057 126.582 116.011  1.00  0.00     0.087 C 
ENDBRANCH  16  17
ENDBRANCH  15  16
ENDBRANCH  14  15
ENDBRANCH  12  14
ENDBRANCH  11  12
ENDBRANCH   1  11
TORSDOF 12
ENDMDL
MODEL 7
REMARK VINA RESULT:    -2.884     10.339     14.070
REMARK INTER + INTRA:          -6.572
REMARK INTER:                  -5.233
REMARK INTRA:                  -1.339
REMARK UNBOUND:                -1.665
REMARK SMILES CC(=O)CCC[C@@H](C)CCC[C@@H](C)CCCC(C)C
REMARK SMILES IDX 10 1 11 2 12 3 13 4 14 5 15 6 16 7 17 8 18 9 19 10 9 11 7 12
REMARK SMILES IDX 8 13 6 14 5 15 4 16 2 17 3 18 1 19
REMARK H PARENT
REMARK Flexibility Score: inf
ROOT
ATOM      1  C   UNL     1     113.979 130.077 115.145  1.00  0.00     0.001 C 
ENDROOT
BRANCH   1   2
ATOM      2  C   UNL     1     115.135 129.064 115.236  1.00  0.00     0.003 C 
BRANCH   2   3
ATOM      3  C   UNL     1     116.153 129.347 116.367  1.00  0.00    -0.014 C 
ATOM      4  C   UNL     1     115.591 128.969 117.748  1.00  0.00     0.007 C 
BRANCH   3   5
ATOM      5  C   UNL     1     117.519 128.666 116.094  1.00  0.00     0.003 C 
BRANCH   5   6
ATOM      6  C   UNL     1     117.434 127.276 115.436  1.00  0.00     0.001 C 
BRANCH   6   7
ATOM      7  C   UNL     1     118.561 126.274 115.781  1.00  0.00     0.003 C 
BRANCH   7   8
ATOM      8  C   UNL     1     119.125 126.288 117.228  1.00  0.00    -0.017 C 
ATOM      9  C   UNL     1     120.361 125.395 117.409  1.00  0.00     0.007 C 
ATOM     10  C   UNL     1     118.067 126.004 118.304  1.00  0.00     0.007 C 
ENDBRANCH   7   8
ENDBRANCH   6   7
ENDBRANCH   5   6
ENDBRANCH   3   5
ENDBRANCH   2   3
ENDBRANCH   1   2
BRANCH   1  11
ATOM     11  C   UNL     1     112.646 129.350 114.876  1.00  0.00     0.003 C 
BRANCH  11  12
ATOM     12  C   UNL     1     111.785 129.060 116.132  1.00  0.00    -0.014 C 
ATOM     13  C   UNL     1     112.054 130.091 117.241  1.00  0.00     0.007 C 
BRANCH  12  14
ATOM     14  C   UNL     1     111.927 127.607 116.677  1.00  0.00     0.004 C 
BRANCH  14  15
ATOM     15  C   UNL     1     111.188 127.350 118.009  1.00  0.00     0.008 C 
BRANCH  15  16
ATOM     16  C   UNL     1     110.735 125.895 118.226  1.00  0.00     0.075 C 
BRANCH  16  17
ATOM     17  C   UNL     1     111.732 125.098 119.034  1.00  0.00     0.129 C 
ATOM     18  O   UNL     1     112.502 125.682 119.783  1.00  0.00    -0.300 OA
ATOM     19  C   UNL     1     111.793 123.600 118.950  1.00  0.00     0.087 C 
ENDBRANCH  16  17
ENDBRANCH  15  16
ENDBRANCH  14  15
ENDBRANCH  12  14
ENDBRANCH  11  12
ENDBRANCH   1  11
TORSDOF 12
ENDMDL
MODEL 8
REMARK VINA RESULT:    -2.854     12.690     15.318
REMARK INTER + INTRA:          -6.522
REMARK INTER:                  -4.203
REMARK INTRA:                  -2.319
REMARK UNBOUND:                -1.665
REMARK SMILES CC(=O)CCC[C@@H](C)CCC[C@@H](C)CCCC(C)C
REMARK SMILES IDX 10 1 11 2 12 3 13 4 14 5 15 6 16 7 17 8 18 9 19 10 9 11 7 12
REMARK SMILES IDX 8 13 6 14 5 15 4 16 2 17 3 18 1 19
REMARK H PARENT
REMARK Flexibility Score: inf
ROOT
ATOM      1  C   UNL     1     112.238 128.612 115.753  1.00  0.00     0.001 C 
ENDROOT
BRANCH   1   2
ATOM      2  C   UNL     1     113.663 128.371 115.219  1.00  0.00     0.003 C 
BRANCH   2   3
ATOM      3  C   UNL     1     114.791 128.664 116.237  1.00  0.00    -0.014 C 
ATOM      4  C   UNL     1     116.146 128.875 115.540  1.00  0.00     0.007 C 
BRANCH   3   5
ATOM      5  C   UNL     1     114.431 129.849 117.169  1.00  0.00     0.003 C 
BRANCH   5   6
ATOM      6  C   UNL     1     114.434 129.519 118.674  1.00  0.00     0.001 C 
BRANCH   6   7
ATOM      7  C   UNL     1     114.715 128.047 119.061  1.00  0.00     0.003 C 
BRANCH   7   8
ATOM      8  C   UNL     1     113.714 127.346 120.019  1.00  0.00    -0.017 C 
ATOM      9  C   UNL     1     113.051 128.306 121.017  1.00  0.00     0.007 C 
ATOM     10  C   UNL     1     114.298 126.116 120.728  1.00  0.00     0.007 C 
ENDBRANCH   7   8
ENDBRANCH   6   7
ENDBRANCH   5   6
ENDBRANCH   3   5
ENDBRANCH   2   3
ENDBRANCH   1   2
BRANCH   1  11
ATOM     11  C   UNL     1     111.836 127.496 116.737  1.00  0.00     0.003 C 
BRANCH  11  12
ATOM     12  C   UNL     1     110.640 127.831 117.665  1.00  0.00    -0.014 C 
ATOM     13  C   UNL     1     110.726 129.277 118.183  1.00  0.00     0.007 C 
BRANCH  12  14
ATOM     14  C   UNL     1     110.450 126.829 118.842  1.00  0.00     0.004 C 
BRANCH  14  15
ATOM     15  C   UNL     1     110.362 125.347 118.411  1.00  0.00     0.008 C 
BRANCH  15  16
ATOM     16  C   UNL     1     111.560 124.479 118.835  1.00  0.00     0.075 C 
BRANCH  16  17
ATOM     17  C   UNL     1     111.335 123.802 120.167  1.00  0.00     0.129 C 
ATOM     18  O   UNL     1     112.028 122.845 120.478  1.00  0.00    -0.300 OA
ATOM     19  C   UNL     1     110.287 124.286 121.127  1.00  0.00     0.087 C 
ENDBRANCH  16  17
ENDBRANCH  15  16
ENDBRANCH  14  15
ENDBRANCH  12  14
ENDBRANCH  11  12
ENDBRANCH   1  11
TORSDOF 12
ENDMDL
MODEL 9
REMARK VINA RESULT:    -2.827      1.777      3.728
REMARK INTER + INTRA:          -6.475
REMARK INTER:                  -4.630
REMARK INTRA:                  -1.846
REMARK UNBOUND:                -1.665
REMARK SMILES CC(=O)CCC[C@@H](C)CCC[C@@H](C)CCCC(C)C
REMARK SMILES IDX 10 1 11 2 12 3 13 4 14 5 15 6 16 7 17 8 18 9 19 10 9 11 7 12
REMARK SMILES IDX 8 13 6 14 5 15 4 16 2 17 3 18 1 19
REMARK H PARENT
REMARK Flexibility Score: inf
ROOT
ATOM      1  C   UNL     1     127.123 127.228 117.766  1.00  0.00     0.001 C 
ENDROOT
BRANCH   1   2
ATOM      2  C   UNL     1     127.073 128.699 118.221  1.00  0.00     0.003 C 
BRANCH   2   3
ATOM      3  C   UNL     1     125.667 129.202 118.627  1.00  0.00    -0.014 C 
ATOM      4  C   UNL     1     124.622 128.074 118.578  1.00  0.00     0.007 C 
BRANCH   3   5
ATOM      5  C   UNL     1     125.686 129.911 120.005  1.00  0.00     0.003 C 
BRANCH   5   6
ATOM      6  C   UNL     1     126.723 129.365 121.004  1.00  0.00     0.001 C 
BRANCH   6   7
ATOM      7  C   UNL     1     126.261 128.211 121.925  1.00  0.00     0.003 C 
BRANCH   7   8
ATOM      8  C   UNL     1     127.028 126.863 121.838  1.00  0.00    -0.017 C 
ATOM      9  C   UNL     1     128.469 127.014 121.330  1.00  0.00     0.007 C 
ATOM     10  C   UNL     1     126.272 125.774 121.063  1.00  0.00     0.007 C 
ENDBRANCH   7   8
ENDBRANCH   6   7
ENDBRANCH   5   6
ENDBRANCH   3   5
ENDBRANCH   2   3
ENDBRANCH   1   2
BRANCH   1  11
ATOM     11  C   UNL     1     128.583 126.770 117.584  1.00  0.00     0.003 C 
BRANCH  11  12
ATOM     12  C   UNL     1     129.059 126.643 116.114  1.00  0.00    -0.014 C 
ATOM     13  C   UNL     1     127.866 126.619 115.144  1.00  0.00     0.007 C 
BRANCH  12  14
ATOM     14  C   UNL     1     130.011 125.436 115.857  1.00  0.00     0.004 C 
BRANCH  14  15
ATOM     15  C   UNL     1     129.426 124.350 114.926  1.00  0.00     0.008 C 
BRANCH  15  16
ATOM     16  C   UNL     1     130.123 122.981 115.014  1.00  0.00     0.075 C 
BRANCH  16  17
ATOM     17  C   UNL     1     129.292 121.961 115.759  1.00  0.00     0.129 C 
ATOM     18  O   UNL     1     129.852 121.086 116.402  1.00  0.00    -0.300 OA
ATOM     19  C   UNL     1     127.792 122.006 115.740  1.00  0.00     0.087 C 
ENDBRANCH  16  17
ENDBRANCH  15  16
ENDBRANCH  14  15
ENDBRANCH  12  14
ENDBRANCH  11  12
ENDBRANCH   1  11
TORSDOF 12
ENDMDL
