MODEL 1
REMARK VINA RESULT:    -2.941      0.000      0.000
REMARK INTER + INTRA:          -3.126
REMARK INTER:                  -3.113
REMARK INTRA:                  -0.012
REMARK UNBOUND:                -0.012
REMARK SMILES O=Cc1ccco1
REMARK SMILES IDX 5 1 6 2 7 3 3 4 4 5 2 6 1 7
REMARK H PARENT
REMARK Flexibility Score: inf
ROOT
ATOM      1  C   UNL     1       8.034   6.861  44.517  1.00  0.00     0.043 A 
ATOM      2  C   UNL     1       8.824   7.992  44.566  1.00  0.00     0.196 A 
ATOM      3  O   UNL     1       9.615   8.025  43.518  1.00  0.00    -0.462 OA
ATOM      4  C   UNL     1       9.381   6.964  42.783  1.00  0.00     0.166 A 
ATOM      5  C   UNL     1       8.393   6.194  43.365  1.00  0.00     0.054 A 
ENDROOT
BRANCH   4   6
ATOM      6  C   UNL     1      10.083   6.669  41.532  1.00  0.00     0.298 C 
ATOM      7  O   UNL     1      11.328   6.475  41.524  1.00  0.00    -0.294 OA
ENDBRANCH   4   6
TORSDOF 1
ENDMDL
MODEL 2
REMARK VINA RESULT:    -2.663      9.570     10.805
REMARK INTER + INTRA:          -2.831
REMARK INTER:                  -2.820
REMARK INTRA:                  -0.011
REMARK UNBOUND:                -0.012
REMARK SMILES O=Cc1ccco1
REMARK SMILES IDX 5 1 6 2 7 3 3 4 4 5 2 6 1 7
REMARK H PARENT
REMARK Flexibility Score: inf
ROOT
ATOM      1  C   UNL     1       6.461  -1.310  35.129  1.00  0.00     0.043 A 
ATOM      2  C   UNL     1       7.770  -1.299  34.689  1.00  0.00     0.196 A 
ATOM      3  O   UNL     1       8.562  -0.915  35.663  1.00  0.00    -0.462 OA
ATOM      4  C   UNL     1       7.830  -0.672  36.726  1.00  0.00     0.166 A 
ATOM      5  C   UNL     1       6.498  -0.904  36.446  1.00  0.00     0.054 A 
ENDROOT
BRANCH   4   6
ATOM      6  C   UNL     1       8.379  -0.222  38.007  1.00  0.00     0.298 C 
ATOM      7  O   UNL     1       8.811  -1.053  38.849  1.00  0.00    -0.294 OA
ENDBRANCH   4   6
TORSDOF 1
ENDMDL
MODEL 3
REMARK VINA RESULT:    -2.651     13.019     13.884
REMARK INTER + INTRA:          -2.819
REMARK INTER:                  -2.803
REMARK INTRA:                  -0.016
REMARK UNBOUND:                -0.012
REMARK SMILES O=Cc1ccco1
REMARK SMILES IDX 5 1 6 2 7 3 3 4 4 5 2 6 1 7
REMARK H PARENT
REMARK Flexibility Score: inf
ROOT
ATOM      1  C   UNL     1      10.819   0.929  30.294  1.00  0.00     0.043 A 
ATOM      2  C   UNL     1      10.286   1.520  31.423  1.00  0.00     0.196 A 
ATOM      3  O   UNL     1       9.707   0.607  32.169  1.00  0.00    -0.462 OA
ATOM      4  C   UNL     1       9.835  -0.558  31.579  1.00  0.00     0.166 A 
ATOM      5  C   UNL     1      10.527  -0.415  30.392  1.00  0.00     0.054 A 
ENDROOT
BRANCH   4   6
ATOM      6  C   UNL     1       9.307  -1.810  32.127  1.00  0.00     0.298 C 
ATOM      7  O   UNL     1       8.786  -1.840  33.273  1.00  0.00    -0.294 OA
ENDBRANCH   4   6
TORSDOF 1
ENDMDL
MODEL 4
REMARK VINA RESULT:    -2.611     11.252     12.341
REMARK INTER + INTRA:          -2.776
REMARK INTER:                  -2.761
REMARK INTRA:                  -0.015
REMARK UNBOUND:                -0.012
REMARK SMILES O=Cc1ccco1
REMARK SMILES IDX 5 1 6 2 7 3 3 4 4 5 2 6 1 7
REMARK H PARENT
REMARK Flexibility Score: inf
ROOT
ATOM      1  C   UNL     1       7.713  -0.573  36.335  1.00  0.00     0.043 A 
ATOM      2  C   UNL     1       6.512  -0.994  35.799  1.00  0.00     0.196 A 
ATOM      3  O   UNL     1       6.737  -1.762  34.759  1.00  0.00    -0.462 OA
ATOM      4  C   UNL     1       8.034  -1.865  34.587  1.00  0.00     0.166 A 
ATOM      5  C   UNL     1       8.699  -1.134  35.553  1.00  0.00     0.054 A 
ENDROOT
BRANCH   4   6
ATOM      6  C   UNL     1       8.654  -2.648  33.515  1.00  0.00     0.298 C 
ATOM      7  O   UNL     1       8.080  -3.668  33.051  1.00  0.00    -0.294 OA
ENDBRANCH   4   6
TORSDOF 1
ENDMDL
MODEL 5
REMARK VINA RESULT:    -2.567     10.330     11.359
REMARK INTER + INTRA:          -2.729
REMARK INTER:                  -2.715
REMARK INTRA:                  -0.015
REMARK UNBOUND:                -0.012
REMARK SMILES O=Cc1ccco1
REMARK SMILES IDX 5 1 6 2 7 3 3 4 4 5 2 6 1 7
REMARK H PARENT
REMARK Flexibility Score: inf
ROOT
ATOM      1  C   UNL     1       6.172  -1.030  36.403  1.00  0.00     0.043 A 
ATOM      2  C   UNL     1       7.347  -0.545  36.944  1.00  0.00     0.196 A 
ATOM      3  O   UNL     1       8.312  -0.633  36.057  1.00  0.00    -0.462 OA
ATOM      4  C   UNL     1       7.823  -1.156  34.957  1.00  0.00     0.166 A 
ATOM      5  C   UNL     1       6.478  -1.427  35.119  1.00  0.00     0.054 A 
ENDROOT
BRANCH   4   6
ATOM      6  C   UNL     1       8.617  -1.405  33.751  1.00  0.00     0.298 C 
ATOM      7  O   UNL     1       9.589  -0.659  33.457  1.00  0.00    -0.294 OA
ENDBRANCH   4   6
TORSDOF 1
ENDMDL
MODEL 6
REMARK VINA RESULT:    -2.563     13.008     13.654
REMARK INTER + INTRA:          -2.725
REMARK INTER:                  -2.709
REMARK INTRA:                  -0.016
REMARK UNBOUND:                -0.012
REMARK SMILES O=Cc1ccco1
REMARK SMILES IDX 5 1 6 2 7 3 3 4 4 5 2 6 1 7
REMARK H PARENT
REMARK Flexibility Score: inf
ROOT
ATOM      1  C   UNL     1       8.396  -2.382  34.445  1.00  0.00     0.043 A 
ATOM      2  C   UNL     1       8.542  -3.252  33.382  1.00  0.00     0.196 A 
ATOM      3  O   UNL     1       8.961  -2.593  32.326  1.00  0.00    -0.462 OA
ATOM      4  C   UNL     1       9.095  -1.328  32.648  1.00  0.00     0.166 A 
ATOM      5  C   UNL     1       8.752  -1.137  33.973  1.00  0.00     0.054 A 
ENDROOT
BRANCH   4   6
ATOM      6  C   UNL     1       9.545  -0.293  31.714  1.00  0.00     0.298 C 
ATOM      7  O   UNL     1      10.178  -0.602  30.670  1.00  0.00    -0.294 OA
ENDBRANCH   4   6
TORSDOF 1
ENDMDL
MODEL 7
REMARK VINA RESULT:    -2.544     11.765     13.227
REMARK INTER + INTRA:          -2.705
REMARK INTER:                  -2.690
REMARK INTRA:                  -0.015
REMARK UNBOUND:                -0.012
REMARK SMILES O=Cc1ccco1
REMARK SMILES IDX 5 1 6 2 7 3 3 4 4 5 2 6 1 7
REMARK H PARENT
REMARK Flexibility Score: inf
ROOT
ATOM      1  C   UNL     1       9.289  -2.105  32.659  1.00  0.00     0.043 A 
ATOM      2  C   UNL     1       8.702  -3.279  33.091  1.00  0.00     0.196 A 
ATOM      3  O   UNL     1       7.919  -3.031  34.115  1.00  0.00    -0.462 OA
ATOM      4  C   UNL     1       7.965  -1.746  34.377  1.00  0.00     0.166 A 
ATOM      5  C   UNL     1       8.814  -1.113  33.490  1.00  0.00     0.054 A 
ENDROOT
BRANCH   4   6
ATOM      6  C   UNL     1       7.214  -1.108  35.460  1.00  0.00     0.298 C 
ATOM      7  O   UNL     1       6.070  -1.526  35.782  1.00  0.00    -0.294 OA
ENDBRANCH   4   6
TORSDOF 1
ENDMDL
MODEL 8
REMARK VINA RESULT:    -2.519     12.446     12.957
REMARK INTER + INTRA:          -2.679
REMARK INTER:                  -2.668
REMARK INTRA:                  -0.011
REMARK UNBOUND:                -0.012
REMARK SMILES O=Cc1ccco1
REMARK SMILES IDX 5 1 6 2 7 3 3 4 4 5 2 6 1 7
REMARK H PARENT
REMARK Flexibility Score: inf
ROOT
ATOM      1  C   UNL     1      10.191   0.511  31.272  1.00  0.00     0.043 A 
ATOM      2  C   UNL     1      11.094   0.529  32.317  1.00  0.00     0.196 A 
ATOM      3  O   UNL     1      10.625  -0.179  33.319  1.00  0.00    -0.462 OA
ATOM      4  C   UNL     1       9.453  -0.661  32.979  1.00  0.00     0.166 A 
ATOM      5  C   UNL     1       9.129  -0.257  31.698  1.00  0.00     0.054 A 
ENDROOT
BRANCH   4   6
ATOM      6  C   UNL     1       8.633  -1.501  33.854  1.00  0.00     0.298 C 
ATOM      7  O   UNL     1       8.053  -1.009  34.858  1.00  0.00    -0.294 OA
ENDBRANCH   4   6
TORSDOF 1
ENDMDL
MODEL 9
REMARK VINA RESULT:    -2.515     11.000     11.875
REMARK INTER + INTRA:          -2.674
REMARK INTER:                  -2.664
REMARK INTRA:                  -0.010
REMARK UNBOUND:                -0.012
REMARK SMILES O=Cc1ccco1
REMARK SMILES IDX 5 1 6 2 7 3 3 4 4 5 2 6 1 7
REMARK H PARENT
REMARK Flexibility Score: inf
ROOT
ATOM      1  C   UNL     1       7.538  -1.686  34.768  1.00  0.00     0.043 A 
ATOM      2  C   UNL     1       8.229  -2.263  35.815  1.00  0.00     0.196 A 
ATOM      3  O   UNL     1       7.510  -2.194  36.911  1.00  0.00    -0.462 OA
ATOM      4  C   UNL     1       6.376  -1.595  36.631  1.00  0.00     0.166 A 
ATOM      5  C   UNL     1       6.340  -1.253  35.293  1.00  0.00     0.054 A 
ENDROOT
BRANCH   4   6
ATOM      6  C   UNL     1       5.322  -1.343  37.617  1.00  0.00     0.298 C 
ATOM      7  O   UNL     1       4.360  -2.145  37.749  1.00  0.00    -0.294 OA
ENDBRANCH   4   6
TORSDOF 1
ENDMDL
