MODEL 1
REMARK VINA RESULT:    -3.497      0.000      0.000
REMARK INTER + INTRA:          -6.450
REMARK INTER:                  -4.724
REMARK INTRA:                  -1.726
REMARK UNBOUND:                -1.726
REMARK SMILES C=CC(C)=CCC=C(C)CCC=C(C)C
REMARK SMILES IDX 8 1 7 2 9 3 10 4 11 5 12 6 14 7 13 8 15 9 6 10 5 11 3 12
REMARK SMILES IDX 4 13 2 14 1 15
REMARK H PARENT
REMARK Flexibility Score: inf
ROOT
ATOM      1  C   UNL     1     146.639 143.493 132.754  1.00  0.00    -0.077 C 
ATOM      2  C   UNL     1     145.538 143.112 132.065  1.00  0.00    -0.024 C 
ATOM      3  C   UNL     1     147.992 143.173 132.169  1.00  0.00     0.039 C 
ENDROOT
BRANCH   1   4
ATOM      4  C   UNL     1     146.581 144.208 134.092  1.00  0.00     0.034 C 
BRANCH   4   5
ATOM      5  C   UNL     1     147.297 145.566 134.052  1.00  0.00     0.032 C 
BRANCH   5   6
ATOM      6  C   UNL     1     147.238 146.180 132.674  1.00  0.00    -0.028 C 
ATOM      7  C   UNL     1     145.817 148.115 133.388  1.00  0.00     0.039 C 
ATOM      8  C   UNL     1     146.559 147.303 132.354  1.00  0.00    -0.080 C 
ATOM      9  C   UNL     1     146.549 147.748 130.914  1.00  0.00     0.039 C 
ENDBRANCH   5   6
ENDBRANCH   4   5
ENDBRANCH   1   4
BRANCH   2  10
ATOM     10  C   UNL     1     144.118 143.386 132.490  1.00  0.00     0.055 C 
BRANCH  10  11
ATOM     11  C   UNL     1     143.604 144.670 131.889  1.00  0.00    -0.020 C 
ATOM     12  C   UNL     1     143.277 145.757 132.615  1.00  0.00    -0.055 C 
ATOM     13  C   UNL     1     143.386 145.766 134.124  1.00  0.00     0.044 C 
BRANCH  12  14
ATOM     14  C   UNL     1     142.731 146.936 131.894  1.00  0.00    -0.005 C 
ATOM     15  C   UNL     1     142.815 147.096 130.573  1.00  0.00     0.009 C 
ENDBRANCH  12  14
ENDBRANCH  10  11
ENDBRANCH   2  10
TORSDOF 6
ENDMDL
MODEL 2
REMARK VINA RESULT:    -3.497      1.591      3.286
REMARK INTER + INTRA:          -6.449
REMARK INTER:                  -5.104
REMARK INTRA:                  -1.346
REMARK UNBOUND:                -1.726
REMARK SMILES C=CC(C)=CCC=C(C)CCC=C(C)C
REMARK SMILES IDX 8 1 7 2 9 3 10 4 11 5 12 6 14 7 13 8 15 9 6 10 5 11 3 12
REMARK SMILES IDX 4 13 2 14 1 15
REMARK H PARENT
REMARK Flexibility Score: inf
ROOT
ATOM      1  C   UNL     1     145.365 146.811 134.035  1.00  0.00    -0.077 C 
ATOM      2  C   UNL     1     144.044 146.521 133.973  1.00  0.00    -0.024 C 
ATOM      3  C   UNL     1     145.779 148.260 133.994  1.00  0.00     0.039 C 
ENDROOT
BRANCH   1   4
ATOM      4  C   UNL     1     146.449 145.751 134.125  1.00  0.00     0.034 C 
BRANCH   4   5
ATOM      5  C   UNL     1     147.356 145.750 132.886  1.00  0.00     0.032 C 
BRANCH   5   6
ATOM      6  C   UNL     1     146.594 145.356 131.644  1.00  0.00    -0.028 C 
ATOM      7  C   UNL     1     146.474 147.691 130.745  1.00  0.00     0.039 C 
ATOM      8  C   UNL     1     146.168 146.214 130.691  1.00  0.00    -0.080 C 
ATOM      9  C   UNL     1     145.360 145.665 129.543  1.00  0.00     0.039 C 
ENDBRANCH   5   6
ENDBRANCH   4   5
ENDBRANCH   1   4
BRANCH   2  10
ATOM     10  C   UNL     1     143.462 145.132 134.040  1.00  0.00     0.055 C 
BRANCH  10  11
ATOM     11  C   UNL     1     143.432 144.484 132.679  1.00  0.00    -0.020 C 
ATOM     12  C   UNL     1     144.126 143.373 132.364  1.00  0.00    -0.055 C 
ATOM     13  C   UNL     1     145.022 142.684 133.370  1.00  0.00     0.044 C 
BRANCH  12  14
ATOM     14  C   UNL     1     144.045 142.876 130.966  1.00  0.00    -0.005 C 
ATOM     15  C   UNL     1     143.126 142.008 130.544  1.00  0.00     0.009 C 
ENDBRANCH  12  14
ENDBRANCH  10  11
ENDBRANCH   2  10
TORSDOF 6
ENDMDL
MODEL 3
REMARK VINA RESULT:    -3.456      1.336      3.816
REMARK INTER + INTRA:          -6.395
REMARK INTER:                  -4.886
REMARK INTRA:                  -1.509
REMARK UNBOUND:                -1.726
REMARK SMILES C=CC(C)=CCC=C(C)CCC=C(C)C
REMARK SMILES IDX 8 1 7 2 9 3 10 4 11 5 12 6 14 7 13 8 15 9 6 10 5 11 3 12
REMARK SMILES IDX 4 13 2 14 1 15
REMARK H PARENT
REMARK Flexibility Score: inf
ROOT
ATOM      1  C   UNL     1     145.380 143.912 133.980  1.00  0.00    -0.077 C 
ATOM      2  C   UNL     1     146.690 144.237 133.881  1.00  0.00    -0.024 C 
ATOM      3  C   UNL     1     145.001 142.454 133.923  1.00  0.00     0.039 C 
ENDROOT
BRANCH   1   4
ATOM      4  C   UNL     1     144.273 144.942 134.125  1.00  0.00     0.034 C 
BRANCH   4   5
ATOM      5  C   UNL     1     143.306 144.920 132.932  1.00  0.00     0.032 C 
BRANCH   5   6
ATOM      6  C   UNL     1     143.979 145.396 131.667  1.00  0.00    -0.028 C 
ATOM      7  C   UNL     1     144.266 143.093 130.725  1.00  0.00     0.039 C 
ATOM      8  C   UNL     1     144.438 144.591 130.684  1.00  0.00    -0.080 C 
ATOM      9  C   UNL     1     145.146 145.225 129.513  1.00  0.00     0.039 C 
ENDBRANCH   5   6
ENDBRANCH   4   5
ENDBRANCH   1   4
BRANCH   2  10
ATOM     10  C   UNL     1     147.239 145.639 133.957  1.00  0.00     0.055 C 
BRANCH  10  11
ATOM     11  C   UNL     1     147.271 146.289 132.597  1.00  0.00    -0.020 C 
ATOM     12  C   UNL     1     146.577 147.400 132.283  1.00  0.00    -0.055 C 
ATOM     13  C   UNL     1     145.678 148.086 133.288  1.00  0.00     0.044 C 
BRANCH  12  14
ATOM     14  C   UNL     1     146.661 147.900 130.886  1.00  0.00    -0.005 C 
ATOM     15  C   UNL     1     147.564 148.790 130.474  1.00  0.00     0.009 C 
ENDBRANCH  12  14
ENDBRANCH  10  11
ENDBRANCH   2  10
TORSDOF 6
ENDMDL
MODEL 4
REMARK VINA RESULT:    -3.427      1.358      3.724
REMARK INTER + INTRA:          -6.355
REMARK INTER:                  -4.365
REMARK INTRA:                  -1.990
REMARK UNBOUND:                -1.726
REMARK SMILES C=CC(C)=CCC=C(C)CCC=C(C)C
REMARK SMILES IDX 8 1 7 2 9 3 10 4 11 5 12 6 14 7 13 8 15 9 6 10 5 11 3 12
REMARK SMILES IDX 4 13 2 14 1 15
REMARK H PARENT
REMARK Flexibility Score: inf
ROOT
ATOM      1  C   UNL     1     143.928 143.695 131.287  1.00  0.00    -0.077 C 
ATOM      2  C   UNL     1     144.048 144.900 130.682  1.00  0.00    -0.024 C 
ATOM      3  C   UNL     1     143.870 142.464 130.418  1.00  0.00     0.039 C 
ENDROOT
BRANCH   1   4
ATOM      4  C   UNL     1     143.829 143.522 132.792  1.00  0.00     0.034 C 
BRANCH   4   5
ATOM      5  C   UNL     1     145.086 142.862 133.380  1.00  0.00     0.032 C 
BRANCH   5   6
ATOM      6  C   UNL     1     146.021 143.886 133.974  1.00  0.00    -0.028 C 
ATOM      7  C   UNL     1     147.508 143.979 131.961  1.00  0.00     0.039 C 
ATOM      8  C   UNL     1     147.123 144.375 133.365  1.00  0.00    -0.080 C 
ATOM      9  C   UNL     1     147.989 145.348 134.125  1.00  0.00     0.039 C 
ENDBRANCH   5   6
ENDBRANCH   4   5
ENDBRANCH   1   4
BRANCH   2  10
ATOM     10  C   UNL     1     144.157 146.219 131.404  1.00  0.00     0.055 C 
BRANCH  10  11
ATOM     11  C   UNL     1     145.478 146.889 131.125  1.00  0.00    -0.020 C 
ATOM     12  C   UNL     1     146.155 147.616 132.035  1.00  0.00    -0.055 C 
ATOM     13  C   UNL     1     145.621 147.833 133.434  1.00  0.00     0.044 C 
BRANCH  12  14
ATOM     14  C   UNL     1     147.420 148.266 131.604  1.00  0.00    -0.005 C 
ATOM     15  C   UNL     1     147.600 148.801 130.396  1.00  0.00     0.009 C 
ENDBRANCH  12  14
ENDBRANCH  10  11
ENDBRANCH   2  10
TORSDOF 6
ENDMDL
MODEL 5
REMARK VINA RESULT:    -3.386      1.191      3.443
REMARK INTER + INTRA:          -6.300
REMARK INTER:                  -4.575
REMARK INTRA:                  -1.725
REMARK UNBOUND:                -1.726
REMARK SMILES C=CC(C)=CCC=C(C)CCC=C(C)C
REMARK SMILES IDX 8 1 7 2 9 3 10 4 11 5 12 6 14 7 13 8 15 9 6 10 5 11 3 12
REMARK SMILES IDX 4 13 2 14 1 15
REMARK H PARENT
REMARK Flexibility Score: inf
ROOT
ATOM      1  C   UNL     1     147.257 146.593 132.793  1.00  0.00    -0.077 C 
ATOM      2  C   UNL     1     147.642 145.482 132.124  1.00  0.00    -0.024 C 
ATOM      3  C   UNL     1     147.624 147.936 132.213  1.00  0.00     0.039 C 
ENDROOT
BRANCH   1   4
ATOM      4  C   UNL     1     146.493 146.557 134.104  1.00  0.00     0.034 C 
BRANCH   4   5
ATOM      5  C   UNL     1     145.176 147.343 134.026  1.00  0.00     0.032 C 
BRANCH   5   6
ATOM      6  C   UNL     1     144.593 147.306 132.634  1.00  0.00    -0.028 C 
ATOM      7  C   UNL     1     142.696 145.794 133.261  1.00  0.00     0.039 C 
ATOM      8  C   UNL     1     143.502 146.597 132.269  1.00  0.00    -0.080 C 
ATOM      9  C   UNL     1     143.087 146.617 130.820  1.00  0.00     0.039 C 
ENDBRANCH   5   6
ENDBRANCH   4   5
ENDBRANCH   1   4
BRANCH   2  10
ATOM     10  C   UNL     1     147.325 144.069 132.546  1.00  0.00     0.055 C 
BRANCH  10  11
ATOM     11  C   UNL     1     146.048 143.580 131.911  1.00  0.00    -0.020 C 
ATOM     12  C   UNL     1     144.965 143.192 132.612  1.00  0.00    -0.055 C 
ATOM     13  C   UNL     1     144.953 143.200 134.125  1.00  0.00     0.044 C 
BRANCH  12  14
ATOM     14  C   UNL     1     143.794 142.680 131.854  1.00  0.00    -0.005 C 
ATOM     15  C   UNL     1     143.685 142.752 130.527  1.00  0.00     0.009 C 
ENDBRANCH  12  14
ENDBRANCH  10  11
ENDBRANCH   2  10
TORSDOF 6
ENDMDL
MODEL 6
REMARK VINA RESULT:    -3.225      1.276      3.243
REMARK INTER + INTRA:          -6.082
REMARK INTER:                  -5.525
REMARK INTRA:                  -0.557
REMARK UNBOUND:                -1.726
REMARK SMILES C=CC(C)=CCC=C(C)CCC=C(C)C
REMARK SMILES IDX 8 1 7 2 9 3 10 4 11 5 12 6 14 7 13 8 15 9 6 10 5 11 3 12
REMARK SMILES IDX 4 13 2 14 1 15
REMARK H PARENT
REMARK Flexibility Score: inf
ROOT
ATOM      1  C   UNL     1     144.039 143.487 132.634  1.00  0.00    -0.077 C 
ATOM      2  C   UNL     1     143.157 144.475 132.910  1.00  0.00    -0.024 C 
ATOM      3  C   UNL     1     143.861 142.710 131.353  1.00  0.00     0.039 C 
ENDROOT
BRANCH   1   4
ATOM      4  C   UNL     1     145.185 143.107 133.555  1.00  0.00     0.034 C 
BRANCH   4   5
ATOM      5  C   UNL     1     146.352 144.101 133.461  1.00  0.00     0.032 C 
BRANCH   5   6
ATOM      6  C   UNL     1     147.370 143.661 132.437  1.00  0.00    -0.028 C 
ATOM      7  C   UNL     1     146.419 145.076 130.602  1.00  0.00     0.039 C 
ATOM      8  C   UNL     1     147.398 144.065 131.148  1.00  0.00    -0.080 C 
ATOM      9  C   UNL     1     148.445 143.479 130.236  1.00  0.00     0.039 C 
ENDBRANCH   5   6
ENDBRANCH   4   5
ENDBRANCH   1   4
BRANCH   2  10
ATOM     10  C   UNL     1     143.215 145.366 134.125  1.00  0.00     0.055 C 
BRANCH  10  11
ATOM     11  C   UNL     1     144.356 146.347 134.031  1.00  0.00    -0.020 C 
ATOM     12  C   UNL     1     144.527 147.198 133.001  1.00  0.00    -0.055 C 
ATOM     13  C   UNL     1     143.575 147.223 131.824  1.00  0.00     0.044 C 
BRANCH  12  14
ATOM     14  C   UNL     1     145.729 148.072 133.013  1.00  0.00    -0.005 C 
ATOM     15  C   UNL     1     146.921 147.693 132.554  1.00  0.00     0.009 C 
ENDBRANCH  12  14
ENDBRANCH  10  11
ENDBRANCH   2  10
TORSDOF 6
ENDMDL
MODEL 7
REMARK VINA RESULT:    -3.201      0.900      4.131
REMARK INTER + INTRA:          -6.049
REMARK INTER:                  -5.511
REMARK INTRA:                  -0.538
REMARK UNBOUND:                -1.726
REMARK SMILES C=CC(C)=CCC=C(C)CCC=C(C)C
REMARK SMILES IDX 8 1 7 2 9 3 10 4 11 5 12 6 14 7 13 8 15 9 6 10 5 11 3 12
REMARK SMILES IDX 4 13 2 14 1 15
REMARK H PARENT
REMARK Flexibility Score: inf
ROOT
ATOM      1  C   UNL     1     146.708 147.274 132.639  1.00  0.00    -0.077 C 
ATOM      2  C   UNL     1     147.607 146.295 132.897  1.00  0.00    -0.024 C 
ATOM      3  C   UNL     1     146.862 148.064 131.364  1.00  0.00     0.039 C 
ENDROOT
BRANCH   1   4
ATOM      4  C   UNL     1     145.567 147.628 133.576  1.00  0.00     0.034 C 
BRANCH   4   5
ATOM      5  C   UNL     1     144.403 146.633 133.467  1.00  0.00     0.032 C 
BRANCH   5   6
ATOM      6  C   UNL     1     143.385 147.083 132.448  1.00  0.00    -0.028 C 
ATOM      7  C   UNL     1     144.323 145.672 130.603  1.00  0.00     0.039 C 
ATOM      8  C   UNL     1     143.351 146.685 131.157  1.00  0.00    -0.080 C 
ATOM      9  C   UNL     1     142.305 147.281 130.251  1.00  0.00     0.039 C 
ENDBRANCH   5   6
ENDBRANCH   4   5
ENDBRANCH   1   4
BRANCH   2  10
ATOM     10  C   UNL     1     147.575 145.391 134.104  1.00  0.00     0.055 C 
BRANCH  10  11
ATOM     11  C   UNL     1     146.432 144.412 134.023  1.00  0.00    -0.020 C 
ATOM     12  C   UNL     1     146.242 143.567 132.991  1.00  0.00    -0.055 C 
ATOM     13  C   UNL     1     147.173 143.549 131.798  1.00  0.00     0.044 C 
BRANCH  12  14
ATOM     14  C   UNL     1     145.040 142.694 133.019  1.00  0.00    -0.005 C 
ATOM     15  C   UNL     1     143.861 143.045 132.505  1.00  0.00     0.009 C 
ENDBRANCH  12  14
ENDBRANCH  10  11
ENDBRANCH   2  10
TORSDOF 6
ENDMDL
MODEL 8
REMARK VINA RESULT:    -2.873      1.303      3.579
REMARK INTER + INTRA:          -5.606
REMARK INTER:                  -4.852
REMARK INTRA:                  -0.754
REMARK UNBOUND:                -1.726
REMARK SMILES C=CC(C)=CCC=C(C)CCC=C(C)C
REMARK SMILES IDX 8 1 7 2 9 3 10 4 11 5 12 6 14 7 13 8 15 9 6 10 5 11 3 12
REMARK SMILES IDX 4 13 2 14 1 15
REMARK H PARENT
REMARK Flexibility Score: inf
ROOT
ATOM      1  C   UNL     1     147.180 143.890 132.968  1.00  0.00    -0.077 C 
ATOM      2  C   UNL     1     147.593 145.173 133.088  1.00  0.00    -0.024 C 
ATOM      3  C   UNL     1     147.813 143.034 131.900  1.00  0.00     0.039 C 
ENDROOT
BRANCH   1   4
ATOM      4  C   UNL     1     146.098 143.275 133.839  1.00  0.00     0.034 C 
BRANCH   4   5
ATOM      5  C   UNL     1     144.694 143.744 133.431  1.00  0.00     0.032 C 
BRANCH   5   6
ATOM      6  C   UNL     1     144.119 142.878 132.337  1.00  0.00    -0.028 C 
ATOM      7  C   UNL     1     144.810 144.419 130.488  1.00  0.00     0.039 C 
ATOM      8  C   UNL     1     144.137 143.178 131.020  1.00  0.00    -0.080 C 
ATOM      9  C   UNL     1     143.458 142.233 130.061  1.00  0.00     0.039 C 
ENDBRANCH   5   6
ENDBRANCH   4   5
ENDBRANCH   1   4
BRANCH   2  10
ATOM     10  C   UNL     1     147.090 146.147 134.123  1.00  0.00     0.055 C 
BRANCH  10  11
ATOM     11  C   UNL     1     145.682 146.593 133.819  1.00  0.00    -0.020 C 
ATOM     12  C   UNL     1     145.334 147.251 132.696  1.00  0.00    -0.055 C 
ATOM     13  C   UNL     1     146.353 147.616 131.639  1.00  0.00     0.044 C 
BRANCH  12  14
ATOM     14  C   UNL     1     143.917 147.678 132.552  1.00  0.00    -0.005 C 
ATOM     15  C   UNL     1     142.917 146.838 132.284  1.00  0.00     0.009 C 
ENDBRANCH  12  14
ENDBRANCH  10  11
ENDBRANCH   2  10
TORSDOF 6
ENDMDL
