MODEL 1
REMARK VINA RESULT:    -4.524      0.000      0.000
REMARK INTER + INTRA:          -5.330
REMARK INTER:                  -5.185
REMARK INTRA:                  -0.145
REMARK UNBOUND:                -0.145
REMARK SMILES CC=Cc1ccc(O)c(OC)c1
REMARK SMILES IDX 4 1 12 2 9 3 7 4 6 5 5 6 3 7 1 8 2 9 10 10 11 11 8 12
REMARK H PARENT 8 13
REMARK Flexibility Score: inf
ROOT
ATOM      1  C   UNL     1     -30.911 -19.472 -30.617  1.00  0.00    -0.022 A 
ATOM      2  C   UNL     1     -31.259 -20.049 -31.850  1.00  0.00     0.058 A 
ATOM      3  C   UNL     1     -30.363 -20.031 -32.937  1.00  0.00     0.161 A 
ATOM      4  C   UNL     1     -29.100 -19.435 -32.775  1.00  0.00     0.157 A 
ATOM      5  C   UNL     1     -28.744 -18.875 -31.546  1.00  0.00     0.051 A 
ATOM      6  C   UNL     1     -29.636 -18.894 -30.472  1.00  0.00     0.012 A 
ENDROOT
BRANCH   1   7
ATOM      7  C   UNL     1     -31.892 -19.529 -29.504  1.00  0.00     0.003 C 
ATOM      8  C   UNL     1     -34.000 -18.996 -28.347  1.00  0.00     0.035 C 
ATOM      9  C   UNL     1     -33.059 -18.875 -29.501  1.00  0.00    -0.030 C 
ENDBRANCH   1   7
BRANCH   3  10
ATOM     10  O   UNL     1     -30.692 -20.592 -34.182  1.00  0.00    -0.493 OA
ATOM     11  C   UNL     1     -31.595 -21.678 -34.366  1.00  0.00     0.278 C 
ENDBRANCH   3  10
BRANCH   4  12
ATOM     12  O   UNL     1     -28.182 -19.395 -33.825  1.00  0.00    -0.504 OA
ATOM     13  H   UNL     1     -27.522 -20.145 -33.994  1.00  0.00     0.293 HD
ENDBRANCH   4  12
TORSDOF 3
ENDMDL
MODEL 2
REMARK VINA RESULT:    -4.500      1.886      4.711
REMARK INTER + INTRA:          -5.303
REMARK INTER:                  -5.128
REMARK INTRA:                  -0.175
REMARK UNBOUND:                -0.145
REMARK SMILES CC=Cc1ccc(O)c(OC)c1
REMARK SMILES IDX 4 1 12 2 9 3 7 4 6 5 5 6 3 7 1 8 2 9 10 10 11 11 8 12
REMARK H PARENT 8 13
REMARK Flexibility Score: inf
ROOT
ATOM      1  C   UNL     1     -31.115 -21.211 -33.782  1.00  0.00    -0.022 A 
ATOM      2  C   UNL     1     -31.439 -21.096 -32.420  1.00  0.00     0.058 A 
ATOM      3  C   UNL     1     -30.564 -20.459 -31.518  1.00  0.00     0.161 A 
ATOM      4  C   UNL     1     -29.356 -19.923 -31.998  1.00  0.00     0.157 A 
ATOM      5  C   UNL     1     -29.037 -20.021 -33.355  1.00  0.00     0.051 A 
ATOM      6  C   UNL     1     -29.907 -20.655 -34.243  1.00  0.00     0.012 A 
ENDROOT
BRANCH   1   7
ATOM      7  C   UNL     1     -32.080 -21.884 -34.688  1.00  0.00     0.003 C 
ATOM      8  C   UNL     1     -32.757 -23.352 -36.547  1.00  0.00     0.035 C 
ATOM      9  C   UNL     1     -31.723 -22.699 -35.687  1.00  0.00    -0.030 C 
ENDBRANCH   1   7
BRANCH   3  10
ATOM     10  O   UNL     1     -30.862 -20.340 -30.151  1.00  0.00    -0.493 OA
ATOM     11  C   UNL     1     -31.746 -19.371 -29.597  1.00  0.00     0.278 C 
ENDBRANCH   3  10
BRANCH   4  12
ATOM     12  O   UNL     1     -28.459 -19.284 -31.140  1.00  0.00    -0.504 OA
ATOM     13  H   UNL     1     -28.135 -19.713 -30.282  1.00  0.00     0.293 HD
ENDBRANCH   4  12
TORSDOF 3
ENDMDL
MODEL 3
REMARK VINA RESULT:    -4.245      3.595      5.991
REMARK INTER + INTRA:          -5.011
REMARK INTER:                  -4.841
REMARK INTRA:                  -0.170
REMARK UNBOUND:                -0.145
REMARK SMILES CC=Cc1ccc(O)c(OC)c1
REMARK SMILES IDX 4 1 12 2 9 3 7 4 6 5 5 6 3 7 1 8 2 9 10 10 11 11 8 12
REMARK H PARENT 8 13
REMARK Flexibility Score: inf
ROOT
ATOM      1  C   UNL     1     -32.328 -21.837 -35.122  1.00  0.00    -0.022 A 
ATOM      2  C   UNL     1     -31.794 -22.652 -36.134  1.00  0.00     0.058 A 
ATOM      3  C   UNL     1     -32.381 -22.697 -37.414  1.00  0.00     0.161 A 
ATOM      4  C   UNL     1     -33.511 -21.904 -37.678  1.00  0.00     0.157 A 
ATOM      5  C   UNL     1     -34.036 -21.079 -36.680  1.00  0.00     0.051 A 
ATOM      6  C   UNL     1     -33.451 -21.039 -35.413  1.00  0.00     0.012 A 
ENDROOT
BRANCH   1   7
ATOM      7  C   UNL     1     -31.663 -21.822 -33.796  1.00  0.00     0.003 C 
ATOM      8  C   UNL     1     -30.583 -20.776 -31.843  1.00  0.00     0.035 C 
ATOM      9  C   UNL     1     -31.231 -20.710 -33.188  1.00  0.00    -0.030 C 
ENDBRANCH   1   7
BRANCH   3  10
ATOM     10  O   UNL     1     -31.871 -23.512 -38.438  1.00  0.00    -0.493 OA
ATOM     11  C   UNL     1     -31.827 -24.934 -38.394  1.00  0.00     0.278 C 
ENDBRANCH   3  10
BRANCH   4  12
ATOM     12  O   UNL     1     -34.125 -21.918 -38.931  1.00  0.00    -0.504 OA
ATOM     13  H   UNL     1     -33.728 -21.441 -39.732  1.00  0.00     0.293 HD
ENDBRANCH   4  12
TORSDOF 3
ENDMDL
MODEL 4
REMARK VINA RESULT:    -3.526      4.533      8.387
REMARK INTER + INTRA:          -4.186
REMARK INTER:                  -4.017
REMARK INTRA:                  -0.169
REMARK UNBOUND:                -0.145
REMARK SMILES CC=Cc1ccc(O)c(OC)c1
REMARK SMILES IDX 4 1 12 2 9 3 7 4 6 5 5 6 3 7 1 8 2 9 10 10 11 11 8 12
REMARK H PARENT 8 13
REMARK Flexibility Score: inf
ROOT
ATOM      1  C   UNL     1     -32.276 -23.988 -38.078  1.00  0.00    -0.022 A 
ATOM      2  C   UNL     1     -32.400 -23.545 -36.751  1.00  0.00     0.058 A 
ATOM      3  C   UNL     1     -32.755 -22.212 -36.462  1.00  0.00     0.161 A 
ATOM      4  C   UNL     1     -32.998 -21.322 -37.523  1.00  0.00     0.157 A 
ATOM      5  C   UNL     1     -32.891 -21.763 -38.844  1.00  0.00     0.051 A 
ATOM      6  C   UNL     1     -32.538 -23.083 -39.125  1.00  0.00     0.012 A 
ENDROOT
BRANCH   1   7
ATOM      7  C   UNL     1     -31.909 -25.405 -38.323  1.00  0.00     0.003 C 
ATOM      8  C   UNL     1     -32.349 -27.788 -38.767  1.00  0.00     0.035 C 
ATOM      9  C   UNL     1     -32.799 -26.386 -38.511  1.00  0.00    -0.030 C 
ENDBRANCH   1   7
BRANCH   3  10
ATOM     10  O   UNL     1     -32.876 -21.744 -35.144  1.00  0.00    -0.493 OA
ATOM     11  C   UNL     1     -31.783 -21.538 -34.255  1.00  0.00     0.278 C 
ENDBRANCH   3  10
BRANCH   4  12
ATOM     12  O   UNL     1     -33.351 -19.994 -37.283  1.00  0.00    -0.504 OA
ATOM     13  H   UNL     1     -33.156 -19.534 -36.401  1.00  0.00     0.293 HD
ENDBRANCH   4  12
TORSDOF 3
ENDMDL
MODEL 5
REMARK VINA RESULT:    -3.489      3.546      5.931
REMARK INTER + INTRA:          -4.144
REMARK INTER:                  -3.979
REMARK INTRA:                  -0.165
REMARK UNBOUND:                -0.145
REMARK SMILES CC=Cc1ccc(O)c(OC)c1
REMARK SMILES IDX 4 1 12 2 9 3 7 4 6 5 5 6 3 7 1 8 2 9 10 10 11 11 8 12
REMARK H PARENT 8 13
REMARK Flexibility Score: inf
ROOT
ATOM      1  C   UNL     1     -32.060 -21.866 -35.150  1.00  0.00    -0.022 A 
ATOM      2  C   UNL     1     -32.961 -21.129 -35.936  1.00  0.00     0.058 A 
ATOM      3  C   UNL     1     -33.235 -21.503 -37.267  1.00  0.00     0.161 A 
ATOM      4  C   UNL     1     -32.603 -22.638 -37.805  1.00  0.00     0.157 A 
ATOM      5  C   UNL     1     -31.718 -23.382 -37.021  1.00  0.00     0.051 A 
ATOM      6  C   UNL     1     -31.449 -23.007 -35.704  1.00  0.00     0.012 A 
ENDROOT
BRANCH   1   7
ATOM      7  C   UNL     1     -31.817 -21.432 -33.751  1.00  0.00     0.003 C 
ATOM      8  C   UNL     1     -30.546 -20.382 -31.921  1.00  0.00     0.035 C 
ATOM      9  C   UNL     1     -30.709 -20.801 -33.347  1.00  0.00    -0.030 C 
ENDBRANCH   1   7
BRANCH   3  10
ATOM     10  O   UNL     1     -34.125 -20.777 -38.076  1.00  0.00    -0.493 OA
ATOM     11  C   UNL     1     -33.894 -19.452 -38.544  1.00  0.00     0.278 C 
ENDBRANCH   3  10
BRANCH   4  12
ATOM     12  O   UNL     1     -32.844 -23.044 -39.118  1.00  0.00    -0.504 OA
ATOM     13  H   UNL     1     -33.471 -23.808 -39.340  1.00  0.00     0.293 HD
ENDBRANCH   4  12
TORSDOF 3
ENDMDL
MODEL 6
REMARK VINA RESULT:    -3.436      2.431      4.936
REMARK INTER + INTRA:          -4.083
REMARK INTER:                  -3.922
REMARK INTRA:                  -0.161
REMARK UNBOUND:                -0.145
REMARK SMILES CC=Cc1ccc(O)c(OC)c1
REMARK SMILES IDX 4 1 12 2 9 3 7 4 6 5 5 6 3 7 1 8 2 9 10 10 11 11 8 12
REMARK H PARENT 8 13
REMARK Flexibility Score: inf
ROOT
ATOM      1  C   UNL     1     -31.106 -21.537 -33.651  1.00  0.00    -0.022 A 
ATOM      2  C   UNL     1     -30.307 -20.400 -33.444  1.00  0.00     0.058 A 
ATOM      3  C   UNL     1     -29.919 -20.013 -32.146  1.00  0.00     0.161 A 
ATOM      4  C   UNL     1     -30.333 -20.786 -31.048  1.00  0.00     0.157 A 
ATOM      5  C   UNL     1     -31.115 -21.926 -31.250  1.00  0.00     0.051 A 
ATOM      6  C   UNL     1     -31.497 -22.305 -32.538  1.00  0.00     0.012 A 
ENDROOT
BRANCH   1   7
ATOM      7  C   UNL     1     -31.475 -21.903 -35.041  1.00  0.00     0.003 C 
ATOM      8  C   UNL     1     -32.877 -22.923 -36.791  1.00  0.00     0.035 C 
ATOM      9  C   UNL     1     -32.566 -22.607 -35.364  1.00  0.00    -0.030 C 
ENDBRANCH   1   7
BRANCH   3  10
ATOM     10  O   UNL     1     -29.129 -18.875 -31.914  1.00  0.00    -0.493 OA
ATOM     11  C   UNL     1     -27.706 -18.878 -31.853  1.00  0.00     0.278 C 
ENDBRANCH   3  10
BRANCH   4  12
ATOM     12  O   UNL     1     -29.974 -20.439 -29.745  1.00  0.00    -0.504 OA
ATOM     13  H   UNL     1     -30.492 -19.755 -29.206  1.00  0.00     0.293 HD
ENDBRANCH   4  12
TORSDOF 3
ENDMDL
MODEL 7
REMARK VINA RESULT:    -3.263      3.261      6.480
REMARK INTER + INTRA:          -3.885
REMARK INTER:                  -3.720
REMARK INTRA:                  -0.165
REMARK UNBOUND:                -0.145
REMARK SMILES CC=Cc1ccc(O)c(OC)c1
REMARK SMILES IDX 4 1 12 2 9 3 7 4 6 5 5 6 3 7 1 8 2 9 10 10 11 11 8 12
REMARK H PARENT 8 13
REMARK Flexibility Score: inf
ROOT
ATOM      1  C   UNL     1     -32.819 -22.442 -35.840  1.00  0.00    -0.022 A 
ATOM      2  C   UNL     1     -31.888 -22.298 -34.798  1.00  0.00     0.058 A 
ATOM      3  C   UNL     1     -31.844 -21.122 -34.023  1.00  0.00     0.161 A 
ATOM      4  C   UNL     1     -32.755 -20.087 -34.296  1.00  0.00     0.157 A 
ATOM      5  C   UNL     1     -33.693 -20.233 -35.321  1.00  0.00     0.051 A 
ATOM      6  C   UNL     1     -33.732 -21.400 -36.086  1.00  0.00     0.012 A 
ENDROOT
BRANCH   1   7
ATOM      7  C   UNL     1     -32.826 -23.708 -36.616  1.00  0.00     0.003 C 
ATOM      8  C   UNL     1     -32.008 -25.304 -38.305  1.00  0.00     0.035 C 
ATOM      9  C   UNL     1     -31.943 -24.000 -37.578  1.00  0.00    -0.030 C 
ENDBRANCH   1   7
BRANCH   3  10
ATOM     10  O   UNL     1     -30.916 -20.950 -32.983  1.00  0.00    -0.493 OA
ATOM     11  C   UNL     1     -29.571 -20.519 -33.162  1.00  0.00     0.278 C 
ENDBRANCH   3  10
BRANCH   4  12
ATOM     12  O   UNL     1     -32.747 -18.905 -33.555  1.00  0.00    -0.504 OA
ATOM     13  H   UNL     1     -32.378 -18.037 -33.926  1.00  0.00     0.293 HD
ENDBRANCH   4  12
TORSDOF 3
ENDMDL
MODEL 8
REMARK VINA RESULT:    -3.122      5.371      7.854
REMARK INTER + INTRA:          -3.723
REMARK INTER:                  -3.573
REMARK INTRA:                  -0.150
REMARK UNBOUND:                -0.145
REMARK SMILES CC=Cc1ccc(O)c(OC)c1
REMARK SMILES IDX 4 1 12 2 9 3 7 4 6 5 5 6 3 7 1 8 2 9 10 10 11 11 8 12
REMARK H PARENT 8 13
REMARK Flexibility Score: inf
ROOT
ATOM      1  C   UNL     1     -32.352 -23.493 -37.254  1.00  0.00    -0.022 A 
ATOM      2  C   UNL     1     -33.012 -22.428 -37.889  1.00  0.00     0.058 A 
ATOM      3  C   UNL     1     -33.367 -21.266 -37.175  1.00  0.00     0.161 A 
ATOM      4  C   UNL     1     -33.043 -21.174 -35.810  1.00  0.00     0.157 A 
ATOM      5  C   UNL     1     -32.372 -22.225 -35.178  1.00  0.00     0.051 A 
ATOM      6  C   UNL     1     -32.024 -23.374 -35.890  1.00  0.00     0.012 A 
ENDROOT
BRANCH   1   7
ATOM      7  C   UNL     1     -31.993 -24.688 -38.058  1.00  0.00     0.003 C 
ATOM      8  C   UNL     1     -32.256 -26.995 -38.881  1.00  0.00     0.035 C 
ATOM      9  C   UNL     1     -32.672 -25.840 -38.028  1.00  0.00    -0.030 C 
ENDBRANCH   1   7
BRANCH   3  10
ATOM     10  O   UNL     1     -34.036 -20.192 -37.786  1.00  0.00    -0.493 OA
ATOM     11  C   UNL     1     -33.819 -19.761 -39.125  1.00  0.00     0.278 C 
ENDBRANCH   3  10
BRANCH   4  12
ATOM     12  O   UNL     1     -33.376 -20.043 -35.064  1.00  0.00    -0.504 OA
ATOM     13  H   UNL     1     -32.755 -19.655 -34.364  1.00  0.00     0.293 HD
ENDBRANCH   4  12
TORSDOF 3
ENDMDL
