MODEL 1
REMARK VINA RESULT:    -4.468      0.000      0.000
REMARK INTER + INTRA:          -5.968
REMARK INTER:                  -5.513
REMARK INTRA:                  -0.455
REMARK UNBOUND:                -0.455
REMARK SMILES C=CC[C@@H](C)C(=O)CC
REMARK SMILES IDX 4 1 5 2 6 3 7 4 8 5 9 6 3 7 2 8 1 9
REMARK H PARENT
REMARK Flexibility Score: inf
ROOT
ATOM      1  C   UNL     1     -10.376  73.959  30.874  1.00  0.00     0.057 C 
ATOM      2  C   UNL     1      -9.065  74.733  30.694  1.00  0.00     0.016 C 
ENDROOT
BRANCH   1   3
ATOM      3  C   UNL     1     -11.027  74.343  32.188  1.00  0.00     0.135 C 
ATOM      4  O   UNL     1     -10.940  75.494  32.594  1.00  0.00    -0.299 OA
BRANCH   3   5
ATOM      5  C   UNL     1     -11.768  73.327  33.017  1.00  0.00     0.072 C 
ATOM      6  C   UNL     1     -11.059  71.977  32.991  1.00  0.00     0.012 C 
ENDBRANCH   3   5
ENDBRANCH   1   3
BRANCH   1   7
ATOM      7  C   UNL     1     -11.324  74.217  29.684  1.00  0.00     0.038 C 
BRANCH   7   8
ATOM      8  C   UNL     1     -11.486  73.000  28.812  1.00  0.00    -0.034 C 
ATOM      9  C   UNL     1     -11.830  71.811  29.318  1.00  0.00     0.004 C 
ENDBRANCH   7   8
ENDBRANCH   1   7
TORSDOF 4
ENDMDL
MODEL 2
REMARK VINA RESULT:    -4.358      2.680      4.093
REMARK INTER + INTRA:          -5.832
REMARK INTER:                  -5.327
REMARK INTRA:                  -0.505
REMARK UNBOUND:                -0.455
REMARK SMILES C=CC[C@@H](C)C(=O)CC
REMARK SMILES IDX 4 1 5 2 6 3 7 4 8 5 9 6 3 7 2 8 1 9
REMARK H PARENT
REMARK Flexibility Score: inf
ROOT
ATOM      1  C   UNL     1     -11.464  73.626  29.696  1.00  0.00     0.057 C 
ATOM      2  C   UNL     1     -10.761  74.583  30.665  1.00  0.00     0.016 C 
ENDROOT
BRANCH   1   3
ATOM      3  C   UNL     1     -11.152  74.016  28.265  1.00  0.00     0.135 C 
ATOM      4  O   UNL     1     -11.940  73.732  27.374  1.00  0.00    -0.299 OA
BRANCH   3   5
ATOM      5  C   UNL     1      -9.876  74.735  27.913  1.00  0.00     0.072 C 
ATOM      6  C   UNL     1      -9.036  73.914  26.940  1.00  0.00     0.012 C 
ENDBRANCH   3   5
ENDBRANCH   1   3
BRANCH   1   7
ATOM      7  C   UNL     1     -11.048  72.167  29.980  1.00  0.00     0.038 C 
BRANCH   7   8
ATOM      8  C   UNL     1      -9.673  72.075  30.587  1.00  0.00    -0.034 C 
ATOM      9  C   UNL     1      -8.642  71.548  29.920  1.00  0.00     0.004 C 
ENDBRANCH   7   8
ENDBRANCH   1   7
TORSDOF 4
ENDMDL
MODEL 3
REMARK VINA RESULT:    -4.355      1.913      2.709
REMARK INTER + INTRA:          -5.828
REMARK INTER:                  -5.529
REMARK INTRA:                  -0.299
REMARK UNBOUND:                -0.455
REMARK SMILES C=CC[C@@H](C)C(=O)CC
REMARK SMILES IDX 4 1 5 2 6 3 7 4 8 5 9 6 3 7 2 8 1 9
REMARK H PARENT
REMARK Flexibility Score: inf
ROOT
ATOM      1  C   UNL     1     -11.467  72.854  30.370  1.00  0.00     0.057 C 
ATOM      2  C   UNL     1     -11.814  71.878  29.242  1.00  0.00     0.016 C 
ENDROOT
BRANCH   1   3
ATOM      3  C   UNL     1     -10.385  72.263  31.252  1.00  0.00     0.135 C 
ATOM      4  O   UNL     1      -9.294  71.991  30.772  1.00  0.00    -0.299 OA
BRANCH   3   5
ATOM      5  C   UNL     1     -10.633  71.987  32.712  1.00  0.00     0.072 C 
ATOM      6  C   UNL     1     -11.673  72.947  33.281  1.00  0.00     0.012 C 
ENDBRANCH   3   5
ENDBRANCH   1   3
BRANCH   1   7
ATOM      7  C   UNL     1     -11.033  74.218  29.791  1.00  0.00     0.038 C 
BRANCH   7   8
ATOM      8  C   UNL     1     -10.795  74.155  28.306  1.00  0.00    -0.034 C 
ATOM      9  C   UNL     1      -9.658  74.593  27.756  1.00  0.00     0.004 C 
ENDBRANCH   7   8
ENDBRANCH   1   7
TORSDOF 4
ENDMDL
MODEL 4
REMARK VINA RESULT:    -4.348      1.956      3.899
REMARK INTER + INTRA:          -5.819
REMARK INTER:                  -5.599
REMARK INTRA:                  -0.220
REMARK UNBOUND:                -0.455
REMARK SMILES C=CC[C@@H](C)C(=O)CC
REMARK SMILES IDX 4 1 5 2 6 3 7 4 8 5 9 6 3 7 2 8 1 9
REMARK H PARENT
REMARK Flexibility Score: inf
ROOT
ATOM      1  C   UNL     1     -10.638  74.171  30.749  1.00  0.00     0.057 C 
ATOM      2  C   UNL     1      -9.388  75.000  31.061  1.00  0.00     0.016 C 
ENDROOT
BRANCH   1   3
ATOM      3  C   UNL     1     -10.877  74.138  29.252  1.00  0.00     0.135 C 
ATOM      4  O   UNL     1     -11.983  73.839  28.822  1.00  0.00    -0.299 OA
BRANCH   3   5
ATOM      5  C   UNL     1      -9.771  74.450  28.279  1.00  0.00     0.072 C 
ATOM      6  C   UNL     1     -10.336  74.871  26.926  1.00  0.00     0.012 C 
ENDBRANCH   3   5
ENDBRANCH   1   3
BRANCH   1   7
ATOM      7  C   UNL     1     -10.500  72.745  31.324  1.00  0.00     0.038 C 
BRANCH   7   8
ATOM      8  C   UNL     1     -11.585  72.426  32.319  1.00  0.00    -0.034 C 
ATOM      9  C   UNL     1     -11.891  73.258  33.319  1.00  0.00     0.004 C 
ENDBRANCH   7   8
ENDBRANCH   1   7
TORSDOF 4
ENDMDL
MODEL 5
REMARK VINA RESULT:    -4.337      2.353      4.411
REMARK INTER + INTRA:          -5.806
REMARK INTER:                  -5.307
REMARK INTRA:                  -0.499
REMARK UNBOUND:                -0.455
REMARK SMILES C=CC[C@@H](C)C(=O)CC
REMARK SMILES IDX 4 1 5 2 6 3 7 4 8 5 9 6 3 7 2 8 1 9
REMARK H PARENT
REMARK Flexibility Score: inf
ROOT
ATOM      1  C   UNL     1     -10.991  73.069  29.294  1.00  0.00     0.057 C 
ATOM      2  C   UNL     1     -11.565  71.649  29.303  1.00  0.00     0.016 C 
ENDROOT
BRANCH   1   3
ATOM      3  C   UNL     1     -11.478  73.816  28.068  1.00  0.00     0.135 C 
ATOM      4  O   UNL     1     -12.658  73.756  27.751  1.00  0.00    -0.299 OA
BRANCH   3   5
ATOM      5  C   UNL     1     -10.530  74.621  27.218  1.00  0.00     0.072 C 
ATOM      6  C   UNL     1      -9.139  73.995  27.208  1.00  0.00     0.012 C 
ENDBRANCH   3   5
ENDBRANCH   1   3
BRANCH   1   7
ATOM      7  C   UNL     1     -11.372  73.815  30.590  1.00  0.00     0.038 C 
BRANCH   7   8
ATOM      8  C   UNL     1     -10.412  74.931  30.908  1.00  0.00    -0.034 C 
ATOM      9  C   UNL     1      -9.088  74.758  30.852  1.00  0.00     0.004 C 
ENDBRANCH   7   8
ENDBRANCH   1   7
TORSDOF 4
ENDMDL
MODEL 6
REMARK VINA RESULT:    -4.307      2.308      2.658
REMARK INTER + INTRA:          -5.769
REMARK INTER:                  -5.517
REMARK INTRA:                  -0.252
REMARK UNBOUND:                -0.455
REMARK SMILES C=CC[C@@H](C)C(=O)CC
REMARK SMILES IDX 4 1 5 2 6 3 7 4 8 5 9 6 3 7 2 8 1 9
REMARK H PARENT
REMARK Flexibility Score: inf
ROOT
ATOM      1  C   UNL     1      -9.449  73.990  30.006  1.00  0.00     0.057 C 
ATOM      2  C   UNL     1      -9.369  75.019  31.139  1.00  0.00     0.016 C 
ENDROOT
BRANCH   1   3
ATOM      3  C   UNL     1      -9.744  72.616  30.574  1.00  0.00     0.135 C 
ATOM      4  O   UNL     1      -8.904  71.731  30.486  1.00  0.00    -0.299 OA
BRANCH   3   5
ATOM      5  C   UNL     1     -11.064  72.312  31.234  1.00  0.00     0.072 C 
ATOM      6  C   UNL     1     -10.870  71.946  32.702  1.00  0.00     0.012 C 
ENDBRANCH   3   5
ENDBRANCH   1   3
BRANCH   1   7
ATOM      7  C   UNL     1     -10.514  74.407  28.971  1.00  0.00     0.038 C 
BRANCH   7   8
ATOM      8  C   UNL     1      -9.899  74.882  27.681  1.00  0.00    -0.034 C 
ATOM      9  C   UNL     1      -9.112  74.092  26.943  1.00  0.00     0.004 C 
ENDBRANCH   7   8
ENDBRANCH   1   7
TORSDOF 4
ENDMDL
MODEL 7
REMARK VINA RESULT:    -4.292      1.543      2.012
REMARK INTER + INTRA:          -5.750
REMARK INTER:                  -5.272
REMARK INTRA:                  -0.478
REMARK UNBOUND:                -0.455
REMARK SMILES C=CC[C@@H](C)C(=O)CC
REMARK SMILES IDX 4 1 5 2 6 3 7 4 8 5 9 6 3 7 2 8 1 9
REMARK H PARENT
REMARK Flexibility Score: inf
ROOT
ATOM      1  C   UNL     1     -10.801  74.271  29.880  1.00  0.00     0.057 C 
ATOM      2  C   UNL     1     -11.823  73.501  29.037  1.00  0.00     0.016 C 
ENDROOT
BRANCH   1   3
ATOM      3  C   UNL     1     -11.027  73.989  31.352  1.00  0.00     0.135 C 
ATOM      4  O   UNL     1     -10.643  74.794  32.189  1.00  0.00    -0.299 OA
BRANCH   3   5
ATOM      5  C   UNL     1     -11.703  72.722  31.809  1.00  0.00     0.072 C 
ATOM      6  C   UNL     1     -10.883  72.024  32.889  1.00  0.00     0.012 C 
ENDBRANCH   3   5
ENDBRANCH   1   3
BRANCH   1   7
ATOM      7  C   UNL     1      -9.363  73.905  29.455  1.00  0.00     0.038 C 
BRANCH   7   8
ATOM      8  C   UNL     1      -9.235  72.454  29.071  1.00  0.00    -0.034 C 
ATOM      9  C   UNL     1      -8.661  71.559  29.880  1.00  0.00     0.004 C 
ENDBRANCH   7   8
ENDBRANCH   1   7
TORSDOF 4
ENDMDL
MODEL 8
REMARK VINA RESULT:    -4.231      2.670      3.571
REMARK INTER + INTRA:          -5.675
REMARK INTER:                  -5.226
REMARK INTRA:                  -0.448
REMARK UNBOUND:                -0.455
REMARK SMILES C=CC[C@@H](C)C(=O)CC
REMARK SMILES IDX 4 1 5 2 6 3 7 4 8 5 9 6 3 7 2 8 1 9
REMARK H PARENT
REMARK Flexibility Score: inf
ROOT
ATOM      1  C   UNL     1     -11.406  73.868  29.053  1.00  0.00     0.057 C 
ATOM      2  C   UNL     1     -12.466  73.680  27.962  1.00  0.00     0.016 C 
ENDROOT
BRANCH   1   3
ATOM      3  C   UNL     1     -11.005  72.523  29.623  1.00  0.00     0.135 C 
ATOM      4  O   UNL     1     -11.624  71.519  29.298  1.00  0.00    -0.299 OA
BRANCH   3   5
ATOM      5  C   UNL     1      -9.866  72.398  30.601  1.00  0.00     0.072 C 
ATOM      6  C   UNL     1      -8.706  71.617  29.992  1.00  0.00     0.012 C 
ENDBRANCH   3   5
ENDBRANCH   1   3
BRANCH   1   7
ATOM      7  C   UNL     1     -10.182  74.625  28.493  1.00  0.00     0.038 C 
BRANCH   7   8
ATOM      8  C   UNL     1      -9.946  74.325  27.036  1.00  0.00    -0.034 C 
ATOM      9  C   UNL     1      -8.987  73.483  26.636  1.00  0.00     0.004 C 
ENDBRANCH   7   8
ENDBRANCH   1   7
TORSDOF 4
ENDMDL
MODEL 9
REMARK VINA RESULT:    -4.164      1.693      2.685
REMARK INTER + INTRA:          -5.592
REMARK INTER:                  -5.229
REMARK INTRA:                  -0.364
REMARK UNBOUND:                -0.455
REMARK SMILES C=CC[C@@H](C)C(=O)CC
REMARK SMILES IDX 4 1 5 2 6 3 7 4 8 5 9 6 3 7 2 8 1 9
REMARK H PARENT
REMARK Flexibility Score: inf
ROOT
ATOM      1  C   UNL     1     -11.267  72.596  29.873  1.00  0.00     0.057 C 
ATOM      2  C   UNL     1      -9.902  71.941  29.630  1.00  0.00     0.016 C 
ENDROOT
BRANCH   1   3
ATOM      3  C   UNL     1     -11.250  73.359  31.182  1.00  0.00     0.135 C 
ATOM      4  O   UNL     1     -11.588  72.798  32.215  1.00  0.00    -0.299 OA
BRANCH   3   5
ATOM      5  C   UNL     1     -10.839  74.808  31.235  1.00  0.00     0.072 C 
ATOM      6  C   UNL     1      -9.320  74.946  31.213  1.00  0.00     0.012 C 
ENDBRANCH   3   5
ENDBRANCH   1   3
BRANCH   1   7
ATOM      7  C   UNL     1     -11.642  73.517  28.693  1.00  0.00     0.038 C 
BRANCH   7   8
ATOM      8  C   UNL     1     -10.512  73.671  27.709  1.00  0.00    -0.034 C 
ATOM      9  C   UNL     1      -9.973  74.863  27.435  1.00  0.00     0.004 C 
ENDBRANCH   7   8
ENDBRANCH   1   7
TORSDOF 4
ENDMDL
