MODEL 1
REMARK VINA RESULT:    -4.749      0.000      0.000
REMARK INTER + INTRA:         -14.657
REMARK INTER:                 -10.856
REMARK INTRA:                  -3.801
REMARK UNBOUND:                -3.801
REMARK SMILES CCCCCCCCCCCCCCCCCCCCCCCC(=O)[O-]
REMARK SMILES IDX 13 1 14 2 15 3 16 4 17 5 18 6 19 7 20 8 21 9 22 10 23 11
REMARK SMILES IDX 24 12 25 13 26 14 12 15 11 16 10 17 9 18 8 19 7 20 6 21 5 22
REMARK SMILES IDX 4 23 3 24 2 25 1 26
REMARK H PARENT
REMARK Flexibility Score: inf
ROOT
ATOM      1  C   UNL     1      19.661  19.112  36.576  1.00  0.00     0.000 C 
ENDROOT
BRANCH   1   2
ATOM      2  C   UNL     1      20.307  17.732  36.362  1.00  0.00     0.000 C 
BRANCH   2   3
ATOM      3  C   UNL     1      19.412  16.809  35.517  1.00  0.00     0.000 C 
BRANCH   3   4
ATOM      4  C   UNL     1      19.855  15.337  35.565  1.00  0.00     0.000 C 
BRANCH   4   5
ATOM      5  C   UNL     1      20.339  14.760  34.222  1.00  0.00     0.000 C 
BRANCH   5   6
ATOM      6  C   UNL     1      19.606  15.367  33.012  1.00  0.00     0.000 C 
BRANCH   6   7
ATOM      7  C   UNL     1      18.425  14.497  32.541  1.00  0.00     0.000 C 
BRANCH   7   8
ATOM      8  C   UNL     1      17.060  15.208  32.601  1.00  0.00     0.000 C 
BRANCH   8   9
ATOM      9  C   UNL     1      16.157  14.661  33.717  1.00  0.00     0.000 C 
BRANCH   9  10
ATOM     10  C   UNL     1      15.718  15.784  34.670  1.00  0.00     0.006 C 
BRANCH  10  11
ATOM     11  C   UNL     1      16.105  15.494  36.127  1.00  0.00     0.053 C 
BRANCH  11  12
ATOM     12  C   UNL     1      15.667  16.590  37.048  1.00  0.00     0.041 C 
ATOM     13  O   UNL     1      16.456  17.528  37.337  1.00  0.00    -0.550 OA
ATOM     14  O   UNL     1      14.400  16.558  37.618  1.00  0.00    -0.550 OA
ENDBRANCH  11  12
ENDBRANCH  10  11
ENDBRANCH   9  10
ENDBRANCH   8   9
ENDBRANCH   7   8
ENDBRANCH   6   7
ENDBRANCH   5   6
ENDBRANCH   4   5
ENDBRANCH   3   4
ENDBRANCH   2   3
ENDBRANCH   1   2
BRANCH   1  15
ATOM     15  C   UNL     1      20.065  20.113  35.478  1.00  0.00     0.000 C 
BRANCH  15  16
ATOM     16  C   UNL     1      18.987  20.260  34.387  1.00  0.00     0.000 C 
BRANCH  16  17
ATOM     17  C   UNL     1      19.365  19.586  33.054  1.00  0.00     0.000 C 
BRANCH  17  18
ATOM     18  C   UNL     1      18.193  18.804  32.436  1.00  0.00    -0.000 C 
BRANCH  18  19
ATOM     19  C   UNL     1      16.975  18.810  33.372  1.00  0.00    -0.000 C 
BRANCH  19  20
ATOM     20  C   UNL     1      15.646  18.929  32.607  1.00  0.00    -0.000 C 
BRANCH  20  21
ATOM     21  C   UNL     1      15.761  18.462  31.145  1.00  0.00    -0.000 C 
BRANCH  21  22
ATOM     22  C   UNL     1      14.388  18.308  30.467  1.00  0.00    -0.000 C 
BRANCH  22  23
ATOM     23  C   UNL     1      13.283  17.903  31.459  1.00  0.00    -0.000 C 
BRANCH  23  24
ATOM     24  C   UNL     1      12.778  16.470  31.228  1.00  0.00    -0.000 C 
BRANCH  24  25
ATOM     25  C   UNL     1      13.311  15.852  29.927  1.00  0.00    -0.003 C 
ATOM     26  C   UNL     1      12.219  15.794  28.861  1.00  0.00     0.004 C 
ENDBRANCH  24  25
ENDBRANCH  23  24
ENDBRANCH  22  23
ENDBRANCH  21  22
ENDBRANCH  20  21
ENDBRANCH  19  20
ENDBRANCH  18  19
ENDBRANCH  17  18
ENDBRANCH  16  17
ENDBRANCH  15  16
ENDBRANCH   1  15
TORSDOF 22
ENDMDL
MODEL 2
REMARK VINA RESULT:    -4.664      1.660      4.850
REMARK INTER + INTRA:         -14.463
REMARK INTER:                 -10.495
REMARK INTRA:                  -3.967
REMARK UNBOUND:                -3.801
REMARK SMILES CCCCCCCCCCCCCCCCCCCCCCCC(=O)[O-]
REMARK SMILES IDX 13 1 14 2 15 3 16 4 17 5 18 6 19 7 20 8 21 9 22 10 23 11
REMARK SMILES IDX 24 12 25 13 26 14 12 15 11 16 10 17 9 18 8 19 7 20 6 21 5 22
REMARK SMILES IDX 4 23 3 24 2 25 1 26
REMARK H PARENT
REMARK Flexibility Score: inf
ROOT
ATOM      1  C   UNL     1      15.785  17.722  32.615  1.00  0.00     0.000 C 
ENDROOT
BRANCH   1   2
ATOM      2  C   UNL     1      17.000  18.137  33.462  1.00  0.00     0.000 C 
BRANCH   2   3
ATOM      3  C   UNL     1      18.211  18.496  32.583  1.00  0.00     0.000 C 
BRANCH   3   4
ATOM      4  C   UNL     1      18.942  19.762  33.059  1.00  0.00     0.000 C 
BRANCH   4   5
ATOM      5  C   UNL     1      18.654  20.171  34.516  1.00  0.00     0.000 C 
BRANCH   5   6
ATOM      6  C   UNL     1      19.901  20.099  35.414  1.00  0.00     0.000 C 
BRANCH   6   7
ATOM      7  C   UNL     1      20.646  18.757  35.284  1.00  0.00     0.000 C 
BRANCH   7   8
ATOM      8  C   UNL     1      20.097  17.645  36.198  1.00  0.00     0.000 C 
BRANCH   8   9
ATOM      9  C   UNL     1      19.661  16.397  35.415  1.00  0.00     0.000 C 
BRANCH   9  10
ATOM     10  C   UNL     1      18.352  15.823  35.979  1.00  0.00     0.006 C 
BRANCH  10  11
ATOM     11  C   UNL     1      17.433  16.915  36.543  1.00  0.00     0.053 C 
BRANCH  11  12
ATOM     12  C   UNL     1      16.040  16.410  36.767  1.00  0.00     0.041 C 
ATOM     13  O   UNL     1      15.425  15.816  35.841  1.00  0.00    -0.550 OA
ATOM     14  O   UNL     1      15.407  16.628  37.984  1.00  0.00    -0.550 OA
ENDBRANCH  11  12
ENDBRANCH  10  11
ENDBRANCH   9  10
ENDBRANCH   8   9
ENDBRANCH   7   8
ENDBRANCH   6   7
ENDBRANCH   5   6
ENDBRANCH   4   5
ENDBRANCH   3   4
ENDBRANCH   2   3
ENDBRANCH   1   2
BRANCH   1  15
ATOM     15  C   UNL     1      15.047  18.942  32.032  1.00  0.00     0.000 C 
BRANCH  15  16
ATOM     16  C   UNL     1      14.020  18.550  30.952  1.00  0.00     0.000 C 
BRANCH  16  17
ATOM     17  C   UNL     1      12.866  17.679  31.486  1.00  0.00     0.000 C 
BRANCH  17  18
ATOM     18  C   UNL     1      12.796  16.307  30.795  1.00  0.00    -0.000 C 
BRANCH  18  19
ATOM     19  C   UNL     1      13.321  16.390  29.354  1.00  0.00    -0.000 C 
BRANCH  19  20
ATOM     20  C   UNL     1      13.997  15.085  28.898  1.00  0.00    -0.000 C 
BRANCH  20  21
ATOM     21  C   UNL     1      15.502  15.261  28.629  1.00  0.00    -0.000 C 
BRANCH  21  22
ATOM     22  C   UNL     1      16.336  15.242  29.922  1.00  0.00    -0.000 C 
BRANCH  22  23
ATOM     23  C   UNL     1      17.498  16.250  29.888  1.00  0.00    -0.000 C 
BRANCH  23  24
ATOM     24  C   UNL     1      17.479  17.132  28.629  1.00  0.00    -0.000 C 
BRANCH  24  25
ATOM     25  C   UNL     1      17.117  18.594  28.930  1.00  0.00    -0.003 C 
ATOM     26  C   UNL     1      16.027  19.094  27.986  1.00  0.00     0.004 C 
ENDBRANCH  24  25
ENDBRANCH  23  24
ENDBRANCH  22  23
ENDBRANCH  21  22
ENDBRANCH  20  21
ENDBRANCH  19  20
ENDBRANCH  18  19
ENDBRANCH  17  18
ENDBRANCH  16  17
ENDBRANCH  15  16
ENDBRANCH   1  15
TORSDOF 22
ENDMDL
MODEL 3
REMARK VINA RESULT:    -4.600      1.565      3.734
REMARK INTER + INTRA:         -14.318
REMARK INTER:                 -10.498
REMARK INTRA:                  -3.820
REMARK UNBOUND:                -3.801
REMARK SMILES CCCCCCCCCCCCCCCCCCCCCCCC(=O)[O-]
REMARK SMILES IDX 13 1 14 2 15 3 16 4 17 5 18 6 19 7 20 8 21 9 22 10 23 11
REMARK SMILES IDX 24 12 25 13 26 14 12 15 11 16 10 17 9 18 8 19 7 20 6 21 5 22
REMARK SMILES IDX 4 23 3 24 2 25 1 26
REMARK H PARENT
REMARK Flexibility Score: inf
ROOT
ATOM      1  C   UNL     1      17.347  18.929  33.257  1.00  0.00     0.000 C 
ENDROOT
BRANCH   1   2
ATOM      2  C   UNL     1      17.764  19.979  34.302  1.00  0.00     0.000 C 
BRANCH   2   3
ATOM      3  C   UNL     1      19.287  20.200  34.309  1.00  0.00     0.000 C 
BRANCH   3   4
ATOM      4  C   UNL     1      19.897  20.118  35.718  1.00  0.00     0.000 C 
BRANCH   4   5
ATOM      5  C   UNL     1      21.110  19.177  35.848  1.00  0.00     0.000 C 
BRANCH   5   6
ATOM      6  C   UNL     1      20.770  17.861  36.569  1.00  0.00     0.000 C 
BRANCH   6   7
ATOM      7  C   UNL     1      20.477  16.709  35.588  1.00  0.00     0.000 C 
BRANCH   7   8
ATOM      8  C   UNL     1      19.109  16.034  35.804  1.00  0.00     0.000 C 
BRANCH   8   9
ATOM      9  C   UNL     1      18.014  17.032  36.208  1.00  0.00     0.000 C 
BRANCH   9  10
ATOM     10  C   UNL     1      16.615  16.448  35.954  1.00  0.00     0.006 C 
BRANCH  10  11
ATOM     11  C   UNL     1      16.350  15.189  36.791  1.00  0.00     0.053 C 
BRANCH  11  12
ATOM     12  C   UNL     1      15.193  15.375  37.724  1.00  0.00     0.041 C 
ATOM     13  O   UNL     1      14.849  14.443  38.498  1.00  0.00    -0.550 OA
ATOM     14  O   UNL     1      14.472  16.562  37.714  1.00  0.00    -0.550 OA
ENDBRANCH  11  12
ENDBRANCH  10  11
ENDBRANCH   9  10
ENDBRANCH   8   9
ENDBRANCH   7   8
ENDBRANCH   6   7
ENDBRANCH   5   6
ENDBRANCH   4   5
ENDBRANCH   3   4
ENDBRANCH   2   3
ENDBRANCH   1   2
BRANCH   1  15
ATOM     15  C   UNL     1      18.446  18.698  32.203  1.00  0.00     0.000 C 
BRANCH  15  16
ATOM     16  C   UNL     1      19.337  17.486  32.536  1.00  0.00     0.000 C 
BRANCH  16  17
ATOM     17  C   UNL     1      19.376  16.425  31.419  1.00  0.00     0.000 C 
BRANCH  17  18
ATOM     18  C   UNL     1      19.334  14.989  31.969  1.00  0.00    -0.000 C 
BRANCH  18  19
ATOM     19  C   UNL     1      17.973  14.688  32.615  1.00  0.00    -0.000 C 
BRANCH  19  20
ATOM     20  C   UNL     1      16.793  15.077  31.708  1.00  0.00    -0.000 C 
BRANCH  20  21
ATOM     21  C   UNL     1      15.669  15.795  32.476  1.00  0.00    -0.000 C 
BRANCH  21  22
ATOM     22  C   UNL     1      14.862  16.750  31.579  1.00  0.00    -0.000 C 
BRANCH  22  23
ATOM     23  C   UNL     1      15.495  16.926  30.187  1.00  0.00    -0.000 C 
BRANCH  23  24
ATOM     24  C   UNL     1      15.879  18.386  29.894  1.00  0.00    -0.000 C 
BRANCH  24  25
ATOM     25  C   UNL     1      16.052  18.667  28.393  1.00  0.00    -0.003 C 
ATOM     26  C   UNL     1      16.974  19.861  28.163  1.00  0.00     0.004 C 
ENDBRANCH  24  25
ENDBRANCH  23  24
ENDBRANCH  22  23
ENDBRANCH  21  22
ENDBRANCH  20  21
ENDBRANCH  19  20
ENDBRANCH  18  19
ENDBRANCH  17  18
ENDBRANCH  16  17
ENDBRANCH  15  16
ENDBRANCH   1  15
TORSDOF 22
ENDMDL
MODEL 4
REMARK VINA RESULT:    -4.548      1.492      3.809
REMARK INTER + INTRA:         -14.198
REMARK INTER:                 -10.921
REMARK INTRA:                  -3.278
REMARK UNBOUND:                -3.801
REMARK SMILES CCCCCCCCCCCCCCCCCCCCCCCC(=O)[O-]
REMARK SMILES IDX 13 1 14 2 15 3 16 4 17 5 18 6 19 7 20 8 21 9 22 10 23 11
REMARK SMILES IDX 24 12 25 13 26 14 12 15 11 16 10 17 9 18 8 19 7 20 6 21 5 22
REMARK SMILES IDX 4 23 3 24 2 25 1 26
REMARK H PARENT
REMARK Flexibility Score: inf
ROOT
ATOM      1  C   UNL     1      17.685  19.248  33.150  1.00  0.00     0.000 C 
ENDROOT
BRANCH   1   2
ATOM      2  C   UNL     1      19.083  19.821  33.439  1.00  0.00     0.000 C 
BRANCH   2   3
ATOM      3  C   UNL     1      19.237  20.225  34.916  1.00  0.00     0.000 C 
BRANCH   3   4
ATOM      4  C   UNL     1      20.595  19.816  35.510  1.00  0.00     0.000 C 
BRANCH   4   5
ATOM      5  C   UNL     1      20.531  18.709  36.579  1.00  0.00     0.000 C 
BRANCH   5   6
ATOM      6  C   UNL     1      20.735  17.301  35.992  1.00  0.00     0.000 C 
BRANCH   6   7
ATOM      7  C   UNL     1      19.408  16.539  35.814  1.00  0.00     0.000 C 
BRANCH   7   8
ATOM      8  C   UNL     1      19.119  16.115  34.361  1.00  0.00     0.000 C 
BRANCH   8   9
ATOM      9  C   UNL     1      17.723  15.495  34.192  1.00  0.00     0.000 C 
BRANCH   9  10
ATOM     10  C   UNL     1      16.649  16.366  34.862  1.00  0.00     0.006 C 
BRANCH  10  11
ATOM     11  C   UNL     1      16.005  15.670  36.069  1.00  0.00     0.053 C 
BRANCH  11  12
ATOM     12  C   UNL     1      15.573  16.653  37.113  1.00  0.00     0.041 C 
ATOM     13  O   UNL     1      16.340  17.593  37.454  1.00  0.00    -0.550 OA
ATOM     14  O   UNL     1      14.341  16.510  37.738  1.00  0.00    -0.550 OA
ENDBRANCH  11  12
ENDBRANCH  10  11
ENDBRANCH   9  10
ENDBRANCH   8   9
ENDBRANCH   7   8
ENDBRANCH   6   7
ENDBRANCH   5   6
ENDBRANCH   4   5
ENDBRANCH   3   4
ENDBRANCH   2   3
ENDBRANCH   1   2
BRANCH   1  15
ATOM     15  C   UNL     1      17.644  18.473  31.819  1.00  0.00     0.000 C 
BRANCH  15  16
ATOM     16  C   UNL     1      16.242  17.921  31.500  1.00  0.00     0.000 C 
BRANCH  16  17
ATOM     17  C   UNL     1      15.101  18.894  31.855  1.00  0.00     0.000 C 
BRANCH  17  18
ATOM     18  C   UNL     1      13.711  18.298  31.578  1.00  0.00    -0.000 C 
BRANCH  18  19
ATOM     19  C   UNL     1      13.819  16.825  31.155  1.00  0.00    -0.000 C 
BRANCH  19  20
ATOM     20  C   UNL     1      12.592  16.351  30.356  1.00  0.00    -0.000 C 
BRANCH  20  21
ATOM     21  C   UNL     1      12.941  15.974  28.905  1.00  0.00    -0.000 C 
BRANCH  21  22
ATOM     22  C   UNL     1      14.164  16.743  28.376  1.00  0.00    -0.000 C 
BRANCH  22  23
ATOM     23  C   UNL     1      13.771  17.905  27.445  1.00  0.00    -0.000 C 
BRANCH  23  24
ATOM     24  C   UNL     1      14.753  19.084  27.526  1.00  0.00    -0.000 C 
BRANCH  24  25
ATOM     25  C   UNL     1      16.099  18.698  28.158  1.00  0.00    -0.003 C 
ATOM     26  C   UNL     1      17.051  19.891  28.191  1.00  0.00     0.004 C 
ENDBRANCH  24  25
ENDBRANCH  23  24
ENDBRANCH  22  23
ENDBRANCH  21  22
ENDBRANCH  20  21
ENDBRANCH  19  20
ENDBRANCH  18  19
ENDBRANCH  17  18
ENDBRANCH  16  17
ENDBRANCH  15  16
ENDBRANCH   1  15
TORSDOF 22
ENDMDL
MODEL 5
REMARK VINA RESULT:    -4.475      1.330      3.645
REMARK INTER + INTRA:         -14.032
REMARK INTER:                 -10.312
REMARK INTRA:                  -3.720
REMARK UNBOUND:                -3.801
REMARK SMILES CCCCCCCCCCCCCCCCCCCCCCCC(=O)[O-]
REMARK SMILES IDX 13 1 14 2 15 3 16 4 17 5 18 6 19 7 20 8 21 9 22 10 23 11
REMARK SMILES IDX 24 12 25 13 26 14 12 15 11 16 10 17 9 18 8 19 7 20 6 21 5 22
REMARK SMILES IDX 4 23 3 24 2 25 1 26
REMARK H PARENT
REMARK Flexibility Score: inf
ROOT
ATOM      1  C   UNL     1      18.329  18.964  32.248  1.00  0.00     0.000 C 
ENDROOT
BRANCH   1   2
ATOM      2  C   UNL     1      17.453  19.014  33.511  1.00  0.00     0.000 C 
BRANCH   2   3
ATOM      3  C   UNL     1      18.121  19.825  34.635  1.00  0.00     0.000 C 
BRANCH   3   4
ATOM      4  C   UNL     1      19.572  20.218  34.308  1.00  0.00     0.000 C 
BRANCH   4   5
ATOM      5  C   UNL     1      20.646  19.479  35.129  1.00  0.00     0.000 C 
BRANCH   5   6
ATOM      6  C   UNL     1      20.070  18.777  36.371  1.00  0.00     0.000 C 
BRANCH   6   7
ATOM      7  C   UNL     1      20.299  17.254  36.347  1.00  0.00     0.000 C 
BRANCH   7   8
ATOM      8  C   UNL     1      20.286  16.640  34.934  1.00  0.00     0.000 C 
BRANCH   8   9
ATOM      9  C   UNL     1      19.004  15.843  34.647  1.00  0.00     0.000 C 
BRANCH   9  10
ATOM     10  C   UNL     1      18.128  15.737  35.905  1.00  0.00     0.006 C 
BRANCH  10  11
ATOM     11  C   UNL     1      16.665  16.107  35.627  1.00  0.00     0.053 C 
BRANCH  11  12
ATOM     12  C   UNL     1      16.053  16.857  36.771  1.00  0.00     0.041 C 
ATOM     13  O   UNL     1      14.936  16.503  37.234  1.00  0.00    -0.550 OA
ATOM     14  O   UNL     1      16.697  17.968  37.300  1.00  0.00    -0.550 OA
ENDBRANCH  11  12
ENDBRANCH  10  11
ENDBRANCH   9  10
ENDBRANCH   8   9
ENDBRANCH   7   8
ENDBRANCH   6   7
ENDBRANCH   5   6
ENDBRANCH   4   5
ENDBRANCH   3   4
ENDBRANCH   2   3
ENDBRANCH   1   2
BRANCH   1  15
ATOM     15  C   UNL     1      18.331  17.565  31.603  1.00  0.00     0.000 C 
BRANCH  15  16
ATOM     16  C   UNL     1      17.948  17.601  30.111  1.00  0.00     0.000 C 
BRANCH  16  17
ATOM     17  C   UNL     1      17.035  18.786  29.739  1.00  0.00     0.000 C 
BRANCH  17  18
ATOM     18  C   UNL     1      15.657  18.329  29.229  1.00  0.00    -0.000 C 
BRANCH  18  19
ATOM     19  C   UNL     1      14.543  18.763  30.194  1.00  0.00    -0.000 C 
BRANCH  19  20
ATOM     20  C   UNL     1      14.613  18.026  31.543  1.00  0.00    -0.000 C 
BRANCH  20  21
ATOM     21  C   UNL     1      14.315  16.522  31.411  1.00  0.00    -0.000 C 
BRANCH  21  22
ATOM     22  C   UNL     1      12.962  16.249  30.731  1.00  0.00    -0.000 C 
BRANCH  22  23
ATOM     23  C   UNL     1      13.095  15.337  29.498  1.00  0.00    -0.000 C 
BRANCH  23  24
ATOM     24  C   UNL     1      11.894  15.451  28.546  1.00  0.00    -0.000 C 
BRANCH  24  25
ATOM     25  C   UNL     1      12.295  15.891  27.129  1.00  0.00    -0.003 C 
ATOM     26  C   UNL     1      12.583  17.389  27.082  1.00  0.00     0.004 C 
ENDBRANCH  24  25
ENDBRANCH  23  24
ENDBRANCH  22  23
ENDBRANCH  21  22
ENDBRANCH  20  21
ENDBRANCH  19  20
ENDBRANCH  18  19
ENDBRANCH  17  18
ENDBRANCH  16  17
ENDBRANCH  15  16
ENDBRANCH   1  15
TORSDOF 22
ENDMDL
MODEL 6
REMARK VINA RESULT:    -4.381      3.318      6.908
REMARK INTER + INTRA:         -13.816
REMARK INTER:                 -10.240
REMARK INTRA:                  -3.576
REMARK UNBOUND:                -3.801
REMARK SMILES CCCCCCCCCCCCCCCCCCCCCCCC(=O)[O-]
REMARK SMILES IDX 13 1 14 2 15 3 16 4 17 5 18 6 19 7 20 8 21 9 22 10 23 11
REMARK SMILES IDX 24 12 25 13 26 14 12 15 11 16 10 17 9 18 8 19 7 20 6 21 5 22
REMARK SMILES IDX 4 23 3 24 2 25 1 26
REMARK H PARENT
REMARK Flexibility Score: inf
ROOT
ATOM      1  C   UNL     1      16.653  18.314  31.347  1.00  0.00     0.000 C 
ENDROOT
BRANCH   1   2
ATOM      2  C   UNL     1      15.413  18.222  32.252  1.00  0.00     0.000 C 
BRANCH   2   3
ATOM      3  C   UNL     1      14.157  18.773  31.554  1.00  0.00     0.000 C 
BRANCH   3   4
ATOM      4  C   UNL     1      13.147  17.674  31.183  1.00  0.00     0.000 C 
BRANCH   4   5
ATOM      5  C   UNL     1      13.662  16.233  31.355  1.00  0.00     0.000 C 
BRANCH   5   6
ATOM      6  C   UNL     1      14.220  15.639  30.050  1.00  0.00     0.000 C 
BRANCH   6   7
ATOM      7  C   UNL     1      13.280  15.862  28.851  1.00  0.00     0.000 C 
BRANCH   7   8
ATOM      8  C   UNL     1      13.981  16.429  27.602  1.00  0.00     0.000 C 
BRANCH   8   9
ATOM      9  C   UNL     1      13.823  17.952  27.474  1.00  0.00     0.000 C 
BRANCH   9  10
ATOM     10  C   UNL     1      15.074  18.680  27.990  1.00  0.00     0.006 C 
BRANCH  10  11
ATOM     11  C   UNL     1      15.792  19.461  26.881  1.00  0.00     0.053 C 
BRANCH  11  12
ATOM     12  C   UNL     1      17.161  19.898  27.304  1.00  0.00     0.041 C 
ATOM     13  O   UNL     1      17.408  20.120  28.520  1.00  0.00    -0.550 OA
ATOM     14  O   UNL     1      18.154  20.097  26.354  1.00  0.00    -0.550 OA
ENDBRANCH  11  12
ENDBRANCH  10  11
ENDBRANCH   9  10
ENDBRANCH   8   9
ENDBRANCH   7   8
ENDBRANCH   6   7
ENDBRANCH   5   6
ENDBRANCH   4   5
ENDBRANCH   3   4
ENDBRANCH   2   3
ENDBRANCH   1   2
BRANCH   1  15
ATOM     15  C   UNL     1      17.917  18.695  32.139  1.00  0.00     0.000 C 
BRANCH  15  16
ATOM     16  C   UNL     1      17.598  19.172  33.569  1.00  0.00     0.000 C 
BRANCH  16  17
ATOM     17  C   UNL     1      18.574  20.242  34.094  1.00  0.00     0.000 C 
BRANCH  17  18
ATOM     18  C   UNL     1      19.991  19.688  34.316  1.00  0.00    -0.000 C 
BRANCH  18  19
ATOM     19  C   UNL     1      20.407  19.816  35.789  1.00  0.00    -0.000 C 
BRANCH  19  20
ATOM     20  C   UNL     1      20.680  18.451  36.444  1.00  0.00    -0.000 C 
BRANCH  20  21
ATOM     21  C   UNL     1      20.278  17.271  35.542  1.00  0.00    -0.000 C 
BRANCH  21  22
ATOM     22  C   UNL     1      18.940  16.639  35.963  1.00  0.00    -0.000 C 
BRANCH  22  23
ATOM     23  C   UNL     1      18.275  15.851  34.820  1.00  0.00    -0.000 C 
BRANCH  23  24
ATOM     24  C   UNL     1      16.748  15.762  34.975  1.00  0.00    -0.000 C 
BRANCH  24  25
ATOM     25  C   UNL     1      16.078  14.975  33.837  1.00  0.00    -0.003 C 
ATOM     26  C   UNL     1      17.029  14.807  32.655  1.00  0.00     0.004 C 
ENDBRANCH  24  25
ENDBRANCH  23  24
ENDBRANCH  22  23
ENDBRANCH  21  22
ENDBRANCH  20  21
ENDBRANCH  19  20
ENDBRANCH  18  19
ENDBRANCH  17  18
ENDBRANCH  16  17
ENDBRANCH  15  16
ENDBRANCH   1  15
TORSDOF 22
ENDMDL
MODEL 7
REMARK VINA RESULT:    -4.365      1.557      4.079
REMARK INTER + INTRA:         -13.781
REMARK INTER:                  -9.886
REMARK INTRA:                  -3.895
REMARK UNBOUND:                -3.801
REMARK SMILES CCCCCCCCCCCCCCCCCCCCCCCC(=O)[O-]
REMARK SMILES IDX 13 1 14 2 15 3 16 4 17 5 18 6 19 7 20 8 21 9 22 10 23 11
REMARK SMILES IDX 24 12 25 13 26 14 12 15 11 16 10 17 9 18 8 19 7 20 6 21 5 22
REMARK SMILES IDX 4 23 3 24 2 25 1 26
REMARK H PARENT
REMARK Flexibility Score: inf
ROOT
ATOM      1  C   UNL     1      16.965  18.380  32.510  1.00  0.00     0.000 C 
ENDROOT
BRANCH   1   2
ATOM      2  C   UNL     1      18.483  18.398  32.755  1.00  0.00     0.000 C 
BRANCH   2   3
ATOM      3  C   UNL     1      18.934  19.705  33.431  1.00  0.00     0.000 C 
BRANCH   3   4
ATOM      4  C   UNL     1      18.339  19.888  34.837  1.00  0.00     0.000 C 
BRANCH   4   5
ATOM      5  C   UNL     1      19.372  19.945  35.978  1.00  0.00     0.000 C 
BRANCH   5   6
ATOM      6  C   UNL     1      20.673  19.193  35.644  1.00  0.00     0.000 C 
BRANCH   6   7
ATOM      7  C   UNL     1      20.705  17.775  36.244  1.00  0.00     0.000 C 
BRANCH   7   8
ATOM      8  C   UNL     1      20.149  16.685  35.307  1.00  0.00     0.000 C 
BRANCH   8   9
ATOM      9  C   UNL     1      19.244  15.681  36.038  1.00  0.00     0.000 C 
BRANCH   9  10
ATOM     10  C   UNL     1      17.858  16.286  36.309  1.00  0.00     0.006 C 
BRANCH  10  11
ATOM     11  C   UNL     1      16.860  15.243  36.831  1.00  0.00     0.053 C 
BRANCH  11  12
ATOM     12  C   UNL     1      15.543  15.861  37.187  1.00  0.00     0.041 C 
ATOM     13  O   UNL     1      14.476  15.402  36.699  1.00  0.00    -0.550 OA
ATOM     14  O   UNL     1      15.496  16.966  38.027  1.00  0.00    -0.550 OA
ENDBRANCH  11  12
ENDBRANCH  10  11
ENDBRANCH   9  10
ENDBRANCH   8   9
ENDBRANCH   7   8
ENDBRANCH   6   7
ENDBRANCH   5   6
ENDBRANCH   4   5
ENDBRANCH   3   4
ENDBRANCH   2   3
ENDBRANCH   1   2
BRANCH   1  15
ATOM     15  C   UNL     1      16.260  17.293  33.344  1.00  0.00     0.000 C 
BRANCH  15  16
ATOM     16  C   UNL     1      16.158  15.949  32.598  1.00  0.00     0.000 C 
BRANCH  16  17
ATOM     17  C   UNL     1      17.198  14.909  33.059  1.00  0.00     0.000 C 
BRANCH  17  18
ATOM     18  C   UNL     1      17.894  14.210  31.879  1.00  0.00    -0.000 C 
BRANCH  18  19
ATOM     19  C   UNL     1      17.495  14.857  30.544  1.00  0.00    -0.000 C 
BRANCH  19  20
ATOM     20  C   UNL     1      18.521  15.899  30.066  1.00  0.00    -0.000 C 
BRANCH  20  21
ATOM     21  C   UNL     1      17.890  16.987  29.178  1.00  0.00    -0.000 C 
BRANCH  21  22
ATOM     22  C   UNL     1      16.406  16.713  28.879  1.00  0.00    -0.000 C 
BRANCH  22  23
ATOM     23  C   UNL     1      15.741  17.861  28.099  1.00  0.00    -0.000 C 
BRANCH  23  24
ATOM     24  C   UNL     1      14.401  18.295  28.715  1.00  0.00    -0.000 C 
BRANCH  24  25
ATOM     25  C   UNL     1      14.423  18.297  30.251  1.00  0.00    -0.003 C 
ATOM     26  C   UNL     1      13.248  17.504  30.816  1.00  0.00     0.004 C 
ENDBRANCH  24  25
ENDBRANCH  23  24
ENDBRANCH  22  23
ENDBRANCH  21  22
ENDBRANCH  20  21
ENDBRANCH  19  20
ENDBRANCH  18  19
ENDBRANCH  17  18
ENDBRANCH  16  17
ENDBRANCH  15  16
ENDBRANCH   1  15
TORSDOF 22
ENDMDL
MODEL 8
REMARK VINA RESULT:    -4.348      2.385      5.093
REMARK INTER + INTRA:         -13.742
REMARK INTER:                  -9.529
REMARK INTRA:                  -4.212
REMARK UNBOUND:                -3.801
REMARK SMILES CCCCCCCCCCCCCCCCCCCCCCCC(=O)[O-]
REMARK SMILES IDX 13 1 14 2 15 3 16 4 17 5 18 6 19 7 20 8 21 9 22 10 23 11
REMARK SMILES IDX 24 12 25 13 26 14 12 15 11 16 10 17 9 18 8 19 7 20 6 21 5 22
REMARK SMILES IDX 4 23 3 24 2 25 1 26
REMARK H PARENT
REMARK Flexibility Score: inf
ROOT
ATOM      1  C   UNL     1      16.962  18.345  33.126  1.00  0.00     0.000 C 
ENDROOT
BRANCH   1   2
ATOM      2  C   UNL     1      16.622  16.854  32.965  1.00  0.00     0.000 C 
BRANCH   2   3
ATOM      3  C   UNL     1      17.889  15.980  32.951  1.00  0.00     0.000 C 
BRANCH   3   4
ATOM      4  C   UNL     1      17.786  14.793  31.978  1.00  0.00     0.000 C 
BRANCH   4   5
ATOM      5  C   UNL     1      18.941  14.681  30.965  1.00  0.00     0.000 C 
BRANCH   5   6
ATOM      6  C   UNL     1      19.281  16.025  30.297  1.00  0.00     0.000 C 
BRANCH   6   7
ATOM      7  C   UNL     1      18.712  16.135  28.870  1.00  0.00     0.000 C 
BRANCH   7   8
ATOM      8  C   UNL     1      17.173  16.089  28.803  1.00  0.00     0.000 C 
BRANCH   8   9
ATOM      9  C   UNL     1      16.520  17.392  29.289  1.00  0.00     0.000 C 
BRANCH   9  10
ATOM     10  C   UNL     1      15.040  17.170  29.636  1.00  0.00     0.006 C 
BRANCH  10  11
ATOM     11  C   UNL     1      14.409  18.396  30.309  1.00  0.00     0.053 C 
BRANCH  11  12
ATOM     12  C   UNL     1      13.457  18.007  31.397  1.00  0.00     0.041 C 
ATOM     13  O   UNL     1      13.473  18.614  32.500  1.00  0.00    -0.550 OA
ATOM     14  O   UNL     1      12.577  16.949  31.208  1.00  0.00    -0.550 OA
ENDBRANCH  11  12
ENDBRANCH  10  11
ENDBRANCH   9  10
ENDBRANCH   8   9
ENDBRANCH   7   8
ENDBRANCH   6   7
ENDBRANCH   5   6
ENDBRANCH   4   5
ENDBRANCH   3   4
ENDBRANCH   2   3
ENDBRANCH   1   2
BRANCH   1  15
ATOM     15  C   UNL     1      18.146  18.765  32.236  1.00  0.00     0.000 C 
BRANCH  15  16
ATOM     16  C   UNL     1      19.242  19.509  33.023  1.00  0.00     0.000 C 
BRANCH  16  17
ATOM     17  C   UNL     1      18.749  20.096  34.360  1.00  0.00     0.000 C 
BRANCH  17  18
ATOM     18  C   UNL     1      19.804  19.989  35.475  1.00  0.00    -0.000 C 
BRANCH  18  19
ATOM     19  C   UNL     1      19.228  19.280  36.710  1.00  0.00    -0.000 C 
BRANCH  19  20
ATOM     20  C   UNL     1      17.698  19.406  36.801  1.00  0.00    -0.000 C 
BRANCH  20  21
ATOM     21  C   UNL     1      16.986  18.044  36.721  1.00  0.00    -0.000 C 
BRANCH  21  22
ATOM     22  C   UNL     1      17.950  16.896  36.374  1.00  0.00    -0.000 C 
BRANCH  22  23
ATOM     23  C   UNL     1      17.301  15.511  36.536  1.00  0.00    -0.000 C 
BRANCH  23  24
ATOM     24  C   UNL     1      15.767  15.583  36.614  1.00  0.00    -0.000 C 
BRANCH  24  25
ATOM     25  C   UNL     1      15.090  14.244  36.285  1.00  0.00    -0.003 C 
ATOM     26  C   UNL     1      14.960  14.052  34.776  1.00  0.00     0.004 C 
ENDBRANCH  24  25
ENDBRANCH  23  24
ENDBRANCH  22  23
ENDBRANCH  21  22
ENDBRANCH  20  21
ENDBRANCH  19  20
ENDBRANCH  18  19
ENDBRANCH  17  18
ENDBRANCH  16  17
ENDBRANCH  15  16
ENDBRANCH   1  15
TORSDOF 22
ENDMDL
MODEL 9
REMARK VINA RESULT:    -4.341      1.822      4.927
REMARK INTER + INTRA:         -13.725
REMARK INTER:                 -10.485
REMARK INTRA:                  -3.240
REMARK UNBOUND:                -3.801
REMARK SMILES CCCCCCCCCCCCCCCCCCCCCCCC(=O)[O-]
REMARK SMILES IDX 13 1 14 2 15 3 16 4 17 5 18 6 19 7 20 8 21 9 22 10 23 11
REMARK SMILES IDX 24 12 25 13 26 14 12 15 11 16 10 17 9 18 8 19 7 20 6 21 5 22
REMARK SMILES IDX 4 23 3 24 2 25 1 26
REMARK H PARENT
REMARK Flexibility Score: inf
ROOT
ATOM      1  C   UNL     1      16.344  17.625  32.208  1.00  0.00     0.000 C 
ENDROOT
BRANCH   1   2
ATOM      2  C   UNL     1      17.669  18.315  32.574  1.00  0.00     0.000 C 
BRANCH   2   3
ATOM      3  C   UNL     1      17.472  19.380  33.668  1.00  0.00     0.000 C 
BRANCH   3   4
ATOM      4  C   UNL     1      18.713  20.266  33.871  1.00  0.00     0.000 C 
BRANCH   4   5
ATOM      5  C   UNL     1      19.300  20.248  35.295  1.00  0.00     0.000 C 
BRANCH   5   6
ATOM      6  C   UNL     1      20.718  19.653  35.349  1.00  0.00     0.000 C 
BRANCH   6   7
ATOM      7  C   UNL     1      20.756  18.178  34.907  1.00  0.00     0.000 C 
BRANCH   7   8
ATOM      8  C   UNL     1      20.204  17.194  35.957  1.00  0.00     0.000 C 
BRANCH   8   9
ATOM      9  C   UNL     1      18.908  16.507  35.501  1.00  0.00     0.000 C 
BRANCH   9  10
ATOM     10  C   UNL     1      17.716  16.952  36.363  1.00  0.00     0.006 C 
BRANCH  10  11
ATOM     11  C   UNL     1      16.438  16.167  36.038  1.00  0.00     0.053 C 
BRANCH  11  12
ATOM     12  C   UNL     1      15.623  15.897  37.265  1.00  0.00     0.041 C 
ATOM     13  O   UNL     1      15.242  16.851  37.995  1.00  0.00    -0.550 OA
ATOM     14  O   UNL     1      15.315  14.591  37.624  1.00  0.00    -0.550 OA
ENDBRANCH  11  12
ENDBRANCH  10  11
ENDBRANCH   9  10
ENDBRANCH   8   9
ENDBRANCH   7   8
ENDBRANCH   6   7
ENDBRANCH   5   6
ENDBRANCH   4   5
ENDBRANCH   3   4
ENDBRANCH   2   3
ENDBRANCH   1   2
BRANCH   1  15
ATOM     15  C   UNL     1      15.165  18.616  32.189  1.00  0.00     0.000 C 
BRANCH  15  16
ATOM     16  C   UNL     1      14.002  18.134  31.300  1.00  0.00     0.000 C 
BRANCH  16  17
ATOM     17  C   UNL     1      13.710  16.627  31.431  1.00  0.00     0.000 C 
BRANCH  17  18
ATOM     18  C   UNL     1      13.779  15.894  30.081  1.00  0.00    -0.000 C 
BRANCH  18  19
ATOM     19  C   UNL     1      12.521  16.169  29.242  1.00  0.00    -0.000 C 
BRANCH  19  20
ATOM     20  C   UNL     1      12.790  16.076  27.731  1.00  0.00    -0.000 C 
BRANCH  20  21
ATOM     21  C   UNL     1      12.300  17.319  26.965  1.00  0.00    -0.000 C 
BRANCH  21  22
ATOM     22  C   UNL     1      13.447  18.067  26.264  1.00  0.00    -0.000 C 
BRANCH  22  23
ATOM     23  C   UNL     1      14.817  17.410  26.511  1.00  0.00    -0.000 C 
BRANCH  23  24
ATOM     24  C   UNL     1      15.873  18.412  27.005  1.00  0.00    -0.000 C 
BRANCH  24  25
ATOM     25  C   UNL     1      16.350  18.118  28.435  1.00  0.00    -0.003 C 
ATOM     26  C   UNL     1      17.099  19.313  29.019  1.00  0.00     0.004 C 
ENDBRANCH  24  25
ENDBRANCH  23  24
ENDBRANCH  22  23
ENDBRANCH  21  22
ENDBRANCH  20  21
ENDBRANCH  19  20
ENDBRANCH  18  19
ENDBRANCH  17  18
ENDBRANCH  16  17
ENDBRANCH  15  16
ENDBRANCH   1  15
TORSDOF 22
ENDMDL
