MODEL 1
REMARK VINA RESULT:    -3.504      0.000      0.000
REMARK INTER + INTRA:          -4.152
REMARK INTER:                  -4.119
REMARK INTRA:                  -0.033
REMARK UNBOUND:                -0.033
REMARK SMILES O=C([O-])CCC(=O)[O-]
REMARK SMILES IDX 4 1 2 2 1 3 3 4 5 5 6 6 7 7 8 8
REMARK H PARENT
REMARK Flexibility Score: inf
ROOT
ATOM      1  C   UNL     1      -3.762 -17.890  20.510  1.00  0.00     0.059 C 
ENDROOT
BRANCH   1   2
ATOM      2  C   UNL     1      -4.076 -19.126  21.295  1.00  0.00     0.042 C 
ATOM      3  O   UNL     1      -5.068 -19.838  20.988  1.00  0.00    -0.550 OA
ATOM      4  O   UNL     1      -3.249 -19.514  22.342  1.00  0.00    -0.550 OA
ENDBRANCH   1   2
BRANCH   1   5
ATOM      5  C   UNL     1      -2.497 -17.199  21.029  1.00  0.00     0.059 C 
BRANCH   5   6
ATOM      6  C   UNL     1      -1.865 -16.338  19.978  1.00  0.00     0.042 C 
ATOM      7  O   UNL     1      -0.746 -16.651  19.492  1.00  0.00    -0.550 OA
ATOM      8  O   UNL     1      -2.492 -15.169  19.565  1.00  0.00    -0.550 OA
ENDBRANCH   5   6
ENDBRANCH   1   5
TORSDOF 3
ENDMDL
MODEL 2
REMARK VINA RESULT:    -3.401      0.185      4.268
REMARK INTER + INTRA:          -4.030
REMARK INTER:                  -3.997
REMARK INTRA:                  -0.033
REMARK UNBOUND:                -0.033
REMARK SMILES O=C([O-])CCC(=O)[O-]
REMARK SMILES IDX 4 1 2 2 1 3 3 4 5 5 6 6 7 7 8 8
REMARK H PARENT
REMARK Flexibility Score: inf
ROOT
ATOM      1  C   UNL     1      -2.553 -17.078  21.143  1.00  0.00     0.059 C 
ENDROOT
BRANCH   1   2
ATOM      2  C   UNL     1      -1.883 -16.240  20.098  1.00  0.00     0.042 C 
ATOM      3  O   UNL     1      -2.361 -15.119  19.779  1.00  0.00    -0.550 OA
ATOM      4  O   UNL     1      -0.707 -16.679  19.503  1.00  0.00    -0.550 OA
ENDBRANCH   1   2
BRANCH   1   5
ATOM      5  C   UNL     1      -3.660 -17.950  20.541  1.00  0.00     0.059 C 
BRANCH   5   6
ATOM      6  C   UNL     1      -3.970 -19.129  21.412  1.00  0.00     0.042 C 
ATOM      7  O   UNL     1      -5.047 -19.763  21.259  1.00  0.00    -0.550 OA
ATOM      8  O   UNL     1      -3.091 -19.499  22.422  1.00  0.00    -0.550 OA
ENDBRANCH   5   6
ENDBRANCH   1   5
TORSDOF 3
ENDMDL
MODEL 3
REMARK VINA RESULT:    -3.355     10.451     11.937
REMARK INTER + INTRA:          -3.976
REMARK INTER:                  -3.938
REMARK INTRA:                  -0.038
REMARK UNBOUND:                -0.033
REMARK SMILES O=C([O-])CCC(=O)[O-]
REMARK SMILES IDX 4 1 2 2 1 3 3 4 5 5 6 6 7 7 8 8
REMARK H PARENT
REMARK Flexibility Score: inf
ROOT
ATOM      1  C   UNL     1      -8.946 -28.741  18.527  1.00  0.00     0.059 C 
ENDROOT
BRANCH   1   2
ATOM      2  C   UNL     1      -9.885 -28.820  19.691  1.00  0.00     0.042 C 
ATOM      3  O   UNL     1     -11.124 -28.944  19.501  1.00  0.00    -0.550 OA
ATOM      4  O   UNL     1      -9.389 -28.796  20.988  1.00  0.00    -0.550 OA
ENDBRANCH   1   2
BRANCH   1   5
ATOM      5  C   UNL     1      -9.058 -27.395  17.803  1.00  0.00     0.059 C 
BRANCH   5   6
ATOM      6  C   UNL     1      -7.709 -26.831  17.473  1.00  0.00     0.042 C 
ATOM      7  O   UNL     1      -7.108 -26.102  18.305  1.00  0.00    -0.550 OA
ATOM      8  O   UNL     1      -7.137 -27.077  16.231  1.00  0.00    -0.550 OA
ENDBRANCH   5   6
ENDBRANCH   1   5
TORSDOF 3
ENDMDL
MODEL 4
REMARK VINA RESULT:    -3.302     10.489     12.584
REMARK INTER + INTRA:          -3.914
REMARK INTER:                  -3.878
REMARK INTRA:                  -0.036
REMARK UNBOUND:                -0.033
REMARK SMILES O=C([O-])CCC(=O)[O-]
REMARK SMILES IDX 4 1 2 2 1 3 3 4 5 5 6 6 7 7 8 8
REMARK H PARENT
REMARK Flexibility Score: inf
ROOT
ATOM      1  C   UNL     1      -8.982 -27.412  17.636  1.00  0.00     0.059 C 
ENDROOT
BRANCH   1   2
ATOM      2  C   UNL     1      -7.623 -26.872  17.312  1.00  0.00     0.042 C 
ATOM      3  O   UNL     1      -7.022 -26.130  18.133  1.00  0.00    -0.550 OA
ATOM      4  O   UNL     1      -7.003 -27.221  16.119  1.00  0.00    -0.550 OA
ENDBRANCH   1   2
BRANCH   1   5
ATOM      5  C   UNL     1      -8.895 -28.722  18.426  1.00  0.00     0.059 C 
BRANCH   5   6
ATOM      6  C   UNL     1      -9.890 -28.760  19.545  1.00  0.00     0.042 C 
ATOM      7  O   UNL     1     -11.124 -28.762  19.296  1.00  0.00    -0.550 OA
ATOM      8  O   UNL     1      -9.454 -28.751  20.865  1.00  0.00    -0.550 OA
ENDBRANCH   5   6
ENDBRANCH   1   5
TORSDOF 3
ENDMDL
MODEL 5
REMARK VINA RESULT:    -3.230      2.683      4.650
REMARK INTER + INTRA:          -3.829
REMARK INTER:                  -3.724
REMARK INTRA:                  -0.104
REMARK UNBOUND:                -0.033
REMARK SMILES O=C([O-])CCC(=O)[O-]
REMARK SMILES IDX 4 1 2 2 1 3 3 4 5 5 6 6 7 7 8 8
REMARK H PARENT
REMARK Flexibility Score: inf
ROOT
ATOM      1  C   UNL     1      -1.809 -13.675  20.162  1.00  0.00     0.059 C 
ENDROOT
BRANCH   1   2
ATOM      2  C   UNL     1      -3.029 -13.175  20.872  1.00  0.00     0.042 C 
ATOM      3  O   UNL     1      -3.213 -13.448  22.088  1.00  0.00    -0.550 OA
ATOM      4  O   UNL     1      -3.945 -12.375  20.202  1.00  0.00    -0.550 OA
ENDBRANCH   1   2
BRANCH   1   5
ATOM      5  C   UNL     1      -2.141 -14.835  19.218  1.00  0.00     0.059 C 
BRANCH   5   6
ATOM      6  C   UNL     1      -1.719 -16.153  19.792  1.00  0.00     0.042 C 
ATOM      7  O   UNL     1      -0.619 -16.667  19.457  1.00  0.00    -0.550 OA
ATOM      8  O   UNL     1      -2.559 -16.834  20.664  1.00  0.00    -0.550 OA
ENDBRANCH   5   6
ENDBRANCH   1   5
TORSDOF 3
ENDMDL
MODEL 6
REMARK VINA RESULT:    -3.221      2.708      4.157
REMARK INTER + INTRA:          -3.819
REMARK INTER:                  -3.713
REMARK INTRA:                  -0.106
REMARK UNBOUND:                -0.033
REMARK SMILES O=C([O-])CCC(=O)[O-]
REMARK SMILES IDX 4 1 2 2 1 3 3 4 5 5 6 6 7 7 8 8
REMARK H PARENT
REMARK Flexibility Score: inf
ROOT
ATOM      1  C   UNL     1      -2.119 -14.793  19.210  1.00  0.00     0.059 C 
ENDROOT
BRANCH   1   2
ATOM      2  C   UNL     1      -1.731 -16.117  19.791  1.00  0.00     0.042 C 
ATOM      3  O   UNL     1      -0.643 -16.661  19.462  1.00  0.00    -0.550 OA
ATOM      4  O   UNL     1      -2.552 -16.734  20.726  1.00  0.00    -0.550 OA
ENDBRANCH   1   2
BRANCH   1   5
ATOM      5  C   UNL     1      -1.827 -13.644  20.181  1.00  0.00     0.059 C 
BRANCH   5   6
ATOM      6  C   UNL     1      -3.071 -13.173  20.871  1.00  0.00     0.042 C 
ATOM      7  O   UNL     1      -3.939 -12.520  20.234  1.00  0.00    -0.550 OA
ATOM      8  O   UNL     1      -3.250 -13.417  22.227  1.00  0.00    -0.550 OA
ENDBRANCH   5   6
ENDBRANCH   1   5
TORSDOF 3
ENDMDL
MODEL 7
REMARK VINA RESULT:    -3.148      2.503      4.966
REMARK INTER + INTRA:          -3.733
REMARK INTER:                  -3.705
REMARK INTRA:                  -0.027
REMARK UNBOUND:                -0.033
REMARK SMILES O=C([O-])CCC(=O)[O-]
REMARK SMILES IDX 4 1 2 2 1 3 3 4 5 5 6 6 7 7 8 8
REMARK H PARENT
REMARK Flexibility Score: inf
ROOT
ATOM      1  C   UNL     1      -2.461 -14.099  19.831  1.00  0.00     0.059 C 
ENDROOT
BRANCH   1   2
ATOM      2  C   UNL     1      -2.926 -12.833  20.481  1.00  0.00     0.042 C 
ATOM      3  O   UNL     1      -2.191 -12.240  21.315  1.00  0.00    -0.550 OA
ATOM      4  O   UNL     1      -4.156 -12.286  20.137  1.00  0.00    -0.550 OA
ENDBRANCH   1   2
BRANCH   1   5
ATOM      5  C   UNL     1      -2.126 -15.176  20.868  1.00  0.00     0.059 C 
BRANCH   5   6
ATOM      6  C   UNL     1      -1.937 -16.519  20.230  1.00  0.00     0.042 C 
ATOM      7  O   UNL     1      -2.729 -17.462  20.492  1.00  0.00    -0.550 OA
ATOM      8  O   UNL     1      -0.859 -16.740  19.381  1.00  0.00    -0.550 OA
ENDBRANCH   5   6
ENDBRANCH   1   5
TORSDOF 3
ENDMDL
MODEL 8
REMARK VINA RESULT:    -3.090     10.980     12.194
REMARK INTER + INTRA:          -3.665
REMARK INTER:                  -3.631
REMARK INTRA:                  -0.034
REMARK UNBOUND:                -0.033
REMARK SMILES O=C([O-])CCC(=O)[O-]
REMARK SMILES IDX 4 1 2 2 1 3 3 4 5 5 6 6 7 7 8 8
REMARK H PARENT
REMARK Flexibility Score: inf
ROOT
ATOM      1  C   UNL     1      -8.869 -27.817  19.124  1.00  0.00     0.059 C 
ENDROOT
BRANCH   1   2
ATOM      2  C   UNL     1      -9.942 -28.668  19.729  1.00  0.00     0.042 C 
ATOM      3  O   UNL     1      -9.810 -29.125  20.895  1.00  0.00    -0.550 OA
ATOM      4  O   UNL     1     -11.109 -28.924  19.019  1.00  0.00    -0.550 OA
ENDBRANCH   1   2
BRANCH   1   5
ATOM      5  C   UNL     1      -9.082 -27.626  17.619  1.00  0.00     0.059 C 
BRANCH   5   6
ATOM      6  C   UNL     1      -7.809 -27.247  16.924  1.00  0.00     0.042 C 
ATOM      7  O   UNL     1      -6.971 -26.503  17.498  1.00  0.00    -0.550 OA
ATOM      8  O   UNL     1      -7.570 -27.681  15.626  1.00  0.00    -0.550 OA
ENDBRANCH   5   6
ENDBRANCH   1   5
TORSDOF 3
ENDMDL
MODEL 9
REMARK VINA RESULT:    -3.028      2.579      5.211
REMARK INTER + INTRA:          -3.592
REMARK INTER:                  -3.488
REMARK INTRA:                  -0.104
REMARK UNBOUND:                -0.033
REMARK SMILES O=C([O-])CCC(=O)[O-]
REMARK SMILES IDX 4 1 2 2 1 3 3 4 5 5 6 6 7 7 8 8
REMARK H PARENT
REMARK Flexibility Score: inf
ROOT
ATOM      1  C   UNL     1      -2.149 -13.934  20.417  1.00  0.00     0.059 C 
ENDROOT
BRANCH   1   2
ATOM      2  C   UNL     1      -1.011 -12.998  20.150  1.00  0.00     0.042 C 
ATOM      3  O   UNL     1      -0.963 -11.877  20.722  1.00  0.00    -0.550 OA
ATOM      4  O   UNL     1       0.018 -13.379  19.298  1.00  0.00    -0.550 OA
ENDBRANCH   1   2
BRANCH   1   5
ATOM      5  C   UNL     1      -2.263 -15.008  19.330  1.00  0.00     0.059 C 
BRANCH   5   6
ATOM      6  C   UNL     1      -1.745 -16.332  19.804  1.00  0.00     0.042 C 
ATOM      7  O   UNL     1      -0.595 -16.719  19.467  1.00  0.00    -0.550 OA
ATOM      8  O   UNL     1      -2.549 -17.155  20.583  1.00  0.00    -0.550 OA
ENDBRANCH   5   6
ENDBRANCH   1   5
TORSDOF 3
ENDMDL
