MODEL 1
REMARK VINA RESULT:    -1.682      0.000      0.000
REMARK INTER + INTRA:          -2.331
REMARK INTER:                  -1.977
REMARK INTRA:                  -0.355
REMARK UNBOUND:                -0.355
REMARK SMILES C=C(C)[C@@H]1CC[C@]2(CO)CC[C@]3(C)[C@@H](CC[C@@H]4[C@]5(C)CC[C@@H](O)C(C)(C)[C@@H]5CC[C@@]43C)[C@H]12
REMARK SMILES IDX 4 1 5 2 6 3 7 4 32 5 14 6 15 7 16 8 17 9 18 10 20 11 21 12
REMARK SMILES IDX 22 13 24 14 27 15 28 16 29 17 30 18 12 19 11 20 10 21 13 22
REMARK SMILES IDX 31 23 25 24 26 25 19 26 2 27 3 28 1 29 8 30 9 31 23 33
REMARK H PARENT 9 32 23 34
REMARK Flexibility Score: inf
ROOT
ATOM      1  C   UNL     1       4.272  12.116  16.550  1.00  0.00     0.018 C 
ATOM      2  C   UNL     1       4.342  12.239  15.035  1.00  0.00     0.009 C 
ATOM      3  C   UNL     1       3.700  13.587  14.730  1.00  0.00     0.010 C 
ATOM      4  C   UNL     1       3.756  14.442  16.041  1.00  0.00    -0.003 C 
ATOM      5  C   UNL     1       4.554  13.548  17.064  1.00  0.00     0.008 C 
ATOM      6  C   UNL     1       6.106  13.823  17.270  1.00  0.00    -0.000 C 
ATOM      7  C   UNL     1       6.480  13.496  18.741  1.00  0.00     0.005 C 
ATOM      8  C   UNL     1       6.407  14.729  19.613  1.00  0.00     0.005 C 
ATOM      9  C   UNL     1       7.547  15.730  19.285  1.00  0.00     0.002 C 
ATOM     10  C   UNL     1       7.471  17.067  20.202  1.00  0.00    -0.026 C 
ATOM     11  C   UNL     1       5.992  17.469  20.526  1.00  0.00     0.010 C 
ATOM     12  C   UNL     1       5.824  18.798  21.277  1.00  0.00     0.033 C 
ATOM     13  C   UNL     1       6.506  19.966  20.563  1.00  0.00     0.120 C 
ATOM     14  C   UNL     1       8.017  19.704  20.289  1.00  0.00    -0.006 C 
ATOM     15  C   UNL     1       8.204  18.301  19.539  1.00  0.00     0.003 C 
ATOM     16  C   UNL     1       7.767  18.380  18.060  1.00  0.00     0.005 C 
ATOM     17  C   UNL     1       8.344  17.224  17.269  1.00  0.00     0.008 C 
ATOM     18  C   UNL     1       7.877  15.793  17.704  1.00  0.00    -0.024 C 
ATOM     19  C   UNL     1       6.664  15.227  16.769  1.00  0.00    -0.024 C 
ATOM     20  C   UNL     1       5.496  16.248  16.723  1.00  0.00     0.008 C 
ATOM     21  C   UNL     1       4.363  15.859  15.781  1.00  0.00     0.010 C 
ATOM     22  C   UNL     1       7.161  15.012  15.291  1.00  0.00     0.012 C 
ATOM     23  C   UNL     1       9.154  14.906  17.443  1.00  0.00     0.012 C 
ATOM     24  C   UNL     1       8.848  19.762  21.611  1.00  0.00     0.014 C 
ATOM     25  C   UNL     1       8.556  20.882  19.418  1.00  0.00     0.014 C 
ATOM     26  C   UNL     1       8.168  16.694  21.552  1.00  0.00     0.012 C 
ENDROOT
BRANCH   1  27
ATOM     27  C   UNL     1       5.062  10.967  17.187  1.00  0.00    -0.077 C 
ATOM     28  C   UNL     1       4.469  10.249  18.372  1.00  0.00     0.039 C 
ATOM     29  C   UNL     1       6.251  10.542  16.722  1.00  0.00     0.008 C 
ENDBRANCH   1  27
BRANCH   4  30
ATOM     30  C   UNL     1       2.299  14.636  16.590  1.00  0.00     0.163 C 
BRANCH  30  31
ATOM     31  O   UNL     1       1.417  15.099  15.598  1.00  0.00    -0.396 OA
ATOM     32  H   UNL     1       1.961  15.370  14.814  1.00  0.00     0.210 HD
ENDBRANCH  30  31
ENDBRANCH   4  30
BRANCH  13  33
ATOM     33  O   UNL     1       6.337  21.125  21.345  1.00  0.00    -0.393 OA
ATOM     34  H   UNL     1       5.423  21.095  21.730  1.00  0.00     0.210 HD
ENDBRANCH  13  33
TORSDOF 4
ENDMDL
MODEL 2
REMARK VINA RESULT:    -1.403      1.864      7.476
REMARK INTER + INTRA:          -2.004
REMARK INTER:                  -1.531
REMARK INTRA:                  -0.473
REMARK UNBOUND:                -0.355
REMARK SMILES C=C(C)[C@@H]1CC[C@]2(CO)CC[C@]3(C)[C@@H](CC[C@@H]4[C@]5(C)CC[C@@H](O)C(C)(C)[C@@H]5CC[C@@]43C)[C@H]12
REMARK SMILES IDX 4 1 5 2 6 3 7 4 32 5 14 6 15 7 16 8 17 9 18 10 20 11 21 12
REMARK SMILES IDX 22 13 24 14 27 15 28 16 29 17 30 18 12 19 11 20 10 21 13 22
REMARK SMILES IDX 31 23 25 24 26 25 19 26 2 27 3 28 1 29 8 30 9 31 23 33
REMARK H PARENT 9 32 23 34
REMARK Flexibility Score: inf
ROOT
ATOM      1  C   UNL     1       7.001  19.524  20.153  1.00  0.00     0.018 C 
ATOM      2  C   UNL     1       8.160  19.492  21.138  1.00  0.00     0.009 C 
ATOM      3  C   UNL     1       7.801  18.379  22.115  1.00  0.00     0.010 C 
ATOM      4  C   UNL     1       6.758  17.449  21.407  1.00  0.00    -0.003 C 
ATOM      5  C   UNL     1       6.629  18.035  19.951  1.00  0.00     0.008 C 
ATOM      6  C   UNL     1       7.461  17.357  18.777  1.00  0.00    -0.000 C 
ATOM      7  C   UNL     1       6.650  17.475  17.458  1.00  0.00     0.005 C 
ATOM      8  C   UNL     1       5.803  16.244  17.223  1.00  0.00     0.005 C 
ATOM      9  C   UNL     1       6.674  15.009  16.870  1.00  0.00     0.002 C 
ATOM     10  C   UNL     1       5.778  13.676  16.632  1.00  0.00    -0.026 C 
ATOM     11  C   UNL     1       4.517  13.647  17.561  1.00  0.00     0.010 C 
ATOM     12  C   UNL     1       3.686  12.358  17.496  1.00  0.00     0.033 C 
ATOM     13  C   UNL     1       4.523  11.105  17.763  1.00  0.00     0.120 C 
ATOM     14  C   UNL     1       5.751  10.988  16.811  1.00  0.00    -0.006 C 
ATOM     15  C   UNL     1       6.602  12.344  16.844  1.00  0.00     0.003 C 
ATOM     16  C   UNL     1       7.407  12.483  18.155  1.00  0.00     0.005 C 
ATOM     17  C   UNL     1       8.516  13.504  17.997  1.00  0.00     0.008 C 
ATOM     18  C   UNL     1       8.060  14.973  17.700  1.00  0.00    -0.024 C 
ATOM     19  C   UNL     1       8.029  15.894  19.047  1.00  0.00    -0.024 C 
ATOM     20  C   UNL     1       7.173  15.214  20.148  1.00  0.00     0.008 C 
ATOM     21  C   UNL     1       7.177  15.946  21.485  1.00  0.00     0.010 C 
ATOM     22  C   UNL     1       9.482  16.077  19.624  1.00  0.00     0.012 C 
ATOM     23  C   UNL     1       9.200  15.517  16.757  1.00  0.00     0.012 C 
ATOM     24  C   UNL     1       5.305  10.627  15.358  1.00  0.00     0.014 C 
ATOM     25  C   UNL     1       6.609   9.774  17.286  1.00  0.00     0.014 C 
ATOM     26  C   UNL     1       5.276  13.763  15.152  1.00  0.00     0.012 C 
ENDROOT
BRANCH   1  27
ATOM     27  C   UNL     1       7.185  20.384  18.898  1.00  0.00    -0.077 C 
ATOM     28  C   UNL     1       8.581  20.642  18.393  1.00  0.00     0.039 C 
ATOM     29  C   UNL     1       6.156  20.899  18.198  1.00  0.00     0.008 C 
ENDBRANCH   1  27
BRANCH   4  30
ATOM     30  C   UNL     1       5.369  17.599  22.123  1.00  0.00     0.163 C 
BRANCH  30  31
ATOM     31  O   UNL     1       4.642  16.397  22.125  1.00  0.00    -0.396 OA
ATOM     32  H   UNL     1       3.677  16.629  22.112  1.00  0.00     0.210 HD
ENDBRANCH  30  31
ENDBRANCH   4  30
BRANCH  13  33
ATOM     33  O   UNL     1       3.689   9.978  17.639  1.00  0.00    -0.393 OA
ATOM     34  H   UNL     1       3.388   9.726  18.550  1.00  0.00     0.210 HD
ENDBRANCH  13  33
TORSDOF 4
ENDMDL
