MODEL 1
REMARK VINA RESULT:    -2.947      0.000      0.000
REMARK INTER + INTRA:          -3.306
REMARK INTER:                  -3.292
REMARK INTRA:                  -0.014
REMARK UNBOUND:                -0.014
REMARK SMILES CCCC(=O)[O-]
REMARK SMILES IDX 3 1 4 2 5 3 6 4 2 5 1 6
REMARK H PARENT
REMARK Flexibility Score: inf
ROOT
ATOM      1  C   UNL     1       6.622   8.565  34.212  1.00  0.00     0.052 C 
ENDROOT
BRANCH   1   2
ATOM      2  C   UNL     1       6.694   7.093  33.956  1.00  0.00     0.041 C 
ATOM      3  O   UNL     1       5.920   6.556  33.122  1.00  0.00    -0.550 OA
ATOM      4  O   UNL     1       7.651   6.321  34.604  1.00  0.00    -0.550 OA
ENDBRANCH   1   2
BRANCH   1   5
ATOM      5  C   UNL     1       7.063   9.347  32.971  1.00  0.00     0.003 C 
ATOM      6  C   UNL     1       6.343  10.690  32.882  1.00  0.00     0.004 C 
ENDBRANCH   1   5
TORSDOF 2
ENDMDL
MODEL 2
REMARK VINA RESULT:    -2.890      2.464      3.390
REMARK INTER + INTRA:          -3.242
REMARK INTER:                  -3.204
REMARK INTRA:                  -0.038
REMARK UNBOUND:                -0.014
REMARK SMILES CCCC(=O)[O-]
REMARK SMILES IDX 3 1 4 2 5 3 6 4 2 5 1 6
REMARK H PARENT
REMARK Flexibility Score: inf
ROOT
ATOM      1  C   UNL     1       7.305   8.752  33.035  1.00  0.00     0.052 C 
ENDROOT
BRANCH   1   2
ATOM      2  C   UNL     1       6.528   9.949  33.483  1.00  0.00     0.041 C 
ATOM      3  O   UNL     1       6.196  10.836  32.655  1.00  0.00    -0.550 OA
ATOM      4  O   UNL     1       6.130  10.063  34.810  1.00  0.00    -0.550 OA
ENDBRANCH   1   2
BRANCH   1   5
ATOM      5  C   UNL     1       6.534   7.466  33.347  1.00  0.00     0.003 C 
ATOM      6  C   UNL     1       7.282   6.608  34.363  1.00  0.00     0.004 C 
ENDBRANCH   1   5
TORSDOF 2
ENDMDL
MODEL 3
REMARK VINA RESULT:    -2.889      1.229      1.550
REMARK INTER + INTRA:          -3.241
REMARK INTER:                  -3.202
REMARK INTRA:                  -0.039
REMARK UNBOUND:                -0.014
REMARK SMILES CCCC(=O)[O-]
REMARK SMILES IDX 3 1 4 2 5 3 6 4 2 5 1 6
REMARK H PARENT
REMARK Flexibility Score: inf
ROOT
ATOM      1  C   UNL     1       6.663   7.740  33.321  1.00  0.00     0.052 C 
ENDROOT
BRANCH   1   2
ATOM      2  C   UNL     1       6.993   7.269  34.702  1.00  0.00     0.041 C 
ATOM      3  O   UNL     1       7.706   6.246  34.869  1.00  0.00    -0.550 OA
ATOM      4  O   UNL     1       6.551   7.989  35.806  1.00  0.00    -0.550 OA
ENDBRANCH   1   2
BRANCH   1   5
ATOM      5  C   UNL     1       7.436   9.020  32.993  1.00  0.00     0.003 C 
ATOM      6  C   UNL     1       6.506  10.229  32.946  1.00  0.00     0.004 C 
ENDBRANCH   1   5
TORSDOF 2
ENDMDL
MODEL 4
REMARK VINA RESULT:    -2.841      2.402      3.532
REMARK INTER + INTRA:          -3.187
REMARK INTER:                  -3.149
REMARK INTRA:                  -0.038
REMARK UNBOUND:                -0.014
REMARK SMILES CCCC(=O)[O-]
REMARK SMILES IDX 3 1 4 2 5 3 6 4 2 5 1 6
REMARK H PARENT
REMARK Flexibility Score: inf
ROOT
ATOM      1  C   UNL     1       7.241   8.470  32.978  1.00  0.00     0.052 C 
ENDROOT
BRANCH   1   2
ATOM      2  C   UNL     1       6.607   9.729  33.479  1.00  0.00     0.041 C 
ATOM      3  O   UNL     1       6.366   9.872  34.706  1.00  0.00    -0.550 OA
ATOM      4  O   UNL     1       6.326  10.764  32.596  1.00  0.00    -0.550 OA
ENDBRANCH   1   2
BRANCH   1   5
ATOM      5  C   UNL     1       6.446   7.247  33.445  1.00  0.00     0.003 C 
ATOM      6  C   UNL     1       7.247   6.419  34.446  1.00  0.00     0.004 C 
ENDBRANCH   1   5
TORSDOF 2
ENDMDL
MODEL 5
REMARK VINA RESULT:    -2.332     10.084     11.158
REMARK INTER + INTRA:          -2.619
REMARK INTER:                  -2.612
REMARK INTRA:                  -0.007
REMARK UNBOUND:                -0.014
REMARK SMILES CCCC(=O)[O-]
REMARK SMILES IDX 3 1 4 2 5 3 6 4 2 5 1 6
REMARK H PARENT
REMARK Flexibility Score: inf
ROOT
ATOM      1  C   UNL     1       5.998  19.177  33.126  1.00  0.00     0.052 C 
ENDROOT
BRANCH   1   2
ATOM      2  C   UNL     1       6.264  18.404  34.378  1.00  0.00     0.041 C 
ATOM      3  O   UNL     1       6.223  17.146  34.367  1.00  0.00    -0.550 OA
ATOM      4  O   UNL     1       6.606  19.071  35.549  1.00  0.00    -0.550 OA
ENDBRANCH   1   2
BRANCH   1   5
ATOM      5  C   UNL     1       7.126  20.180  32.866  1.00  0.00     0.003 C 
ATOM      6  C   UNL     1       6.831  21.033  31.636  1.00  0.00     0.004 C 
ENDBRANCH   1   5
TORSDOF 2
ENDMDL
MODEL 6
REMARK VINA RESULT:    -2.241     21.394     22.143
REMARK INTER + INTRA:          -2.517
REMARK INTER:                  -2.508
REMARK INTRA:                  -0.009
REMARK UNBOUND:                -0.014
REMARK SMILES CCCC(=O)[O-]
REMARK SMILES IDX 3 1 4 2 5 3 6 4 2 5 1 6
REMARK H PARENT
REMARK Flexibility Score: inf
ROOT
ATOM      1  C   UNL     1      18.770  20.986  19.926  1.00  0.00     0.052 C 
ENDROOT
BRANCH   1   2
ATOM      2  C   UNL     1      19.829  21.087  20.977  1.00  0.00     0.041 C 
ATOM      3  O   UNL     1      19.612  21.729  22.037  1.00  0.00    -0.550 OA
ATOM      4  O   UNL     1      21.042  20.430  20.807  1.00  0.00    -0.550 OA
ENDBRANCH   1   2
BRANCH   1   5
ATOM      5  C   UNL     1      18.608  19.535  19.466  1.00  0.00     0.003 C 
ATOM      6  C   UNL     1      17.135  19.146  19.378  1.00  0.00     0.004 C 
ENDBRANCH   1   5
TORSDOF 2
ENDMDL
MODEL 7
REMARK VINA RESULT:    -2.203     21.401     21.699
REMARK INTER + INTRA:          -2.474
REMARK INTER:                  -2.467
REMARK INTRA:                  -0.007
REMARK UNBOUND:                -0.014
REMARK SMILES CCCC(=O)[O-]
REMARK SMILES IDX 3 1 4 2 5 3 6 4 2 5 1 6
REMARK H PARENT
REMARK Flexibility Score: inf
ROOT
ATOM      1  C   UNL     1      18.247  17.871  17.398  1.00  0.00     0.052 C 
ENDROOT
BRANCH   1   2
ATOM      2  C   UNL     1      17.593  18.682  18.472  1.00  0.00     0.041 C 
ATOM      3  O   UNL     1      18.251  19.045  19.482  1.00  0.00    -0.550 OA
ATOM      4  O   UNL     1      16.268  19.078  18.335  1.00  0.00    -0.550 OA
ENDBRANCH   1   2
BRANCH   1   5
ATOM      5  C   UNL     1      18.606  16.478  17.923  1.00  0.00     0.003 C 
ATOM      6  C   UNL     1      18.309  15.404  16.880  1.00  0.00     0.004 C 
ENDBRANCH   1   5
TORSDOF 2
ENDMDL
MODEL 8
REMARK VINA RESULT:    -2.153      3.758      4.118
REMARK INTER + INTRA:          -2.418
REMARK INTER:                  -2.379
REMARK INTRA:                  -0.039
REMARK UNBOUND:                -0.014
REMARK SMILES CCCC(=O)[O-]
REMARK SMILES IDX 3 1 4 2 5 3 6 4 2 5 1 6
REMARK H PARENT
REMARK Flexibility Score: inf
ROOT
ATOM      1  C   UNL     1       6.212   9.992  35.246  1.00  0.00     0.052 C 
ENDROOT
BRANCH   1   2
ATOM      2  C   UNL     1       6.247  11.467  35.489  1.00  0.00     0.041 C 
ATOM      3  O   UNL     1       5.875  12.267  34.591  1.00  0.00    -0.550 OA
ATOM      4  O   UNL     1       6.648  11.959  36.726  1.00  0.00    -0.550 OA
ENDBRANCH   1   2
BRANCH   1   5
ATOM      5  C   UNL     1       5.885   9.699  33.779  1.00  0.00     0.003 C 
ATOM      6  C   UNL     1       7.140   9.308  33.003  1.00  0.00     0.004 C 
ENDBRANCH   1   5
TORSDOF 2
ENDMDL
MODEL 9
REMARK VINA RESULT:    -2.039     20.152     20.550
REMARK INTER + INTRA:          -2.292
REMARK INTER:                  -2.255
REMARK INTRA:                  -0.037
REMARK UNBOUND:                -0.014
REMARK SMILES CCCC(=O)[O-]
REMARK SMILES IDX 3 1 4 2 5 3 6 4 2 5 1 6
REMARK H PARENT
REMARK Flexibility Score: inf
ROOT
ATOM      1  C   UNL     1      21.772   4.647  19.866  1.00  0.00     0.052 C 
ENDROOT
BRANCH   1   2
ATOM      2  C   UNL     1      20.701   3.639  20.139  1.00  0.00     0.041 C 
ATOM      3  O   UNL     1      20.900   2.711  20.966  1.00  0.00    -0.550 OA
ATOM      4  O   UNL     1      19.465   3.752  19.515  1.00  0.00    -0.550 OA
ENDBRANCH   1   2
BRANCH   1   5
ATOM      5  C   UNL     1      21.869   4.932  18.365  1.00  0.00     0.003 C 
ATOM      6  C   UNL     1      21.623   6.408  18.067  1.00  0.00     0.004 C 
ENDBRANCH   1   5
TORSDOF 2
ENDMDL
