MODEL 1
REMARK VINA RESULT:    -4.742      0.000      0.000
REMARK INTER + INTRA:          -5.403
REMARK INTER:                  -5.157
REMARK INTRA:                  -0.246
REMARK UNBOUND:                -0.246
REMARK SMILES O=C([O-])c1ccccc1O
REMARK SMILES IDX 4 1 9 2 5 3 8 4 6 5 7 6 2 7 1 8 3 9 10 10
REMARK H PARENT 10 11
REMARK Flexibility Score: inf
ROOT
ATOM      1  C   UNL     1      18.091  21.940  23.125  1.00  0.00     0.039 A 
ATOM      2  C   UNL     1      19.246  21.343  22.567  1.00  0.00     0.124 A 
ATOM      3  C   UNL     1      17.028  22.293  22.271  1.00  0.00     0.014 A 
ATOM      4  C   UNL     1      19.316  21.115  21.183  1.00  0.00     0.047 A 
ATOM      5  C   UNL     1      17.112  22.061  20.896  1.00  0.00     0.001 A 
ATOM      6  C   UNL     1      18.253  21.473  20.353  1.00  0.00     0.004 A 
ENDROOT
BRANCH   1   7
ATOM      7  C   UNL     1      17.968  22.202  24.582  1.00  0.00     0.075 C 
ATOM      8  O   UNL     1      18.944  22.633  25.250  1.00  0.00    -0.545 OA
ATOM      9  O   UNL     1      16.761  21.974  25.236  1.00  0.00    -0.545 OA
ENDBRANCH   1   7
BRANCH   2  10
ATOM     10  O   UNL     1      20.322  20.976  23.375  1.00  0.00    -0.507 OA
ATOM     11  H   UNL     1      20.350  20.082  23.852  1.00  0.00     0.293 HD
ENDBRANCH   2  10
TORSDOF 2
ENDMDL
MODEL 2
REMARK VINA RESULT:    -4.685     13.396     14.851
REMARK INTER + INTRA:          -5.342
REMARK INTER:                  -5.099
REMARK INTRA:                  -0.243
REMARK UNBOUND:                -0.246
REMARK SMILES O=C([O-])c1ccccc1O
REMARK SMILES IDX 4 1 9 2 5 3 8 4 6 5 7 6 2 7 1 8 3 9 10 10
REMARK H PARENT 10 11
REMARK Flexibility Score: inf
ROOT
ATOM      1  C   UNL     1      21.463  34.549  29.591  1.00  0.00     0.039 A 
ATOM      2  C   UNL     1      21.414  33.141  29.466  1.00  0.00     0.124 A 
ATOM      3  C   UNL     1      20.943  35.146  30.756  1.00  0.00     0.014 A 
ATOM      4  C   UNL     1      20.853  32.366  30.493  1.00  0.00     0.047 A 
ATOM      5  C   UNL     1      20.387  34.363  31.771  1.00  0.00     0.001 A 
ATOM      6  C   UNL     1      20.342  32.976  31.640  1.00  0.00     0.004 A 
ENDROOT
BRANCH   1   7
ATOM      7  C   UNL     1      22.046  35.413  28.533  1.00  0.00     0.075 C 
ATOM      8  O   UNL     1      23.230  35.248  28.138  1.00  0.00    -0.545 OA
ATOM      9  O   UNL     1      21.286  36.425  27.956  1.00  0.00    -0.545 OA
ENDBRANCH   1   7
BRANCH   2  10
ATOM     10  O   UNL     1      21.919  32.507  28.330  1.00  0.00    -0.507 OA
ATOM     11  H   UNL     1      22.865  32.145  28.298  1.00  0.00     0.293 HD
ENDBRANCH   2  10
TORSDOF 2
ENDMDL
MODEL 3
REMARK VINA RESULT:    -4.597      1.987      2.583
REMARK INTER + INTRA:          -5.246
REMARK INTER:                  -4.997
REMARK INTRA:                  -0.249
REMARK UNBOUND:                -0.246
REMARK SMILES O=C([O-])c1ccccc1O
REMARK SMILES IDX 4 1 9 2 5 3 8 4 6 5 7 6 2 7 1 8 3 9 10 10
REMARK H PARENT 10 11
REMARK Flexibility Score: inf
ROOT
ATOM      1  C   UNL     1      19.844  20.423  23.599  1.00  0.00     0.039 A 
ATOM      2  C   UNL     1      20.912  19.608  23.156  1.00  0.00     0.124 A 
ATOM      3  C   UNL     1      19.169  21.227  22.661  1.00  0.00     0.014 A 
ATOM      4  C   UNL     1      21.280  19.612  21.801  1.00  0.00     0.047 A 
ATOM      5  C   UNL     1      19.545  21.223  21.316  1.00  0.00     0.001 A 
ATOM      6  C   UNL     1      20.599  20.417  20.886  1.00  0.00     0.004 A 
ENDROOT
BRANCH   1   7
ATOM      7  C   UNL     1      19.417  20.454  25.021  1.00  0.00     0.075 C 
ATOM      8  O   UNL     1      19.305  19.392  25.689  1.00  0.00    -0.545 OA
ATOM      9  O   UNL     1      19.132  21.666  25.642  1.00  0.00    -0.545 OA
ENDBRANCH   1   7
BRANCH   2  10
ATOM     10  O   UNL     1      21.609  18.794  24.050  1.00  0.00    -0.507 OA
ATOM     11  H   UNL     1      21.690  17.794  23.908  1.00  0.00     0.293 HD
ENDBRANCH   2  10
TORSDOF 2
ENDMDL
MODEL 4
REMARK VINA RESULT:    -4.493     15.697     16.478
REMARK INTER + INTRA:          -5.132
REMARK INTER:                  -4.915
REMARK INTRA:                  -0.217
REMARK UNBOUND:                -0.246
REMARK SMILES O=C([O-])c1ccccc1O
REMARK SMILES IDX 4 1 9 2 5 3 8 4 6 5 7 6 2 7 1 8 3 9 10 10
REMARK H PARENT 10 11
REMARK Flexibility Score: inf
ROOT
ATOM      1  C   UNL     1      29.985  31.713  18.204  1.00  0.00     0.039 A 
ATOM      2  C   UNL     1      30.681  32.174  19.347  1.00  0.00     0.124 A 
ATOM      3  C   UNL     1      30.691  31.562  16.995  1.00  0.00     0.014 A 
ATOM      4  C   UNL     1      32.051  32.471  19.260  1.00  0.00     0.047 A 
ATOM      5  C   UNL     1      32.053  31.862  16.922  1.00  0.00     0.001 A 
ATOM      6  C   UNL     1      32.732  32.316  18.052  1.00  0.00     0.004 A 
ENDROOT
BRANCH   1   7
ATOM      7  C   UNL     1      28.537  31.385  18.246  1.00  0.00     0.075 C 
ATOM      8  O   UNL     1      28.106  30.434  18.950  1.00  0.00    -0.545 OA
ATOM      9  O   UNL     1      27.628  32.130  17.501  1.00  0.00    -0.545 OA
ENDBRANCH   1   7
BRANCH   2  10
ATOM     10  O   UNL     1      30.024  32.337  20.567  1.00  0.00    -0.507 OA
ATOM     11  H   UNL     1      29.649  33.234  20.854  1.00  0.00     0.293 HD
ENDBRANCH   2  10
TORSDOF 2
ENDMDL
MODEL 5
REMARK VINA RESULT:    -4.485      2.289      3.186
REMARK INTER + INTRA:          -5.124
REMARK INTER:                  -4.873
REMARK INTRA:                  -0.251
REMARK UNBOUND:                -0.246
REMARK SMILES O=C([O-])c1ccccc1O
REMARK SMILES IDX 4 1 9 2 5 3 8 4 6 5 7 6 2 7 1 8 3 9 10 10
REMARK H PARENT 10 11
REMARK Flexibility Score: inf
ROOT
ATOM      1  C   UNL     1      18.824  20.592  24.750  1.00  0.00     0.039 A 
ATOM      2  C   UNL     1      19.542  20.516  23.532  1.00  0.00     0.124 A 
ATOM      3  C   UNL     1      18.677  19.426  25.526  1.00  0.00     0.014 A 
ATOM      4  C   UNL     1      20.090  19.290  23.119  1.00  0.00     0.047 A 
ATOM      5  C   UNL     1      19.227  18.214  25.103  1.00  0.00     0.001 A 
ATOM      6  C   UNL     1      19.932  18.146  23.902  1.00  0.00     0.004 A 
ENDROOT
BRANCH   1   7
ATOM      7  C   UNL     1      18.226  21.863  25.231  1.00  0.00     0.075 C 
ATOM      8  O   UNL     1      18.895  22.930  25.251  1.00  0.00    -0.545 OA
ATOM      9  O   UNL     1      16.906  21.895  25.669  1.00  0.00    -0.545 OA
ENDBRANCH   1   7
BRANCH   2  10
ATOM     10  O   UNL     1      19.714  21.645  22.732  1.00  0.00    -0.507 OA
ATOM     11  H   UNL     1      19.416  21.662  21.764  1.00  0.00     0.293 HD
ENDBRANCH   2  10
TORSDOF 2
ENDMDL
MODEL 6
REMARK VINA RESULT:    -4.464     16.606     17.379
REMARK INTER + INTRA:          -5.102
REMARK INTER:                  -4.852
REMARK INTRA:                  -0.249
REMARK UNBOUND:                -0.246
REMARK SMILES O=C([O-])c1ccccc1O
REMARK SMILES IDX 4 1 9 2 5 3 8 4 6 5 7 6 2 7 1 8 3 9 10 10
REMARK H PARENT 10 11
REMARK Flexibility Score: inf
ROOT
ATOM      1  C   UNL     1      31.867  32.233  19.500  1.00  0.00     0.039 A 
ATOM      2  C   UNL     1      30.469  32.133  19.306  1.00  0.00     0.124 A 
ATOM      3  C   UNL     1      32.720  32.074  18.391  1.00  0.00     0.014 A 
ATOM      4  C   UNL     1      29.957  31.878  18.024  1.00  0.00     0.047 A 
ATOM      5  C   UNL     1      32.197  31.820  17.121  1.00  0.00     0.001 A 
ATOM      6  C   UNL     1      30.818  31.722  16.937  1.00  0.00     0.004 A 
ENDROOT
BRANCH   1   7
ATOM      7  C   UNL     1      32.457  32.503  20.836  1.00  0.00     0.075 C 
ATOM      8  O   UNL     1      32.041  31.906  21.863  1.00  0.00    -0.545 OA
ATOM      9  O   UNL     1      33.489  33.425  20.973  1.00  0.00    -0.545 OA
ENDBRANCH   1   7
BRANCH   2  10
ATOM     10  O   UNL     1      29.586  32.285  20.375  1.00  0.00    -0.507 OA
ATOM     11  H   UNL     1      29.201  33.189  20.624  1.00  0.00     0.293 HD
ENDBRANCH   2  10
TORSDOF 2
ENDMDL
MODEL 7
REMARK VINA RESULT:    -4.358      2.962      4.164
REMARK INTER + INTRA:          -4.986
REMARK INTER:                  -4.736
REMARK INTRA:                  -0.250
REMARK UNBOUND:                -0.246
REMARK SMILES O=C([O-])c1ccccc1O
REMARK SMILES IDX 4 1 9 2 5 3 8 4 6 5 7 6 2 7 1 8 3 9 10 10
REMARK H PARENT 10 11
REMARK Flexibility Score: inf
ROOT
ATOM      1  C   UNL     1      20.250  20.358  22.791  1.00  0.00     0.039 A 
ATOM      2  C   UNL     1      20.509  19.737  24.035  1.00  0.00     0.124 A 
ATOM      3  C   UNL     1      19.236  21.333  22.716  1.00  0.00     0.014 A 
ATOM      4  C   UNL     1      19.759  20.096  25.167  1.00  0.00     0.047 A 
ATOM      5  C   UNL     1      18.497  21.681  23.849  1.00  0.00     0.001 A 
ATOM      6  C   UNL     1      18.758  21.064  25.072  1.00  0.00     0.004 A 
ENDROOT
BRANCH   1   7
ATOM      7  C   UNL     1      21.015  20.014  21.565  1.00  0.00     0.075 C 
ATOM      8  O   UNL     1      22.274  20.014  21.564  1.00  0.00    -0.545 OA
ATOM      9  O   UNL     1      20.347  19.681  20.391  1.00  0.00    -0.545 OA
ENDBRANCH   1   7
BRANCH   2  10
ATOM     10  O   UNL     1      21.505  18.767  24.156  1.00  0.00    -0.507 OA
ATOM     11  H   UNL     1      22.467  19.014  24.357  1.00  0.00     0.293 HD
ENDBRANCH   2  10
TORSDOF 2
ENDMDL
MODEL 8
REMARK VINA RESULT:    -4.320      2.467      3.439
REMARK INTER + INTRA:          -4.945
REMARK INTER:                  -4.691
REMARK INTRA:                  -0.253
REMARK UNBOUND:                -0.246
REMARK SMILES O=C([O-])c1ccccc1O
REMARK SMILES IDX 4 1 9 2 5 3 8 4 6 5 7 6 2 7 1 8 3 9 10 10
REMARK H PARENT 10 11
REMARK Flexibility Score: inf
ROOT
ATOM      1  C   UNL     1      20.070  20.500  22.597  1.00  0.00     0.039 A 
ATOM      2  C   UNL     1      19.802  20.599  21.211  1.00  0.00     0.124 A 
ATOM      3  C   UNL     1      19.168  21.083  23.507  1.00  0.00     0.014 A 
ATOM      4  C   UNL     1      18.652  21.273  20.768  1.00  0.00     0.047 A 
ATOM      5  C   UNL     1      18.028  21.749  23.053  1.00  0.00     0.001 A 
ATOM      6  C   UNL     1      17.770  21.844  21.686  1.00  0.00     0.004 A 
ENDROOT
BRANCH   1   7
ATOM      7  C   UNL     1      21.273  19.798  23.115  1.00  0.00     0.075 C 
ATOM      8  O   UNL     1      21.197  19.022  24.103  1.00  0.00    -0.545 OA
ATOM      9  O   UNL     1      22.511  19.990  22.511  1.00  0.00    -0.545 OA
ENDBRANCH   1   7
BRANCH   2  10
ATOM     10  O   UNL     1      20.667  20.036  20.273  1.00  0.00    -0.507 OA
ATOM     11  H   UNL     1      20.656  19.044  20.066  1.00  0.00     0.293 HD
ENDBRANCH   2  10
TORSDOF 2
ENDMDL
MODEL 9
REMARK VINA RESULT:    -4.289      1.594      3.341
REMARK INTER + INTRA:          -4.911
REMARK INTER:                  -4.660
REMARK INTRA:                  -0.251
REMARK UNBOUND:                -0.246
REMARK SMILES O=C([O-])c1ccccc1O
REMARK SMILES IDX 4 1 9 2 5 3 8 4 6 5 7 6 2 7 1 8 3 9 10 10
REMARK H PARENT 10 11
REMARK Flexibility Score: inf
ROOT
ATOM      1  C   UNL     1      20.221  20.535  22.219  1.00  0.00     0.039 A 
ATOM      2  C   UNL     1      19.208  21.135  23.005  1.00  0.00     0.124 A 
ATOM      3  C   UNL     1      20.077  20.525  20.818  1.00  0.00     0.014 A 
ATOM      4  C   UNL     1      18.085  21.704  22.382  1.00  0.00     0.047 A 
ATOM      5  C   UNL     1      18.955  21.094  20.212  1.00  0.00     0.001 A 
ATOM      6  C   UNL     1      17.961  21.683  20.993  1.00  0.00     0.004 A 
ENDROOT
BRANCH   1   7
ATOM      7  C   UNL     1      21.428  19.921  22.829  1.00  0.00     0.075 C 
ATOM      8  O   UNL     1      22.567  20.080  22.319  1.00  0.00    -0.545 OA
ATOM      9  O   UNL     1      21.315  19.153  23.984  1.00  0.00    -0.545 OA
ENDBRANCH   1   7
BRANCH   2  10
ATOM     10  O   UNL     1      19.309  21.170  24.395  1.00  0.00    -0.507 OA
ATOM     11  H   UNL     1      18.588  21.589  24.971  1.00  0.00     0.293 HD
ENDBRANCH   2  10
TORSDOF 2
ENDMDL
