MODEL 1
REMARK VINA RESULT:    -5.046      0.000      0.000
REMARK INTER + INTRA:          -5.614
REMARK INTER:                  -5.489
REMARK INTRA:                  -0.126
REMARK UNBOUND:                -0.126
REMARK SMILES Cc1ccc(C(C)C)cc1O
REMARK SMILES IDX 1 1 2 2 10 3 9 4 5 5 4 6 3 7 11 8 6 10 7 11 8 12
REMARK H PARENT 11 9
REMARK Flexibility Score: inf
ROOT
ATOM      1  C   UNL     1     -11.671   0.956  32.961  1.00  0.00     0.048 C 
ATOM      2  C   UNL     1     -12.282   1.232  31.617  1.00  0.00    -0.009 A 
ATOM      3  C   UNL     1     -12.981   0.221  30.935  1.00  0.00     0.118 A 
ATOM      4  C   UNL     1     -13.549   0.486  29.681  1.00  0.00     0.050 A 
ATOM      5  C   UNL     1     -13.427   1.755  29.091  1.00  0.00    -0.042 A 
ATOM      6  C   UNL     1     -12.727   2.760  29.781  1.00  0.00     0.004 A 
ATOM      7  C   UNL     1     -12.160   2.500  31.031  1.00  0.00     0.007 A 
ENDROOT
BRANCH   3   8
ATOM      8  O   UNL     1     -13.110  -1.046  31.507  1.00  0.00    -0.508 OA
ATOM      9  H   UNL     1     -14.011  -1.500  31.594  1.00  0.00     0.293 HD
ENDBRANCH   3   8
BRANCH   5  10
ATOM     10  C   UNL     1     -14.049   2.025  27.733  1.00  0.00     0.013 C 
ATOM     11  C   UNL     1     -13.074   2.777  26.820  1.00  0.00     0.012 C 
ATOM     12  C   UNL     1     -15.374   2.784  27.872  1.00  0.00     0.012 C 
ENDBRANCH   5  10
TORSDOF 2
ENDMDL
MODEL 2
REMARK VINA RESULT:    -4.989      1.457      2.311
REMARK INTER + INTRA:          -5.552
REMARK INTER:                  -5.427
REMARK INTRA:                  -0.125
REMARK UNBOUND:                -0.126
REMARK SMILES Cc1ccc(C(C)C)cc1O
REMARK SMILES IDX 1 1 2 2 10 3 9 4 5 5 4 6 3 7 11 8 6 10 7 11 8 12
REMARK H PARENT 11 9
REMARK Flexibility Score: inf
ROOT
ATOM      1  C   UNL     1     -11.835   0.362  32.567  1.00  0.00     0.048 C 
ATOM      2  C   UNL     1     -12.404   1.012  31.338  1.00  0.00    -0.009 A 
ATOM      3  C   UNL     1     -12.119   2.358  31.050  1.00  0.00     0.118 A 
ATOM      4  C   UNL     1     -12.654   2.957  29.901  1.00  0.00     0.050 A 
ATOM      5  C   UNL     1     -13.477   2.226  29.027  1.00  0.00    -0.042 A 
ATOM      6  C   UNL     1     -13.756   0.880  29.324  1.00  0.00     0.004 A 
ATOM      7  C   UNL     1     -13.226   0.280  30.467  1.00  0.00     0.007 A 
ENDROOT
BRANCH   3   8
ATOM      8  O   UNL     1     -11.304   3.097  31.908  1.00  0.00    -0.508 OA
ATOM      9  H   UNL     1     -11.217   4.102  31.822  1.00  0.00     0.293 HD
ENDBRANCH   3   8
BRANCH   5  10
ATOM     10  C   UNL     1     -14.047   2.890  27.787  1.00  0.00     0.013 C 
ATOM     11  C   UNL     1     -15.571   2.733  27.728  1.00  0.00     0.012 C 
ATOM     12  C   UNL     1     -13.385   2.346  26.515  1.00  0.00     0.012 C 
ENDBRANCH   5  10
TORSDOF 2
ENDMDL
MODEL 3
REMARK VINA RESULT:    -4.790     13.191     14.848
REMARK INTER + INTRA:          -5.336
REMARK INTER:                  -5.209
REMARK INTRA:                  -0.127
REMARK UNBOUND:                -0.126
REMARK SMILES Cc1ccc(C(C)C)cc1O
REMARK SMILES IDX 1 1 2 2 10 3 9 4 5 5 4 6 3 7 11 8 6 10 7 11 8 12
REMARK H PARENT 11 9
REMARK Flexibility Score: inf
ROOT
ATOM      1  C   UNL     1      -8.948  12.755  19.261  1.00  0.00     0.048 C 
ATOM      2  C   UNL     1      -9.884  11.676  18.797  1.00  0.00    -0.009 A 
ATOM      3  C   UNL     1      -9.651  10.336  19.149  1.00  0.00     0.118 A 
ATOM      4  C   UNL     1     -10.530   9.334  18.712  1.00  0.00     0.050 A 
ATOM      5  C   UNL     1     -11.646   9.654  17.921  1.00  0.00    -0.042 A 
ATOM      6  C   UNL     1     -11.871  10.998  17.575  1.00  0.00     0.004 A 
ATOM      7  C   UNL     1     -10.998  11.998  18.008  1.00  0.00     0.007 A 
ENDROOT
BRANCH   3   8
ATOM      8  O   UNL     1      -8.547  10.002  19.933  1.00  0.00    -0.508 OA
ATOM      9  H   UNL     1      -8.470  10.301  20.898  1.00  0.00     0.293 HD
ENDBRANCH   3   8
BRANCH   5  10
ATOM     10  C   UNL     1     -12.588   8.557  17.458  1.00  0.00     0.013 C 
ATOM     11  C   UNL     1     -13.878   9.147  16.875  1.00  0.00     0.012 C 
ATOM     12  C   UNL     1     -12.894   7.573  18.593  1.00  0.00     0.012 C 
ENDBRANCH   5  10
TORSDOF 2
ENDMDL
MODEL 4
REMARK VINA RESULT:    -4.647      9.187      9.831
REMARK INTER + INTRA:          -5.180
REMARK INTER:                  -5.059
REMARK INTRA:                  -0.121
REMARK UNBOUND:                -0.126
REMARK SMILES Cc1ccc(C(C)C)cc1O
REMARK SMILES IDX 1 1 2 2 10 3 9 4 5 5 4 6 3 7 11 8 6 10 7 11 8 12
REMARK H PARENT 11 9
REMARK Flexibility Score: inf
ROOT
ATOM      1  C   UNL     1      -5.448  -0.378  31.739  1.00  0.00     0.048 C 
ATOM      2  C   UNL     1      -4.750  -0.138  30.430  1.00  0.00    -0.009 A 
ATOM      3  C   UNL     1      -3.600  -0.874  30.095  1.00  0.00     0.118 A 
ATOM      4  C   UNL     1      -2.953  -0.644  28.872  1.00  0.00     0.050 A 
ATOM      5  C   UNL     1      -3.441   0.318  27.972  1.00  0.00    -0.042 A 
ATOM      6  C   UNL     1      -4.591   1.049  28.317  1.00  0.00     0.004 A 
ATOM      7  C   UNL     1      -5.238   0.824  29.533  1.00  0.00     0.007 A 
ENDROOT
BRANCH   3   8
ATOM      8  O   UNL     1      -3.103  -1.833  30.978  1.00  0.00    -0.508 OA
ATOM      9  H   UNL     1      -2.112  -1.919  31.166  1.00  0.00     0.293 HD
ENDBRANCH   3   8
BRANCH   5  10
ATOM     10  C   UNL     1      -2.729   0.553  26.652  1.00  0.00     0.013 C 
ATOM     11  C   UNL     1      -3.714   0.503  25.478  1.00  0.00     0.012 C 
ATOM     12  C   UNL     1      -1.584  -0.446  26.455  1.00  0.00     0.012 C 
ENDBRANCH   5  10
TORSDOF 2
ENDMDL
MODEL 5
REMARK VINA RESULT:    -4.610     10.776     11.937
REMARK INTER + INTRA:          -5.140
REMARK INTER:                  -5.015
REMARK INTRA:                  -0.125
REMARK UNBOUND:                -0.126
REMARK SMILES Cc1ccc(C(C)C)cc1O
REMARK SMILES IDX 1 1 2 2 10 3 9 4 5 5 4 6 3 7 11 8 6 10 7 11 8 12
REMARK H PARENT 11 9
REMARK Flexibility Score: inf
ROOT
ATOM      1  C   UNL     1      -4.677   1.746  24.887  1.00  0.00     0.048 C 
ATOM      2  C   UNL     1      -3.660   1.415  25.942  1.00  0.00    -0.009 A 
ATOM      3  C   UNL     1      -2.767   0.346  25.756  1.00  0.00     0.118 A 
ATOM      4  C   UNL     1      -1.820   0.043  26.745  1.00  0.00     0.050 A 
ATOM      5  C   UNL     1      -1.753   0.797  27.928  1.00  0.00    -0.042 A 
ATOM      6  C   UNL     1      -2.650   1.865  28.106  1.00  0.00     0.004 A 
ATOM      7  C   UNL     1      -3.594   2.170  27.123  1.00  0.00     0.007 A 
ENDROOT
BRANCH   3   8
ATOM      8  O   UNL     1      -2.822  -0.413  24.586  1.00  0.00    -0.508 OA
ATOM      9  H   UNL     1      -3.566  -1.080  24.420  1.00  0.00     0.293 HD
ENDBRANCH   3   8
BRANCH   5  10
ATOM     10  C   UNL     1      -0.721   0.456  28.988  1.00  0.00     0.013 C 
ATOM     11  C   UNL     1      -1.386  -0.145  30.232  1.00  0.00     0.012 C 
ATOM     12  C   UNL     1       0.125   1.682  29.352  1.00  0.00     0.012 C 
ENDBRANCH   5  10
TORSDOF 2
ENDMDL
MODEL 6
REMARK VINA RESULT:    -4.565     12.084     12.937
REMARK INTER + INTRA:          -5.091
REMARK INTER:                  -4.965
REMARK INTRA:                  -0.126
REMARK UNBOUND:                -0.126
REMARK SMILES Cc1ccc(C(C)C)cc1O
REMARK SMILES IDX 1 1 2 2 10 3 9 4 5 5 4 6 3 7 11 8 6 10 7 11 8 12
REMARK H PARENT 11 9
REMARK Flexibility Score: inf
ROOT
ATOM      1  C   UNL     1      -1.379  -0.751  26.550  1.00  0.00     0.048 C 
ATOM      2  C   UNL     1      -1.070   0.471  27.367  1.00  0.00    -0.009 A 
ATOM      3  C   UNL     1      -1.599   1.721  27.001  1.00  0.00     0.118 A 
ATOM      4  C   UNL     1      -1.306   2.857  27.768  1.00  0.00     0.050 A 
ATOM      5  C   UNL     1      -0.485   2.764  28.904  1.00  0.00    -0.042 A 
ATOM      6  C   UNL     1       0.040   1.510  29.262  1.00  0.00     0.004 A 
ATOM      7  C   UNL     1      -0.250   0.376  28.501  1.00  0.00     0.007 A 
ENDROOT
BRANCH   3   8
ATOM      8  O   UNL     1      -2.416   1.830  25.875  1.00  0.00    -0.508 OA
ATOM      9  H   UNL     1      -3.402   1.601  25.910  1.00  0.00     0.293 HD
ENDBRANCH   3   8
BRANCH   5  10
ATOM     10  C   UNL     1      -0.179   4.004  29.724  1.00  0.00     0.013 C 
ATOM     11  C   UNL     1       0.124   3.641  31.183  1.00  0.00     0.012 C 
ATOM     12  C   UNL     1      -1.321   5.023  29.635  1.00  0.00     0.012 C 
ENDBRANCH   5  10
TORSDOF 2
ENDMDL
MODEL 7
REMARK VINA RESULT:    -4.538      9.915     11.075
REMARK INTER + INTRA:          -5.061
REMARK INTER:                  -4.936
REMARK INTRA:                  -0.125
REMARK UNBOUND:                -0.126
REMARK SMILES Cc1ccc(C(C)C)cc1O
REMARK SMILES IDX 1 1 2 2 10 3 9 4 5 5 4 6 3 7 11 8 6 10 7 11 8 12
REMARK H PARENT 11 9
REMARK Flexibility Score: inf
ROOT
ATOM      1  C   UNL     1      -1.072  -0.134  26.519  1.00  0.00     0.048 C 
ATOM      2  C   UNL     1      -1.891   0.014  27.771  1.00  0.00    -0.009 A 
ATOM      3  C   UNL     1      -1.263   0.276  29.001  1.00  0.00     0.118 A 
ATOM      4  C   UNL     1      -2.034   0.413  30.165  1.00  0.00     0.050 A 
ATOM      5  C   UNL     1      -3.433   0.291  30.118  1.00  0.00    -0.042 A 
ATOM      6  C   UNL     1      -4.051   0.029  28.882  1.00  0.00     0.004 A 
ATOM      7  C   UNL     1      -3.287  -0.109  27.722  1.00  0.00     0.007 A 
ENDROOT
BRANCH   3   8
ATOM      8  O   UNL     1       0.125   0.400  29.064  1.00  0.00    -0.508 OA
ATOM      9  H   UNL     1       0.617   0.420  29.949  1.00  0.00     0.293 HD
ENDBRANCH   3   8
BRANCH   5  10
ATOM     10  C   UNL     1      -4.251   0.443  31.387  1.00  0.00     0.013 C 
ATOM     11  C   UNL     1      -5.126  -0.792  31.632  1.00  0.00     0.012 C 
ATOM     12  C   UNL     1      -5.098   1.721  31.349  1.00  0.00     0.012 C 
ENDBRANCH   5  10
TORSDOF 2
ENDMDL
MODEL 8
REMARK VINA RESULT:    -4.534      9.643     10.735
REMARK INTER + INTRA:          -5.057
REMARK INTER:                  -4.930
REMARK INTRA:                  -0.127
REMARK UNBOUND:                -0.126
REMARK SMILES Cc1ccc(C(C)C)cc1O
REMARK SMILES IDX 1 1 2 2 10 3 9 4 5 5 4 6 3 7 11 8 6 10 7 11 8 12
REMARK H PARENT 11 9
REMARK Flexibility Score: inf
ROOT
ATOM      1  C   UNL     1      -5.549   0.607  32.222  1.00  0.00     0.048 C 
ATOM      2  C   UNL     1      -4.297   0.547  31.393  1.00  0.00    -0.009 A 
ATOM      3  C   UNL     1      -4.101  -0.503  30.480  1.00  0.00     0.118 A 
ATOM      4  C   UNL     1      -2.930  -0.552  29.710  1.00  0.00     0.050 A 
ATOM      5  C   UNL     1      -1.944   0.440  29.839  1.00  0.00    -0.042 A 
ATOM      6  C   UNL     1      -2.150   1.487  30.755  1.00  0.00     0.004 A 
ATOM      7  C   UNL     1      -3.314   1.539  31.524  1.00  0.00     0.007 A 
ENDROOT
BRANCH   3   8
ATOM      8  O   UNL     1      -5.070  -1.497  30.340  1.00  0.00    -0.508 OA
ATOM      9  H   UNL     1      -5.466  -1.970  31.144  1.00  0.00     0.293 HD
ENDBRANCH   3   8
BRANCH   5  10
ATOM     10  C   UNL     1      -0.683   0.373  28.997  1.00  0.00     0.013 C 
ATOM     11  C   UNL     1       0.125   1.671  29.107  1.00  0.00     0.012 C 
ATOM     12  C   UNL     1      -1.011   0.049  27.535  1.00  0.00     0.012 C 
ENDBRANCH   5  10
TORSDOF 2
ENDMDL
MODEL 9
REMARK VINA RESULT:    -4.370      9.793     10.990
REMARK INTER + INTRA:          -4.879
REMARK INTER:                  -4.760
REMARK INTRA:                  -0.119
REMARK UNBOUND:                -0.126
REMARK SMILES Cc1ccc(C(C)C)cc1O
REMARK SMILES IDX 1 1 2 2 10 3 9 4 5 5 4 6 3 7 11 8 6 10 7 11 8 12
REMARK H PARENT 11 9
REMARK Flexibility Score: inf
ROOT
ATOM      1  C   UNL     1      -5.584   0.375  32.248  1.00  0.00     0.048 C 
ATOM      2  C   UNL     1      -4.320   0.363  31.436  1.00  0.00    -0.009 A 
ATOM      3  C   UNL     1      -3.422   1.442  31.505  1.00  0.00     0.118 A 
ATOM      4  C   UNL     1      -2.244   1.424  30.745  1.00  0.00     0.050 A 
ATOM      5  C   UNL     1      -1.947   0.335  29.908  1.00  0.00    -0.042 A 
ATOM      6  C   UNL     1      -2.851  -0.740  29.846  1.00  0.00     0.004 A 
ATOM      7  C   UNL     1      -4.025  -0.726  30.601  1.00  0.00     0.007 A 
ENDROOT
BRANCH   3   8
ATOM      8  O   UNL     1      -3.703   2.531  32.331  1.00  0.00    -0.508 OA
ATOM      9  H   UNL     1      -3.528   3.483  32.033  1.00  0.00     0.293 HD
ENDBRANCH   3   8
BRANCH   5  10
ATOM     10  C   UNL     1      -0.667   0.331  29.092  1.00  0.00     0.013 C 
ATOM     11  C   UNL     1       0.120   1.631  29.293  1.00  0.00     0.012 C 
ATOM     12  C   UNL     1      -0.958   0.085  27.607  1.00  0.00     0.012 C 
ENDBRANCH   5  10
TORSDOF 2
ENDMDL
