MODEL 1
REMARK VINA RESULT:    -6.207      0.000      0.000
REMARK INTER + INTRA:          -6.207
REMARK INTER:                  -6.207
REMARK INTRA:                   0.000
REMARK UNBOUND:                 0.000
REMARK SMILES CC1=CC[C@@]23C[C@@H]1C(C)(C)[C@H]2CC[C@@H]3C
REMARK SMILES IDX 15 1 14 2 13 3 12 4 11 5 5 6 4 7 3 8 2 9 7 10 6 11 8 12 9 13
REMARK SMILES IDX 10 14 1 15
REMARK H PARENT
REMARK Flexibility Score: inf
ROOT
ATOM      1  C   UNL     1     144.415 148.747 160.470  1.00  0.00     0.008 C 
ATOM      2  C   UNL     1     144.192 148.849 161.988  1.00  0.00    -0.007 C 
ATOM      3  C   UNL     1     143.605 147.533 162.597  1.00  0.00     0.004 C 
ATOM      4  C   UNL     1     144.708 146.888 163.475  1.00  0.00     0.005 C 
ATOM      5  C   UNL     1     145.943 147.638 163.026  1.00  0.00     0.002 C 
ATOM      6  C   UNL     1     145.483 149.070 162.808  1.00  0.00    -0.020 C 
ATOM      7  C   UNL     1     145.111 149.877 164.123  1.00  0.00     0.035 C 
ATOM      8  C   UNL     1     146.296 150.410 164.909  1.00  0.00    -0.027 C 
ATOM      9  C   UNL     1     147.558 150.124 164.539  1.00  0.00    -0.074 C 
ATOM     10  C   UNL     1     147.764 149.195 163.358  1.00  0.00     0.021 C 
ATOM     11  C   UNL     1     146.778 149.660 162.246  1.00  0.00     0.016 C 
ATOM     12  C   UNL     1     147.326 147.714 163.713  1.00  0.00    -0.025 C 
ATOM     13  C   UNL     1     148.321 146.724 163.061  1.00  0.00     0.012 C 
ATOM     14  C   UNL     1     147.249 147.369 165.222  1.00  0.00     0.012 C 
ATOM     15  C   UNL     1     148.723 150.694 165.298  1.00  0.00     0.039 C 
ENDROOT
TORSDOF 0
ENDMDL
MODEL 2
REMARK VINA RESULT:    -6.204      3.264      5.634
REMARK INTER + INTRA:          -6.204
REMARK INTER:                  -6.204
REMARK INTRA:                   0.000
REMARK UNBOUND:                 0.000
REMARK SMILES CC1=CC[C@@]23C[C@@H]1C(C)(C)[C@H]2CC[C@@H]3C
REMARK SMILES IDX 15 1 14 2 13 3 12 4 11 5 5 6 4 7 3 8 2 9 7 10 6 11 8 12 9 13
REMARK SMILES IDX 10 14 1 15
REMARK H PARENT
REMARK Flexibility Score: inf
ROOT
ATOM      1  C   UNL     1     142.039 144.385 160.515  1.00  0.00     0.008 C 
ATOM      2  C   UNL     1     141.908 144.169 162.032  1.00  0.00    -0.007 C 
ATOM      3  C   UNL     1     143.211 143.579 162.666  1.00  0.00     0.004 C 
ATOM      4  C   UNL     1     143.846 144.682 163.551  1.00  0.00     0.005 C 
ATOM      5  C   UNL     1     143.109 145.919 163.084  1.00  0.00     0.002 C 
ATOM      6  C   UNL     1     141.679 145.464 162.842  1.00  0.00    -0.020 C 
ATOM      7  C   UNL     1     140.847 145.100 164.145  1.00  0.00     0.035 C 
ATOM      8  C   UNL     1     140.306 146.291 164.916  1.00  0.00    -0.027 C 
ATOM      9  C   UNL     1     140.604 147.550 164.547  1.00  0.00    -0.074 C 
ATOM     10  C   UNL     1     141.554 147.747 163.381  1.00  0.00     0.021 C 
ATOM     11  C   UNL     1     141.105 146.759 162.265  1.00  0.00     0.016 C 
ATOM     12  C   UNL     1     143.027 147.305 163.764  1.00  0.00    -0.025 C 
ATOM     13  C   UNL     1     144.033 148.293 163.126  1.00  0.00     0.012 C 
ATOM     14  C   UNL     1     143.344 147.232 165.279  1.00  0.00     0.012 C 
ATOM     15  C   UNL     1     140.026 148.720 165.290  1.00  0.00     0.039 C 
ENDROOT
TORSDOF 0
ENDMDL
MODEL 3
REMARK VINA RESULT:    -6.197      3.262      5.617
REMARK INTER + INTRA:          -6.197
REMARK INTER:                  -6.197
REMARK INTRA:                   0.000
REMARK UNBOUND:                 0.000
REMARK SMILES CC1=CC[C@@]23C[C@@H]1C(C)(C)[C@H]2CC[C@@H]3C
REMARK SMILES IDX 15 1 14 2 13 3 12 4 11 5 5 6 4 7 3 8 2 9 7 10 6 11 8 12 9 13
REMARK SMILES IDX 10 14 1 15
REMARK H PARENT
REMARK Flexibility Score: inf
ROOT
ATOM      1  C   UNL     1     148.706 146.335 160.461  1.00  0.00     0.008 C 
ATOM      2  C   UNL     1     148.837 146.560 161.976  1.00  0.00    -0.007 C 
ATOM      3  C   UNL     1     147.532 147.148 162.608  1.00  0.00     0.004 C 
ATOM      4  C   UNL     1     146.904 146.046 163.500  1.00  0.00     0.005 C 
ATOM      5  C   UNL     1     147.645 144.811 163.039  1.00  0.00     0.002 C 
ATOM      6  C   UNL     1     149.073 145.271 162.793  1.00  0.00    -0.020 C 
ATOM      7  C   UNL     1     149.905 145.645 164.093  1.00  0.00     0.035 C 
ATOM      8  C   UNL     1     150.452 144.461 164.870  1.00  0.00    -0.027 C 
ATOM      9  C   UNL     1     150.159 143.199 164.508  1.00  0.00    -0.074 C 
ATOM     10  C   UNL     1     149.209 142.991 163.345  1.00  0.00     0.021 C 
ATOM     11  C   UNL     1     149.653 143.975 162.223  1.00  0.00     0.016 C 
ATOM     12  C   UNL     1     147.735 143.429 163.726  1.00  0.00    -0.025 C 
ATOM     13  C   UNL     1     146.732 142.433 163.095  1.00  0.00     0.012 C 
ATOM     14  C   UNL     1     147.418 143.509 165.241  1.00  0.00     0.012 C 
ATOM     15  C   UNL     1     150.744 142.036 165.258  1.00  0.00     0.039 C 
ENDROOT
TORSDOF 0
ENDMDL
MODEL 4
REMARK VINA RESULT:    -6.191      5.325      7.952
REMARK INTER + INTRA:          -6.191
REMARK INTER:                  -6.191
REMARK INTRA:                   0.000
REMARK UNBOUND:                 0.000
REMARK SMILES CC1=CC[C@@]23C[C@@H]1C(C)(C)[C@H]2CC[C@@H]3C
REMARK SMILES IDX 15 1 14 2 13 3 12 4 11 5 5 6 4 7 3 8 2 9 7 10 6 11 8 12 9 13
REMARK SMILES IDX 10 14 1 15
REMARK H PARENT
REMARK Flexibility Score: inf
ROOT
ATOM      1  C   UNL     1     146.335 142.062 160.472  1.00  0.00     0.008 C 
ATOM      2  C   UNL     1     146.559 141.921 161.987  1.00  0.00    -0.007 C 
ATOM      3  C   UNL     1     147.151 143.220 162.627  1.00  0.00     0.004 C 
ATOM      4  C   UNL     1     146.051 143.847 163.522  1.00  0.00     0.005 C 
ATOM      5  C   UNL     1     144.813 143.113 163.056  1.00  0.00     0.002 C 
ATOM      6  C   UNL     1     145.268 141.684 162.801  1.00  0.00    -0.020 C 
ATOM      7  C   UNL     1     145.639 140.844 164.096  1.00  0.00     0.035 C 
ATOM      8  C   UNL     1     144.452 140.295 164.869  1.00  0.00    -0.027 C 
ATOM      9  C   UNL     1     143.191 140.595 164.508  1.00  0.00    -0.074 C 
ATOM     10  C   UNL     1     142.987 141.554 163.350  1.00  0.00     0.021 C 
ATOM     11  C   UNL     1     143.971 141.113 162.226  1.00  0.00     0.016 C 
ATOM     12  C   UNL     1     143.431 143.024 163.742  1.00  0.00    -0.025 C 
ATOM     13  C   UNL     1     142.439 144.034 163.116  1.00  0.00     0.012 C 
ATOM     14  C   UNL     1     143.510 143.331 165.259  1.00  0.00     0.012 C 
ATOM     15  C   UNL     1     142.025 140.010 165.253  1.00  0.00     0.039 C 
ENDROOT
TORSDOF 0
ENDMDL
MODEL 5
REMARK VINA RESULT:    -6.085      1.435      3.463
REMARK INTER + INTRA:          -6.085
REMARK INTER:                  -6.085
REMARK INTRA:                   0.000
REMARK UNBOUND:                 0.000
REMARK SMILES CC1=CC[C@@]23C[C@@H]1C(C)(C)[C@H]2CC[C@@H]3C
REMARK SMILES IDX 15 1 14 2 13 3 12 4 11 5 5 6 4 7 3 8 2 9 7 10 6 11 8 12 9 13
REMARK SMILES IDX 10 14 1 15
REMARK H PARENT
REMARK Flexibility Score: inf
ROOT
ATOM      1  C   UNL     1     146.394 145.313 165.072  1.00  0.00     0.008 C 
ATOM      2  C   UNL     1     145.480 146.080 164.102  1.00  0.00    -0.007 C 
ATOM      3  C   UNL     1     144.302 146.802 164.836  1.00  0.00     0.004 C 
ATOM      4  C   UNL     1     144.558 148.329 164.749  1.00  0.00     0.005 C 
ATOM      5  C   UNL     1     146.010 148.377 164.326  1.00  0.00     0.002 C 
ATOM      6  C   UNL     1     146.179 147.230 163.344  1.00  0.00    -0.020 C 
ATOM      7  C   UNL     1     145.458 147.417 161.942  1.00  0.00     0.035 C 
ATOM      8  C   UNL     1     146.183 148.323 160.961  1.00  0.00    -0.027 C 
ATOM      9  C   UNL     1     147.304 148.974 161.318  1.00  0.00    -0.074 C 
ATOM     10  C   UNL     1     147.786 148.837 162.750  1.00  0.00     0.021 C 
ATOM     11  C   UNL     1     147.688 147.326 163.112  1.00  0.00     0.016 C 
ATOM     12  C   UNL     1     146.807 149.573 163.755  1.00  0.00    -0.025 C 
ATOM     13  C   UNL     1     147.643 150.258 164.863  1.00  0.00     0.012 C 
ATOM     14  C   UNL     1     145.881 150.651 163.138  1.00  0.00     0.012 C 
ATOM     15  C   UNL     1     148.037 149.831 160.325  1.00  0.00     0.039 C 
ENDROOT
TORSDOF 0
ENDMDL
MODEL 6
REMARK VINA RESULT:    -6.083      4.963      7.590
REMARK INTER + INTRA:          -6.083
REMARK INTER:                  -6.083
REMARK INTRA:                   0.000
REMARK UNBOUND:                 0.000
REMARK SMILES CC1=CC[C@@]23C[C@@H]1C(C)(C)[C@H]2CC[C@@H]3C
REMARK SMILES IDX 15 1 14 2 13 3 12 4 11 5 5 6 4 7 3 8 2 9 7 10 6 11 8 12 9 13
REMARK SMILES IDX 10 14 1 15
REMARK H PARENT
REMARK Flexibility Score: inf
ROOT
ATOM      1  C   UNL     1     144.383 145.446 165.060  1.00  0.00     0.008 C 
ATOM      2  C   UNL     1     145.307 144.668 164.109  1.00  0.00    -0.007 C 
ATOM      3  C   UNL     1     146.462 143.934 164.866  1.00  0.00     0.004 C 
ATOM      4  C   UNL     1     146.190 142.410 164.776  1.00  0.00     0.005 C 
ATOM      5  C   UNL     1     144.746 142.377 164.325  1.00  0.00     0.002 C 
ATOM      6  C   UNL     1     144.610 143.525 163.338  1.00  0.00    -0.020 C 
ATOM      7  C   UNL     1     145.356 143.327 161.951  1.00  0.00     0.035 C 
ATOM      8  C   UNL     1     144.640 142.429 160.957  1.00  0.00    -0.027 C 
ATOM      9  C   UNL     1     143.505 141.790 161.293  1.00  0.00    -0.074 C 
ATOM     10  C   UNL     1     142.996 141.935 162.715  1.00  0.00     0.021 C 
ATOM     11  C   UNL     1     143.105 143.445 163.077  1.00  0.00     0.016 C 
ATOM     12  C   UNL     1     143.948 141.190 163.740  1.00  0.00    -0.025 C 
ATOM     13  C   UNL     1     143.083 140.515 164.832  1.00  0.00     0.012 C 
ATOM     14  C   UNL     1     144.873 140.100 163.142  1.00  0.00     0.012 C 
ATOM     15  C   UNL     1     142.782 140.940 160.287  1.00  0.00     0.039 C 
ENDROOT
TORSDOF 0
ENDMDL
MODEL 7
REMARK VINA RESULT:    -6.076      3.209      5.973
REMARK INTER + INTRA:          -6.076
REMARK INTER:                  -6.076
REMARK INTRA:                   0.000
REMARK UNBOUND:                 0.000
REMARK SMILES CC1=CC[C@@]23C[C@@H]1C(C)(C)[C@H]2CC[C@@H]3C
REMARK SMILES IDX 15 1 14 2 13 3 12 4 11 5 5 6 4 7 3 8 2 9 7 10 6 11 8 12 9 13
REMARK SMILES IDX 10 14 1 15
REMARK H PARENT
REMARK Flexibility Score: inf
ROOT
ATOM      1  C   UNL     1     145.456 146.424 165.083  1.00  0.00     0.008 C 
ATOM      2  C   UNL     1     144.687 145.492 164.132  1.00  0.00    -0.007 C 
ATOM      3  C   UNL     1     143.967 144.328 164.889  1.00  0.00     0.004 C 
ATOM      4  C   UNL     1     142.440 144.583 164.801  1.00  0.00     0.005 C 
ATOM      5  C   UNL     1     142.390 146.026 164.351  1.00  0.00     0.002 C 
ATOM      6  C   UNL     1     143.536 146.177 163.363  1.00  0.00    -0.020 C 
ATOM      7  C   UNL     1     143.345 145.430 161.975  1.00  0.00     0.035 C 
ATOM      8  C   UNL     1     142.438 146.136 160.983  1.00  0.00    -0.027 C 
ATOM      9  C   UNL     1     141.787 147.264 161.321  1.00  0.00    -0.074 C 
ATOM     10  C   UNL     1     141.927 147.773 162.743  1.00  0.00     0.021 C 
ATOM     11  C   UNL     1     143.439 147.681 163.103  1.00  0.00     0.016 C 
ATOM     12  C   UNL     1     141.194 146.813 163.768  1.00  0.00    -0.025 C 
ATOM     13  C   UNL     1     140.511 147.669 164.861  1.00  0.00     0.012 C 
ATOM     14  C   UNL     1     140.114 145.875 163.170  1.00  0.00     0.012 C 
ATOM     15  C   UNL     1     140.928 147.978 160.316  1.00  0.00     0.039 C 
ENDROOT
TORSDOF 0
ENDMDL
MODEL 8
REMARK VINA RESULT:    -6.076      3.466      5.794
REMARK INTER + INTRA:          -6.076
REMARK INTER:                  -6.076
REMARK INTRA:                   0.000
REMARK UNBOUND:                 0.000
REMARK SMILES CC1=CC[C@@]23C[C@@H]1C(C)(C)[C@H]2CC[C@@H]3C
REMARK SMILES IDX 15 1 14 2 13 3 12 4 11 5 5 6 4 7 3 8 2 9 7 10 6 11 8 12 9 13
REMARK SMILES IDX 10 14 1 15
REMARK H PARENT
REMARK Flexibility Score: inf
ROOT
ATOM      1  C   UNL     1     145.301 144.370 165.071  1.00  0.00     0.008 C 
ATOM      2  C   UNL     1     146.067 145.301 164.116  1.00  0.00    -0.007 C 
ATOM      3  C   UNL     1     146.787 146.468 164.870  1.00  0.00     0.004 C 
ATOM      4  C   UNL     1     148.314 146.215 164.778  1.00  0.00     0.005 C 
ATOM      5  C   UNL     1     148.365 144.771 164.331  1.00  0.00     0.002 C 
ATOM      6  C   UNL     1     147.217 144.617 163.346  1.00  0.00    -0.020 C 
ATOM      7  C   UNL     1     147.404 145.362 161.956  1.00  0.00     0.035 C 
ATOM      8  C   UNL     1     148.310 144.655 160.963  1.00  0.00    -0.027 C 
ATOM      9  C   UNL     1     148.963 143.529 161.301  1.00  0.00    -0.074 C 
ATOM     10  C   UNL     1     148.827 143.022 162.725  1.00  0.00     0.021 C 
ATOM     11  C   UNL     1     147.316 143.112 163.089  1.00  0.00     0.016 C 
ATOM     12  C   UNL     1     149.562 143.986 163.746  1.00  0.00    -0.025 C 
ATOM     13  C   UNL     1     150.249 143.133 164.840  1.00  0.00     0.012 C 
ATOM     14  C   UNL     1     150.639 144.924 163.144  1.00  0.00     0.012 C 
ATOM     15  C   UNL     1     149.821 142.814 160.296  1.00  0.00     0.039 C 
ENDROOT
TORSDOF 0
ENDMDL
MODEL 9
REMARK VINA RESULT:    -5.874      1.187      4.205
REMARK INTER + INTRA:          -5.874
REMARK INTER:                  -5.874
REMARK INTRA:                   0.000
REMARK UNBOUND:                 0.000
REMARK SMILES CC1=CC[C@@]23C[C@@H]1C(C)(C)[C@H]2CC[C@@H]3C
REMARK SMILES IDX 15 1 14 2 13 3 12 4 11 5 5 6 4 7 3 8 2 9 7 10 6 11 8 12 9 13
REMARK SMILES IDX 10 14 1 15
REMARK H PARENT
REMARK Flexibility Score: inf
ROOT
ATOM      1  C   UNL     1     148.256 146.122 164.205  1.00  0.00     0.008 C 
ATOM      2  C   UNL     1     147.112 147.081 164.572  1.00  0.00    -0.007 C 
ATOM      3  C   UNL     1     147.622 148.370 165.296  1.00  0.00     0.004 C 
ATOM      4  C   UNL     1     147.420 149.565 164.328  1.00  0.00     0.005 C 
ATOM      5  C   UNL     1     147.177 148.861 163.011  1.00  0.00     0.002 C 
ATOM      6  C   UNL     1     146.337 147.642 163.359  1.00  0.00    -0.020 C 
ATOM      7  C   UNL     1     144.846 147.945 163.811  1.00  0.00     0.035 C 
ATOM      8  C   UNL     1     143.879 148.249 162.680  1.00  0.00    -0.027 C 
ATOM      9  C   UNL     1     144.307 148.338 161.408  1.00  0.00    -0.074 C 
ATOM     10  C   UNL     1     145.794 148.197 161.141  1.00  0.00     0.021 C 
ATOM     11  C   UNL     1     146.285 146.981 161.981  1.00  0.00     0.016 C 
ATOM     12  C   UNL     1     146.595 149.443 161.702  1.00  0.00    -0.025 C 
ATOM     13  C   UNL     1     147.726 149.804 160.709  1.00  0.00     0.012 C 
ATOM     14  C   UNL     1     145.768 150.730 161.951  1.00  0.00     0.012 C 
ATOM     15  C   UNL     1     143.334 148.595 160.293  1.00  0.00     0.039 C 
ENDROOT
TORSDOF 0
ENDMDL
