MODEL 1
REMARK VINA RESULT:    -3.097      0.000      0.000
REMARK INTER + INTRA:          -3.946
REMARK INTER:                  -3.821
REMARK INTRA:                  -0.125
REMARK UNBOUND:                -0.125
REMARK SMILES CCCCCC(=O)[O-]
REMARK SMILES IDX 4 1 5 2 6 3 7 4 8 5 3 6 2 7 1 8
REMARK H PARENT
REMARK Flexibility Score: inf
ROOT
ATOM      1  C   UNL     1      20.834   4.266  24.817  1.00  0.00     0.006 C 
ENDROOT
BRANCH   1   2
ATOM      2  C   UNL     1      19.336   4.565  24.676  1.00  0.00     0.053 C 
BRANCH   2   3
ATOM      3  C   UNL     1      19.093   5.892  24.026  1.00  0.00     0.041 C 
ATOM      4  O   UNL     1      17.925   6.233  23.697  1.00  0.00    -0.550 OA
ATOM      5  O   UNL     1      20.151   6.765  23.809  1.00  0.00    -0.550 OA
ENDBRANCH   2   3
ENDBRANCH   1   2
BRANCH   1   6
ATOM      6  C   UNL     1      21.380   3.459  23.626  1.00  0.00     0.000 C 
BRANCH   6   7
ATOM      7  C   UNL     1      22.062   2.153  24.062  1.00  0.00    -0.003 C 
ATOM      8  C   UNL     1      21.071   1.011  24.278  1.00  0.00     0.004 C 
ENDBRANCH   6   7
ENDBRANCH   1   6
TORSDOF 4
ENDMDL
MODEL 2
REMARK VINA RESULT:    -3.059      3.756      4.518
REMARK INTER + INTRA:          -3.899
REMARK INTER:                  -3.740
REMARK INTRA:                  -0.159
REMARK UNBOUND:                -0.125
REMARK SMILES CCCCCC(=O)[O-]
REMARK SMILES IDX 4 1 5 2 6 3 7 4 8 5 3 6 2 7 1 8
REMARK H PARENT
REMARK Flexibility Score: inf
ROOT
ATOM      1  C   UNL     1      22.014   3.198  26.017  1.00  0.00     0.006 C 
ENDROOT
BRANCH   1   2
ATOM      2  C   UNL     1      23.199   2.951  26.960  1.00  0.00     0.053 C 
BRANCH   2   3
ATOM      3  C   UNL     1      24.294   3.950  26.751  1.00  0.00     0.041 C 
ATOM      4  O   UNL     1      24.092   5.172  26.983  1.00  0.00    -0.550 OA
ATOM      5  O   UNL     1      25.548   3.529  26.327  1.00  0.00    -0.550 OA
ENDBRANCH   2   3
ENDBRANCH   1   2
BRANCH   1   6
ATOM      6  C   UNL     1      22.450   3.260  24.542  1.00  0.00     0.000 C 
BRANCH   6   7
ATOM      7  C   UNL     1      21.618   2.334  23.642  1.00  0.00    -0.003 C 
ATOM      8  C   UNL     1      21.120   1.088  24.374  1.00  0.00     0.004 C 
ENDBRANCH   6   7
ENDBRANCH   1   6
TORSDOF 4
ENDMDL
MODEL 3
REMARK VINA RESULT:    -2.976      3.193      4.345
REMARK INTER + INTRA:          -3.797
REMARK INTER:                  -3.606
REMARK INTRA:                  -0.191
REMARK UNBOUND:                -0.125
REMARK SMILES CCCCCC(=O)[O-]
REMARK SMILES IDX 4 1 5 2 6 3 7 4 8 5 3 6 2 7 1 8
REMARK H PARENT
REMARK Flexibility Score: inf
ROOT
ATOM      1  C   UNL     1      21.286   2.309  23.683  1.00  0.00     0.006 C 
ENDROOT
BRANCH   1   2
ATOM      2  C   UNL     1      21.620   1.127  24.603  1.00  0.00     0.053 C 
BRANCH   2   3
ATOM      3  C   UNL     1      21.299   1.428  26.034  1.00  0.00     0.041 C 
ATOM      4  O   UNL     1      20.105   1.410  26.434  1.00  0.00    -0.550 OA
ATOM      5  O   UNL     1      22.322   1.701  26.933  1.00  0.00    -0.550 OA
ENDBRANCH   2   3
ENDBRANCH   1   2
BRANCH   1   6
ATOM      6  C   UNL     1      21.742   3.654  24.277  1.00  0.00     0.000 C 
BRANCH   6   7
ATOM      7  C   UNL     1      20.712   4.773  24.061  1.00  0.00    -0.003 C 
ATOM      8  C   UNL     1      19.347   4.447  24.666  1.00  0.00     0.004 C 
ENDBRANCH   6   7
ENDBRANCH   1   6
TORSDOF 4
ENDMDL
MODEL 4
REMARK VINA RESULT:    -2.975      3.200      4.160
REMARK INTER + INTRA:          -3.796
REMARK INTER:                  -3.597
REMARK INTRA:                  -0.199
REMARK UNBOUND:                -0.125
REMARK SMILES CCCCCC(=O)[O-]
REMARK SMILES IDX 4 1 5 2 6 3 7 4 8 5 3 6 2 7 1 8
REMARK H PARENT
REMARK Flexibility Score: inf
ROOT
ATOM      1  C   UNL     1      20.952   1.245  24.456  1.00  0.00     0.006 C 
ENDROOT
BRANCH   1   2
ATOM      2  C   UNL     1      20.963   1.528  25.964  1.00  0.00     0.053 C 
BRANCH   2   3
ATOM      3  C   UNL     1      19.580   1.540  26.538  1.00  0.00     0.041 C 
ATOM      4  O   UNL     1      18.651   2.149  25.943  1.00  0.00    -0.550 OA
ATOM      5  O   UNL     1      19.309   0.856  27.715  1.00  0.00    -0.550 OA
ENDBRANCH   2   3
ENDBRANCH   1   2
BRANCH   1   6
ATOM      6  C   UNL     1      21.660   2.350  23.653  1.00  0.00     0.000 C 
BRANCH   6   7
ATOM      7  C   UNL     1      21.702   3.690  24.403  1.00  0.00    -0.003 C 
ATOM      8  C   UNL     1      20.494   4.576  24.099  1.00  0.00     0.004 C 
ENDBRANCH   6   7
ENDBRANCH   1   6
TORSDOF 4
ENDMDL
MODEL 5
REMARK VINA RESULT:    -2.974      2.988      4.531
REMARK INTER + INTRA:          -3.794
REMARK INTER:                  -3.654
REMARK INTRA:                  -0.140
REMARK UNBOUND:                -0.125
REMARK SMILES CCCCCC(=O)[O-]
REMARK SMILES IDX 4 1 5 2 6 3 7 4 8 5 3 6 2 7 1 8
REMARK H PARENT
REMARK Flexibility Score: inf
ROOT
ATOM      1  C   UNL     1      21.001   4.349  24.368  1.00  0.00     0.006 C 
ENDROOT
BRANCH   1   2
ATOM      2  C   UNL     1      21.496   3.091  23.643  1.00  0.00     0.053 C 
BRANCH   2   3
ATOM      3  C   UNL     1      21.543   1.905  24.557  1.00  0.00     0.041 C 
ATOM      4  O   UNL     1      21.157   0.776  24.151  1.00  0.00    -0.550 OA
ATOM      5  O   UNL     1      22.039   2.040  25.847  1.00  0.00    -0.550 OA
ENDBRANCH   2   3
ENDBRANCH   1   2
BRANCH   1   6
ATOM      6  C   UNL     1      19.467   4.382  24.491  1.00  0.00     0.000 C 
BRANCH   6   7
ATOM      7  C   UNL     1      18.884   5.778  24.218  1.00  0.00    -0.003 C 
ATOM      8  C   UNL     1      19.950   6.797  23.820  1.00  0.00     0.004 C 
ENDBRANCH   6   7
ENDBRANCH   1   6
TORSDOF 4
ENDMDL
MODEL 6
REMARK VINA RESULT:    -2.968      2.277      3.582
REMARK INTER + INTRA:          -3.787
REMARK INTER:                  -3.628
REMARK INTRA:                  -0.159
REMARK UNBOUND:                -0.125
REMARK SMILES CCCCCC(=O)[O-]
REMARK SMILES IDX 4 1 5 2 6 3 7 4 8 5 3 6 2 7 1 8
REMARK H PARENT
REMARK Flexibility Score: inf
ROOT
ATOM      1  C   UNL     1      20.952   1.218  24.357  1.00  0.00     0.006 C 
ENDROOT
BRANCH   1   2
ATOM      2  C   UNL     1      22.055   2.193  23.926  1.00  0.00     0.053 C 
BRANCH   2   3
ATOM      3  C   UNL     1      21.805   3.578  24.438  1.00  0.00     0.041 C 
ATOM      4  O   UNL     1      20.933   4.307  23.896  1.00  0.00    -0.550 OA
ATOM      5  O   UNL     1      22.515   4.053  25.534  1.00  0.00    -0.550 OA
ENDBRANCH   2   3
ENDBRANCH   1   2
BRANCH   1   6
ATOM      6  C   UNL     1      20.529   1.430  25.821  1.00  0.00     0.000 C 
BRANCH   6   7
ATOM      7  C   UNL     1      19.013   1.628  25.974  1.00  0.00    -0.003 C 
ATOM      8  C   UNL     1      18.652   2.980  26.590  1.00  0.00     0.004 C 
ENDBRANCH   6   7
ENDBRANCH   1   6
TORSDOF 4
ENDMDL
MODEL 7
REMARK VINA RESULT:    -2.961      3.588      4.452
REMARK INTER + INTRA:          -3.779
REMARK INTER:                  -3.499
REMARK INTRA:                  -0.280
REMARK UNBOUND:                -0.125
REMARK SMILES CCCCCC(=O)[O-]
REMARK SMILES IDX 4 1 5 2 6 3 7 4 8 5 3 6 2 7 1 8
REMARK H PARENT
REMARK Flexibility Score: inf
ROOT
ATOM      1  C   UNL     1      19.966   1.884  25.482  1.00  0.00     0.006 C 
ENDROOT
BRANCH   1   2
ATOM      2  C   UNL     1      20.222   1.510  26.948  1.00  0.00     0.053 C 
BRANCH   2   3
ATOM      3  C   UNL     1      21.554   2.003  27.424  1.00  0.00     0.041 C 
ATOM      4  O   UNL     1      22.418   1.189  27.843  1.00  0.00    -0.550 OA
ATOM      5  O   UNL     1      21.851   3.358  27.376  1.00  0.00    -0.550 OA
ENDBRANCH   2   3
ENDBRANCH   1   2
BRANCH   1   6
ATOM      6  C   UNL     1      21.001   1.254  24.533  1.00  0.00     0.000 C 
BRANCH   6   7
ATOM      7  C   UNL     1      21.701   2.296  23.648  1.00  0.00    -0.003 C 
ATOM      8  C   UNL     1      21.200   3.718  23.898  1.00  0.00     0.004 C 
ENDBRANCH   6   7
ENDBRANCH   1   6
TORSDOF 4
ENDMDL
MODEL 8
REMARK VINA RESULT:    -2.961      3.162      4.150
REMARK INTER + INTRA:          -3.779
REMARK INTER:                  -3.516
REMARK INTRA:                  -0.263
REMARK UNBOUND:                -0.125
REMARK SMILES CCCCCC(=O)[O-]
REMARK SMILES IDX 4 1 5 2 6 3 7 4 8 5 3 6 2 7 1 8
REMARK H PARENT
REMARK Flexibility Score: inf
ROOT
ATOM      1  C   UNL     1      20.867   4.280  24.439  1.00  0.00     0.006 C 
ENDROOT
BRANCH   1   2
ATOM      2  C   UNL     1      21.425   3.083  23.657  1.00  0.00     0.053 C 
BRANCH   2   3
ATOM      3  C   UNL     1      21.449   1.838  24.488  1.00  0.00     0.041 C 
ATOM      4  O   UNL     1      20.925   0.777  24.057  1.00  0.00    -0.550 OA
ATOM      5  O   UNL     1      22.077   1.842  25.727  1.00  0.00    -0.550 OA
ENDBRANCH   2   3
ENDBRANCH   1   2
BRANCH   1   6
ATOM      6  C   UNL     1      19.356   4.148  24.701  1.00  0.00     0.000 C 
BRANCH   6   7
ATOM      7  C   UNL     1      19.025   4.032  26.197  1.00  0.00    -0.003 C 
ATOM      8  C   UNL     1      18.564   2.630  26.593  1.00  0.00     0.004 C 
ENDBRANCH   6   7
ENDBRANCH   1   6
TORSDOF 4
ENDMDL
MODEL 9
REMARK VINA RESULT:    -2.903      3.115      4.276
REMARK INTER + INTRA:          -3.706
REMARK INTER:                  -3.448
REMARK INTRA:                  -0.259
REMARK UNBOUND:                -0.125
REMARK SMILES CCCCCC(=O)[O-]
REMARK SMILES IDX 4 1 5 2 6 3 7 4 8 5 3 6 2 7 1 8
REMARK H PARENT
REMARK Flexibility Score: inf
ROOT
ATOM      1  C   UNL     1      21.277   2.891  23.930  1.00  0.00     0.006 C 
ENDROOT
BRANCH   1   2
ATOM      2  C   UNL     1      22.755   2.835  24.336  1.00  0.00     0.053 C 
BRANCH   2   3
ATOM      3  C   UNL     1      22.933   3.002  25.814  1.00  0.00     0.041 C 
ATOM      4  O   UNL     1      23.557   3.997  26.270  1.00  0.00    -0.550 OA
ATOM      5  O   UNL     1      22.385   2.073  26.689  1.00  0.00    -0.550 OA
ENDBRANCH   2   3
ENDBRANCH   1   2
BRANCH   1   6
ATOM      6  C   UNL     1      20.701   4.314  24.033  1.00  0.00     0.000 C 
BRANCH   6   7
ATOM      7  C   UNL     1      19.409   4.369  24.864  1.00  0.00    -0.003 C 
ATOM      8  C   UNL     1      19.111   3.052  25.581  1.00  0.00     0.004 C 
ENDBRANCH   6   7
ENDBRANCH   1   6
TORSDOF 4
ENDMDL
