MODEL 1
REMARK VINA RESULT:    -7.641      0.000      0.000
REMARK INTER + INTRA:          -7.641
REMARK INTER:                  -7.641
REMARK INTRA:                   0.000
REMARK UNBOUND:                 0.000
REMARK SMILES C=C1CCC[C@]2(C)CC(=O)C(=C(C)C)C[C@@H]12
REMARK SMILES IDX 13 1 12 2 11 3 15 4 16 5 2 6 1 7 3 8 4 9 5 10 6 11 8 12 9 13
REMARK SMILES IDX 10 14 7 15 14 16
REMARK H PARENT
REMARK Flexibility Score: inf
ROOT
ATOM      1  C   UNL     1      -9.367 -38.248  42.406  1.00  0.00     0.039 C 
ATOM      2  C   UNL     1      -9.311 -37.869  40.943  1.00  0.00    -0.070 C 
ATOM      3  C   UNL     1     -10.442 -37.742  40.187  1.00  0.00    -0.006 C 
ATOM      4  C   UNL     1     -10.370 -37.302  38.732  1.00  0.00     0.047 C 
ATOM      5  C   UNL     1     -11.629 -36.521  38.279  1.00  0.00     0.025 C 
ATOM      6  C   UNL     1     -11.633 -36.087  36.813  1.00  0.00    -0.073 C 
ATOM      7  C   UNL     1     -10.639 -36.355  35.944  1.00  0.00     0.008 C 
ATOM      8  C   UNL     1     -12.822 -35.273  36.361  1.00  0.00     0.031 C 
ATOM      9  C   UNL     1     -14.126 -35.995  36.708  1.00  0.00     0.005 C 
ATOM     10  C   UNL     1     -14.170 -36.404  38.191  1.00  0.00     0.008 C 
ATOM     11  C   UNL     1     -12.952 -37.277  38.620  1.00  0.00    -0.018 C 
ATOM     12  C   UNL     1     -13.024 -37.483  40.152  1.00  0.00     0.088 C 
ATOM     13  C   UNL     1     -11.787 -38.141  40.694  1.00  0.00     0.159 C 
ATOM     14  O   UNL     1     -11.917 -39.039  41.568  1.00  0.00    -0.295 OA
ATOM     15  C   UNL     1     -13.027 -38.659  37.912  1.00  0.00     0.012 C 
ATOM     16  C   UNL     1      -7.942 -37.600  40.359  1.00  0.00     0.039 C 
ENDROOT
TORSDOF 0
ENDMDL
MODEL 2
REMARK VINA RESULT:    -7.513      2.156      3.353
REMARK INTER + INTRA:          -7.513
REMARK INTER:                  -7.513
REMARK INTRA:                   0.000
REMARK UNBOUND:                 0.000
REMARK SMILES C=C1CCC[C@]2(C)CC(=O)C(=C(C)C)C[C@@H]12
REMARK SMILES IDX 13 1 12 2 11 3 15 4 16 5 2 6 1 7 3 8 4 9 5 10 6 11 8 12 9 13
REMARK SMILES IDX 10 14 7 15 14 16
REMARK H PARENT
REMARK Flexibility Score: inf
ROOT
ATOM      1  C   UNL     1     -12.958 -39.331  42.940  1.00  0.00     0.039 C 
ATOM      2  C   UNL     1     -13.108 -39.862  41.532  1.00  0.00    -0.070 C 
ATOM      3  C   UNL     1     -13.007 -39.048  40.440  1.00  0.00    -0.006 C 
ATOM      4  C   UNL     1     -13.100 -39.609  39.028  1.00  0.00     0.047 C 
ATOM      5  C   UNL     1     -12.270 -38.797  38.004  1.00  0.00     0.025 C 
ATOM      6  C   UNL     1     -12.358 -39.290  36.559  1.00  0.00    -0.073 C 
ATOM      7  C   UNL     1     -13.101 -40.342  36.164  1.00  0.00     0.008 C 
ATOM      8  C   UNL     1     -11.511 -38.552  35.549  1.00  0.00     0.031 C 
ATOM      9  C   UNL     1     -11.787 -37.048  35.619  1.00  0.00     0.005 C 
ATOM     10  C   UNL     1     -11.662 -36.514  37.057  1.00  0.00     0.008 C 
ATOM     11  C   UNL     1     -12.576 -37.267  38.070  1.00  0.00    -0.018 C 
ATOM     12  C   UNL     1     -12.241 -36.757  39.492  1.00  0.00     0.088 C 
ATOM     13  C   UNL     1     -12.924 -37.563  40.559  1.00  0.00     0.159 C 
ATOM     14  O   UNL     1     -13.433 -36.956  41.540  1.00  0.00    -0.295 OA
ATOM     15  C   UNL     1     -14.066 -36.961  37.753  1.00  0.00     0.012 C 
ATOM     16  C   UNL     1     -13.341 -41.349  41.384  1.00  0.00     0.039 C 
ENDROOT
TORSDOF 0
ENDMDL
MODEL 3
REMARK VINA RESULT:    -7.474      2.296      4.618
REMARK INTER + INTRA:          -7.474
REMARK INTER:                  -7.474
REMARK INTRA:                   0.000
REMARK UNBOUND:                 0.000
REMARK SMILES C=C1CCC[C@]2(C)CC(=O)C(=C(C)C)C[C@@H]12
REMARK SMILES IDX 13 1 12 2 11 3 15 4 16 5 2 6 1 7 3 8 4 9 5 10 6 11 8 12 9 13
REMARK SMILES IDX 10 14 7 15 14 16
REMARK H PARENT
REMARK Flexibility Score: inf
ROOT
ATOM      1  C   UNL     1      -9.110 -36.662  36.764  1.00  0.00     0.039 C 
ATOM      2  C   UNL     1      -9.372 -37.002  38.214  1.00  0.00    -0.070 C 
ATOM      3  C   UNL     1     -10.475 -37.709  38.601  1.00  0.00    -0.006 C 
ATOM      4  C   UNL     1     -10.692 -38.095  40.057  1.00  0.00     0.047 C 
ATOM      5  C   UNL     1     -11.477 -39.421  40.216  1.00  0.00     0.025 C 
ATOM      6  C   UNL     1     -11.761 -39.839  41.659  1.00  0.00    -0.073 C 
ATOM      7  C   UNL     1     -11.384 -39.128  42.739  1.00  0.00     0.008 C 
ATOM      8  C   UNL     1     -12.473 -41.158  41.844  1.00  0.00     0.031 C 
ATOM      9  C   UNL     1     -13.760 -41.191  41.014  1.00  0.00     0.005 C 
ATOM     10  C   UNL     1     -13.496 -40.818  39.544  1.00  0.00     0.008 C 
ATOM     11  C   UNL     1     -12.797 -39.434  39.381  1.00  0.00    -0.018 C 
ATOM     12  C   UNL     1     -12.439 -39.248  37.887  1.00  0.00     0.088 C 
ATOM     13  C   UNL     1     -11.582 -38.036  37.656  1.00  0.00     0.159 C 
ATOM     14  O   UNL     1     -11.831 -37.304  36.661  1.00  0.00    -0.295 OA
ATOM     15  C   UNL     1     -13.770 -38.305  39.821  1.00  0.00     0.012 C 
ATOM     16  C   UNL     1      -8.334 -36.554  39.219  1.00  0.00     0.039 C 
ENDROOT
TORSDOF 0
ENDMDL
MODEL 4
REMARK VINA RESULT:    -7.458      2.080      3.946
REMARK INTER + INTRA:          -7.458
REMARK INTER:                  -7.458
REMARK INTRA:                   0.000
REMARK UNBOUND:                 0.000
REMARK SMILES C=C1CCC[C@]2(C)CC(=O)C(=C(C)C)C[C@@H]12
REMARK SMILES IDX 13 1 12 2 11 3 15 4 16 5 2 6 1 7 3 8 4 9 5 10 6 11 8 12 9 13
REMARK SMILES IDX 10 14 7 15 14 16
REMARK H PARENT
REMARK Flexibility Score: inf
ROOT
ATOM      1  C   UNL     1      -7.877 -36.721  39.928  1.00  0.00     0.039 C 
ATOM      2  C   UNL     1      -8.979 -37.554  40.544  1.00  0.00    -0.070 C 
ATOM      3  C   UNL     1     -10.083 -37.927  39.832  1.00  0.00    -0.006 C 
ATOM      4  C   UNL     1     -11.154 -38.817  40.449  1.00  0.00     0.047 C 
ATOM      5  C   UNL     1     -11.866 -39.712  39.404  1.00  0.00     0.025 C 
ATOM      6  C   UNL     1     -12.981 -40.598  39.960  1.00  0.00    -0.073 C 
ATOM      7  C   UNL     1     -13.354 -40.619  41.254  1.00  0.00     0.008 C 
ATOM      8  C   UNL     1     -13.652 -41.524  38.973  1.00  0.00     0.031 C 
ATOM      9  C   UNL     1     -14.149 -40.738  37.757  1.00  0.00     0.005 C 
ATOM     10  C   UNL     1     -13.034 -39.869  37.148  1.00  0.00     0.008 C 
ATOM     11  C   UNL     1     -12.387 -38.896  38.179  1.00  0.00    -0.018 C 
ATOM     12  C   UNL     1     -11.182 -38.204  37.497  1.00  0.00     0.088 C 
ATOM     13  C   UNL     1     -10.369 -37.396  38.467  1.00  0.00     0.159 C 
ATOM     14  O   UNL     1      -9.951 -36.263  38.106  1.00  0.00    -0.295 OA
ATOM     15  C   UNL     1     -13.426 -37.819  38.601  1.00  0.00     0.012 C 
ATOM     16  C   UNL     1      -8.786 -37.988  41.980  1.00  0.00     0.039 C 
ENDROOT
TORSDOF 0
ENDMDL
MODEL 5
REMARK VINA RESULT:    -7.345      2.323      5.005
REMARK INTER + INTRA:          -7.345
REMARK INTER:                  -7.345
REMARK INTRA:                   0.000
REMARK UNBOUND:                 0.000
REMARK SMILES C=C1CCC[C@]2(C)CC(=O)C(=C(C)C)C[C@@H]12
REMARK SMILES IDX 13 1 12 2 11 3 15 4 16 5 2 6 1 7 3 8 4 9 5 10 6 11 8 12 9 13
REMARK SMILES IDX 10 14 7 15 14 16
REMARK H PARENT
REMARK Flexibility Score: inf
ROOT
ATOM      1  C   UNL     1     -11.726 -35.749  36.111  1.00  0.00     0.039 C 
ATOM      2  C   UNL     1     -11.905 -37.238  36.306  1.00  0.00    -0.070 C 
ATOM      3  C   UNL     1     -11.975 -37.798  37.550  1.00  0.00    -0.006 C 
ATOM      4  C   UNL     1     -12.216 -39.291  37.728  1.00  0.00     0.047 C 
ATOM      5  C   UNL     1     -12.980 -39.623  39.034  1.00  0.00     0.025 C 
ATOM      6  C   UNL     1     -13.215 -41.112  39.288  1.00  0.00    -0.073 C 
ATOM      7  C   UNL     1     -12.795 -42.094  38.467  1.00  0.00     0.008 C 
ATOM      8  C   UNL     1     -14.009 -41.461  40.526  1.00  0.00     0.031 C 
ATOM      9  C   UNL     1     -13.391 -40.799  41.760  1.00  0.00     0.005 C 
ATOM     10  C   UNL     1     -13.183 -39.289  41.550  1.00  0.00     0.008 C 
ATOM     11  C   UNL     1     -12.328 -38.959  40.289  1.00  0.00    -0.018 C 
ATOM     12  C   UNL     1     -12.330 -37.424  40.093  1.00  0.00     0.088 C 
ATOM     13  C   UNL     1     -11.701 -37.018  38.791  1.00  0.00     0.159 C 
ATOM     14  O   UNL     1     -10.932 -36.019  38.780  1.00  0.00    -0.295 OA
ATOM     15  C   UNL     1     -10.869 -39.447  40.509  1.00  0.00     0.012 C 
ATOM     16  C   UNL     1     -12.041 -38.079  35.057  1.00  0.00     0.039 C 
ENDROOT
TORSDOF 0
ENDMDL
MODEL 6
REMARK VINA RESULT:    -7.268      2.785      4.701
REMARK INTER + INTRA:          -7.268
REMARK INTER:                  -7.268
REMARK INTRA:                   0.000
REMARK UNBOUND:                 0.000
REMARK SMILES C=C1CCC[C@]2(C)CC(=O)C(=C(C)C)C[C@@H]12
REMARK SMILES IDX 13 1 12 2 11 3 15 4 16 5 2 6 1 7 3 8 4 9 5 10 6 11 8 12 9 13
REMARK SMILES IDX 10 14 7 15 14 16
REMARK H PARENT
REMARK Flexibility Score: inf
ROOT
ATOM      1  C   UNL     1     -12.162 -40.534  35.220  1.00  0.00     0.039 C 
ATOM      2  C   UNL     1     -12.802 -39.949  36.459  1.00  0.00    -0.070 C 
ATOM      3  C   UNL     1     -12.614 -38.645  36.820  1.00  0.00    -0.006 C 
ATOM      4  C   UNL     1     -13.315 -38.057  38.037  1.00  0.00     0.047 C 
ATOM      5  C   UNL     1     -13.608 -36.543  37.888  1.00  0.00     0.025 C 
ATOM      6  C   UNL     1     -14.274 -35.888  39.097  1.00  0.00    -0.073 C 
ATOM      7  C   UNL     1     -14.590 -36.541  40.232  1.00  0.00     0.008 C 
ATOM      8  C   UNL     1     -14.625 -34.425  38.955  1.00  0.00     0.031 C 
ATOM      9  C   UNL     1     -13.396 -33.622  38.521  1.00  0.00     0.005 C 
ATOM     10  C   UNL     1     -12.729 -34.234  37.277  1.00  0.00     0.008 C 
ATOM     11  C   UNL     1     -12.342 -35.732  37.465  1.00  0.00    -0.018 C 
ATOM     12  C   UNL     1     -11.838 -36.274  36.106  1.00  0.00     0.088 C 
ATOM     13  C   UNL     1     -11.630 -37.762  36.131  1.00  0.00     0.159 C 
ATOM     14  O   UNL     1     -10.605 -38.235  35.572  1.00  0.00    -0.295 OA
ATOM     15  C   UNL     1     -11.204 -35.847  38.518  1.00  0.00     0.012 C 
ATOM     16  C   UNL     1     -13.694 -40.867  37.265  1.00  0.00     0.039 C 
ENDROOT
TORSDOF 0
ENDMDL
MODEL 7
REMARK VINA RESULT:    -6.963      1.784      3.207
REMARK INTER + INTRA:          -6.963
REMARK INTER:                  -6.963
REMARK INTRA:                   0.000
REMARK UNBOUND:                 0.000
REMARK SMILES C=C1CCC[C@]2(C)CC(=O)C(=C(C)C)C[C@@H]12
REMARK SMILES IDX 13 1 12 2 11 3 15 4 16 5 2 6 1 7 3 8 4 9 5 10 6 11 8 12 9 13
REMARK SMILES IDX 10 14 7 15 14 16
REMARK H PARENT
REMARK Flexibility Score: inf
ROOT
ATOM      1  C   UNL     1     -12.203 -40.295  42.494  1.00  0.00     0.039 C 
ATOM      2  C   UNL     1     -12.912 -39.038  42.042  1.00  0.00    -0.070 C 
ATOM      3  C   UNL     1     -12.629 -38.443  40.845  1.00  0.00    -0.006 C 
ATOM      4  C   UNL     1     -13.395 -37.213  40.378  1.00  0.00     0.047 C 
ATOM      5  C   UNL     1     -13.509 -37.127  38.835  1.00  0.00     0.025 C 
ATOM      6  C   UNL     1     -14.232 -35.889  38.305  1.00  0.00    -0.073 C 
ATOM      7  C   UNL     1     -14.738 -34.917  39.088  1.00  0.00     0.008 C 
ATOM      8  C   UNL     1     -14.409 -35.810  36.807  1.00  0.00     0.031 C 
ATOM      9  C   UNL     1     -13.062 -35.985  36.101  1.00  0.00     0.005 C 
ATOM     10  C   UNL     1     -12.329 -37.249  36.583  1.00  0.00     0.008 C 
ATOM     11  C   UNL     1     -12.125 -37.286  38.128  1.00  0.00    -0.018 C 
ATOM     12  C   UNL     1     -11.534 -38.666  38.503  1.00  0.00     0.088 C 
ATOM     13  C   UNL     1     -11.487 -38.878  39.990  1.00  0.00     0.159 C 
ATOM     14  O   UNL     1     -10.462 -39.413  40.489  1.00  0.00    -0.295 OA
ATOM     15  C   UNL     1     -11.130 -36.169  38.548  1.00  0.00     0.012 C 
ATOM     16  C   UNL     1     -13.979 -38.487  42.961  1.00  0.00     0.039 C 
ENDROOT
TORSDOF 0
ENDMDL
MODEL 8
REMARK VINA RESULT:    -6.856      1.947      2.952
REMARK INTER + INTRA:          -6.856
REMARK INTER:                  -6.856
REMARK INTRA:                   0.000
REMARK UNBOUND:                 0.000
REMARK SMILES C=C1CCC[C@]2(C)CC(=O)C(=C(C)C)C[C@@H]12
REMARK SMILES IDX 13 1 12 2 11 3 15 4 16 5 2 6 1 7 3 8 4 9 5 10 6 11 8 12 9 13
REMARK SMILES IDX 10 14 7 15 14 16
REMARK H PARENT
REMARK Flexibility Score: inf
ROOT
ATOM      1  C   UNL     1     -13.535 -41.257  41.314  1.00  0.00     0.039 C 
ATOM      2  C   UNL     1     -12.427 -40.282  40.981  1.00  0.00    -0.070 C 
ATOM      3  C   UNL     1     -12.426 -39.563  39.819  1.00  0.00    -0.006 C 
ATOM      4  C   UNL     1     -11.334 -38.542  39.527  1.00  0.00     0.047 C 
ATOM      5  C   UNL     1     -11.832 -37.367  38.649  1.00  0.00     0.025 C 
ATOM      6  C   UNL     1     -10.768 -36.331  38.288  1.00  0.00    -0.073 C 
ATOM      7  C   UNL     1      -9.480 -36.403  38.676  1.00  0.00     0.008 C 
ATOM      8  C   UNL     1     -11.240 -35.144  37.481  1.00  0.00     0.031 C 
ATOM      9  C   UNL     1     -11.978 -35.612  36.225  1.00  0.00     0.005 C 
ATOM     10  C   UNL     1     -13.086 -36.624  36.563  1.00  0.00     0.008 C 
ATOM     11  C   UNL     1     -12.565 -37.858  37.360  1.00  0.00    -0.018 C 
ATOM     12  C   UNL     1     -13.786 -38.711  37.780  1.00  0.00     0.088 C 
ATOM     13  C   UNL     1     -13.407 -39.816  38.725  1.00  0.00     0.159 C 
ATOM     14  O   UNL     1     -13.925 -40.953  38.560  1.00  0.00    -0.295 OA
ATOM     15  C   UNL     1     -11.632 -38.707  36.452  1.00  0.00     0.012 C 
ATOM     16  C   UNL     1     -11.334 -40.112  42.012  1.00  0.00     0.039 C 
ENDROOT
TORSDOF 0
ENDMDL
MODEL 9
REMARK VINA RESULT:    -6.839      2.448      5.121
REMARK INTER + INTRA:          -6.839
REMARK INTER:                  -6.839
REMARK INTRA:                   0.000
REMARK UNBOUND:                 0.000
REMARK SMILES C=C1CCC[C@]2(C)CC(=O)C(=C(C)C)C[C@@H]12
REMARK SMILES IDX 13 1 12 2 11 3 15 4 16 5 2 6 1 7 3 8 4 9 5 10 6 11 8 12 9 13
REMARK SMILES IDX 10 14 7 15 14 16
REMARK H PARENT
REMARK Flexibility Score: inf
ROOT
ATOM      1  C   UNL     1     -11.750 -35.260  36.126  1.00  0.00     0.039 C 
ATOM      2  C   UNL     1     -12.486 -35.400  37.439  1.00  0.00    -0.070 C 
ATOM      3  C   UNL     1     -12.548 -36.589  38.107  1.00  0.00    -0.006 C 
ATOM      4  C   UNL     1     -13.242 -36.699  39.458  1.00  0.00     0.047 C 
ATOM      5  C   UNL     1     -12.619 -37.788  40.366  1.00  0.00     0.025 C 
ATOM      6  C   UNL     1     -13.302 -37.972  41.721  1.00  0.00    -0.073 C 
ATOM      7  C   UNL     1     -14.376 -37.267  42.128  1.00  0.00     0.008 C 
ATOM      8  C   UNL     1     -12.678 -38.986  42.651  1.00  0.00     0.031 C 
ATOM      9  C   UNL     1     -12.523 -40.335  41.943  1.00  0.00     0.005 C 
ATOM     10  C   UNL     1     -11.798 -40.186  40.594  1.00  0.00     0.008 C 
ATOM     11  C   UNL     1     -12.485 -39.164  39.639  1.00  0.00    -0.018 C 
ATOM     12  C   UNL     1     -11.581 -38.981  38.397  1.00  0.00     0.088 C 
ATOM     13  C   UNL     1     -12.055 -37.865  37.510  1.00  0.00     0.159 C 
ATOM     14  O   UNL     1     -12.039 -38.039  36.262  1.00  0.00    -0.295 OA
ATOM     15  C   UNL     1     -13.867 -39.717  39.192  1.00  0.00     0.012 C 
ATOM     16  C   UNL     1     -13.125 -34.149  38.001  1.00  0.00     0.039 C 
ENDROOT
TORSDOF 0
ENDMDL
