MODEL 1
REMARK VINA RESULT:    -2.836      0.000      0.000
REMARK INTER + INTRA:          -2.836
REMARK INTER:                  -2.836
REMARK INTRA:                   0.000
REMARK UNBOUND:                 0.000
REMARK SMILES CC(=O)[O-]
REMARK SMILES IDX 1 1 2 2 3 3 4 4
REMARK H PARENT
REMARK Flexibility Score: inf
ROOT
ATOM      1  C   UNL     1      20.550   7.875  13.234  1.00  0.00     0.063 C 
ATOM      2  C   UNL     1      19.574   8.754  13.941  1.00  0.00     0.038 C 
ATOM      3  O   UNL     1      18.995   8.346  14.981  1.00  0.00    -0.550 OA
ATOM      4  O   UNL     1      19.262  10.005  13.423  1.00  0.00    -0.550 OA
ENDROOT
TORSDOF 0
ENDMDL
MODEL 2
REMARK VINA RESULT:    -2.762      1.624      1.849
REMARK INTER + INTRA:          -2.762
REMARK INTER:                  -2.762
REMARK INTRA:                   0.000
REMARK UNBOUND:                 0.000
REMARK SMILES CC(=O)[O-]
REMARK SMILES IDX 1 1 2 2 3 3 4 4
REMARK H PARENT
REMARK Flexibility Score: inf
ROOT
ATOM      1  C   UNL     1      19.127   8.625  14.482  1.00  0.00     0.063 C 
ATOM      2  C   UNL     1      20.111   8.825  13.379  1.00  0.00     0.038 C 
ATOM      3  O   UNL     1      20.859   7.879  13.020  1.00  0.00    -0.550 OA
ATOM      4  O   UNL     1      20.243  10.073  12.782  1.00  0.00    -0.550 OA
ENDROOT
TORSDOF 0
ENDMDL
MODEL 3
REMARK VINA RESULT:    -2.750      1.674      2.295
REMARK INTER + INTRA:          -2.750
REMARK INTER:                  -2.750
REMARK INTRA:                   0.000
REMARK UNBOUND:                 0.000
REMARK SMILES CC(=O)[O-]
REMARK SMILES IDX 1 1 2 2 3 3 4 4
REMARK H PARENT
REMARK Flexibility Score: inf
ROOT
ATOM      1  C   UNL     1      19.155   8.617  14.481  1.00  0.00     0.063 C 
ATOM      2  C   UNL     1      20.151   8.917  13.413  1.00  0.00     0.038 C 
ATOM      3  O   UNL     1      20.174  10.053  12.871  1.00  0.00    -0.550 OA
ATOM      4  O   UNL     1      21.021   7.927  12.975  1.00  0.00    -0.550 OA
ENDROOT
TORSDOF 0
ENDMDL
MODEL 4
REMARK VINA RESULT:    -2.730     13.438     13.509
REMARK INTER + INTRA:          -2.730
REMARK INTER:                  -2.730
REMARK INTRA:                   0.000
REMARK UNBOUND:                 0.000
REMARK SMILES CC(=O)[O-]
REMARK SMILES IDX 1 1 2 2 3 3 4 4
REMARK H PARENT
REMARK Flexibility Score: inf
ROOT
ATOM      1  C   UNL     1      10.389  10.500   4.702  1.00  0.00     0.063 C 
ATOM      2  C   UNL     1       9.489   9.384   5.114  1.00  0.00     0.038 C 
ATOM      3  O   UNL     1       9.656   8.229   4.642  1.00  0.00    -0.550 OA
ATOM      4  O   UNL     1       8.430   9.628   5.980  1.00  0.00    -0.550 OA
ENDROOT
TORSDOF 0
ENDMDL
MODEL 5
REMARK VINA RESULT:    -2.707     13.443     13.802
REMARK INTER + INTRA:          -2.707
REMARK INTER:                  -2.707
REMARK INTRA:                   0.000
REMARK UNBOUND:                 0.000
REMARK SMILES CC(=O)[O-]
REMARK SMILES IDX 1 1 2 2 3 3 4 4
REMARK H PARENT
REMARK Flexibility Score: inf
ROOT
ATOM      1  C   UNL     1      10.476   9.198   4.680  1.00  0.00     0.063 C 
ATOM      2  C   UNL     1       9.231   9.975   4.942  1.00  0.00     0.038 C 
ATOM      3  O   UNL     1       8.896  10.912   4.172  1.00  0.00    -0.550 OA
ATOM      4  O   UNL     1       8.465   9.702   6.069  1.00  0.00    -0.550 OA
ENDROOT
TORSDOF 0
ENDMDL
MODEL 6
REMARK VINA RESULT:    -2.651      1.573      1.915
REMARK INTER + INTRA:          -2.651
REMARK INTER:                  -2.651
REMARK INTRA:                   0.000
REMARK UNBOUND:                 0.000
REMARK SMILES CC(=O)[O-]
REMARK SMILES IDX 1 1 2 2 3 3 4 4
REMARK H PARENT
REMARK Flexibility Score: inf
ROOT
ATOM      1  C   UNL     1      20.784   9.988  12.369  1.00  0.00     0.063 C 
ATOM      2  C   UNL     1      19.908   9.228  13.307  1.00  0.00     0.038 C 
ATOM      3  O   UNL     1      18.946   9.803  13.881  1.00  0.00    -0.550 OA
ATOM      4  O   UNL     1      20.184   7.896  13.592  1.00  0.00    -0.550 OA
ENDROOT
TORSDOF 0
ENDMDL
MODEL 7
REMARK VINA RESULT:    -2.557      1.761      2.006
REMARK INTER + INTRA:          -2.557
REMARK INTER:                  -2.557
REMARK INTRA:                   0.000
REMARK UNBOUND:                 0.000
REMARK SMILES CC(=O)[O-]
REMARK SMILES IDX 1 1 2 2 3 3 4 4
REMARK H PARENT
REMARK Flexibility Score: inf
ROOT
ATOM      1  C   UNL     1      20.249  10.118  12.658  1.00  0.00     0.063 C 
ATOM      2  C   UNL     1      20.145   8.833  13.407  1.00  0.00     0.038 C 
ATOM      3  O   UNL     1      20.912   7.875  13.130  1.00  0.00    -0.550 OA
ATOM      4  O   UNL     1      19.163   8.672  14.378  1.00  0.00    -0.550 OA
ENDROOT
TORSDOF 0
ENDMDL
MODEL 8
REMARK VINA RESULT:    -2.522      2.236      2.443
REMARK INTER + INTRA:          -2.522
REMARK INTER:                  -2.522
REMARK INTRA:                   0.000
REMARK UNBOUND:                 0.000
REMARK SMILES CC(=O)[O-]
REMARK SMILES IDX 1 1 2 2 3 3 4 4
REMARK H PARENT
REMARK Flexibility Score: inf
ROOT
ATOM      1  C   UNL     1      21.003  10.524  11.523  1.00  0.00     0.063 C 
ATOM      2  C   UNL     1      20.702   9.868  12.828  1.00  0.00     0.038 C 
ATOM      3  O   UNL     1      21.596   9.219  13.431  1.00  0.00    -0.550 OA
ATOM      4  O   UNL     1      19.419   9.927  13.357  1.00  0.00    -0.550 OA
ENDROOT
TORSDOF 0
ENDMDL
MODEL 9
REMARK VINA RESULT:    -2.483      3.069      3.558
REMARK INTER + INTRA:          -2.483
REMARK INTER:                  -2.483
REMARK INTRA:                   0.000
REMARK UNBOUND:                 0.000
REMARK SMILES CC(=O)[O-]
REMARK SMILES IDX 1 1 2 2 3 3 4 4
REMARK H PARENT
REMARK Flexibility Score: inf
ROOT
ATOM      1  C   UNL     1      20.210   9.777  13.007  1.00  0.00     0.063 C 
ATOM      2  C   UNL     1      21.200  10.056  11.927  1.00  0.00     0.038 C 
ATOM      3  O   UNL     1      20.916  10.860  11.002  1.00  0.00    -0.550 OA
ATOM      4  O   UNL     1      22.418   9.388  11.911  1.00  0.00    -0.550 OA
ENDROOT
TORSDOF 0
ENDMDL
