MODEL 1
REMARK VINA RESULT:    -4.806      0.000      0.000
REMARK INTER + INTRA:         -14.312
REMARK INTER:                 -10.988
REMARK INTRA:                  -3.324
REMARK UNBOUND:                -3.324
REMARK SMILES CCCCCCCCCCCCCCCCCCCCCCCC(=O)[O-]
REMARK SMILES IDX 13 1 14 2 15 3 16 4 17 5 18 6 19 7 20 8 21 9 22 10 23 11
REMARK SMILES IDX 24 12 25 13 26 14 12 15 11 16 10 17 9 18 8 19 7 20 6 21 5 22
REMARK SMILES IDX 4 23 3 24 2 25 1 26
REMARK H PARENT
REMARK Flexibility Score: inf
ROOT
ATOM      1  C   UNL     1     -16.498  -6.558  32.209  1.00  0.00     0.000 C 
ENDROOT
BRANCH   1   2
ATOM      2  C   UNL     1     -15.370  -7.151  31.337  1.00  0.00     0.000 C 
BRANCH   2   3
ATOM      3  C   UNL     1     -14.304  -7.874  32.180  1.00  0.00     0.000 C 
BRANCH   3   4
ATOM      4  C   UNL     1     -12.990  -7.082  32.275  1.00  0.00     0.000 C 
BRANCH   4   5
ATOM      5  C   UNL     1     -12.727  -6.549  33.696  1.00  0.00     0.000 C 
BRANCH   5   6
ATOM      6  C   UNL     1     -12.572  -5.020  33.740  1.00  0.00     0.000 C 
BRANCH   6   7
ATOM      7  C   UNL     1     -13.094  -4.331  32.467  1.00  0.00     0.000 C 
BRANCH   7   8
ATOM      8  C   UNL     1     -13.924  -3.072  32.778  1.00  0.00     0.000 C 
BRANCH   8   9
ATOM      9  C   UNL     1     -15.296  -3.031  32.079  1.00  0.00     0.000 C 
BRANCH   9  10
ATOM     10  C   UNL     1     -16.198  -1.904  32.613  1.00  0.00     0.006 C 
BRANCH  10  11
ATOM     11  C   UNL     1     -17.293  -1.516  31.611  1.00  0.00     0.053 C 
BRANCH  11  12
ATOM     12  C   UNL     1     -18.555  -2.294  31.836  1.00  0.00     0.041 C 
ATOM     13  O   UNL     1     -19.637  -1.694  32.068  1.00  0.00    -0.550 OA
ATOM     14  O   UNL     1     -18.527  -3.683  31.819  1.00  0.00    -0.550 OA
ENDBRANCH  11  12
ENDBRANCH  10  11
ENDBRANCH   9  10
ENDBRANCH   8   9
ENDBRANCH   7   8
ENDBRANCH   6   7
ENDBRANCH   5   6
ENDBRANCH   4   5
ENDBRANCH   3   4
ENDBRANCH   2   3
ENDBRANCH   1   2
BRANCH   1  15
ATOM     15  C   UNL     1     -16.386  -6.920  33.699  1.00  0.00     0.000 C 
BRANCH  15  16
ATOM     16  C   UNL     1     -16.095  -5.700  34.589  1.00  0.00     0.000 C 
BRANCH  16  17
ATOM     17  C   UNL     1     -15.832  -6.087  36.054  1.00  0.00     0.000 C 
BRANCH  17  18
ATOM     18  C   UNL     1     -15.715  -4.861  36.977  1.00  0.00    -0.000 C 
BRANCH  18  19
ATOM     19  C   UNL     1     -15.218  -3.610  36.236  1.00  0.00    -0.000 C 
BRANCH  19  20
ATOM     20  C   UNL     1     -16.257  -2.474  36.236  1.00  0.00    -0.000 C 
BRANCH  20  21
ATOM     21  C   UNL     1     -16.800  -2.171  37.642  1.00  0.00    -0.000 C 
BRANCH  21  22
ATOM     22  C   UNL     1     -17.614  -0.869  37.694  1.00  0.00    -0.000 C 
BRANCH  22  23
ATOM     23  C   UNL     1     -17.844  -0.312  36.281  1.00  0.00    -0.000 C 
BRANCH  23  24
ATOM     24  C   UNL     1     -18.549   1.054  36.291  1.00  0.00    -0.000 C 
BRANCH  24  25
ATOM     25  C   UNL     1     -17.902   2.047  37.268  1.00  0.00    -0.003 C 
ATOM     26  C   UNL     1     -18.795   2.282  38.484  1.00  0.00     0.004 C 
ENDBRANCH  24  25
ENDBRANCH  23  24
ENDBRANCH  22  23
ENDBRANCH  21  22
ENDBRANCH  20  21
ENDBRANCH  19  20
ENDBRANCH  18  19
ENDBRANCH  17  18
ENDBRANCH  16  17
ENDBRANCH  15  16
ENDBRANCH   1  15
TORSDOF 22
ENDMDL
MODEL 2
REMARK VINA RESULT:    -4.767      1.307      2.850
REMARK INTER + INTRA:         -14.223
REMARK INTER:                 -10.455
REMARK INTRA:                  -3.768
REMARK UNBOUND:                -3.324
REMARK SMILES CCCCCCCCCCCCCCCCCCCCCCCC(=O)[O-]
REMARK SMILES IDX 13 1 14 2 15 3 16 4 17 5 18 6 19 7 20 8 21 9 22 10 23 11
REMARK SMILES IDX 24 12 25 13 26 14 12 15 11 16 10 17 9 18 8 19 7 20 6 21 5 22
REMARK SMILES IDX 4 23 3 24 2 25 1 26
REMARK H PARENT
REMARK Flexibility Score: inf
ROOT
ATOM      1  C   UNL     1     -14.189  -2.889  34.265  1.00  0.00     0.000 C 
ENDROOT
BRANCH   1   2
ATOM      2  C   UNL     1     -13.685  -2.299  32.930  1.00  0.00     0.000 C 
BRANCH   2   3
ATOM      3  C   UNL     1     -13.397  -3.392  31.885  1.00  0.00     0.000 C 
BRANCH   3   4
ATOM      4  C   UNL     1     -12.644  -4.593  32.481  1.00  0.00     0.000 C 
BRANCH   4   5
ATOM      5  C   UNL     1     -13.379  -5.924  32.241  1.00  0.00     0.000 C 
BRANCH   5   6
ATOM      6  C   UNL     1     -13.908  -6.555  33.539  1.00  0.00     0.000 C 
BRANCH   6   7
ATOM      7  C   UNL     1     -15.437  -6.452  33.672  1.00  0.00     0.000 C 
BRANCH   7   8
ATOM      8  C   UNL     1     -16.152  -6.511  32.308  1.00  0.00     0.000 C 
BRANCH   8   9
ATOM      9  C   UNL     1     -17.366  -5.572  32.191  1.00  0.00     0.000 C 
BRANCH   9  10
ATOM     10  C   UNL     1     -17.121  -4.203  32.851  1.00  0.00     0.006 C 
BRANCH  10  11
ATOM     11  C   UNL     1     -17.330  -3.042  31.870  1.00  0.00     0.053 C 
BRANCH  11  12
ATOM     12  C   UNL     1     -18.596  -2.292  32.156  1.00  0.00     0.041 C 
ATOM     13  O   UNL     1     -18.767  -1.737  33.273  1.00  0.00    -0.550 OA
ATOM     14  O   UNL     1     -19.600  -2.234  31.197  1.00  0.00    -0.550 OA
ENDBRANCH  11  12
ENDBRANCH  10  11
ENDBRANCH   9  10
ENDBRANCH   8   9
ENDBRANCH   7   8
ENDBRANCH   6   7
ENDBRANCH   5   6
ENDBRANCH   4   5
ENDBRANCH   3   4
ENDBRANCH   2   3
ENDBRANCH   1   2
BRANCH   1  15
ATOM     15  C   UNL     1     -13.271  -2.588  35.462  1.00  0.00     0.000 C 
BRANCH  15  16
ATOM     16  C   UNL     1     -12.749  -3.862  36.148  1.00  0.00     0.000 C 
BRANCH  16  17
ATOM     17  C   UNL     1     -13.570  -4.243  37.390  1.00  0.00     0.000 C 
BRANCH  17  18
ATOM     18  C   UNL     1     -14.564  -5.386  37.115  1.00  0.00    -0.000 C 
BRANCH  18  19
ATOM     19  C   UNL     1     -16.015  -4.892  37.003  1.00  0.00    -0.000 C 
BRANCH  19  20
ATOM     20  C   UNL     1     -16.191  -3.456  37.528  1.00  0.00    -0.000 C 
BRANCH  20  21
ATOM     21  C   UNL     1     -16.874  -2.533  36.506  1.00  0.00    -0.000 C 
BRANCH  21  22
ATOM     22  C   UNL     1     -17.414  -1.243  37.142  1.00  0.00    -0.000 C 
BRANCH  22  23
ATOM     23  C   UNL     1     -17.561  -0.134  36.090  1.00  0.00    -0.000 C 
BRANCH  23  24
ATOM     24  C   UNL     1     -18.755   0.792  36.369  1.00  0.00    -0.000 C 
BRANCH  24  25
ATOM     25  C   UNL     1     -18.903   1.134  37.859  1.00  0.00    -0.003 C 
ATOM     26  C   UNL     1     -18.056   2.348  38.231  1.00  0.00     0.004 C 
ENDBRANCH  24  25
ENDBRANCH  23  24
ENDBRANCH  22  23
ENDBRANCH  21  22
ENDBRANCH  20  21
ENDBRANCH  19  20
ENDBRANCH  18  19
ENDBRANCH  17  18
ENDBRANCH  16  17
ENDBRANCH  15  16
ENDBRANCH   1  15
TORSDOF 22
ENDMDL
MODEL 3
REMARK VINA RESULT:    -4.759      2.349      6.680
REMARK INTER + INTRA:         -14.205
REMARK INTER:                 -10.190
REMARK INTRA:                  -4.014
REMARK UNBOUND:                -3.324
REMARK SMILES CCCCCCCCCCCCCCCCCCCCCCCC(=O)[O-]
REMARK SMILES IDX 13 1 14 2 15 3 16 4 17 5 18 6 19 7 20 8 21 9 22 10 23 11
REMARK SMILES IDX 24 12 25 13 26 14 12 15 11 16 10 17 9 18 8 19 7 20 6 21 5 22
REMARK SMILES IDX 4 23 3 24 2 25 1 26
REMARK H PARENT
REMARK Flexibility Score: inf
ROOT
ATOM      1  C   UNL     1     -15.789  -2.101  32.403  1.00  0.00     0.000 C 
ENDROOT
BRANCH   1   2
ATOM      2  C   UNL     1     -14.324  -2.254  32.866  1.00  0.00     0.000 C 
BRANCH   2   3
ATOM      3  C   UNL     1     -13.663  -3.519  32.288  1.00  0.00     0.000 C 
BRANCH   3   4
ATOM      4  C   UNL     1     -13.347  -4.566  33.368  1.00  0.00     0.000 C 
BRANCH   4   5
ATOM      5  C   UNL     1     -13.700  -4.073  34.784  1.00  0.00     0.000 C 
BRANCH   5   6
ATOM      6  C   UNL     1     -14.813  -4.903  35.443  1.00  0.00     0.000 C 
BRANCH   6   7
ATOM      7  C   UNL     1     -16.042  -4.058  35.823  1.00  0.00     0.000 C 
BRANCH   7   8
ATOM      8  C   UNL     1     -15.664  -2.621  36.231  1.00  0.00     0.000 C 
BRANCH   8   9
ATOM      9  C   UNL     1     -16.799  -1.595  36.053  1.00  0.00     0.000 C 
BRANCH   9  10
ATOM     10  C   UNL     1     -17.290  -1.020  37.394  1.00  0.00     0.006 C 
BRANCH  10  11
ATOM     11  C   UNL     1     -18.393   0.029  37.203  1.00  0.00     0.053 C 
BRANCH  11  12
ATOM     12  C   UNL     1     -17.827   1.403  37.003  1.00  0.00     0.041 C 
ATOM     13  O   UNL     1     -17.420   1.762  35.867  1.00  0.00    -0.550 OA
ATOM     14  O   UNL     1     -17.722   2.274  38.080  1.00  0.00    -0.550 OA
ENDBRANCH  11  12
ENDBRANCH  10  11
ENDBRANCH   9  10
ENDBRANCH   8   9
ENDBRANCH   7   8
ENDBRANCH   6   7
ENDBRANCH   5   6
ENDBRANCH   4   5
ENDBRANCH   3   4
ENDBRANCH   2   3
ENDBRANCH   1   2
BRANCH   1  15
ATOM     15  C   UNL     1     -16.296  -3.274  31.547  1.00  0.00     0.000 C 
BRANCH  15  16
ATOM     16  C   UNL     1     -17.502  -3.993  32.175  1.00  0.00     0.000 C 
BRANCH  16  17
ATOM     17  C   UNL     1     -17.159  -5.412  32.656  1.00  0.00     0.000 C 
BRANCH  17  18
ATOM     18  C   UNL     1     -17.820  -6.504  31.795  1.00  0.00    -0.000 C 
BRANCH  18  19
ATOM     19  C   UNL     1     -16.794  -7.333  31.006  1.00  0.00    -0.000 C 
BRANCH  19  20
ATOM     20  C   UNL     1     -15.385  -6.715  31.038  1.00  0.00    -0.000 C 
BRANCH  20  21
ATOM     21  C   UNL     1     -14.367  -7.603  31.770  1.00  0.00    -0.000 C 
BRANCH  21  22
ATOM     22  C   UNL     1     -15.032  -8.763  32.529  1.00  0.00    -0.000 C 
BRANCH  22  23
ATOM     23  C   UNL     1     -14.965  -8.533  34.046  1.00  0.00    -0.000 C 
BRANCH  23  24
ATOM     24  C   UNL     1     -16.356  -8.401  34.686  1.00  0.00    -0.000 C 
BRANCH  24  25
ATOM     25  C   UNL     1     -17.276  -9.583  34.351  1.00  0.00    -0.003 C 
ATOM     26  C   UNL     1     -18.412  -9.701  35.364  1.00  0.00     0.004 C 
ENDBRANCH  24  25
ENDBRANCH  23  24
ENDBRANCH  22  23
ENDBRANCH  21  22
ENDBRANCH  20  21
ENDBRANCH  19  20
ENDBRANCH  18  19
ENDBRANCH  17  18
ENDBRANCH  16  17
ENDBRANCH  15  16
ENDBRANCH   1  15
TORSDOF 22
ENDMDL
MODEL 4
REMARK VINA RESULT:    -4.736      2.456      5.914
REMARK INTER + INTRA:         -14.150
REMARK INTER:                 -10.230
REMARK INTRA:                  -3.920
REMARK UNBOUND:                -3.324
REMARK SMILES CCCCCCCCCCCCCCCCCCCCCCCC(=O)[O-]
REMARK SMILES IDX 13 1 14 2 15 3 16 4 17 5 18 6 19 7 20 8 21 9 22 10 23 11
REMARK SMILES IDX 24 12 25 13 26 14 12 15 11 16 10 17 9 18 8 19 7 20 6 21 5 22
REMARK SMILES IDX 4 23 3 24 2 25 1 26
REMARK H PARENT
REMARK Flexibility Score: inf
ROOT
ATOM      1  C   UNL     1     -17.682  -3.521  32.197  1.00  0.00     0.000 C 
ENDROOT
BRANCH   1   2
ATOM      2  C   UNL     1     -16.580  -2.475  31.919  1.00  0.00     0.000 C 
BRANCH   2   3
ATOM      3  C   UNL     1     -15.415  -3.064  31.104  1.00  0.00     0.000 C 
BRANCH   3   4
ATOM      4  C   UNL     1     -14.132  -3.221  31.937  1.00  0.00     0.000 C 
BRANCH   4   5
ATOM      5  C   UNL     1     -14.167  -2.386  33.230  1.00  0.00     0.000 C 
BRANCH   5   6
ATOM      6  C   UNL     1     -14.169  -3.252  34.500  1.00  0.00     0.000 C 
BRANCH   6   7
ATOM      7  C   UNL     1     -14.793  -2.535  35.710  1.00  0.00     0.000 C 
BRANCH   7   8
ATOM      8  C   UNL     1     -16.333  -2.584  35.693  1.00  0.00     0.000 C 
BRANCH   8   9
ATOM      9  C   UNL     1     -17.008  -1.203  35.624  1.00  0.00     0.000 C 
BRANCH   9  10
ATOM     10  C   UNL     1     -17.701  -0.816  36.943  1.00  0.00     0.006 C 
BRANCH  10  11
ATOM     11  C   UNL     1     -18.598   0.419  36.785  1.00  0.00     0.053 C 
BRANCH  11  12
ATOM     12  C   UNL     1     -18.338   1.436  37.855  1.00  0.00     0.041 C 
ATOM     13  O   UNL     1     -17.163   1.823  38.090  1.00  0.00    -0.550 OA
ATOM     14  O   UNL     1     -19.392   1.933  38.611  1.00  0.00    -0.550 OA
ENDBRANCH  11  12
ENDBRANCH  10  11
ENDBRANCH   9  10
ENDBRANCH   8   9
ENDBRANCH   7   8
ENDBRANCH   6   7
ENDBRANCH   5   6
ENDBRANCH   4   5
ENDBRANCH   3   4
ENDBRANCH   2   3
ENDBRANCH   1   2
BRANCH   1  15
ATOM     15  C   UNL     1     -17.156  -4.829  32.811  1.00  0.00     0.000 C 
BRANCH  15  16
ATOM     16  C   UNL     1     -17.390  -6.049  31.905  1.00  0.00     0.000 C 
BRANCH  16  17
ATOM     17  C   UNL     1     -16.319  -7.136  32.090  1.00  0.00     0.000 C 
BRANCH  17  18
ATOM     18  C   UNL     1     -15.043  -6.854  31.278  1.00  0.00    -0.000 C 
BRANCH  18  19
ATOM     19  C   UNL     1     -13.793  -7.496  31.901  1.00  0.00    -0.000 C 
BRANCH  19  20
ATOM     20  C   UNL     1     -13.042  -6.535  32.840  1.00  0.00    -0.000 C 
BRANCH  20  21
ATOM     21  C   UNL     1     -12.567  -7.221  34.130  1.00  0.00    -0.000 C 
BRANCH  21  22
ATOM     22  C   UNL     1     -13.329  -6.735  35.373  1.00  0.00    -0.000 C 
BRANCH  22  23
ATOM     23  C   UNL     1     -14.743  -7.332  35.416  1.00  0.00    -0.000 C 
BRANCH  23  24
ATOM     24  C   UNL     1     -15.807  -6.304  35.833  1.00  0.00    -0.000 C 
BRANCH  24  25
ATOM     25  C   UNL     1     -16.345  -6.550  37.250  1.00  0.00    -0.003 C 
ATOM     26  C   UNL     1     -16.159  -5.317  38.130  1.00  0.00     0.004 C 
ENDBRANCH  24  25
ENDBRANCH  23  24
ENDBRANCH  22  23
ENDBRANCH  21  22
ENDBRANCH  20  21
ENDBRANCH  19  20
ENDBRANCH  18  19
ENDBRANCH  17  18
ENDBRANCH  16  17
ENDBRANCH  15  16
ENDBRANCH   1  15
TORSDOF 22
ENDMDL
MODEL 5
REMARK VINA RESULT:    -4.609      2.284      5.674
REMARK INTER + INTRA:         -13.861
REMARK INTER:                 -10.564
REMARK INTRA:                  -3.297
REMARK UNBOUND:                -3.324
REMARK SMILES CCCCCCCCCCCCCCCCCCCCCCCC(=O)[O-]
REMARK SMILES IDX 13 1 14 2 15 3 16 4 17 5 18 6 19 7 20 8 21 9 22 10 23 11
REMARK SMILES IDX 24 12 25 13 26 14 12 15 11 16 10 17 9 18 8 19 7 20 6 21 5 22
REMARK SMILES IDX 4 23 3 24 2 25 1 26
REMARK H PARENT
REMARK Flexibility Score: inf
ROOT
ATOM      1  C   UNL     1     -13.177  -6.015  31.914  1.00  0.00     0.000 C 
ENDROOT
BRANCH   1   2
ATOM      2  C   UNL     1     -12.580  -4.731  32.531  1.00  0.00     0.000 C 
BRANCH   2   3
ATOM      3  C   UNL     1     -13.401  -3.479  32.172  1.00  0.00     0.000 C 
BRANCH   3   4
ATOM      4  C   UNL     1     -13.918  -2.737  33.415  1.00  0.00     0.000 C 
BRANCH   4   5
ATOM      5  C   UNL     1     -14.173  -3.684  34.601  1.00  0.00     0.000 C 
BRANCH   5   6
ATOM      6  C   UNL     1     -14.313  -2.940  35.939  1.00  0.00     0.000 C 
BRANCH   6   7
ATOM      7  C   UNL     1     -15.552  -3.380  36.739  1.00  0.00     0.000 C 
BRANCH   7   8
ATOM      8  C   UNL     1     -16.574  -2.240  36.914  1.00  0.00     0.000 C 
BRANCH   8   9
ATOM      9  C   UNL     1     -16.875  -1.457  35.623  1.00  0.00     0.000 C 
BRANCH   9  10
ATOM     10  C   UNL     1     -17.881  -0.313  35.847  1.00  0.00     0.006 C 
BRANCH  10  11
ATOM     11  C   UNL     1     -17.808   0.250  37.272  1.00  0.00     0.053 C 
BRANCH  11  12
ATOM     12  C   UNL     1     -18.210   1.694  37.322  1.00  0.00     0.041 C 
ATOM     13  O   UNL     1     -18.053   2.431  36.313  1.00  0.00    -0.550 OA
ATOM     14  O   UNL     1     -18.729   2.230  38.493  1.00  0.00    -0.550 OA
ENDBRANCH  11  12
ENDBRANCH  10  11
ENDBRANCH   9  10
ENDBRANCH   8   9
ENDBRANCH   7   8
ENDBRANCH   6   7
ENDBRANCH   5   6
ENDBRANCH   4   5
ENDBRANCH   3   4
ENDBRANCH   2   3
ENDBRANCH   1   2
BRANCH   1  15
ATOM     15  C   UNL     1     -13.157  -7.226  32.861  1.00  0.00     0.000 C 
BRANCH  15  16
ATOM     16  C   UNL     1     -13.375  -8.560  32.128  1.00  0.00     0.000 C 
BRANCH  16  17
ATOM     17  C   UNL     1     -14.240  -9.542  32.934  1.00  0.00     0.000 C 
BRANCH  17  18
ATOM     18  C   UNL     1     -14.724  -8.947  34.269  1.00  0.00    -0.000 C 
BRANCH  18  19
ATOM     19  C   UNL     1     -16.252  -8.798  34.329  1.00  0.00    -0.000 C 
BRANCH  19  20
ATOM     20  C   UNL     1     -16.730  -7.420  33.839  1.00  0.00    -0.000 C 
BRANCH  20  21
ATOM     21  C   UNL     1     -17.548  -7.506  32.541  1.00  0.00    -0.000 C 
BRANCH  21  22
ATOM     22  C   UNL     1     -17.310  -6.307  31.611  1.00  0.00    -0.000 C 
BRANCH  22  23
ATOM     23  C   UNL     1     -16.626  -5.157  32.365  1.00  0.00    -0.000 C 
BRANCH  23  24
ATOM     24  C   UNL     1     -17.479  -3.880  32.396  1.00  0.00    -0.000 C 
BRANCH  24  25
ATOM     25  C   UNL     1     -16.984  -2.813  31.408  1.00  0.00    -0.003 C 
ATOM     26  C   UNL     1     -17.138  -1.411  31.991  1.00  0.00     0.004 C 
ENDBRANCH  24  25
ENDBRANCH  23  24
ENDBRANCH  22  23
ENDBRANCH  21  22
ENDBRANCH  20  21
ENDBRANCH  19  20
ENDBRANCH  18  19
ENDBRANCH  17  18
ENDBRANCH  16  17
ENDBRANCH  15  16
ENDBRANCH   1  15
TORSDOF 22
ENDMDL
MODEL 6
REMARK VINA RESULT:    -4.600     11.285     14.718
REMARK INTER + INTRA:         -13.840
REMARK INTER:                 -10.653
REMARK INTRA:                  -3.187
REMARK UNBOUND:                -3.324
REMARK SMILES CCCCCCCCCCCCCCCCCCCCCCCC(=O)[O-]
REMARK SMILES IDX 13 1 14 2 15 3 16 4 17 5 18 6 19 7 20 8 21 9 22 10 23 11
REMARK SMILES IDX 24 12 25 13 26 14 12 15 11 16 10 17 9 18 8 19 7 20 6 21 5 22
REMARK SMILES IDX 4 23 3 24 2 25 1 26
REMARK H PARENT
REMARK Flexibility Score: inf
ROOT
ATOM      1  C   UNL     1     -27.478  -1.026  26.310  1.00  0.00     0.000 C 
ENDROOT
BRANCH   1   2
ATOM      2  C   UNL     1     -28.936  -1.412  25.977  1.00  0.00     0.000 C 
BRANCH   2   3
ATOM      3  C   UNL     1     -29.510  -2.428  26.981  1.00  0.00     0.000 C 
BRANCH   3   4
ATOM      4  C   UNL     1     -30.550  -3.364  26.343  1.00  0.00     0.000 C 
BRANCH   4   5
ATOM      5  C   UNL     1     -29.993  -4.779  26.098  1.00  0.00     0.000 C 
BRANCH   5   6
ATOM      6  C   UNL     1     -29.489  -4.979  24.659  1.00  0.00     0.000 C 
BRANCH   6   7
ATOM      7  C   UNL     1     -27.960  -4.845  24.539  1.00  0.00     0.000 C 
BRANCH   7   8
ATOM      8  C   UNL     1     -27.392  -5.638  23.347  1.00  0.00     0.000 C 
BRANCH   8   9
ATOM      9  C   UNL     1     -26.573  -6.879  23.746  1.00  0.00     0.000 C 
BRANCH   9  10
ATOM     10  C   UNL     1     -25.374  -6.531  24.647  1.00  0.00     0.006 C 
BRANCH  10  11
ATOM     11  C   UNL     1     -24.982  -7.698  25.562  1.00  0.00     0.053 C 
BRANCH  11  12
ATOM     12  C   UNL     1     -23.533  -7.643  25.945  1.00  0.00     0.041 C 
ATOM     13  O   UNL     1     -23.060  -6.610  26.488  1.00  0.00    -0.550 OA
ATOM     14  O   UNL     1     -22.702  -8.722  25.673  1.00  0.00    -0.550 OA
ENDBRANCH  11  12
ENDBRANCH  10  11
ENDBRANCH   9  10
ENDBRANCH   8   9
ENDBRANCH   7   8
ENDBRANCH   6   7
ENDBRANCH   5   6
ENDBRANCH   4   5
ENDBRANCH   3   4
ENDBRANCH   2   3
ENDBRANCH   1   2
BRANCH   1  15
ATOM     15  C   UNL     1     -26.787  -1.994  27.285  1.00  0.00     0.000 C 
BRANCH  15  16
ATOM     16  C   UNL     1     -25.396  -1.507  27.723  1.00  0.00     0.000 C 
BRANCH  16  17
ATOM     17  C   UNL     1     -24.298  -2.553  27.473  1.00  0.00     0.000 C 
BRANCH  17  18
ATOM     18  C   UNL     1     -24.643  -3.507  26.315  1.00  0.00    -0.000 C 
BRANCH  18  19
ATOM     19  C   UNL     1     -24.050  -3.046  24.974  1.00  0.00    -0.000 C 
BRANCH  19  20
ATOM     20  C   UNL     1     -25.134  -2.667  23.949  1.00  0.00    -0.000 C 
BRANCH  20  21
ATOM     21  C   UNL     1     -24.839  -1.334  23.244  1.00  0.00    -0.000 C 
BRANCH  21  22
ATOM     22  C   UNL     1     -24.435  -0.222  24.226  1.00  0.00    -0.000 C 
BRANCH  22  23
ATOM     23  C   UNL     1     -23.073   0.376  23.845  1.00  0.00    -0.000 C 
BRANCH  23  24
ATOM     24  C   UNL     1     -23.135   1.895  23.622  1.00  0.00    -0.000 C 
BRANCH  24  25
ATOM     25  C   UNL     1     -22.828   2.294  22.172  1.00  0.00    -0.003 C 
ATOM     26  C   UNL     1     -21.400   1.916  21.788  1.00  0.00     0.004 C 
ENDBRANCH  24  25
ENDBRANCH  23  24
ENDBRANCH  22  23
ENDBRANCH  21  22
ENDBRANCH  20  21
ENDBRANCH  19  20
ENDBRANCH  18  19
ENDBRANCH  17  18
ENDBRANCH  16  17
ENDBRANCH  15  16
ENDBRANCH   1  15
TORSDOF 22
ENDMDL
MODEL 7
REMARK VINA RESULT:    -4.596     11.869     15.240
REMARK INTER + INTRA:         -13.831
REMARK INTER:                 -10.622
REMARK INTRA:                  -3.209
REMARK UNBOUND:                -3.324
REMARK SMILES CCCCCCCCCCCCCCCCCCCCCCCC(=O)[O-]
REMARK SMILES IDX 13 1 14 2 15 3 16 4 17 5 18 6 19 7 20 8 21 9 22 10 23 11
REMARK SMILES IDX 24 12 25 13 26 14 12 15 11 16 10 17 9 18 8 19 7 20 6 21 5 22
REMARK SMILES IDX 4 23 3 24 2 25 1 26
REMARK H PARENT
REMARK Flexibility Score: inf
ROOT
ATOM      1  C   UNL     1     -27.750  -1.054  26.096  1.00  0.00     0.000 C 
ENDROOT
BRANCH   1   2
ATOM      2  C   UNL     1     -27.035  -2.138  26.932  1.00  0.00     0.000 C 
BRANCH   2   3
ATOM      3  C   UNL     1     -25.821  -1.576  27.694  1.00  0.00     0.000 C 
BRANCH   3   4
ATOM      4  C   UNL     1     -24.536  -2.378  27.428  1.00  0.00     0.000 C 
BRANCH   4   5
ATOM      5  C   UNL     1     -24.708  -3.403  26.292  1.00  0.00     0.000 C 
BRANCH   5   6
ATOM      6  C   UNL     1     -24.076  -2.939  24.970  1.00  0.00     0.000 C 
BRANCH   6   7
ATOM      7  C   UNL     1     -25.114  -2.729  23.854  1.00  0.00     0.000 C 
BRANCH   7   8
ATOM      8  C   UNL     1     -25.020  -1.328  23.219  1.00  0.00     0.000 C 
BRANCH   8   9
ATOM      9  C   UNL     1     -24.554  -0.225  24.188  1.00  0.00     0.000 C 
BRANCH   9  10
ATOM     10  C   UNL     1     -23.141   0.291  23.861  1.00  0.00     0.006 C 
BRANCH  10  11
ATOM     11  C   UNL     1     -23.105   1.816  23.704  1.00  0.00     0.053 C 
BRANCH  11  12
ATOM     12  C   UNL     1     -22.691   2.225  22.322  1.00  0.00     0.041 C 
ATOM     13  O   UNL     1     -23.480   2.880  21.592  1.00  0.00    -0.550 OA
ATOM     14  O   UNL     1     -21.445   1.854  21.833  1.00  0.00    -0.550 OA
ENDBRANCH  11  12
ENDBRANCH  10  11
ENDBRANCH   9  10
ENDBRANCH   8   9
ENDBRANCH   7   8
ENDBRANCH   6   7
ENDBRANCH   5   6
ENDBRANCH   4   5
ENDBRANCH   3   4
ENDBRANCH   2   3
ENDBRANCH   1   2
BRANCH   1  15
ATOM     15  C   UNL     1     -29.138  -1.478  25.588  1.00  0.00     0.000 C 
BRANCH  15  16
ATOM     16  C   UNL     1     -30.113  -1.815  26.729  1.00  0.00     0.000 C 
BRANCH  16  17
ATOM     17  C   UNL     1     -30.883  -3.122  26.481  1.00  0.00     0.000 C 
BRANCH  17  18
ATOM     18  C   UNL     1     -29.975  -4.364  26.543  1.00  0.00    -0.000 C 
BRANCH  18  19
ATOM     19  C   UNL     1     -30.285  -5.378  25.430  1.00  0.00    -0.000 C 
BRANCH  19  20
ATOM     20  C   UNL     1     -29.515  -5.080  24.131  1.00  0.00    -0.000 C 
BRANCH  20  21
ATOM     21  C   UNL     1     -28.023  -4.805  24.379  1.00  0.00    -0.000 C 
BRANCH  21  22
ATOM     22  C   UNL     1     -27.111  -5.837  23.698  1.00  0.00    -0.000 C 
BRANCH  22  23
ATOM     23  C   UNL     1     -26.170  -6.492  24.720  1.00  0.00    -0.000 C 
BRANCH  23  24
ATOM     24  C   UNL     1     -26.362  -8.014  24.811  1.00  0.00    -0.000 C 
BRANCH  24  25
ATOM     25  C   UNL     1     -25.284  -8.698  25.663  1.00  0.00    -0.003 C 
ATOM     26  C   UNL     1     -25.884  -9.807  26.523  1.00  0.00     0.004 C 
ENDBRANCH  24  25
ENDBRANCH  23  24
ENDBRANCH  22  23
ENDBRANCH  21  22
ENDBRANCH  20  21
ENDBRANCH  19  20
ENDBRANCH  18  19
ENDBRANCH  17  18
ENDBRANCH  16  17
ENDBRANCH  15  16
ENDBRANCH   1  15
TORSDOF 22
ENDMDL
MODEL 8
REMARK VINA RESULT:    -4.557     11.755     15.175
REMARK INTER + INTRA:         -13.742
REMARK INTER:                  -9.812
REMARK INTRA:                  -3.930
REMARK UNBOUND:                -3.324
REMARK SMILES CCCCCCCCCCCCCCCCCCCCCCCC(=O)[O-]
REMARK SMILES IDX 13 1 14 2 15 3 16 4 17 5 18 6 19 7 20 8 21 9 22 10 23 11
REMARK SMILES IDX 24 12 25 13 26 14 12 15 11 16 10 17 9 18 8 19 7 20 6 21 5 22
REMARK SMILES IDX 4 23 3 24 2 25 1 26
REMARK H PARENT
REMARK Flexibility Score: inf
ROOT
ATOM      1  C   UNL     1     -25.501  -1.914  27.149  1.00  0.00     0.000 C 
ENDROOT
BRANCH   1   2
ATOM      2  C   UNL     1     -26.766  -2.242  26.326  1.00  0.00     0.000 C 
BRANCH   2   3
ATOM      3  C   UNL     1     -27.872  -1.189  26.517  1.00  0.00     0.000 C 
BRANCH   3   4
ATOM      4  C   UNL     1     -28.195  -0.431  25.219  1.00  0.00     0.000 C 
BRANCH   4   5
ATOM      5  C   UNL     1     -28.240  -1.361  23.992  1.00  0.00     0.000 C 
BRANCH   5   6
ATOM      6  C   UNL     1     -28.106  -0.600  22.663  1.00  0.00     0.000 C 
BRANCH   6   7
ATOM      7  C   UNL     1     -26.735  -0.806  21.994  1.00  0.00     0.000 C 
BRANCH   7   8
ATOM      8  C   UNL     1     -25.867  -1.839  22.737  1.00  0.00     0.000 C 
BRANCH   8   9
ATOM      9  C   UNL     1     -24.468  -1.326  23.126  1.00  0.00     0.000 C 
BRANCH   9  10
ATOM     10  C   UNL     1     -24.524  -0.040  23.970  1.00  0.00     0.006 C 
BRANCH  10  11
ATOM     11  C   UNL     1     -23.551   1.030  23.458  1.00  0.00     0.053 C 
BRANCH  11  12
ATOM     12  C   UNL     1     -22.122   0.636  23.681  1.00  0.00     0.041 C 
ATOM     13  O   UNL     1     -21.283   0.738  22.748  1.00  0.00    -0.550 OA
ATOM     14  O   UNL     1     -21.726   0.128  24.912  1.00  0.00    -0.550 OA
ENDBRANCH  11  12
ENDBRANCH  10  11
ENDBRANCH   9  10
ENDBRANCH   8   9
ENDBRANCH   7   8
ENDBRANCH   6   7
ENDBRANCH   5   6
ENDBRANCH   4   5
ENDBRANCH   3   4
ENDBRANCH   2   3
ENDBRANCH   1   2
BRANCH   1  15
ATOM     15  C   UNL     1     -24.352  -2.917  26.948  1.00  0.00     0.000 C 
BRANCH  15  16
ATOM     16  C   UNL     1     -24.442  -3.665  25.607  1.00  0.00     0.000 C 
BRANCH  16  17
ATOM     17  C   UNL     1     -24.253  -5.182  25.764  1.00  0.00     0.000 C 
BRANCH  17  18
ATOM     18  C   UNL     1     -25.201  -5.992  24.861  1.00  0.00    -0.000 C 
BRANCH  18  19
ATOM     19  C   UNL     1     -25.818  -5.142  23.739  1.00  0.00    -0.000 C 
BRANCH  19  20
ATOM     20  C   UNL     1     -27.357  -5.164  23.762  1.00  0.00    -0.000 C 
BRANCH  20  21
ATOM     21  C   UNL     1     -27.918  -6.213  24.735  1.00  0.00    -0.000 C 
BRANCH  21  22
ATOM     22  C   UNL     1     -29.454  -6.244  24.750  1.00  0.00    -0.000 C 
BRANCH  22  23
ATOM     23  C   UNL     1     -29.985  -6.360  26.186  1.00  0.00    -0.000 C 
BRANCH  23  24
ATOM     24  C   UNL     1     -30.736  -5.101  26.644  1.00  0.00    -0.000 C 
BRANCH  24  25
ATOM     25  C   UNL     1     -30.386  -3.864  25.804  1.00  0.00    -0.003 C 
ATOM     26  C   UNL     1     -31.236  -2.664  26.211  1.00  0.00     0.004 C 
ENDBRANCH  24  25
ENDBRANCH  23  24
ENDBRANCH  22  23
ENDBRANCH  21  22
ENDBRANCH  20  21
ENDBRANCH  19  20
ENDBRANCH  18  19
ENDBRANCH  17  18
ENDBRANCH  16  17
ENDBRANCH  15  16
ENDBRANCH   1  15
TORSDOF 22
ENDMDL
MODEL 9
REMARK VINA RESULT:    -4.528      2.943      7.043
REMARK INTER + INTRA:         -13.676
REMARK INTER:                 -10.151
REMARK INTRA:                  -3.525
REMARK UNBOUND:                -3.324
REMARK SMILES CCCCCCCCCCCCCCCCCCCCCCCC(=O)[O-]
REMARK SMILES IDX 13 1 14 2 15 3 16 4 17 5 18 6 19 7 20 8 21 9 22 10 23 11
REMARK SMILES IDX 24 12 25 13 26 14 12 15 11 16 10 17 9 18 8 19 7 20 6 21 5 22
REMARK SMILES IDX 4 23 3 24 2 25 1 26
REMARK H PARENT
REMARK Flexibility Score: inf
ROOT
ATOM      1  C   UNL     1     -14.710  -2.675  32.340  1.00  0.00     0.000 C 
ENDROOT
BRANCH   1   2
ATOM      2  C   UNL     1     -13.332  -3.322  32.083  1.00  0.00     0.000 C 
BRANCH   2   3
ATOM      3  C   UNL     1     -13.113  -4.581  32.942  1.00  0.00     0.000 C 
BRANCH   3   4
ATOM      4  C   UNL     1     -13.340  -4.320  34.440  1.00  0.00     0.000 C 
BRANCH   4   5
ATOM      5  C   UNL     1     -14.414  -5.244  35.041  1.00  0.00     0.000 C 
BRANCH   5   6
ATOM      6  C   UNL     1     -15.531  -4.470  35.762  1.00  0.00     0.000 C 
BRANCH   6   7
ATOM      7  C   UNL     1     -15.163  -2.999  36.023  1.00  0.00     0.000 C 
BRANCH   7   8
ATOM      8  C   UNL     1     -16.386  -2.147  36.414  1.00  0.00     0.000 C 
BRANCH   8   9
ATOM      9  C   UNL     1     -17.119  -1.509  35.220  1.00  0.00     0.000 C 
BRANCH   9  10
ATOM     10  C   UNL     1     -17.926  -0.261  35.620  1.00  0.00     0.006 C 
BRANCH  10  11
ATOM     11  C   UNL     1     -17.834   0.029  37.123  1.00  0.00     0.053 C 
BRANCH  11  12
ATOM     12  C   UNL     1     -18.319   1.409  37.455  1.00  0.00     0.041 C 
ATOM     13  O   UNL     1     -17.867   2.406  36.835  1.00  0.00    -0.550 OA
ATOM     14  O   UNL     1     -19.249   1.592  38.471  1.00  0.00    -0.550 OA
ENDBRANCH  11  12
ENDBRANCH  10  11
ENDBRANCH   9  10
ENDBRANCH   8   9
ENDBRANCH   7   8
ENDBRANCH   6   7
ENDBRANCH   5   6
ENDBRANCH   4   5
ENDBRANCH   3   4
ENDBRANCH   2   3
ENDBRANCH   1   2
BRANCH   1  15
ATOM     15  C   UNL     1     -15.824  -3.204  31.421  1.00  0.00     0.000 C 
BRANCH  15  16
ATOM     16  C   UNL     1     -17.052  -3.706  32.200  1.00  0.00     0.000 C 
BRANCH  16  17
ATOM     17  C   UNL     1     -17.032  -5.227  32.417  1.00  0.00     0.000 C 
BRANCH  17  18
ATOM     18  C   UNL     1     -16.359  -5.981  31.256  1.00  0.00    -0.000 C 
BRANCH  18  19
ATOM     19  C   UNL     1     -15.450  -7.122  31.741  1.00  0.00    -0.000 C 
BRANCH  19  20
ATOM     20  C   UNL     1     -16.181  -8.101  32.676  1.00  0.00    -0.000 C 
BRANCH  20  21
ATOM     21  C   UNL     1     -17.323  -8.850  31.970  1.00  0.00    -0.000 C 
BRANCH  21  22
ATOM     22  C   UNL     1     -18.664  -8.714  32.706  1.00  0.00    -0.000 C 
BRANCH  22  23
ATOM     23  C   UNL     1     -19.816  -8.508  31.711  1.00  0.00    -0.000 C 
BRANCH  23  24
ATOM     24  C   UNL     1     -19.334  -7.987  30.348  1.00  0.00    -0.000 C 
BRANCH  24  25
ATOM     25  C   UNL     1     -20.346  -8.248  29.223  1.00  0.00    -0.003 C 
ATOM     26  C   UNL     1     -20.607  -9.742  29.054  1.00  0.00     0.004 C 
ENDBRANCH  24  25
ENDBRANCH  23  24
ENDBRANCH  22  23
ENDBRANCH  21  22
ENDBRANCH  20  21
ENDBRANCH  19  20
ENDBRANCH  18  19
ENDBRANCH  17  18
ENDBRANCH  16  17
ENDBRANCH  15  16
ENDBRANCH   1  15
TORSDOF 22
ENDMDL
