MODEL 1
REMARK VINA RESULT:    -5.835      0.000      0.000
REMARK INTER + INTRA:          -7.346
REMARK INTER:                  -7.029
REMARK INTRA:                  -0.317
REMARK UNBOUND:                -0.317
REMARK SMILES O=c1c(O)c(-c2ccc(O)cc2O)oc2cc(O)cc(O)c12
REMARK SMILES IDX 5 1 3 2 2 3 1 4 22 5 20 6 19 7 17 8 16 9 15 10 14 11 6 12
REMARK SMILES IDX 8 13 7 14 9 15 11 16 12 17 10 18 13 20 4 22 21 24 18 26
REMARK H PARENT 10 19 13 21 4 23 21 25 18 27
REMARK Flexibility Score: inf
ROOT
ATOM      1  C   UNL     1      45.227   3.530 131.941  1.00  0.00     0.184 A 
ATOM      2  C   UNL     1      46.575   3.706 131.593  1.00  0.00     0.208 A 
ATOM      3  C   UNL     1      46.911   4.680 130.640  1.00  0.00     0.238 A 
ATOM      4  O   UNL     1      48.125   4.870 130.371  1.00  0.00    -0.285 OA
ATOM      5  C   UNL     1      45.890   5.455 130.036  1.00  0.00     0.111 A 
ATOM      6  C   UNL     1      46.110   6.443 129.030  1.00  0.00     0.134 A 
ATOM      7  C   UNL     1      45.042   7.238 128.598  1.00  0.00     0.093 A 
ATOM      8  C   UNL     1      43.752   7.040 129.087  1.00  0.00     0.123 A 
ATOM      9  C   UNL     1      43.513   6.037 130.028  1.00  0.00     0.094 A 
ATOM     10  C   UNL     1      44.565   5.251 130.506  1.00  0.00     0.146 A 
ATOM     11  O   UNL     1      44.299   4.314 131.409  1.00  0.00    -0.451 OA
ENDROOT
BRANCH   1  12
ATOM     12  C   UNL     1      44.805   2.511 132.925  1.00  0.00     0.063 A 
ATOM     13  C   UNL     1      43.705   0.390 133.376  1.00  0.00     0.047 A 
ATOM     14  C   UNL     1      44.113   1.376 132.473  1.00  0.00     0.020 A 
ATOM     15  C   UNL     1      43.996   0.519 134.739  1.00  0.00     0.119 A 
ATOM     16  C   UNL     1      44.706   1.635 135.194  1.00  0.00     0.093 A 
ATOM     17  C   UNL     1      45.125   2.626 134.294  1.00  0.00     0.130 A 
BRANCH  15  18
ATOM     18  O   UNL     1      43.591  -0.455 135.647  1.00  0.00    -0.508 OA
ATOM     19  H   UNL     1      42.759  -1.011 135.491  1.00  0.00     0.293 HD
ENDBRANCH  15  18
BRANCH  17  20
ATOM     20  O   UNL     1      45.873   3.709 134.754  1.00  0.00    -0.507 OA
ATOM     21  H   UNL     1      46.627   3.590 135.422  1.00  0.00     0.293 HD
ENDBRANCH  17  20
ENDBRANCH   1  12
BRANCH   2  22
ATOM     22  O   UNL     1      47.564   2.940 132.217  1.00  0.00    -0.502 OA
ATOM     23  H   UNL     1      47.350   2.095 132.735  1.00  0.00     0.293 HD
ENDBRANCH   2  22
BRANCH   6  24
ATOM     24  O   UNL     1      47.343   6.661 128.408  1.00  0.00    -0.507 OA
ATOM     25  H   UNL     1      47.515   7.360 127.702  1.00  0.00     0.293 HD
ENDBRANCH   6  24
BRANCH   8  26
ATOM     26  O   UNL     1      42.710   7.840 128.624  1.00  0.00    -0.508 OA
ATOM     27  H   UNL     1      42.882   8.650 128.041  1.00  0.00     0.293 HD
ENDBRANCH   8  26
TORSDOF 6
ENDMDL
MODEL 2
REMARK VINA RESULT:    -5.570      0.952      1.579
REMARK INTER + INTRA:          -7.027
REMARK INTER:                  -6.646
REMARK INTRA:                  -0.382
REMARK UNBOUND:                -0.317
REMARK SMILES O=c1c(O)c(-c2ccc(O)cc2O)oc2cc(O)cc(O)c12
REMARK SMILES IDX 5 1 3 2 2 3 1 4 22 5 20 6 19 7 17 8 16 9 15 10 14 11 6 12
REMARK SMILES IDX 8 13 7 14 9 15 11 16 12 17 10 18 13 20 4 22 21 24 18 26
REMARK H PARENT 10 19 13 21 4 23 21 25 18 27
REMARK Flexibility Score: inf
ROOT
ATOM      1  C   UNL     1      45.088   3.178 132.324  1.00  0.00     0.184 A 
ATOM      2  C   UNL     1      46.464   3.355 132.111  1.00  0.00     0.208 A 
ATOM      3  C   UNL     1      46.891   4.300 131.166  1.00  0.00     0.238 A 
ATOM      4  O   UNL     1      48.125   4.493 131.018  1.00  0.00    -0.285 OA
ATOM      5  C   UNL     1      45.933   5.044 130.433  1.00  0.00     0.111 A 
ATOM      6  C   UNL     1      46.251   6.001 129.422  1.00  0.00     0.134 A 
ATOM      7  C   UNL     1      45.229   6.771 128.855  1.00  0.00     0.093 A 
ATOM      8  C   UNL     1      43.896   6.576 129.214  1.00  0.00     0.123 A 
ATOM      9  C   UNL     1      43.567   5.603 130.159  1.00  0.00     0.094 A 
ATOM     10  C   UNL     1      44.568   4.843 130.769  1.00  0.00     0.146 A 
ATOM     11  O   UNL     1      44.215   3.935 131.672  1.00  0.00    -0.451 OA
ENDROOT
BRANCH   1  12
ATOM     12  C   UNL     1      44.573   2.188 133.292  1.00  0.00     0.063 A 
ATOM     13  C   UNL     1      44.308   1.489 135.605  1.00  0.00     0.047 A 
ATOM     14  C   UNL     1      44.787   2.402 134.663  1.00  0.00     0.020 A 
ATOM     15  C   UNL     1      43.597   0.356 135.191  1.00  0.00     0.119 A 
ATOM     16  C   UNL     1      43.360   0.147 133.829  1.00  0.00     0.093 A 
ATOM     17  C   UNL     1      43.831   1.062 132.877  1.00  0.00     0.130 A 
BRANCH  15  18
ATOM     18  O   UNL     1      43.119  -0.563 136.122  1.00  0.00    -0.508 OA
ATOM     19  H   UNL     1      43.495  -0.610 137.061  1.00  0.00     0.293 HD
ENDBRANCH  15  18
BRANCH  17  20
ATOM     20  O   UNL     1      43.546   0.867 131.525  1.00  0.00    -0.507 OA
ATOM     21  H   UNL     1      43.815   1.545 130.821  1.00  0.00     0.293 HD
ENDBRANCH  17  20
ENDBRANCH   1  12
BRANCH   2  22
ATOM     22  O   UNL     1      47.387   2.620 132.860  1.00  0.00    -0.502 OA
ATOM     23  H   UNL     1      47.103   1.927 133.543  1.00  0.00     0.293 HD
ENDBRANCH   2  22
BRANCH   6  24
ATOM     24  O   UNL     1      47.540   6.210 128.924  1.00  0.00    -0.507 OA
ATOM     25  H   UNL     1      47.772   6.294 127.946  1.00  0.00     0.293 HD
ENDBRANCH   6  24
BRANCH   8  26
ATOM     26  O   UNL     1      42.902   7.350 128.618  1.00  0.00    -0.508 OA
ATOM     27  H   UNL     1      42.300   7.954 129.166  1.00  0.00     0.293 HD
ENDBRANCH   8  26
TORSDOF 6
ENDMDL
MODEL 3
REMARK VINA RESULT:    -5.340      1.341      6.582
REMARK INTER + INTRA:          -6.750
REMARK INTER:                  -6.691
REMARK INTRA:                  -0.059
REMARK UNBOUND:                -0.317
REMARK SMILES O=c1c(O)c(-c2ccc(O)cc2O)oc2cc(O)cc(O)c12
REMARK SMILES IDX 5 1 3 2 2 3 1 4 22 5 20 6 19 7 17 8 16 9 15 10 14 11 6 12
REMARK SMILES IDX 8 13 7 14 9 15 11 16 12 17 10 18 13 20 4 22 21 24 18 26
REMARK H PARENT 10 19 13 21 4 23 21 25 18 27
REMARK Flexibility Score: inf
ROOT
ATOM      1  C   UNL     1      45.146   3.846 131.679  1.00  0.00     0.184 A 
ATOM      2  C   UNL     1      45.947   3.952 132.827  1.00  0.00     0.208 A 
ATOM      3  C   UNL     1      45.729   3.066 133.893  1.00  0.00     0.238 A 
ATOM      4  O   UNL     1      46.485   3.130 134.897  1.00  0.00    -0.285 OA
ATOM      5  C   UNL     1      44.701   2.096 133.803  1.00  0.00     0.111 A 
ATOM      6  C   UNL     1      44.365   1.172 134.838  1.00  0.00     0.134 A 
ATOM      7  C   UNL     1      43.417   0.173 134.590  1.00  0.00     0.093 A 
ATOM      8  C   UNL     1      42.747   0.101 133.370  1.00  0.00     0.123 A 
ATOM      9  C   UNL     1      43.024   1.036 132.371  1.00  0.00     0.094 A 
ATOM     10  C   UNL     1      43.992   2.023 132.575  1.00  0.00     0.146 A 
ATOM     11  O   UNL     1      44.235   2.886 131.595  1.00  0.00    -0.451 OA
ENDROOT
BRANCH   1  12
ATOM     12  C   UNL     1      45.312   4.759 130.529  1.00  0.00     0.063 A 
ATOM     13  C   UNL     1      44.351   6.429 129.047  1.00  0.00     0.047 A 
ATOM     14  C   UNL     1      44.226   5.552 130.126  1.00  0.00     0.020 A 
ATOM     15  C   UNL     1      45.569   6.536 128.364  1.00  0.00     0.119 A 
ATOM     16  C   UNL     1      46.663   5.767 128.772  1.00  0.00     0.093 A 
ATOM     17  C   UNL     1      46.548   4.889 129.859  1.00  0.00     0.130 A 
BRANCH  15  18
ATOM     18  O   UNL     1      45.703   7.405 127.284  1.00  0.00    -0.508 OA
ATOM     19  H   UNL     1      45.336   7.174 126.369  1.00  0.00     0.293 HD
ENDBRANCH  15  18
BRANCH  17  20
ATOM     20  O   UNL     1      47.660   4.164 130.287  1.00  0.00    -0.507 OA
ATOM     21  H   UNL     1      47.599   3.496 131.047  1.00  0.00     0.293 HD
ENDBRANCH  17  20
ENDBRANCH   1  12
BRANCH   2  22
ATOM     22  O   UNL     1      46.966   4.907 132.882  1.00  0.00    -0.502 OA
ATOM     23  H   UNL     1      47.694   4.966 132.179  1.00  0.00     0.293 HD
ENDBRANCH   2  22
BRANCH   6  24
ATOM     24  O   UNL     1      44.909   1.212 136.125  1.00  0.00    -0.507 OA
ATOM     25  H   UNL     1      44.780   1.967 136.781  1.00  0.00     0.293 HD
ENDBRANCH   6  24
BRANCH   8  26
ATOM     26  O   UNL     1      41.798  -0.898 133.163  1.00  0.00    -0.508 OA
ATOM     27  H   UNL     1      40.821  -0.756 133.389  1.00  0.00     0.293 HD
ENDBRANCH   8  26
TORSDOF 6
ENDMDL
MODEL 4
REMARK VINA RESULT:    -4.694      1.657      6.402
REMARK INTER + INTRA:          -5.972
REMARK INTER:                  -5.584
REMARK INTRA:                  -0.388
REMARK UNBOUND:                -0.317
REMARK SMILES O=c1c(O)c(-c2ccc(O)cc2O)oc2cc(O)cc(O)c12
REMARK SMILES IDX 5 1 3 2 2 3 1 4 22 5 20 6 19 7 17 8 16 9 15 10 14 11 6 12
REMARK SMILES IDX 8 13 7 14 9 15 11 16 12 17 10 18 13 20 4 22 21 24 18 26
REMARK H PARENT 10 19 13 21 4 23 21 25 18 27
REMARK Flexibility Score: inf
ROOT
ATOM      1  C   UNL     1      45.249   4.324 130.574  1.00  0.00     0.184 A 
ATOM      2  C   UNL     1      46.472   4.460 131.249  1.00  0.00     0.208 A 
ATOM      3  C   UNL     1      46.617   3.879 132.518  1.00  0.00     0.238 A 
ATOM      4  O   UNL     1      47.732   3.958 133.096  1.00  0.00    -0.285 OA
ATOM      5  C   UNL     1      45.530   3.183 133.102  1.00  0.00     0.111 A 
ATOM      6  C   UNL     1      45.552   2.588 134.399  1.00  0.00     0.134 A 
ATOM      7  C   UNL     1      44.465   1.813 134.821  1.00  0.00     0.093 A 
ATOM      8  C   UNL     1      43.332   1.664 134.022  1.00  0.00     0.123 A 
ATOM      9  C   UNL     1      43.276   2.290 132.776  1.00  0.00     0.094 A 
ATOM     10  C   UNL     1      44.359   3.040 132.311  1.00  0.00     0.146 A 
ATOM     11  O   UNL     1      44.271   3.611 131.115  1.00  0.00    -0.451 OA
ENDROOT
BRANCH   1  12
ATOM     12  C   UNL     1      45.025   4.926 129.243  1.00  0.00     0.063 A 
ATOM     13  C   UNL     1      45.526   4.951 126.864  1.00  0.00     0.047 A 
ATOM     14  C   UNL     1      45.719   4.408 128.137  1.00  0.00     0.020 A 
ATOM     15  C   UNL     1      44.628   6.008 126.677  1.00  0.00     0.119 A 
ATOM     16  C   UNL     1      43.916   6.514 127.769  1.00  0.00     0.093 A 
ATOM     17  C   UNL     1      44.098   5.971 129.049  1.00  0.00     0.130 A 
BRANCH  15  18
ATOM     18  O   UNL     1      44.431   6.558 125.413  1.00  0.00    -0.508 OA
ATOM     19  H   UNL     1      44.264   7.549 125.286  1.00  0.00     0.293 HD
ENDBRANCH  15  18
BRANCH  17  20
ATOM     20  O   UNL     1      43.346   6.453 130.121  1.00  0.00    -0.507 OA
ATOM     21  H   UNL     1      43.271   5.938 130.991  1.00  0.00     0.293 HD
ENDBRANCH  17  20
ENDBRANCH   1  12
BRANCH   2  22
ATOM     22  O   UNL     1      47.533   5.138 130.642  1.00  0.00    -0.502 OA
ATOM     23  H   UNL     1      47.392   5.943 130.043  1.00  0.00     0.293 HD
ENDBRANCH   2  22
BRANCH   6  24
ATOM     24  O   UNL     1      46.596   2.750 135.314  1.00  0.00    -0.507 OA
ATOM     25  H   UNL     1      46.838   3.621 135.762  1.00  0.00     0.293 HD
ENDBRANCH   6  24
BRANCH   8  26
ATOM     26  O   UNL     1      42.262   0.899 134.480  1.00  0.00    -0.508 OA
ATOM     27  H   UNL     1      42.367   0.248 135.250  1.00  0.00     0.293 HD
ENDBRANCH   8  26
TORSDOF 6
ENDMDL
MODEL 5
REMARK VINA RESULT:    -4.585      8.780     12.699
REMARK INTER + INTRA:          -5.840
REMARK INTER:                  -5.440
REMARK INTRA:                  -0.400
REMARK UNBOUND:                -0.317
REMARK SMILES O=c1c(O)c(-c2ccc(O)cc2O)oc2cc(O)cc(O)c12
REMARK SMILES IDX 5 1 3 2 2 3 1 4 22 5 20 6 19 7 17 8 16 9 15 10 14 11 6 12
REMARK SMILES IDX 8 13 7 14 9 15 11 16 12 17 10 18 13 20 4 22 21 24 18 26
REMARK H PARENT 10 19 13 21 4 23 21 25 18 27
REMARK Flexibility Score: inf
ROOT
ATOM      1  C   UNL     1      46.131  10.629 121.946  1.00  0.00     0.184 A 
ATOM      2  C   UNL     1      45.229  11.694 122.097  1.00  0.00     0.208 A 
ATOM      3  C   UNL     1      44.885  12.460 120.973  1.00  0.00     0.238 A 
ATOM      4  O   UNL     1      44.036  13.379 121.104  1.00  0.00    -0.285 OA
ATOM      5  C   UNL     1      45.462  12.161 119.715  1.00  0.00     0.111 A 
ATOM      6  C   UNL     1      45.216  12.895 118.516  1.00  0.00     0.134 A 
ATOM      7  C   UNL     1      45.739  12.431 117.303  1.00  0.00     0.093 A 
ATOM      8  C   UNL     1      46.549  11.298 117.254  1.00  0.00     0.123 A 
ATOM      9  C   UNL     1      46.845  10.605 118.429  1.00  0.00     0.094 A 
ATOM     10  C   UNL     1      46.309  11.023 119.650  1.00  0.00     0.146 A 
ATOM     11  O   UNL     1      46.605  10.330 120.744  1.00  0.00    -0.451 OA
ENDROOT
BRANCH   1  12
ATOM     12  C   UNL     1      46.548   9.795 123.092  1.00  0.00     0.063 A 
ATOM     13  C   UNL     1      48.125   9.381 124.895  1.00  0.00     0.047 A 
ATOM     14  C   UNL     1      47.707  10.145 123.803  1.00  0.00     0.020 A 
ATOM     15  C   UNL     1      47.383   8.265 125.300  1.00  0.00     0.119 A 
ATOM     16  C   UNL     1      46.215   7.922 124.612  1.00  0.00     0.093 A 
ATOM     17  C   UNL     1      45.784   8.687 123.518  1.00  0.00     0.130 A 
BRANCH  15  18
ATOM     18  O   UNL     1      47.793   7.494 126.385  1.00  0.00    -0.508 OA
ATOM     19  H   UNL     1      47.180   7.320 127.172  1.00  0.00     0.293 HD
ENDBRANCH  15  18
BRANCH  17  20
ATOM     20  O   UNL     1      44.592   8.364 122.871  1.00  0.00    -0.507 OA
ATOM     21  H   UNL     1      43.850   9.045 122.750  1.00  0.00     0.293 HD
ENDBRANCH  17  20
ENDBRANCH   1  12
BRANCH   2  22
ATOM     22  O   UNL     1      44.662  11.956 123.348  1.00  0.00    -0.502 OA
ATOM     23  H   UNL     1      44.709  11.296 124.115  1.00  0.00     0.293 HD
ENDBRANCH   2  22
BRANCH   6  24
ATOM     24  O   UNL     1      44.496  14.092 118.468  1.00  0.00    -0.507 OA
ATOM     25  H   UNL     1      44.260  14.588 117.621  1.00  0.00     0.293 HD
ENDBRANCH   6  24
BRANCH   8  26
ATOM     26  O   UNL     1      47.065  10.873 116.031  1.00  0.00    -0.508 OA
ATOM     27  H   UNL     1      46.479  10.430 115.334  1.00  0.00     0.293 HD
ENDBRANCH   8  26
TORSDOF 6
ENDMDL
MODEL 6
REMARK VINA RESULT:    -4.515     10.425     14.481
REMARK INTER + INTRA:          -5.756
REMARK INTER:                  -5.346
REMARK INTRA:                  -0.410
REMARK UNBOUND:                -0.317
REMARK SMILES O=c1c(O)c(-c2ccc(O)cc2O)oc2cc(O)cc(O)c12
REMARK SMILES IDX 5 1 3 2 2 3 1 4 22 5 20 6 19 7 17 8 16 9 15 10 14 11 6 12
REMARK SMILES IDX 8 13 7 14 9 15 11 16 12 17 10 18 13 20 4 22 21 24 18 26
REMARK H PARENT 10 19 13 21 4 23 21 25 18 27
REMARK Flexibility Score: inf
ROOT
ATOM      1  C   UNL     1      45.469  12.174 120.507  1.00  0.00     0.184 A 
ATOM      2  C   UNL     1      45.656  13.565 120.519  1.00  0.00     0.208 A 
ATOM      3  C   UNL     1      45.034  14.344 119.532  1.00  0.00     0.238 A 
ATOM      4  O   UNL     1      45.161  15.595 119.579  1.00  0.00    -0.285 OA
ATOM      5  C   UNL     1      44.244  13.719 118.536  1.00  0.00     0.111 A 
ATOM      6  C   UNL     1      43.598  14.405 117.464  1.00  0.00     0.134 A 
ATOM      7  C   UNL     1      42.738  13.702 116.613  1.00  0.00     0.093 A 
ATOM      8  C   UNL     1      42.549  12.328 116.754  1.00  0.00     0.123 A 
ATOM      9  C   UNL     1      43.221  11.635 117.762  1.00  0.00     0.094 A 
ATOM     10  C   UNL     1      44.059  12.315 118.649  1.00  0.00     0.146 A 
ATOM     11  O   UNL     1      44.671  11.622 119.602  1.00  0.00    -0.451 OA
ENDROOT
BRANCH   1  12
ATOM     12  C   UNL     1      46.110  11.295 121.507  1.00  0.00     0.063 A 
ATOM     13  C   UNL     1      48.046   9.993 122.190  1.00  0.00     0.047 A 
ATOM     14  C   UNL     1      47.409  10.820 121.263  1.00  0.00     0.020 A 
ATOM     15  C   UNL     1      47.399   9.640 123.381  1.00  0.00     0.119 A 
ATOM     16  C   UNL     1      46.115  10.127 123.643  1.00  0.00     0.093 A 
ATOM     17  C   UNL     1      45.470  10.963 122.720  1.00  0.00     0.130 A 
BRANCH  15  18
ATOM     18  O   UNL     1      48.024   8.813 124.310  1.00  0.00    -0.508 OA
ATOM     19  H   UNL     1      47.495   8.315 125.016  1.00  0.00     0.293 HD
ENDBRANCH  15  18
BRANCH  17  20
ATOM     20  O   UNL     1      44.209  11.482 123.015  1.00  0.00    -0.507 OA
ATOM     21  H   UNL     1      43.716  12.084 122.365  1.00  0.00     0.293 HD
ENDBRANCH  17  20
ENDBRANCH   1  12
BRANCH   2  22
ATOM     22  O   UNL     1      46.426  14.157 121.524  1.00  0.00    -0.502 OA
ATOM     23  H   UNL     1      47.138  13.648 122.034  1.00  0.00     0.293 HD
ENDBRANCH   2  22
BRANCH   6  24
ATOM     24  O   UNL     1      43.790  15.760 117.178  1.00  0.00    -0.507 OA
ATOM     25  H   UNL     1      43.452  16.227 116.350  1.00  0.00     0.293 HD
ENDBRANCH   6  24
BRANCH   8  26
ATOM     26  O   UNL     1      41.696  11.657 115.879  1.00  0.00    -0.508 OA
ATOM     27  H   UNL     1      41.533  10.661 115.958  1.00  0.00     0.293 HD
ENDBRANCH   8  26
TORSDOF 6
ENDMDL
MODEL 7
REMARK VINA RESULT:    -4.289      0.955      1.535
REMARK INTER + INTRA:          -5.484
REMARK INTER:                  -5.189
REMARK INTRA:                  -0.294
REMARK UNBOUND:                -0.317
REMARK SMILES O=c1c(O)c(-c2ccc(O)cc2O)oc2cc(O)cc(O)c12
REMARK SMILES IDX 5 1 3 2 2 3 1 4 22 5 20 6 19 7 17 8 16 9 15 10 14 11 6 12
REMARK SMILES IDX 8 13 7 14 9 15 11 16 12 17 10 18 13 20 4 22 21 24 18 26
REMARK H PARENT 10 19 13 21 4 23 21 25 18 27
REMARK Flexibility Score: inf
ROOT
ATOM      1  C   UNL     1      45.449   3.849 131.804  1.00  0.00     0.184 A 
ATOM      2  C   UNL     1      46.750   4.115 131.348  1.00  0.00     0.208 A 
ATOM      3  C   UNL     1      46.928   5.010 130.282  1.00  0.00     0.238 A 
ATOM      4  O   UNL     1      48.098   5.286 129.913  1.00  0.00    -0.285 OA
ATOM      5  C   UNL     1      45.799   5.615 129.676  1.00  0.00     0.111 A 
ATOM      6  C   UNL     1      45.858   6.507 128.564  1.00  0.00     0.134 A 
ATOM      7  C   UNL     1      44.691   7.146 128.129  1.00  0.00     0.093 A 
ATOM      8  C   UNL     1      43.459   6.878 128.723  1.00  0.00     0.123 A 
ATOM      9  C   UNL     1      43.379   5.963 129.773  1.00  0.00     0.094 A 
ATOM     10  C   UNL     1      44.532   5.336 130.253  1.00  0.00     0.146 A 
ATOM     11  O   UNL     1      44.416   4.479 131.262  1.00  0.00    -0.451 OA
ENDROOT
BRANCH   1  12
ATOM     12  C   UNL     1      45.192   2.903 132.911  1.00  0.00     0.063 A 
ATOM     13  C   UNL     1      45.551   2.276 135.232  1.00  0.00     0.047 A 
ATOM     14  C   UNL     1      45.778   3.147 134.163  1.00  0.00     0.020 A 
ATOM     15  C   UNL     1      44.725   1.159 135.067  1.00  0.00     0.119 A 
ATOM     16  C   UNL     1      44.119   0.921 133.830  1.00  0.00     0.093 A 
ATOM     17  C   UNL     1      44.336   1.793 132.753  1.00  0.00     0.130 A 
BRANCH  15  18
ATOM     18  O   UNL     1      44.495   0.283 136.125  1.00  0.00    -0.508 OA
ATOM     19  H   UNL     1      43.947  -0.561 136.005  1.00  0.00     0.293 HD
ENDBRANCH  15  18
BRANCH  17  20
ATOM     20  O   UNL     1      43.687   1.572 131.538  1.00  0.00    -0.507 OA
ATOM     21  H   UNL     1      42.764   1.949 131.352  1.00  0.00     0.293 HD
ENDBRANCH  17  20
ENDBRANCH   1  12
BRANCH   2  22
ATOM     22  O   UNL     1      47.846   3.517 131.976  1.00  0.00    -0.502 OA
ATOM     23  H   UNL     1      48.558   4.056 132.455  1.00  0.00     0.293 HD
ENDBRANCH   2  22
BRANCH   6  24
ATOM     24  O   UNL     1      47.023   6.775 127.839  1.00  0.00    -0.507 OA
ATOM     25  H   UNL     1      47.960   6.602 128.172  1.00  0.00     0.293 HD
ENDBRANCH   6  24
BRANCH   8  26
ATOM     26  O   UNL     1      42.315   7.521 128.255  1.00  0.00    -0.508 OA
ATOM     27  H   UNL     1      41.858   8.248 128.792  1.00  0.00     0.293 HD
ENDBRANCH   8  26
TORSDOF 6
ENDMDL
MODEL 8
REMARK VINA RESULT:    -4.071      9.942     15.042
REMARK INTER + INTRA:          -5.221
REMARK INTER:                  -4.833
REMARK INTRA:                  -0.388
REMARK UNBOUND:                -0.317
REMARK SMILES O=c1c(O)c(-c2ccc(O)cc2O)oc2cc(O)cc(O)c12
REMARK SMILES IDX 5 1 3 2 2 3 1 4 22 5 20 6 19 7 17 8 16 9 15 10 14 11 6 12
REMARK SMILES IDX 8 13 7 14 9 15 11 16 12 17 10 18 13 20 4 22 21 24 18 26
REMARK H PARENT 10 19 13 21 4 23 21 25 18 27
REMARK Flexibility Score: inf
ROOT
ATOM      1  C   UNL     1      45.194  12.758 120.488  1.00  0.00     0.184 A 
ATOM      2  C   UNL     1      46.117  13.577 121.158  1.00  0.00     0.208 A 
ATOM      3  C   UNL     1      46.747  13.089 122.313  1.00  0.00     0.238 A 
ATOM      4  O   UNL     1      47.612  13.806 122.879  1.00  0.00    -0.285 OA
ATOM      5  C   UNL     1      46.432  11.794 122.793  1.00  0.00     0.111 A 
ATOM      6  C   UNL     1      46.980  11.213 123.976  1.00  0.00     0.134 A 
ATOM      7  C   UNL     1      46.696   9.877 124.284  1.00  0.00     0.093 A 
ATOM      8  C   UNL     1      45.836   9.121 123.488  1.00  0.00     0.123 A 
ATOM      9  C   UNL     1      45.247   9.697 122.361  1.00  0.00     0.094 A 
ATOM     10  C   UNL     1      45.539  11.017 122.008  1.00  0.00     0.146 A 
ATOM     11  O   UNL     1      44.968  11.525 120.922  1.00  0.00    -0.451 OA
ENDROOT
BRANCH   1  12
ATOM     12  C   UNL     1      44.484  13.217 119.276  1.00  0.00     0.063 A 
ATOM     13  C   UNL     1      42.896  14.748 118.254  1.00  0.00     0.047 A 
ATOM     14  C   UNL     1      43.579  14.285 119.382  1.00  0.00     0.020 A 
ATOM     15  C   UNL     1      43.119  14.158 117.004  1.00  0.00     0.119 A 
ATOM     16  C   UNL     1      44.036  13.109 116.886  1.00  0.00     0.093 A 
ATOM     17  C   UNL     1      44.731  12.643 118.011  1.00  0.00     0.130 A 
BRANCH  15  18
ATOM     18  O   UNL     1      42.440  14.610 115.875  1.00  0.00    -0.508 OA
ATOM     19  H   UNL     1      42.929  15.050 115.105  1.00  0.00     0.293 HD
ENDBRANCH  15  18
BRANCH  17  20
ATOM     20  O   UNL     1      45.678  11.629 117.871  1.00  0.00    -0.507 OA
ATOM     21  H   UNL     1      45.945  11.038 118.651  1.00  0.00     0.293 HD
ENDBRANCH  17  20
ENDBRANCH   1  12
BRANCH   2  22
ATOM     22  O   UNL     1      46.421  14.844 120.652  1.00  0.00    -0.502 OA
ATOM     23  H   UNL     1      47.191  15.003 120.013  1.00  0.00     0.293 HD
ENDBRANCH   2  22
BRANCH   6  24
ATOM     24  O   UNL     1      47.778  11.908 124.889  1.00  0.00    -0.507 OA
ATOM     25  H   UNL     1      47.730  12.902 125.054  1.00  0.00     0.293 HD
ENDBRANCH   6  24
BRANCH   8  26
ATOM     26  O   UNL     1      45.564   7.799 123.833  1.00  0.00    -0.508 OA
ATOM     27  H   UNL     1      46.291   7.177 124.164  1.00  0.00     0.293 HD
ENDBRANCH   8  26
TORSDOF 6
ENDMDL
MODEL 9
REMARK VINA RESULT:    -2.951      2.666      8.104
REMARK INTER + INTRA:          -3.872
REMARK INTER:                  -3.812
REMARK INTRA:                  -0.060
REMARK UNBOUND:                -0.317
REMARK SMILES O=c1c(O)c(-c2ccc(O)cc2O)oc2cc(O)cc(O)c12
REMARK SMILES IDX 5 1 3 2 2 3 1 4 22 5 20 6 19 7 17 8 16 9 15 10 14 11 6 12
REMARK SMILES IDX 8 13 7 14 9 15 11 16 12 17 10 18 13 20 4 22 21 24 18 26
REMARK H PARENT 10 19 13 21 4 23 21 25 18 27
REMARK Flexibility Score: inf
ROOT
ATOM      1  C   UNL     1      45.965   6.561 127.904  1.00  0.00     0.184 A 
ATOM      2  C   UNL     1      44.691   6.815 128.437  1.00  0.00     0.208 A 
ATOM      3  C   UNL     1      44.305   6.162 129.617  1.00  0.00     0.238 A 
ATOM      4  O   UNL     1      43.184   6.435 130.120  1.00  0.00    -0.285 OA
ATOM      5  C   UNL     1      45.192   5.250 130.239  1.00  0.00     0.111 A 
ATOM      6  C   UNL     1      44.890   4.501 131.417  1.00  0.00     0.134 A 
ATOM      7  C   UNL     1      45.890   3.726 132.017  1.00  0.00     0.093 A 
ATOM      8  C   UNL     1      47.159   3.621 131.449  1.00  0.00     0.123 A 
ATOM      9  C   UNL     1      47.447   4.302 130.265  1.00  0.00     0.094 A 
ATOM     10  C   UNL     1      46.482   5.112 129.662  1.00  0.00     0.146 A 
ATOM     11  O   UNL     1      46.799   5.752 128.542  1.00  0.00    -0.451 OA
ENDROOT
BRANCH   1  12
ATOM     12  C   UNL     1      46.426   7.203 126.655  1.00  0.00     0.063 A 
ATOM     13  C   UNL     1      48.125   8.492 125.488  1.00  0.00     0.047 A 
ATOM     14  C   UNL     1      47.657   7.879 126.653  1.00  0.00     0.020 A 
ATOM     15  C   UNL     1      47.376   8.425 124.307  1.00  0.00     0.119 A 
ATOM     16  C   UNL     1      46.161   7.734 124.294  1.00  0.00     0.093 A 
ATOM     17  C   UNL     1      45.686   7.110 125.457  1.00  0.00     0.130 A 
BRANCH  15  18
ATOM     18  O   UNL     1      47.832   9.035 123.141  1.00  0.00    -0.508 OA
ATOM     19  H   UNL     1      48.287   9.940 123.160  1.00  0.00     0.293 HD
ENDBRANCH  15  18
BRANCH  17  20
ATOM     20  O   UNL     1      44.496   6.383 125.419  1.00  0.00    -0.507 OA
ATOM     21  H   UNL     1      44.368   5.544 125.974  1.00  0.00     0.293 HD
ENDBRANCH  17  20
ENDBRANCH   1  12
BRANCH   2  22
ATOM     22  O   UNL     1      43.843   7.734 127.812  1.00  0.00    -0.502 OA
ATOM     23  H   UNL     1      43.132   7.452 127.148  1.00  0.00     0.293 HD
ENDBRANCH   2  22
BRANCH   6  24
ATOM     24  O   UNL     1      43.627   4.463 132.014  1.00  0.00    -0.507 OA
ATOM     25  H   UNL     1      43.457   4.537 133.006  1.00  0.00     0.293 HD
ENDBRANCH   6  24
BRANCH   8  26
ATOM     26  O   UNL     1      48.125   2.829 132.066  1.00  0.00    -0.508 OA
ATOM     27  H   UNL     1      49.114   3.020 131.959  1.00  0.00     0.293 HD
ENDBRANCH   8  26
TORSDOF 6
ENDMDL
