MODEL 1
REMARK VINA RESULT:    -4.362      0.000      0.000
REMARK INTER + INTRA:          -4.362
REMARK INTER:                  -4.362
REMARK INTRA:                   0.000
REMARK UNBOUND:                 0.000
REMARK SMILES CC1(C)[C@@H]2CC[C@@]1(C)C(=O)C2
REMARK SMILES IDX 1 1 2 2 4 3 5 4 6 5 7 6 9 7 10 8 11 9 8 10 3 11
REMARK H PARENT
REMARK Flexibility Score: inf
ROOT
ATOM      1  C   UNL     1     101.643 115.158 121.434  1.00  0.00     0.012 C 
ATOM      2  C   UNL     1     101.935 115.325 122.956  1.00  0.00    -0.020 C 
ATOM      3  C   UNL     1     103.313 115.958 123.262  1.00  0.00     0.003 C 
ATOM      4  C   UNL     1     104.307 114.894 122.717  1.00  0.00     0.005 C 
ATOM      5  C   UNL     1     103.593 113.556 123.038  1.00  0.00     0.015 C 
ATOM      6  C   UNL     1     102.282 114.025 123.713  1.00  0.00     0.032 C 
ATOM      7  C   UNL     1     102.714 114.585 125.045  1.00  0.00     0.139 C 
ATOM      8  O   UNL     1     102.599 114.032 126.128  1.00  0.00    -0.299 OA
ATOM      9  C   UNL     1     103.408 115.891 124.813  1.00  0.00     0.080 C 
ATOM     10  C   UNL     1     101.181 112.961 123.784  1.00  0.00     0.020 C 
ATOM     11  C   UNL     1     100.734 116.125 123.551  1.00  0.00     0.012 C 
ENDROOT
TORSDOF 0
ENDMDL
MODEL 2
REMARK VINA RESULT:    -4.290      2.958      4.603
REMARK INTER + INTRA:          -4.290
REMARK INTER:                  -4.290
REMARK INTRA:                   0.000
REMARK UNBOUND:                 0.000
REMARK SMILES CC1(C)[C@@H]2CC[C@@]1(C)C(=O)C2
REMARK SMILES IDX 1 1 2 2 4 3 5 4 6 5 7 6 9 7 10 8 11 9 8 10 3 11
REMARK H PARENT
REMARK Flexibility Score: inf
ROOT
ATOM      1  C   UNL     1      99.315 118.494 120.352  1.00  0.00     0.012 C 
ATOM      2  C   UNL     1     100.280 117.495 121.060  1.00  0.00    -0.020 C 
ATOM      3  C   UNL     1      99.890 117.181 122.524  1.00  0.00     0.003 C 
ATOM      4  C   UNL     1     100.060 118.558 123.225  1.00  0.00     0.005 C 
ATOM      5  C   UNL     1     101.284 119.169 122.498  1.00  0.00     0.015 C 
ATOM      6  C   UNL     1     101.651 118.071 121.470  1.00  0.00     0.032 C 
ATOM      7  C   UNL     1     102.195 116.935 122.299  1.00  0.00     0.139 C 
ATOM      8  O   UNL     1     103.373 116.639 122.428  1.00  0.00    -0.299 OA
ATOM      9  C   UNL     1     101.058 116.287 123.028  1.00  0.00     0.080 C 
ATOM     10  C   UNL     1     102.565 118.538 120.332  1.00  0.00     0.020 C 
ATOM     11  C   UNL     1     100.351 116.230 120.148  1.00  0.00     0.012 C 
ENDROOT
TORSDOF 0
ENDMDL
MODEL 3
REMARK VINA RESULT:    -4.141      1.970      3.130
REMARK INTER + INTRA:          -4.141
REMARK INTER:                  -4.141
REMARK INTRA:                   0.000
REMARK UNBOUND:                 0.000
REMARK SMILES CC1(C)[C@@H]2CC[C@@]1(C)C(=O)C2
REMARK SMILES IDX 1 1 2 2 4 3 5 4 6 5 7 6 9 7 10 8 11 9 8 10 3 11
REMARK H PARENT
REMARK Flexibility Score: inf
ROOT
ATOM      1  C   UNL     1     101.338 113.583 123.924  1.00  0.00     0.012 C 
ATOM      2  C   UNL     1     101.919 114.716 123.024  1.00  0.00    -0.020 C 
ATOM      3  C   UNL     1     103.411 115.027 123.297  1.00  0.00     0.003 C 
ATOM      4  C   UNL     1     103.387 115.564 124.755  1.00  0.00     0.005 C 
ATOM      5  C   UNL     1     102.051 116.347 124.815  1.00  0.00     0.015 C 
ATOM      6  C   UNL     1     101.478 116.149 123.391  1.00  0.00     0.032 C 
ATOM      7  C   UNL     1     102.383 116.957 122.496  1.00  0.00     0.139 C 
ATOM      8  O   UNL     1     102.125 118.048 122.010  1.00  0.00    -0.299 OA
ATOM      9  C   UNL     1     103.699 116.252 122.384  1.00  0.00     0.080 C 
ATOM     10  C   UNL     1      99.984 116.460 123.252  1.00  0.00     0.020 C 
ATOM     11  C   UNL     1     101.627 114.301 121.549  1.00  0.00     0.012 C 
ENDROOT
TORSDOF 0
ENDMDL
MODEL 4
REMARK VINA RESULT:    -4.089      3.554      4.893
REMARK INTER + INTRA:          -4.089
REMARK INTER:                  -4.089
REMARK INTRA:                   0.000
REMARK UNBOUND:                 0.000
REMARK SMILES CC1(C)[C@@H]2CC[C@@]1(C)C(=O)C2
REMARK SMILES IDX 1 1 2 2 4 3 5 4 6 5 7 6 9 7 10 8 11 9 8 10 3 11
REMARK H PARENT
REMARK Flexibility Score: inf
ROOT
ATOM      1  C   UNL     1     102.751 116.635 122.247  1.00  0.00     0.012 C 
ATOM      2  C   UNL     1     101.798 117.850 122.032  1.00  0.00    -0.020 C 
ATOM      3  C   UNL     1     101.421 118.587 123.338  1.00  0.00     0.003 C 
ATOM      4  C   UNL     1     100.621 117.509 124.121  1.00  0.00     0.005 C 
ATOM      5  C   UNL     1      99.860 116.759 122.999  1.00  0.00     0.015 C 
ATOM      6  C   UNL     1     100.329 117.495 121.720  1.00  0.00     0.032 C 
ATOM      7  C   UNL     1      99.689 118.858 121.805  1.00  0.00     0.139 C 
ATOM      8  O   UNL     1      98.713 119.234 121.176  1.00  0.00    -0.299 OA
ATOM      9  C   UNL     1     100.385 119.648 122.871  1.00  0.00     0.080 C 
ATOM     10  C   UNL     1     100.070 116.739 120.413  1.00  0.00     0.020 C 
ATOM     11  C   UNL     1     102.486 118.767 120.973  1.00  0.00     0.012 C 
ENDROOT
TORSDOF 0
ENDMDL
MODEL 5
REMARK VINA RESULT:    -4.083      3.691      5.186
REMARK INTER + INTRA:          -4.083
REMARK INTER:                  -4.083
REMARK INTRA:                   0.000
REMARK UNBOUND:                 0.000
REMARK SMILES CC1(C)[C@@H]2CC[C@@]1(C)C(=O)C2
REMARK SMILES IDX 1 1 2 2 4 3 5 4 6 5 7 6 9 7 10 8 11 9 8 10 3 11
REMARK H PARENT
REMARK Flexibility Score: inf
ROOT
ATOM      1  C   UNL     1     100.229 116.420 123.207  1.00  0.00     0.012 C 
ATOM      2  C   UNL     1     101.094 116.989 122.042  1.00  0.00    -0.020 C 
ATOM      3  C   UNL     1     101.731 118.365 122.351  1.00  0.00     0.003 C 
ATOM      4  C   UNL     1     100.491 119.290 122.496  1.00  0.00     0.005 C 
ATOM      5  C   UNL     1      99.508 118.723 121.441  1.00  0.00     0.015 C 
ATOM      6  C   UNL     1     100.306 117.541 120.836  1.00  0.00     0.032 C 
ATOM      7  C   UNL     1     101.417 118.190 120.050  1.00  0.00     0.139 C 
ATOM      8  O   UNL     1     101.461 118.314 118.836  1.00  0.00    -0.299 OA
ATOM      9  C   UNL     1     102.415 118.758 121.012  1.00  0.00     0.080 C 
ATOM     10  C   UNL     1      99.461 116.532 120.051  1.00  0.00     0.020 C 
ATOM     11  C   UNL     1     102.137 115.883 121.687  1.00  0.00     0.012 C 
ENDROOT
TORSDOF 0
ENDMDL
MODEL 6
REMARK VINA RESULT:    -4.073      1.557      2.701
REMARK INTER + INTRA:          -4.073
REMARK INTER:                  -4.073
REMARK INTRA:                   0.000
REMARK UNBOUND:                 0.000
REMARK SMILES CC1(C)[C@@H]2CC[C@@]1(C)C(=O)C2
REMARK SMILES IDX 1 1 2 2 4 3 5 4 6 5 7 6 9 7 10 8 11 9 8 10 3 11
REMARK H PARENT
REMARK Flexibility Score: inf
ROOT
ATOM      1  C   UNL     1     104.184 113.550 122.749  1.00  0.00     0.012 C 
ATOM      2  C   UNL     1     103.312 114.769 123.177  1.00  0.00    -0.020 C 
ATOM      3  C   UNL     1     103.103 114.881 124.706  1.00  0.00     0.003 C 
ATOM      4  C   UNL     1     102.290 113.597 125.034  1.00  0.00     0.005 C 
ATOM      5  C   UNL     1     101.383 113.432 123.789  1.00  0.00     0.015 C 
ATOM      6  C   UNL     1     101.799 114.633 122.905  1.00  0.00     0.032 C 
ATOM      7  C   UNL     1     101.275 115.846 123.633  1.00  0.00     0.139 C 
ATOM      8  O   UNL     1     100.281 116.489 123.333  1.00  0.00    -0.299 OA
ATOM      9  C   UNL     1     102.115 116.073 124.852  1.00  0.00     0.080 C 
ATOM     10  C   UNL     1     101.376 114.526 121.436  1.00  0.00     0.020 C 
ATOM     11  C   UNL     1     103.978 116.031 122.544  1.00  0.00     0.012 C 
ENDROOT
TORSDOF 0
ENDMDL
MODEL 7
REMARK VINA RESULT:    -4.025      1.392      2.238
REMARK INTER + INTRA:          -4.025
REMARK INTER:                  -4.025
REMARK INTRA:                   0.000
REMARK UNBOUND:                 0.000
REMARK SMILES CC1(C)[C@@H]2CC[C@@]1(C)C(=O)C2
REMARK SMILES IDX 1 1 2 2 4 3 5 4 6 5 7 6 9 7 10 8 11 9 8 10 3 11
REMARK H PARENT
REMARK Flexibility Score: inf
ROOT
ATOM      1  C   UNL     1     100.256 116.586 123.506  1.00  0.00     0.012 C 
ATOM      2  C   UNL     1     101.721 116.053 123.554  1.00  0.00    -0.020 C 
ATOM      3  C   UNL     1     102.654 116.697 122.502  1.00  0.00     0.003 C 
ATOM      4  C   UNL     1     102.036 116.218 121.159  1.00  0.00     0.005 C 
ATOM      5  C   UNL     1     101.543 114.787 121.493  1.00  0.00     0.015 C 
ATOM      6  C   UNL     1     101.932 114.635 122.984  1.00  0.00     0.032 C 
ATOM      7  C   UNL     1     103.438 114.557 122.982  1.00  0.00     0.139 C 
ATOM      8  O   UNL     1     104.104 113.543 123.122  1.00  0.00    -0.299 OA
ATOM      9  C   UNL     1     103.987 115.915 122.672  1.00  0.00     0.080 C 
ATOM     10  C   UNL     1     101.224 113.491 123.717  1.00  0.00     0.020 C 
ATOM     11  C   UNL     1     102.211 116.244 125.024  1.00  0.00     0.012 C 
ENDROOT
TORSDOF 0
ENDMDL
MODEL 8
REMARK VINA RESULT:    -4.020      1.836      3.255
REMARK INTER + INTRA:          -4.020
REMARK INTER:                  -4.020
REMARK INTRA:                   0.000
REMARK UNBOUND:                 0.000
REMARK SMILES CC1(C)[C@@H]2CC[C@@]1(C)C(=O)C2
REMARK SMILES IDX 1 1 2 2 4 3 5 4 6 5 7 6 9 7 10 8 11 9 8 10 3 11
REMARK H PARENT
REMARK Flexibility Score: inf
ROOT
ATOM      1  C   UNL     1     102.730 114.445 125.254  1.00  0.00     0.012 C 
ATOM      2  C   UNL     1     102.252 114.173 123.796  1.00  0.00    -0.020 C 
ATOM      3  C   UNL     1     103.397 113.812 122.820  1.00  0.00     0.003 C 
ATOM      4  C   UNL     1     104.245 115.114 122.791  1.00  0.00     0.005 C 
ATOM      5  C   UNL     1     103.173 116.229 122.896  1.00  0.00     0.015 C 
ATOM      6  C   UNL     1     101.854 115.423 122.983  1.00  0.00     0.032 C 
ATOM      7  C   UNL     1     101.681 114.820 121.611  1.00  0.00     0.139 C 
ATOM      8  O   UNL     1     100.913 115.211 120.746  1.00  0.00    -0.299 OA
ATOM      9  C   UNL     1     102.686 113.722 121.441  1.00  0.00     0.080 C 
ATOM     10  C   UNL     1     100.649 116.218 123.497  1.00  0.00     0.020 C 
ATOM     11  C   UNL     1     101.144 113.078 123.891  1.00  0.00     0.012 C 
ENDROOT
TORSDOF 0
ENDMDL
MODEL 9
REMARK VINA RESULT:    -4.008      1.373      2.632
REMARK INTER + INTRA:          -4.008
REMARK INTER:                  -4.008
REMARK INTRA:                   0.000
REMARK UNBOUND:                 0.000
REMARK SMILES CC1(C)[C@@H]2CC[C@@]1(C)C(=O)C2
REMARK SMILES IDX 1 1 2 2 4 3 5 4 6 5 7 6 9 7 10 8 11 9 8 10 3 11
REMARK H PARENT
REMARK Flexibility Score: inf
ROOT
ATOM      1  C   UNL     1     103.520 112.894 123.380  1.00  0.00     0.012 C 
ATOM      2  C   UNL     1     102.391 113.968 123.418  1.00  0.00    -0.020 C 
ATOM      3  C   UNL     1     102.258 114.780 122.107  1.00  0.00     0.003 C 
ATOM      4  C   UNL     1     103.612 115.539 122.036  1.00  0.00     0.005 C 
ATOM      5  C   UNL     1     103.912 115.855 123.523  1.00  0.00     0.015 C 
ATOM      6  C   UNL     1     102.700 115.228 124.254  1.00  0.00     0.032 C 
ATOM      7  C   UNL     1     101.531 116.104 123.880  1.00  0.00     0.139 C 
ATOM      8  O   UNL     1     101.010 116.949 124.591  1.00  0.00    -0.299 OA
ATOM      9  C   UNL     1     101.177 115.845 122.448  1.00  0.00     0.080 C 
ATOM     10  C   UNL     1     102.897 115.019 125.759  1.00  0.00     0.020 C 
ATOM     11  C   UNL     1     101.083 113.220 123.825  1.00  0.00     0.012 C 
ENDROOT
TORSDOF 0
ENDMDL
