MODEL 1
REMARK VINA RESULT:    -4.249      0.000      0.000
REMARK INTER + INTRA:          -6.310
REMARK INTER:                  -5.987
REMARK INTRA:                  -0.323
REMARK UNBOUND:                -0.323
REMARK SMILES CCCCCCCCC(=O)[O-]
REMARK SMILES IDX 6 1 7 2 8 3 9 4 10 5 11 6 5 7 4 8 3 9 2 10 1 11
REMARK H PARENT
REMARK Flexibility Score: inf
ROOT
ATOM      1  C   UNL     1      12.028   6.598  10.342  1.00  0.00     0.000 C 
ENDROOT
BRANCH   1   2
ATOM      2  C   UNL     1      12.092   5.067  10.289  1.00  0.00     0.006 C 
BRANCH   2   3
ATOM      3  C   UNL     1      13.200   4.532  11.201  1.00  0.00     0.053 C 
BRANCH   3   4
ATOM      4  C   UNL     1      12.716   3.346  11.974  1.00  0.00     0.041 C 
ATOM      5  O   UNL     1      11.812   3.481  12.840  1.00  0.00    -0.550 OA
ATOM      6  O   UNL     1      13.297   2.101  11.774  1.00  0.00    -0.550 OA
ENDBRANCH   3   4
ENDBRANCH   2   3
ENDBRANCH   1   2
BRANCH   1   7
ATOM      7  C   UNL     1      11.332   7.076  11.622  1.00  0.00     0.000 C 
BRANCH   7   8
ATOM      8  C   UNL     1      11.339   8.610  11.710  1.00  0.00    -0.000 C 
BRANCH   8   9
ATOM      9  C   UNL     1      11.930   9.273  10.456  1.00  0.00    -0.000 C 
BRANCH   9  10
ATOM     10  C   UNL     1      12.358  10.727  10.701  1.00  0.00    -0.003 C 
ATOM     11  C   UNL     1      12.656  11.441   9.386  1.00  0.00     0.004 C 
ENDBRANCH   9  10
ENDBRANCH   8   9
ENDBRANCH   7   8
ENDBRANCH   1   7
TORSDOF 7
ENDMDL
MODEL 2
REMARK VINA RESULT:    -4.223      4.650      6.743
REMARK INTER + INTRA:          -6.275
REMARK INTER:                  -5.983
REMARK INTRA:                  -0.291
REMARK UNBOUND:                -0.323
REMARK SMILES CCCCCCCCC(=O)[O-]
REMARK SMILES IDX 6 1 7 2 8 3 9 4 10 5 11 6 5 7 4 8 3 9 2 10 1 11
REMARK H PARENT
REMARK Flexibility Score: inf
ROOT
ATOM      1  C   UNL     1      11.207   9.953  11.688  1.00  0.00     0.000 C 
ENDROOT
BRANCH   1   2
ATOM      2  C   UNL     1      12.300  10.963  11.319  1.00  0.00     0.006 C 
BRANCH   2   3
ATOM      3  C   UNL     1      12.597  10.927   9.818  1.00  0.00     0.053 C 
BRANCH   3   4
ATOM      4  C   UNL     1      12.536  12.306   9.238  1.00  0.00     0.041 C 
ATOM      5  O   UNL     1      13.136  12.567   8.163  1.00  0.00    -0.550 OA
ATOM      6  O   UNL     1      11.858  13.313   9.910  1.00  0.00    -0.550 OA
ENDBRANCH   3   4
ENDBRANCH   2   3
ENDBRANCH   1   2
BRANCH   1   7
ATOM      7  C   UNL     1      11.571   8.545  11.199  1.00  0.00     0.000 C 
BRANCH   7   8
ATOM      8  C   UNL     1      11.156   7.482  12.227  1.00  0.00    -0.000 C 
BRANCH   8   9
ATOM      9  C   UNL     1      10.891   6.110  11.587  1.00  0.00    -0.000 C 
BRANCH   9  10
ATOM     10  C   UNL     1      11.742   5.869  10.332  1.00  0.00    -0.003 C 
ATOM     11  C   UNL     1      13.032   5.130  10.677  1.00  0.00     0.004 C 
ENDBRANCH   9  10
ENDBRANCH   8   9
ENDBRANCH   7   8
ENDBRANCH   1   7
TORSDOF 7
ENDMDL
MODEL 3
REMARK VINA RESULT:    -4.196      2.207      2.541
REMARK INTER + INTRA:          -6.236
REMARK INTER:                  -5.898
REMARK INTRA:                  -0.339
REMARK UNBOUND:                -0.323
REMARK SMILES CCCCCCCCC(=O)[O-]
REMARK SMILES IDX 6 1 7 2 8 3 9 4 10 5 11 6 5 7 4 8 3 9 2 10 1 11
REMARK H PARENT
REMARK Flexibility Score: inf
ROOT
ATOM      1  C   UNL     1      11.563   6.901  10.990  1.00  0.00     0.000 C 
ENDROOT
BRANCH   1   2
ATOM      2  C   UNL     1      11.227   5.459  11.384  1.00  0.00     0.006 C 
BRANCH   2   3
ATOM      3  C   UNL     1       9.975   4.967  10.653  1.00  0.00     0.053 C 
BRANCH   3   4
ATOM      4  C   UNL     1      10.340   4.377   9.327  1.00  0.00     0.041 C 
ATOM      5  O   UNL     1       9.550   4.476   8.351  1.00  0.00    -0.550 OA
ATOM      6  O   UNL     1      11.529   3.675   9.182  1.00  0.00    -0.550 OA
ENDBRANCH   3   4
ENDBRANCH   2   3
ENDBRANCH   1   2
BRANCH   1   7
ATOM      7  C   UNL     1      11.207   7.878  12.117  1.00  0.00     0.000 C 
BRANCH   7   8
ATOM      8  C   UNL     1      11.494   9.329  11.699  1.00  0.00    -0.000 C 
BRANCH   8   9
ATOM      9  C   UNL     1      11.934   9.445  10.230  1.00  0.00    -0.000 C 
BRANCH   9  10
ATOM     10  C   UNL     1      12.687  10.751   9.941  1.00  0.00    -0.003 C 
ATOM     11  C   UNL     1      12.351  11.820  10.977  1.00  0.00     0.004 C 
ENDBRANCH   9  10
ENDBRANCH   8   9
ENDBRANCH   7   8
ENDBRANCH   1   7
TORSDOF 7
ENDMDL
MODEL 4
REMARK VINA RESULT:    -4.157      3.883      6.192
REMARK INTER + INTRA:          -6.181
REMARK INTER:                  -5.794
REMARK INTRA:                  -0.387
REMARK UNBOUND:                -0.323
REMARK SMILES CCCCCCCCC(=O)[O-]
REMARK SMILES IDX 6 1 7 2 8 3 9 4 10 5 11 6 5 7 4 8 3 9 2 10 1 11
REMARK H PARENT
REMARK Flexibility Score: inf
ROOT
ATOM      1  C   UNL     1      11.504   7.482  11.655  1.00  0.00     0.000 C 
ENDROOT
BRANCH   1   2
ATOM      2  C   UNL     1      11.362   8.989  11.413  1.00  0.00     0.006 C 
BRANCH   2   3
ATOM      3  C   UNL     1      12.130   9.419  10.160  1.00  0.00     0.053 C 
BRANCH   3   4
ATOM      4  C   UNL     1      12.456  10.878  10.220  1.00  0.00     0.041 C 
ATOM      5  O   UNL     1      12.740  11.508   9.167  1.00  0.00    -0.550 OA
ATOM      6  O   UNL     1      12.496  11.532  11.444  1.00  0.00    -0.550 OA
ENDBRANCH   3   4
ENDBRANCH   2   3
ENDBRANCH   1   2
BRANCH   1   7
ATOM      7  C   UNL     1      11.911   6.753  10.369  1.00  0.00     0.000 C 
BRANCH   7   8
ATOM      8  C   UNL     1      12.511   5.374  10.685  1.00  0.00    -0.000 C 
BRANCH   8   9
ATOM      9  C   UNL     1      11.637   4.217  10.174  1.00  0.00    -0.000 C 
BRANCH   9  10
ATOM     10  C   UNL     1      10.446   4.702   9.336  1.00  0.00    -0.003 C 
ATOM     11  C   UNL     1       9.125   4.218   9.928  1.00  0.00     0.004 C 
ENDBRANCH   9  10
ENDBRANCH   8   9
ENDBRANCH   7   8
ENDBRANCH   1   7
TORSDOF 7
ENDMDL
MODEL 5
REMARK VINA RESULT:    -4.137      1.696      3.009
REMARK INTER + INTRA:          -6.152
REMARK INTER:                  -5.848
REMARK INTRA:                  -0.304
REMARK UNBOUND:                -0.323
REMARK SMILES CCCCCCCCC(=O)[O-]
REMARK SMILES IDX 6 1 7 2 8 3 9 4 10 5 11 6 5 7 4 8 3 9 2 10 1 11
REMARK H PARENT
REMARK Flexibility Score: inf
ROOT
ATOM      1  C   UNL     1      11.435   9.084  11.569  1.00  0.00     0.000 C 
ENDROOT
BRANCH   1   2
ATOM      2  C   UNL     1      11.398   7.552  11.621  1.00  0.00     0.006 C 
BRANCH   2   3
ATOM      3  C   UNL     1      11.991   6.945  10.346  1.00  0.00     0.053 C 
BRANCH   3   4
ATOM      4  C   UNL     1      11.734   5.471  10.299  1.00  0.00     0.041 C 
ATOM      5  O   UNL     1      12.509   4.674  10.892  1.00  0.00    -0.550 OA
ATOM      6  O   UNL     1      10.669   4.974   9.561  1.00  0.00    -0.550 OA
ENDBRANCH   3   4
ENDBRANCH   2   3
ENDBRANCH   1   2
BRANCH   1   7
ATOM      7  C   UNL     1      12.023   9.576  10.241  1.00  0.00     0.000 C 
BRANCH   7   8
ATOM      8  C   UNL     1      12.716  10.936  10.418  1.00  0.00    -0.000 C 
BRANCH   8   9
ATOM      9  C   UNL     1      12.687  11.786   9.138  1.00  0.00    -0.000 C 
BRANCH   9  10
ATOM     10  C   UNL     1      12.291  13.245   9.405  1.00  0.00    -0.003 C 
ATOM     11  C   UNL     1      11.857  13.439  10.856  1.00  0.00     0.004 C 
ENDBRANCH   9  10
ENDBRANCH   8   9
ENDBRANCH   7   8
ENDBRANCH   1   7
TORSDOF 7
ENDMDL
MODEL 6
REMARK VINA RESULT:    -4.104      1.453      2.161
REMARK INTER + INTRA:          -6.106
REMARK INTER:                  -5.811
REMARK INTRA:                  -0.295
REMARK UNBOUND:                -0.323
REMARK SMILES CCCCCCCCC(=O)[O-]
REMARK SMILES IDX 6 1 7 2 8 3 9 4 10 5 11 6 5 7 4 8 3 9 2 10 1 11
REMARK H PARENT
REMARK Flexibility Score: inf
ROOT
ATOM      1  C   UNL     1      12.102   8.092  10.117  1.00  0.00     0.000 C 
ENDROOT
BRANCH   1   2
ATOM      2  C   UNL     1      11.963   6.581  10.338  1.00  0.00     0.006 C 
BRANCH   2   3
ATOM      3  C   UNL     1      10.996   6.281  11.487  1.00  0.00     0.053 C 
BRANCH   3   4
ATOM      4  C   UNL     1      11.082   4.840  11.881  1.00  0.00     0.041 C 
ATOM      5  O   UNL     1      12.174   4.221  11.783  1.00  0.00    -0.550 OA
ATOM      6  O   UNL     1       9.946   4.168  12.311  1.00  0.00    -0.550 OA
ENDBRANCH   3   4
ENDBRANCH   2   3
ENDBRANCH   1   2
BRANCH   1   7
ATOM      7  C   UNL     1      11.553   8.877  11.315  1.00  0.00     0.000 C 
BRANCH   7   8
ATOM      8  C   UNL     1      12.000  10.346  11.261  1.00  0.00    -0.000 C 
BRANCH   8   9
ATOM      9  C   UNL     1      12.557  10.746   9.885  1.00  0.00    -0.000 C 
BRANCH   9  10
ATOM     10  C   UNL     1      12.351  12.235   9.574  1.00  0.00    -0.003 C 
ATOM     11  C   UNL     1      13.048  12.626   8.273  1.00  0.00     0.004 C 
ENDBRANCH   9  10
ENDBRANCH   8   9
ENDBRANCH   7   8
ENDBRANCH   1   7
TORSDOF 7
ENDMDL
MODEL 7
REMARK VINA RESULT:    -4.090      4.824      6.850
REMARK INTER + INTRA:          -6.086
REMARK INTER:                  -5.728
REMARK INTRA:                  -0.359
REMARK UNBOUND:                -0.323
REMARK SMILES CCCCCCCCC(=O)[O-]
REMARK SMILES IDX 6 1 7 2 8 3 9 4 10 5 11 6 5 7 4 8 3 9 2 10 1 11
REMARK H PARENT
REMARK Flexibility Score: inf
ROOT
ATOM      1  C   UNL     1      12.053   9.263  10.247  1.00  0.00     0.000 C 
ENDROOT
BRANCH   1   2
ATOM      2  C   UNL     1      12.378  10.757  10.137  1.00  0.00     0.006 C 
BRANCH   2   3
ATOM      3  C   UNL     1      12.187  11.461  11.483  1.00  0.00     0.053 C 
BRANCH   3   4
ATOM      4  C   UNL     1      12.349  12.941  11.329  1.00  0.00     0.041 C 
ATOM      5  O   UNL     1      13.019  13.596  12.170  1.00  0.00    -0.550 OA
ATOM      6  O   UNL     1      11.719  13.604  10.285  1.00  0.00    -0.550 OA
ENDBRANCH   3   4
ENDBRANCH   2   3
ENDBRANCH   1   2
BRANCH   1   7
ATOM      7  C   UNL     1      11.420   8.934  11.605  1.00  0.00     0.000 C 
BRANCH   7   8
ATOM      8  C   UNL     1      11.240   7.418  11.775  1.00  0.00    -0.000 C 
BRANCH   8   9
ATOM      9  C   UNL     1      11.932   6.611  10.664  1.00  0.00    -0.000 C 
BRANCH   9  10
ATOM     10  C   UNL     1      11.085   5.426  10.180  1.00  0.00    -0.003 C 
ATOM     11  C   UNL     1      10.085   4.993  11.249  1.00  0.00     0.004 C 
ENDBRANCH   9  10
ENDBRANCH   8   9
ENDBRANCH   7   8
ENDBRANCH   1   7
TORSDOF 7
ENDMDL
MODEL 8
REMARK VINA RESULT:    -4.068      3.930      6.483
REMARK INTER + INTRA:          -6.055
REMARK INTER:                  -5.820
REMARK INTRA:                  -0.235
REMARK UNBOUND:                -0.323
REMARK SMILES CCCCCCCCC(=O)[O-]
REMARK SMILES IDX 6 1 7 2 8 3 9 4 10 5 11 6 5 7 4 8 3 9 2 10 1 11
REMARK H PARENT
REMARK Flexibility Score: inf
ROOT
ATOM      1  C   UNL     1      11.376   7.760  11.826  1.00  0.00     0.000 C 
ENDROOT
BRANCH   1   2
ATOM      2  C   UNL     1      11.358   9.262  11.520  1.00  0.00     0.006 C 
BRANCH   2   3
ATOM      3  C   UNL     1      12.161   9.574  10.254  1.00  0.00     0.053 C 
BRANCH   3   4
ATOM      4  C   UNL     1      12.499  11.030  10.193  1.00  0.00     0.041 C 
ATOM      5  O   UNL     1      12.774  11.571   9.089  1.00  0.00    -0.550 OA
ATOM      6  O   UNL     1      12.559  11.780  11.360  1.00  0.00    -0.550 OA
ENDBRANCH   3   4
ENDBRANCH   2   3
ENDBRANCH   1   2
BRANCH   1   7
ATOM      7  C   UNL     1      11.846   6.955  10.609  1.00  0.00     0.000 C 
BRANCH   7   8
ATOM      8  C   UNL     1      11.778   5.445  10.889  1.00  0.00    -0.000 C 
BRANCH   8   9
ATOM      9  C   UNL     1      13.168   4.811  11.057  1.00  0.00    -0.000 C 
BRANCH   9  10
ATOM     10  C   UNL     1      13.110   3.282  11.177  1.00  0.00    -0.003 C 
ATOM     11  C   UNL     1      12.737   2.856  12.595  1.00  0.00     0.004 C 
ENDBRANCH   9  10
ENDBRANCH   8   9
ENDBRANCH   7   8
ENDBRANCH   1   7
TORSDOF 7
ENDMDL
MODEL 9
REMARK VINA RESULT:    -3.914      3.790      5.923
REMARK INTER + INTRA:          -5.839
REMARK INTER:                  -5.437
REMARK INTRA:                  -0.402
REMARK UNBOUND:                -0.323
REMARK SMILES CCCCCCCCC(=O)[O-]
REMARK SMILES IDX 6 1 7 2 8 3 9 4 10 5 11 6 5 7 4 8 3 9 2 10 1 11
REMARK H PARENT
REMARK Flexibility Score: inf
ROOT
ATOM      1  C   UNL     1      12.185   7.158  10.230  1.00  0.00     0.000 C 
ENDROOT
BRANCH   1   2
ATOM      2  C   UNL     1      11.616   8.365  10.985  1.00  0.00     0.006 C 
BRANCH   2   3
ATOM      3  C   UNL     1      12.082   9.679  10.352  1.00  0.00     0.053 C 
BRANCH   3   4
ATOM      4  C   UNL     1      11.942  10.808  11.324  1.00  0.00     0.041 C 
ATOM      5  O   UNL     1      12.690  11.817  11.235  1.00  0.00    -0.550 OA
ATOM      6  O   UNL     1      11.020  10.724  12.359  1.00  0.00    -0.550 OA
ENDBRANCH   3   4
ENDBRANCH   2   3
ENDBRANCH   1   2
BRANCH   1   7
ATOM      7  C   UNL     1      11.894   5.852  10.978  1.00  0.00     0.000 C 
BRANCH   7   8
ATOM      8  C   UNL     1      10.492   5.880  11.607  1.00  0.00    -0.000 C 
BRANCH   8   9
ATOM      9  C   UNL     1      10.326   4.842  12.729  1.00  0.00    -0.000 C 
BRANCH   9  10
ATOM     10  C   UNL     1       9.666   5.430  13.984  1.00  0.00    -0.003 C 
ATOM     11  C   UNL     1      10.296   6.768  14.361  1.00  0.00     0.004 C 
ENDBRANCH   9  10
ENDBRANCH   8   9
ENDBRANCH   7   8
ENDBRANCH   1   7
TORSDOF 7
ENDMDL
