MODEL 1
REMARK VINA RESULT:    -7.302      0.000      0.000
REMARK INTER + INTRA:          -9.642
REMARK INTER:                  -9.222
REMARK INTRA:                  -0.419
REMARK UNBOUND:                -0.419
REMARK SMILES Oc1cc(O)cc(CCc2ccccc2O)c1
REMARK SMILES IDX 9 1 10 2 12 3 13 4 11 5 14 6 15 7 16 8 8 10 7 11 6 12 17 13
REMARK SMILES IDX 4 14 2 15 3 16 5 17 1 19
REMARK H PARENT 16 9 5 18 1 20
REMARK Flexibility Score: inf
ROOT
ATOM      1  C   UNL     1      61.304 151.732   3.103  1.00  0.00     0.044 C 
ENDROOT
BRANCH   1   2
ATOM      2  C   UNL     1      60.401 152.682   2.345  1.00  0.00    -0.006 A 
ATOM      3  C   UNL     1      60.096 154.125   0.405  1.00  0.00     0.001 A 
ATOM      4  C   UNL     1      58.841 154.505   0.875  1.00  0.00     0.004 A 
ATOM      5  C   UNL     1      60.873 153.222   1.135  1.00  0.00     0.007 A 
ATOM      6  C   UNL     1      58.360 153.988   2.079  1.00  0.00     0.046 A 
ATOM      7  C   UNL     1      59.127 153.085   2.826  1.00  0.00     0.118 A 
BRANCH   7   8
ATOM      8  O   UNL     1      58.591 152.625   4.032  1.00  0.00    -0.508 OA
ATOM      9  H   UNL     1      59.119 152.124   4.730  1.00  0.00     0.293 HD
ENDBRANCH   7   8
ENDBRANCH   1   2
BRANCH   1  10
ATOM     10  C   UNL     1      62.748 151.772   2.580  1.00  0.00     0.040 C 
BRANCH  10  11
ATOM     11  C   UNL     1      63.752 151.500   3.669  1.00  0.00    -0.040 A 
ATOM     12  C   UNL     1      64.098 150.179   3.997  1.00  0.00     0.050 A 
ATOM     13  C   UNL     1      64.312 152.561   4.399  1.00  0.00     0.050 A 
ATOM     14  C   UNL     1      65.000 149.923   5.040  1.00  0.00     0.119 A 
ATOM     15  C   UNL     1      65.209 152.309   5.441  1.00  0.00     0.119 A 
ATOM     16  C   UNL     1      65.554 150.988   5.759  1.00  0.00     0.092 A 
BRANCH  14  17
ATOM     17  O   UNL     1      65.348 148.616   5.372  1.00  0.00    -0.508 OA
ATOM     18  H   UNL     1      66.281 148.381   5.692  1.00  0.00     0.293 HD
ENDBRANCH  14  17
BRANCH  15  19
ATOM     19  O   UNL     1      65.750 153.375   6.155  1.00  0.00    -0.508 OA
ATOM     20  H   UNL     1      66.075 154.214   5.689  1.00  0.00     0.293 HD
ENDBRANCH  15  19
ENDBRANCH  10  11
ENDBRANCH   1  10
TORSDOF 6
ENDMDL
MODEL 2
REMARK VINA RESULT:    -7.086      0.382      2.065
REMARK INTER + INTRA:          -9.370
REMARK INTER:                  -8.968
REMARK INTRA:                  -0.401
REMARK UNBOUND:                -0.419
REMARK SMILES Oc1cc(O)cc(CCc2ccccc2O)c1
REMARK SMILES IDX 9 1 10 2 12 3 13 4 11 5 14 6 15 7 16 8 8 10 7 11 6 12 17 13
REMARK SMILES IDX 4 14 2 15 3 16 5 17 1 19
REMARK H PARENT 16 9 5 18 1 20
REMARK Flexibility Score: inf
ROOT
ATOM      1  C   UNL     1      61.048 151.889   3.255  1.00  0.00     0.044 C 
ENDROOT
BRANCH   1   2
ATOM      2  C   UNL     1      60.196 152.881   2.492  1.00  0.00    -0.006 A 
ATOM      3  C   UNL     1      59.818 154.099   0.415  1.00  0.00     0.001 A 
ATOM      4  C   UNL     1      58.728 154.752   0.988  1.00  0.00     0.004 A 
ATOM      5  C   UNL     1      60.549 153.172   1.161  1.00  0.00     0.007 A 
ATOM      6  C   UNL     1      58.371 154.485   2.310  1.00  0.00     0.046 A 
ATOM      7  C   UNL     1      59.095 153.562   3.074  1.00  0.00     0.118 A 
BRANCH   7   8
ATOM      8  O   UNL     1      58.692 153.361   4.397  1.00  0.00    -0.508 OA
ATOM      9  H   UNL     1      58.251 152.517   4.732  1.00  0.00     0.293 HD
ENDBRANCH   7   8
ENDBRANCH   1   2
BRANCH   1  10
ATOM     10  C   UNL     1      62.489 151.841   2.725  1.00  0.00     0.040 C 
BRANCH  10  11
ATOM     11  C   UNL     1      63.480 151.504   3.807  1.00  0.00    -0.040 A 
ATOM     12  C   UNL     1      64.187 152.526   4.461  1.00  0.00     0.050 A 
ATOM     13  C   UNL     1      63.743 150.164   4.137  1.00  0.00     0.050 A 
ATOM     14  C   UNL     1      65.142 152.211   5.438  1.00  0.00     0.119 A 
ATOM     15  C   UNL     1      64.697 149.847   5.109  1.00  0.00     0.119 A 
ATOM     16  C   UNL     1      65.394 150.873   5.762  1.00  0.00     0.092 A 
BRANCH  14  17
ATOM     17  O   UNL     1      65.848 153.219   6.091  1.00  0.00    -0.508 OA
ATOM     18  H   UNL     1      66.708 153.026   6.592  1.00  0.00     0.293 HD
ENDBRANCH  14  17
BRANCH  15  19
ATOM     19  O   UNL     1      64.945 148.513   5.419  1.00  0.00    -0.508 OA
ATOM     20  H   UNL     1      64.646 147.762   4.807  1.00  0.00     0.293 HD
ENDBRANCH  15  19
ENDBRANCH  10  11
ENDBRANCH   1  10
TORSDOF 6
ENDMDL
MODEL 3
REMARK VINA RESULT:    -7.035      2.202      6.645
REMARK INTER + INTRA:          -9.306
REMARK INTER:                  -8.904
REMARK INTRA:                  -0.401
REMARK UNBOUND:                -0.419
REMARK SMILES Oc1cc(O)cc(CCc2ccccc2O)c1
REMARK SMILES IDX 9 1 10 2 12 3 13 4 11 5 14 6 15 7 16 8 8 10 7 11 6 12 17 13
REMARK SMILES IDX 4 14 2 15 3 16 5 17 1 19
REMARK H PARENT 16 9 5 18 1 20
REMARK Flexibility Score: inf
ROOT
ATOM      1  C   UNL     1      61.536 151.805   4.261  1.00  0.00     0.044 C 
ENDROOT
BRANCH   1   2
ATOM      2  C   UNL     1      62.645 150.903   4.761  1.00  0.00    -0.006 A 
ATOM      3  C   UNL     1      65.040 150.529   5.004  1.00  0.00     0.001 A 
ATOM      4  C   UNL     1      64.795 149.290   5.592  1.00  0.00     0.004 A 
ATOM      5  C   UNL     1      63.975 151.329   4.588  1.00  0.00     0.007 A 
ATOM      6  C   UNL     1      63.482 148.845   5.762  1.00  0.00     0.046 A 
ATOM      7  C   UNL     1      62.402 149.633   5.347  1.00  0.00     0.118 A 
BRANCH   7   8
ATOM      8  O   UNL     1      61.117 149.115   5.529  1.00  0.00    -0.508 OA
ATOM      9  H   UNL     1      60.766 148.295   5.058  1.00  0.00     0.293 HD
ENDBRANCH   7   8
ENDBRANCH   1   2
BRANCH   1  10
ATOM     10  C   UNL     1      61.097 151.440   2.835  1.00  0.00     0.040 C 
BRANCH  10  11
ATOM     11  C   UNL     1      60.583 152.636   2.077  1.00  0.00    -0.040 A 
ATOM     12  C   UNL     1      59.478 153.357   2.558  1.00  0.00     0.050 A 
ATOM     13  C   UNL     1      61.172 153.010   0.858  1.00  0.00     0.050 A 
ATOM     14  C   UNL     1      58.971 154.443   1.831  1.00  0.00     0.119 A 
ATOM     15  C   UNL     1      60.667 154.092   0.130  1.00  0.00     0.119 A 
ATOM     16  C   UNL     1      59.568 154.810   0.620  1.00  0.00     0.092 A 
BRANCH  14  17
ATOM     17  O   UNL     1      57.875 155.163   2.302  1.00  0.00    -0.508 OA
ATOM     18  H   UNL     1      57.263 154.787   3.017  1.00  0.00     0.293 HD
ENDBRANCH  14  17
BRANCH  15  19
ATOM     19  O   UNL     1      61.263 154.444  -1.079  1.00  0.00    -0.508 OA
ATOM     20  H   UNL     1      61.300 153.798  -1.859  1.00  0.00     0.293 HD
ENDBRANCH  15  19
ENDBRANCH  10  11
ENDBRANCH   1  10
TORSDOF 6
ENDMDL
MODEL 4
REMARK VINA RESULT:    -6.927      1.841      2.257
REMARK INTER + INTRA:          -9.169
REMARK INTER:                  -8.673
REMARK INTRA:                  -0.495
REMARK UNBOUND:                -0.419
REMARK SMILES Oc1cc(O)cc(CCc2ccccc2O)c1
REMARK SMILES IDX 9 1 10 2 12 3 13 4 11 5 14 6 15 7 16 8 8 10 7 11 6 12 17 13
REMARK SMILES IDX 4 14 2 15 3 16 5 17 1 19
REMARK H PARENT 16 9 5 18 1 20
REMARK Flexibility Score: inf
ROOT
ATOM      1  C   UNL     1      61.551 152.410   1.773  1.00  0.00     0.044 C 
ENDROOT
BRANCH   1   2
ATOM      2  C   UNL     1      60.381 153.352   1.582  1.00  0.00    -0.006 A 
ATOM      3  C   UNL     1      58.319 154.283   2.490  1.00  0.00     0.001 A 
ATOM      4  C   UNL     1      58.131 155.023   1.324  1.00  0.00     0.004 A 
ATOM      5  C   UNL     1      59.434 153.451   2.618  1.00  0.00     0.007 A 
ATOM      6  C   UNL     1      59.054 154.929   0.281  1.00  0.00     0.046 A 
ATOM      7  C   UNL     1      60.175 154.098   0.391  1.00  0.00     0.118 A 
BRANCH   7   8
ATOM      8  O   UNL     1      61.046 154.038  -0.700  1.00  0.00    -0.508 OA
ATOM      9  H   UNL     1      61.440 153.183  -1.063  1.00  0.00     0.293 HD
ENDBRANCH   7   8
ENDBRANCH   1   2
BRANCH   1  10
ATOM     10  C   UNL     1      61.260 151.340   2.835  1.00  0.00     0.040 C 
BRANCH  10  11
ATOM     11  C   UNL     1      62.409 151.166   3.793  1.00  0.00    -0.040 A 
ATOM     12  C   UNL     1      62.285 150.305   4.896  1.00  0.00     0.050 A 
ATOM     13  C   UNL     1      63.594 151.900   3.621  1.00  0.00     0.050 A 
ATOM     14  C   UNL     1      63.338 150.175   5.813  1.00  0.00     0.119 A 
ATOM     15  C   UNL     1      64.644 151.774   4.536  1.00  0.00     0.119 A 
ATOM     16  C   UNL     1      64.515 150.908   5.631  1.00  0.00     0.092 A 
BRANCH  14  17
ATOM     17  O   UNL     1      63.222 149.323   6.909  1.00  0.00    -0.508 OA
ATOM     18  H   UNL     1      63.930 149.293   7.634  1.00  0.00     0.293 HD
ENDBRANCH  14  17
BRANCH  15  19
ATOM     19  O   UNL     1      65.809 152.513   4.350  1.00  0.00    -0.508 OA
ATOM     20  H   UNL     1      66.015 152.965   3.466  1.00  0.00     0.293 HD
ENDBRANCH  15  19
ENDBRANCH  10  11
ENDBRANCH   1  10
TORSDOF 6
ENDMDL
MODEL 5
REMARK VINA RESULT:    -6.908      1.835      2.761
REMARK INTER + INTRA:          -9.144
REMARK INTER:                  -8.628
REMARK INTRA:                  -0.516
REMARK UNBOUND:                -0.419
REMARK SMILES Oc1cc(O)cc(CCc2ccccc2O)c1
REMARK SMILES IDX 9 1 10 2 12 3 13 4 11 5 14 6 15 7 16 8 8 10 7 11 6 12 17 13
REMARK SMILES IDX 4 14 2 15 3 16 5 17 1 19
REMARK H PARENT 16 9 5 18 1 20
REMARK Flexibility Score: inf
ROOT
ATOM      1  C   UNL     1      61.438 152.436   1.762  1.00  0.00     0.044 C 
ENDROOT
BRANCH   1   2
ATOM      2  C   UNL     1      60.262 153.386   1.687  1.00  0.00    -0.006 A 
ATOM      3  C   UNL     1      58.299 154.322   2.787  1.00  0.00     0.001 A 
ATOM      4  C   UNL     1      58.009 155.072   1.649  1.00  0.00     0.004 A 
ATOM      5  C   UNL     1      59.415 153.482   2.807  1.00  0.00     0.007 A 
ATOM      6  C   UNL     1      58.832 154.981   0.525  1.00  0.00     0.046 A 
ATOM      7  C   UNL     1      59.953 154.142   0.525  1.00  0.00     0.118 A 
BRANCH   7   8
ATOM      8  O   UNL     1      60.718 154.085  -0.642  1.00  0.00    -0.508 OA
ATOM      9  H   UNL     1      60.347 154.226  -1.569  1.00  0.00     0.293 HD
ENDBRANCH   7   8
ENDBRANCH   1   2
BRANCH   1  10
ATOM     10  C   UNL     1      61.203 151.310   2.780  1.00  0.00     0.040 C 
BRANCH  10  11
ATOM     11  C   UNL     1      62.323 151.208   3.781  1.00  0.00    -0.040 A 
ATOM     12  C   UNL     1      63.509 151.936   3.592  1.00  0.00     0.050 A 
ATOM     13  C   UNL     1      62.213 150.347   4.885  1.00  0.00     0.050 A 
ATOM     14  C   UNL     1      64.570 151.809   4.499  1.00  0.00     0.119 A 
ATOM     15  C   UNL     1      63.271 150.216   5.791  1.00  0.00     0.119 A 
ATOM     16  C   UNL     1      64.449 150.951   5.597  1.00  0.00     0.092 A 
BRANCH  14  17
ATOM     17  O   UNL     1      65.749 152.528   4.317  1.00  0.00    -0.508 OA
ATOM     18  H   UNL     1      66.634 152.063   4.149  1.00  0.00     0.293 HD
ENDBRANCH  14  17
BRANCH  15  19
ATOM     19  O   UNL     1      63.143 149.354   6.877  1.00  0.00    -0.508 OA
ATOM     20  H   UNL     1      62.935 148.370   6.750  1.00  0.00     0.293 HD
ENDBRANCH  15  19
ENDBRANCH  10  11
ENDBRANCH   1  10
TORSDOF 6
ENDMDL
MODEL 6
REMARK VINA RESULT:    -6.891      1.901      6.504
REMARK INTER + INTRA:          -9.124
REMARK INTER:                  -8.709
REMARK INTRA:                  -0.415
REMARK UNBOUND:                -0.419
REMARK SMILES Oc1cc(O)cc(CCc2ccccc2O)c1
REMARK SMILES IDX 9 1 10 2 12 3 13 4 11 5 14 6 15 7 16 8 8 10 7 11 6 12 17 13
REMARK SMILES IDX 4 14 2 15 3 16 5 17 1 19
REMARK H PARENT 16 9 5 18 1 20
REMARK Flexibility Score: inf
ROOT
ATOM      1  C   UNL     1      63.123 152.048   3.377  1.00  0.00     0.044 C 
ENDROOT
BRANCH   1   2
ATOM      2  C   UNL     1      63.651 150.951   4.277  1.00  0.00    -0.006 A 
ATOM      3  C   UNL     1      65.338 149.233   4.655  1.00  0.00     0.001 A 
ATOM      4  C   UNL     1      64.698 148.853   5.833  1.00  0.00     0.004 A 
ATOM      5  C   UNL     1      64.818 150.272   3.880  1.00  0.00     0.007 A 
ATOM      6  C   UNL     1      63.533 149.507   6.237  1.00  0.00     0.046 A 
ATOM      7  C   UNL     1      62.995 150.548   5.471  1.00  0.00     0.118 A 
BRANCH   7   8
ATOM      8  O   UNL     1      61.815 151.144   5.925  1.00  0.00    -0.508 OA
ATOM      9  H   UNL     1      61.352 151.909   5.458  1.00  0.00     0.293 HD
ENDBRANCH   7   8
ENDBRANCH   1   2
BRANCH   1  10
ATOM     10  C   UNL     1      62.019 151.540   2.438  1.00  0.00     0.040 C 
BRANCH  10  11
ATOM     11  C   UNL     1      60.830 152.462   2.410  1.00  0.00    -0.040 A 
ATOM     12  C   UNL     1      60.457 153.098   1.214  1.00  0.00     0.050 A 
ATOM     13  C   UNL     1      60.115 152.735   3.588  1.00  0.00     0.050 A 
ATOM     14  C   UNL     1      59.376 153.992   1.196  1.00  0.00     0.119 A 
ATOM     15  C   UNL     1      59.039 153.628   3.573  1.00  0.00     0.119 A 
ATOM     16  C   UNL     1      58.669 154.254   2.374  1.00  0.00     0.092 A 
BRANCH  14  17
ATOM     17  O   UNL     1      59.000 154.626   0.014  1.00  0.00    -0.508 OA
ATOM     18  H   UNL     1      59.300 154.281  -0.891  1.00  0.00     0.293 HD
ENDBRANCH  14  17
BRANCH  15  19
ATOM     19  O   UNL     1      58.346 153.888   4.752  1.00  0.00    -0.508 OA
ATOM     20  H   UNL     1      57.404 153.544   4.900  1.00  0.00     0.293 HD
ENDBRANCH  15  19
ENDBRANCH  10  11
ENDBRANCH   1  10
TORSDOF 6
ENDMDL
MODEL 7
REMARK VINA RESULT:    -6.830      1.677      2.008
REMARK INTER + INTRA:          -9.046
REMARK INTER:                  -8.586
REMARK INTRA:                  -0.461
REMARK UNBOUND:                -0.419
REMARK SMILES Oc1cc(O)cc(CCc2ccccc2O)c1
REMARK SMILES IDX 9 1 10 2 12 3 13 4 11 5 14 6 15 7 16 8 8 10 7 11 6 12 17 13
REMARK SMILES IDX 4 14 2 15 3 16 5 17 1 19
REMARK H PARENT 16 9 5 18 1 20
REMARK Flexibility Score: inf
ROOT
ATOM      1  C   UNL     1      61.609 151.532   2.261  1.00  0.00     0.044 C 
ENDROOT
BRANCH   1   2
ATOM      2  C   UNL     1      60.607 152.602   1.885  1.00  0.00    -0.006 A 
ATOM      3  C   UNL     1      59.958 154.355   0.321  1.00  0.00     0.001 A 
ATOM      4  C   UNL     1      58.849 154.658   1.109  1.00  0.00     0.004 A 
ATOM      5  C   UNL     1      60.833 153.337   0.706  1.00  0.00     0.007 A 
ATOM      6  C   UNL     1      58.615 153.947   2.287  1.00  0.00     0.046 A 
ATOM      7  C   UNL     1      59.483 152.926   2.691  1.00  0.00     0.118 A 
BRANCH   7   8
ATOM      8  O   UNL     1      59.198 152.271   3.892  1.00  0.00    -0.508 OA
ATOM      9  H   UNL     1      59.655 152.474   4.768  1.00  0.00     0.293 HD
ENDBRANCH   7   8
ENDBRANCH   1   2
BRANCH   1  10
ATOM     10  C   UNL     1      62.721 152.079   3.168  1.00  0.00     0.040 C 
BRANCH  10  11
ATOM     11  C   UNL     1      62.986 151.180   4.346  1.00  0.00    -0.040 A 
ATOM     12  C   UNL     1      64.189 150.459   4.429  1.00  0.00     0.050 A 
ATOM     13  C   UNL     1      62.013 151.014   5.345  1.00  0.00     0.050 A 
ATOM     14  C   UNL     1      64.419 149.587   5.503  1.00  0.00     0.119 A 
ATOM     15  C   UNL     1      62.239 150.143   6.416  1.00  0.00     0.119 A 
ATOM     16  C   UNL     1      63.445 149.432   6.495  1.00  0.00     0.092 A 
BRANCH  14  17
ATOM     17  O   UNL     1      65.609 148.870   5.591  1.00  0.00    -0.508 OA
ATOM     18  H   UNL     1      66.482 149.319   5.845  1.00  0.00     0.293 HD
ENDBRANCH  14  17
BRANCH  15  19
ATOM     19  O   UNL     1      61.260 149.989   7.395  1.00  0.00    -0.508 OA
ATOM     20  H   UNL     1      61.389 149.360   8.179  1.00  0.00     0.293 HD
ENDBRANCH  15  19
ENDBRANCH  10  11
ENDBRANCH   1  10
TORSDOF 6
ENDMDL
MODEL 8
REMARK VINA RESULT:    -6.548      2.127      6.816
REMARK INTER + INTRA:          -8.690
REMARK INTER:                  -8.243
REMARK INTRA:                  -0.447
REMARK UNBOUND:                -0.419
REMARK SMILES Oc1cc(O)cc(CCc2ccccc2O)c1
REMARK SMILES IDX 9 1 10 2 12 3 13 4 11 5 14 6 15 7 16 8 8 10 7 11 6 12 17 13
REMARK SMILES IDX 4 14 2 15 3 16 5 17 1 19
REMARK H PARENT 16 9 5 18 1 20
REMARK Flexibility Score: inf
ROOT
ATOM      1  C   UNL     1      61.917 152.206   5.766  1.00  0.00     0.044 C 
ENDROOT
BRANCH   1   2
ATOM      2  C   UNL     1      62.986 151.214   5.363  1.00  0.00    -0.006 A 
ATOM      3  C   UNL     1      64.099 149.092   5.810  1.00  0.00     0.001 A 
ATOM      4  C   UNL     1      64.975 149.320   4.751  1.00  0.00     0.004 A 
ATOM      5  C   UNL     1      63.113 150.033   6.117  1.00  0.00     0.007 A 
ATOM      6  C   UNL     1      64.872 150.491   3.999  1.00  0.00     0.046 A 
ATOM      7  C   UNL     1      63.893 151.447   4.295  1.00  0.00     0.118 A 
BRANCH   7   8
ATOM      8  O   UNL     1      63.862 152.605   3.514  1.00  0.00    -0.508 OA
ATOM      9  H   UNL     1      63.165 152.793   2.809  1.00  0.00     0.293 HD
ENDBRANCH   7   8
ENDBRANCH   1   2
BRANCH   1  10
ATOM     10  C   UNL     1      60.522 151.773   5.290  1.00  0.00     0.040 C 
BRANCH  10  11
ATOM     11  C   UNL     1      59.853 152.833   4.456  1.00  0.00    -0.040 A 
ATOM     12  C   UNL     1      59.280 153.959   5.070  1.00  0.00     0.050 A 
ATOM     13  C   UNL     1      59.753 152.681   3.063  1.00  0.00     0.050 A 
ATOM     14  C   UNL     1      58.619 154.925   4.298  1.00  0.00     0.119 A 
ATOM     15  C   UNL     1      59.092 153.643   2.291  1.00  0.00     0.119 A 
ATOM     16  C   UNL     1      58.527 154.766   2.911  1.00  0.00     0.092 A 
BRANCH  14  17
ATOM     17  O   UNL     1      58.047 156.044   4.900  1.00  0.00    -0.508 OA
ATOM     18  H   UNL     1      57.051 156.098   5.080  1.00  0.00     0.293 HD
ENDBRANCH  14  17
BRANCH  15  19
ATOM     19  O   UNL     1      58.999 153.471   0.913  1.00  0.00    -0.508 OA
ATOM     20  H   UNL     1      58.176 153.064   0.483  1.00  0.00     0.293 HD
ENDBRANCH  15  19
ENDBRANCH  10  11
ENDBRANCH   1  10
TORSDOF 6
ENDMDL
MODEL 9
REMARK VINA RESULT:    -6.525      2.137      6.622
REMARK INTER + INTRA:          -8.661
REMARK INTER:                  -8.213
REMARK INTRA:                  -0.449
REMARK UNBOUND:                -0.419
REMARK SMILES Oc1cc(O)cc(CCc2ccccc2O)c1
REMARK SMILES IDX 9 1 10 2 12 3 13 4 11 5 14 6 15 7 16 8 8 10 7 11 6 12 17 13
REMARK SMILES IDX 4 14 2 15 3 16 5 17 1 19
REMARK H PARENT 16 9 5 18 1 20
REMARK Flexibility Score: inf
ROOT
ATOM      1  C   UNL     1      61.897 152.222   5.753  1.00  0.00     0.044 C 
ENDROOT
BRANCH   1   2
ATOM      2  C   UNL     1      62.973 151.236   5.350  1.00  0.00    -0.006 A 
ATOM      3  C   UNL     1      64.119 149.136   5.815  1.00  0.00     0.001 A 
ATOM      4  C   UNL     1      64.976 149.356   4.738  1.00  0.00     0.004 A 
ATOM      5  C   UNL     1      63.126 150.070   6.122  1.00  0.00     0.007 A 
ATOM      6  C   UNL     1      64.846 150.513   3.968  1.00  0.00     0.046 A 
ATOM      7  C   UNL     1      63.859 151.462   4.263  1.00  0.00     0.118 A 
BRANCH   7   8
ATOM      8  O   UNL     1      63.801 152.605   3.463  1.00  0.00    -0.508 OA
ATOM      9  H   UNL     1      63.091 152.772   2.766  1.00  0.00     0.293 HD
ENDBRANCH   7   8
ENDBRANCH   1   2
BRANCH   1  10
ATOM     10  C   UNL     1      60.497 151.748   5.335  1.00  0.00     0.040 C 
BRANCH  10  11
ATOM     11  C   UNL     1      59.768 152.785   4.522  1.00  0.00    -0.040 A 
ATOM     12  C   UNL     1      59.712 152.675   3.123  1.00  0.00     0.050 A 
ATOM     13  C   UNL     1      59.181 153.896   5.150  1.00  0.00     0.050 A 
ATOM     14  C   UNL     1      59.071 153.663   2.361  1.00  0.00     0.119 A 
ATOM     15  C   UNL     1      58.543 154.883   4.393  1.00  0.00     0.119 A 
ATOM     16  C   UNL     1      58.487 154.763   2.997  1.00  0.00     0.092 A 
BRANCH  14  17
ATOM     17  O   UNL     1      59.012 153.561   0.973  1.00  0.00    -0.508 OA
ATOM     18  H   UNL     1      58.325 152.974   0.514  1.00  0.00     0.293 HD
ENDBRANCH  14  17
BRANCH  15  19
ATOM     19  O   UNL     1      57.972 155.979   5.035  1.00  0.00    -0.508 OA
ATOM     20  H   UNL     1      57.542 155.893   5.948  1.00  0.00     0.293 HD
ENDBRANCH  15  19
ENDBRANCH  10  11
ENDBRANCH   1  10
TORSDOF 6
ENDMDL
