MODEL 1
REMARK VINA RESULT:    -4.448      0.000      0.000
REMARK INTER + INTRA:          -6.418
REMARK INTER:                  -6.008
REMARK INTRA:                  -0.409
REMARK UNBOUND:                -0.409
REMARK SMILES [NH3+]CCCC[C@@H]([NH3+])C(=O)[O-]
REMARK SMILES IDX 4 1 3 2 2 3 1 4 5 8 6 9 7 10 8 14 9 15 10 16
REMARK H PARENT 1 5 1 6 1 7 7 11 7 12 7 13
REMARK Flexibility Score: inf
ROOT
ATOM      1  C   UNL     1      20.890   0.205 -18.220  1.00  0.00     0.012 C 
ENDROOT
BRANCH   1   2
ATOM      2  C   UNL     1      21.140  -1.311 -18.184  1.00  0.00     0.061 C 
BRANCH   2   3
ATOM      3  C   UNL     1      19.912  -2.126 -18.619  1.00  0.00     0.258 C 
BRANCH   3   4
ATOM      4  N   UNL     1      19.431  -2.968 -17.525  1.00  0.00    -0.358 N 
ATOM      5  H   UNL     1      20.204  -3.578 -17.173  1.00  0.00     0.344 HD
ATOM      6  H   UNL     1      19.100  -2.358 -16.743  1.00  0.00     0.344 HD
ATOM      7  H   UNL     1      18.633  -3.562 -17.852  1.00  0.00     0.344 HD
ENDBRANCH   3   4
ENDBRANCH   2   3
ENDBRANCH   1   2
BRANCH   1   8
ATOM      8  C   UNL     1      19.404   0.565 -18.042  1.00  0.00     0.072 C 
BRANCH   8   9
ATOM      9  C   UNL     1      19.156   1.398 -16.766  1.00  0.00     0.227 C 
BRANCH   9  10
ATOM     10  N   UNL     1      18.233   2.505 -17.047  1.00  0.00    -0.350 N 
ATOM     11  H   UNL     1      17.273   2.129 -17.224  1.00  0.00     0.345 HD
ATOM     12  H   UNL     1      18.544   3.019 -17.904  1.00  0.00     0.345 HD
ATOM     13  H   UNL     1      18.196   3.170 -16.241  1.00  0.00     0.345 HD
ENDBRANCH   9  10
BRANCH   9  14
ATOM     14  C   UNL     1      18.612   0.541 -15.653  1.00  0.00     0.099 C 
ATOM     15  O   UNL     1      17.546   0.858 -15.062  1.00  0.00    -0.544 OA
ATOM     16  O   UNL     1      19.282  -0.618 -15.279  1.00  0.00    -0.544 OA
ENDBRANCH   9  14
ENDBRANCH   8   9
ENDBRANCH   1   8
TORSDOF 7
ENDMDL
MODEL 2
REMARK VINA RESULT:    -4.397      8.068      8.845
REMARK INTER + INTRA:          -6.349
REMARK INTER:                  -5.903
REMARK INTRA:                  -0.446
REMARK UNBOUND:                -0.409
REMARK SMILES [NH3+]CCCC[C@@H]([NH3+])C(=O)[O-]
REMARK SMILES IDX 4 1 3 2 2 3 1 4 5 8 6 9 7 10 8 14 9 15 10 16
REMARK H PARENT 1 5 1 6 1 7 7 11 7 12 7 13
REMARK Flexibility Score: inf
ROOT
ATOM      1  C   UNL     1      15.859   0.507 -25.063  1.00  0.00     0.012 C 
ENDROOT
BRANCH   1   2
ATOM      2  C   UNL     1      15.870   1.977 -25.513  1.00  0.00     0.061 C 
BRANCH   2   3
ATOM      3  C   UNL     1      17.145   2.353 -26.284  1.00  0.00     0.258 C 
BRANCH   3   4
ATOM      4  N   UNL     1      17.637   1.217 -27.061  1.00  0.00    -0.358 N 
ATOM      5  H   UNL     1      18.291   0.640 -26.483  1.00  0.00     0.344 HD
ATOM      6  H   UNL     1      16.827   0.621 -27.349  1.00  0.00     0.344 HD
ATOM      7  H   UNL     1      18.131   1.555 -27.920  1.00  0.00     0.344 HD
ENDBRANCH   3   4
ENDBRANCH   2   3
ENDBRANCH   1   2
BRANCH   1   8
ATOM      8  C   UNL     1      16.437   0.315 -23.650  1.00  0.00     0.072 C 
BRANCH   8   9
ATOM      9  C   UNL     1      17.840  -0.328 -23.677  1.00  0.00     0.227 C 
BRANCH   9  10
ATOM     10  N   UNL     1      18.288  -0.642 -22.314  1.00  0.00    -0.350 N 
ATOM     11  H   UNL     1      18.750  -1.581 -22.301  1.00  0.00     0.345 HD
ATOM     12  H   UNL     1      17.464  -0.675 -21.668  1.00  0.00     0.345 HD
ATOM     13  H   UNL     1      18.966   0.077 -21.972  1.00  0.00     0.345 HD
ENDBRANCH   9  10
BRANCH   9  14
ATOM     14  C   UNL     1      17.853  -1.573 -24.526  1.00  0.00     0.099 C 
ATOM     15  O   UNL     1      17.234  -2.605 -24.158  1.00  0.00    -0.544 OA
ATOM     16  O   UNL     1      18.542  -1.582 -25.732  1.00  0.00    -0.544 OA
ENDBRANCH   9  14
ENDBRANCH   8   9
ENDBRANCH   1   8
TORSDOF 7
ENDMDL
MODEL 3
REMARK VINA RESULT:    -4.384      1.664      2.045
REMARK INTER + INTRA:          -6.331
REMARK INTER:                  -6.103
REMARK INTRA:                  -0.228
REMARK UNBOUND:                -0.409
REMARK SMILES [NH3+]CCCC[C@@H]([NH3+])C(=O)[O-]
REMARK SMILES IDX 4 1 3 2 2 3 1 4 5 8 6 9 7 10 8 14 9 15 10 16
REMARK H PARENT 1 5 1 6 1 7 7 11 7 12 7 13
REMARK Flexibility Score: inf
ROOT
ATOM      1  C   UNL     1      20.945  -0.460 -15.932  1.00  0.00     0.012 C 
ENDROOT
BRANCH   1   2
ATOM      2  C   UNL     1      20.218  -1.807 -16.081  1.00  0.00     0.061 C 
BRANCH   2   3
ATOM      3  C   UNL     1      19.684  -2.038 -17.504  1.00  0.00     0.258 C 
BRANCH   3   4
ATOM      4  N   UNL     1      19.274  -3.429 -17.686  1.00  0.00    -0.358 N 
ATOM      5  H   UNL     1      18.241  -3.484 -17.838  1.00  0.00     0.344 HD
ATOM      6  H   UNL     1      19.760  -3.822 -18.525  1.00  0.00     0.344 HD
ATOM      7  H   UNL     1      19.538  -3.995 -16.846  1.00  0.00     0.344 HD
ENDBRANCH   3   4
ENDBRANCH   2   3
ENDBRANCH   1   2
BRANCH   1   8
ATOM      8  C   UNL     1      20.185   0.527 -15.029  1.00  0.00     0.072 C 
BRANCH   8   9
ATOM      9  C   UNL     1      19.448   1.613 -15.844  1.00  0.00     0.227 C 
BRANCH   9  10
ATOM     10  N   UNL     1      19.914   1.615 -17.236  1.00  0.00    -0.350 N 
ATOM     11  H   UNL     1      20.554   2.427 -17.394  1.00  0.00     0.345 HD
ATOM     12  H   UNL     1      19.098   1.713 -17.884  1.00  0.00     0.345 HD
ATOM     13  H   UNL     1      20.425   0.729 -17.456  1.00  0.00     0.345 HD
ENDBRANCH   9  10
BRANCH   9  14
ATOM     14  C   UNL     1      17.956   1.411 -15.797  1.00  0.00     0.099 C 
ATOM     15  O   UNL     1      17.428   0.753 -14.861  1.00  0.00    -0.544 OA
ATOM     16  O   UNL     1      17.150   1.963 -16.785  1.00  0.00    -0.544 OA
ENDBRANCH   9  14
ENDBRANCH   8   9
ENDBRANCH   1   8
TORSDOF 7
ENDMDL
MODEL 4
REMARK VINA RESULT:    -4.149      2.065      2.431
REMARK INTER + INTRA:          -6.014
REMARK INTER:                  -5.492
REMARK INTRA:                  -0.523
REMARK UNBOUND:                -0.409
REMARK SMILES [NH3+]CCCC[C@@H]([NH3+])C(=O)[O-]
REMARK SMILES IDX 4 1 3 2 2 3 1 4 5 8 6 9 7 10 8 14 9 15 10 16
REMARK H PARENT 1 5 1 6 1 7 7 11 7 12 7 13
REMARK Flexibility Score: inf
ROOT
ATOM      1  C   UNL     1      20.795  -0.913 -16.155  1.00  0.00     0.012 C 
ENDROOT
BRANCH   1   2
ATOM      2  C   UNL     1      21.310  -1.223 -17.570  1.00  0.00     0.061 C 
BRANCH   2   3
ATOM      3  C   UNL     1      20.273  -1.962 -18.430  1.00  0.00     0.258 C 
BRANCH   3   4
ATOM      4  N   UNL     1      19.714  -1.075 -19.449  1.00  0.00    -0.358 N 
ATOM      5  H   UNL     1      18.678  -1.202 -19.509  1.00  0.00     0.344 HD
ATOM      6  H   UNL     1      19.917  -0.083 -19.188  1.00  0.00     0.344 HD
ATOM      7  H   UNL     1      20.149  -1.277 -20.380  1.00  0.00     0.344 HD
ENDBRANCH   3   4
ENDBRANCH   2   3
ENDBRANCH   1   2
BRANCH   1   8
ATOM      8  C   UNL     1      20.225   0.511 -16.030  1.00  0.00     0.072 C 
BRANCH   8   9
ATOM      9  C   UNL     1      18.685   0.534 -16.146  1.00  0.00     0.227 C 
BRANCH   9  10
ATOM     10  N   UNL     1      18.084   1.016 -14.897  1.00  0.00    -0.350 N 
ATOM     11  H   UNL     1      17.203   0.486 -14.701  1.00  0.00     0.345 HD
ATOM     12  H   UNL     1      17.839   2.030 -14.988  1.00  0.00     0.345 HD
ATOM     13  H   UNL     1      18.743   0.891 -14.096  1.00  0.00     0.345 HD
ENDBRANCH   9  10
BRANCH   9  14
ATOM     14  C   UNL     1      18.239   1.393 -17.302  1.00  0.00     0.099 C 
ATOM     15  O   UNL     1      18.998   1.582 -18.289  1.00  0.00    -0.544 OA
ATOM     16  O   UNL     1      16.977   1.972 -17.288  1.00  0.00    -0.544 OA
ENDBRANCH   9  14
ENDBRANCH   8   9
ENDBRANCH   1   8
TORSDOF 7
ENDMDL
MODEL 5
REMARK VINA RESULT:    -4.129      8.495      9.027
REMARK INTER + INTRA:          -5.987
REMARK INTER:                  -5.470
REMARK INTRA:                  -0.517
REMARK UNBOUND:                -0.409
REMARK SMILES [NH3+]CCCC[C@@H]([NH3+])C(=O)[O-]
REMARK SMILES IDX 4 1 3 2 2 3 1 4 5 8 6 9 7 10 8 14 9 15 10 16
REMARK H PARENT 1 5 1 6 1 7 7 11 7 12 7 13
REMARK Flexibility Score: inf
ROOT
ATOM      1  C   UNL     1      16.763   1.484 -23.967  1.00  0.00     0.012 C 
ENDROOT
BRANCH   1   2
ATOM      2  C   UNL     1      16.705   0.226 -23.084  1.00  0.00     0.061 C 
BRANCH   2   3
ATOM      3  C   UNL     1      18.030  -0.553 -23.075  1.00  0.00     0.258 C 
BRANCH   3   4
ATOM      4  N   UNL     1      17.926  -1.767 -23.883  1.00  0.00    -0.358 N 
ATOM      5  H   UNL     1      18.870  -2.047 -24.236  1.00  0.00     0.344 HD
ATOM      6  H   UNL     1      17.545  -2.541 -23.292  1.00  0.00     0.344 HD
ATOM      7  H   UNL     1      17.279  -1.607 -24.690  1.00  0.00     0.344 HD
ENDBRANCH   3   4
ENDBRANCH   2   3
ENDBRANCH   1   2
BRANCH   1   8
ATOM      8  C   UNL     1      15.894   1.360 -25.232  1.00  0.00     0.072 C 
BRANCH   8   9
ATOM      9  C   UNL     1      16.722   1.523 -26.525  1.00  0.00     0.227 C 
BRANCH   9  10
ATOM     10  N   UNL     1      17.314   2.864 -26.591  1.00  0.00    -0.350 N 
ATOM     11  H   UNL     1      17.491   3.125 -27.589  1.00  0.00     0.345 HD
ATOM     12  H   UNL     1      18.231   2.874 -26.085  1.00  0.00     0.345 HD
ATOM     13  H   UNL     1      16.676   3.572 -26.161  1.00  0.00     0.345 HD
ENDBRANCH   9  10
BRANCH   9  14
ATOM     14  C   UNL     1      17.802   0.475 -26.616  1.00  0.00     0.099 C 
ATOM     15  O   UNL     1      17.507  -0.731 -26.828  1.00  0.00    -0.544 OA
ATOM     16  O   UNL     1      19.135   0.839 -26.478  1.00  0.00    -0.544 OA
ENDBRANCH   9  14
ENDBRANCH   8   9
ENDBRANCH   1   8
TORSDOF 7
ENDMDL
MODEL 6
REMARK VINA RESULT:    -3.907     15.775     17.581
REMARK INTER + INTRA:          -5.686
REMARK INTER:                  -5.284
REMARK INTRA:                  -0.403
REMARK UNBOUND:                -0.409
REMARK SMILES [NH3+]CCCC[C@@H]([NH3+])C(=O)[O-]
REMARK SMILES IDX 4 1 3 2 2 3 1 4 5 8 6 9 7 10 8 14 9 15 10 16
REMARK H PARENT 1 5 1 6 1 7 7 11 7 12 7 13
REMARK Flexibility Score: inf
ROOT
ATOM      1  C   UNL     1      26.530 -11.798 -26.846  1.00  0.00     0.012 C 
ENDROOT
BRANCH   1   2
ATOM      2  C   UNL     1      26.582 -10.926 -25.581  1.00  0.00     0.061 C 
BRANCH   2   3
ATOM      3  C   UNL     1      25.573 -11.371 -24.511  1.00  0.00     0.258 C 
BRANCH   3   4
ATOM      4  N   UNL     1      26.242 -12.097 -23.434  1.00  0.00    -0.358 N 
ATOM      5  H   UNL     1      25.810 -11.856 -22.513  1.00  0.00     0.344 HD
ATOM      6  H   UNL     1      26.138 -13.125 -23.597  1.00  0.00     0.344 HD
ATOM      7  H   UNL     1      27.262 -11.859 -23.419  1.00  0.00     0.344 HD
ENDBRANCH   3   4
ENDBRANCH   2   3
ENDBRANCH   1   2
BRANCH   1   8
ATOM      8  C   UNL     1      26.887 -13.269 -26.567  1.00  0.00     0.072 C 
BRANCH   8   9
ATOM      9  C   UNL     1      25.755 -14.233 -26.985  1.00  0.00     0.227 C 
BRANCH   9  10
ATOM     10  N   UNL     1      26.270 -15.269 -27.888  1.00  0.00    -0.350 N 
ATOM     11  H   UNL     1      26.695 -14.822 -28.734  1.00  0.00     0.345 HD
ATOM     12  H   UNL     1      25.486 -15.886 -28.206  1.00  0.00     0.345 HD
ATOM     13  H   UNL     1      26.994 -15.851 -27.409  1.00  0.00     0.345 HD
ENDBRANCH   9  10
BRANCH   9  14
ATOM     14  C   UNL     1      25.109 -14.869 -25.781  1.00  0.00     0.099 C 
ATOM     15  O   UNL     1      23.951 -15.358 -25.860  1.00  0.00    -0.544 OA
ATOM     16  O   UNL     1      25.798 -14.930 -24.576  1.00  0.00    -0.544 OA
ENDBRANCH   9  14
ENDBRANCH   8   9
ENDBRANCH   1   8
TORSDOF 7
ENDMDL
MODEL 7
REMARK VINA RESULT:    -3.892      8.299      8.896
REMARK INTER + INTRA:          -5.666
REMARK INTER:                  -5.147
REMARK INTRA:                  -0.519
REMARK UNBOUND:                -0.409
REMARK SMILES [NH3+]CCCC[C@@H]([NH3+])C(=O)[O-]
REMARK SMILES IDX 4 1 3 2 2 3 1 4 5 8 6 9 7 10 8 14 9 15 10 16
REMARK H PARENT 1 5 1 6 1 7 7 11 7 12 7 13
REMARK Flexibility Score: inf
ROOT
ATOM      1  C   UNL     1      16.850   2.336 -25.338  1.00  0.00     0.012 C 
ENDROOT
BRANCH   1   2
ATOM      2  C   UNL     1      18.228   3.017 -25.353  1.00  0.00     0.061 C 
BRANCH   2   3
ATOM      3  C   UNL     1      19.385   2.019 -25.190  1.00  0.00     0.258 C 
BRANCH   3   4
ATOM      4  N   UNL     1      19.539   1.200 -26.391  1.00  0.00    -0.358 N 
ATOM      5  H   UNL     1      20.496   0.779 -26.420  1.00  0.00     0.344 HD
ATOM      6  H   UNL     1      18.833   0.430 -26.374  1.00  0.00     0.344 HD
ATOM      7  H   UNL     1      19.383   1.784 -27.246  1.00  0.00     0.344 HD
ENDBRANCH   3   4
ENDBRANCH   2   3
ENDBRANCH   1   2
BRANCH   1   8
ATOM      8  C   UNL     1      16.647   1.436 -24.107  1.00  0.00     0.072 C 
BRANCH   8   9
ATOM      9  C   UNL     1      16.048   0.062 -24.481  1.00  0.00     0.227 C 
BRANCH   9  10
ATOM     10  N   UNL     1      15.281   0.160 -25.729  1.00  0.00    -0.350 N 
ATOM     11  H   UNL     1      15.101  -0.798 -26.110  1.00  0.00     0.345 HD
ATOM     12  H   UNL     1      15.829   0.695 -26.443  1.00  0.00     0.345 HD
ATOM     13  H   UNL     1      14.366   0.640 -25.565  1.00  0.00     0.345 HD
ENDBRANCH   9  10
BRANCH   9  14
ATOM     14  C   UNL     1      17.125  -0.983 -24.616  1.00  0.00     0.099 C 
ATOM     15  O   UNL     1      17.419  -1.727 -23.643  1.00  0.00    -0.544 OA
ATOM     16  O   UNL     1      17.793  -1.140 -25.824  1.00  0.00    -0.544 OA
ENDBRANCH   9  14
ENDBRANCH   8   9
ENDBRANCH   1   8
TORSDOF 7
ENDMDL
MODEL 8
REMARK VINA RESULT:    -3.812      7.428      8.196
REMARK INTER + INTRA:          -5.558
REMARK INTER:                  -5.054
REMARK INTRA:                  -0.504
REMARK UNBOUND:                -0.409
REMARK SMILES [NH3+]CCCC[C@@H]([NH3+])C(=O)[O-]
REMARK SMILES IDX 4 1 3 2 2 3 1 4 5 8 6 9 7 10 8 14 9 15 10 16
REMARK H PARENT 1 5 1 6 1 7 7 11 7 12 7 13
REMARK Flexibility Score: inf
ROOT
ATOM      1  C   UNL     1      16.349   0.234 -23.848  1.00  0.00     0.012 C 
ENDROOT
BRANCH   1   2
ATOM      2  C   UNL     1      16.044   0.640 -25.299  1.00  0.00     0.061 C 
BRANCH   2   3
ATOM      3  C   UNL     1      16.049   2.163 -25.503  1.00  0.00     0.258 C 
BRANCH   3   4
ATOM      4  N   UNL     1      17.008   2.547 -26.537  1.00  0.00    -0.358 N 
ATOM      5  H   UNL     1      16.720   3.449 -26.980  1.00  0.00     0.344 HD
ATOM      6  H   UNL     1      17.951   2.672 -26.100  1.00  0.00     0.344 HD
ATOM      7  H   UNL     1      17.070   1.798 -27.266  1.00  0.00     0.344 HD
ENDBRANCH   3   4
ENDBRANCH   2   3
ENDBRANCH   1   2
BRANCH   1   8
ATOM      8  C   UNL     1      17.133   1.315 -23.083  1.00  0.00     0.072 C 
BRANCH   8   9
ATOM      9  C   UNL     1      18.529   0.822 -22.644  1.00  0.00     0.227 C 
BRANCH   9  10
ATOM     10  N   UNL     1      18.452  -0.552 -22.135  1.00  0.00    -0.350 N 
ATOM     11  H   UNL     1      18.285  -0.538 -21.102  1.00  0.00     0.345 HD
ATOM     12  H   UNL     1      19.357  -1.048 -22.311  1.00  0.00     0.345 HD
ATOM     13  H   UNL     1      17.676  -1.076 -22.599  1.00  0.00     0.345 HD
ENDBRANCH   9  10
BRANCH   9  14
ATOM     14  C   UNL     1      19.516   0.899 -23.782  1.00  0.00     0.099 C 
ATOM     15  O   UNL     1      19.429   1.813 -24.644  1.00  0.00    -0.544 OA
ATOM     16  O   UNL     1      20.538  -0.037 -23.877  1.00  0.00    -0.544 OA
ENDBRANCH   9  14
ENDBRANCH   8   9
ENDBRANCH   1   8
TORSDOF 7
ENDMDL
