MODEL 1
REMARK VINA RESULT:    -6.419      0.000      0.000
REMARK INTER + INTRA:         -10.562
REMARK INTER:                  -9.983
REMARK INTRA:                  -0.579
REMARK UNBOUND:                -0.579
REMARK SMILES COc1cc(CNC(=O)CCCCC=CC(C)C)ccc1O
REMARK SMILES IDX 11 1 12 2 13 3 14 4 15 5 16 6 17 7 18 8 10 9 8 10 9 11 7 12
REMARK SMILES IDX 6 14 5 15 4 16 19 17 3 18 20 19 21 20 2 21 1 22 22 23
REMARK H PARENT 7 13 22 24
REMARK Flexibility Score: inf
ROOT
ATOM      1  C   UNL     1      10.547  13.540 -21.223  1.00  0.00     0.010 C 
ENDROOT
BRANCH   1   2
ATOM      2  C   UNL     1       9.916  14.315 -22.394  1.00  0.00     0.005 C 
BRANCH   2   3
ATOM      3  C   UNL     1       8.838  13.493 -23.116  1.00  0.00     0.027 C 
BRANCH   3   4
ATOM      4  C   UNL     1       8.862  13.708 -24.605  1.00  0.00    -0.031 C 
ATOM      5  C   UNL     1       9.340  12.773 -25.443  1.00  0.00    -0.028 C 
BRANCH   5   6
ATOM      6  C   UNL     1       9.409  12.976 -26.940  1.00  0.00     0.005 C 
ATOM      7  C   UNL     1      10.807  12.648 -27.478  1.00  0.00     0.012 C 
ATOM      8  C   UNL     1       8.977  14.392 -27.338  1.00  0.00     0.012 C 
ENDBRANCH   5   6
ENDBRANCH   3   4
ENDBRANCH   2   3
ENDBRANCH   1   2
BRANCH   1   9
ATOM      9  C   UNL     1       9.501  13.096 -20.191  1.00  0.00     0.100 C 
BRANCH   9  10
ATOM     10  C   UNL     1       9.894  11.810 -19.525  1.00  0.00     0.220 C 
ATOM     11  O   UNL     1      10.913  11.782 -18.780  1.00  0.00    -0.275 OA
ATOM     12  N   UNL     1       9.092  10.634 -19.697  1.00  0.00    -0.352 N 
ATOM     13  H   UNL     1       8.261  10.684 -20.332  1.00  0.00     0.163 HD
BRANCH  12  14
ATOM     14  C   UNL     1       9.380   9.399 -18.969  1.00  0.00     0.151 C 
BRANCH  14  15
ATOM     15  C   UNL     1       8.287   9.106 -17.977  1.00  0.00    -0.025 A 
ATOM     16  C   UNL     1       7.832   7.790 -17.803  1.00  0.00     0.056 A 
ATOM     17  C   UNL     1       7.767  10.128 -17.171  1.00  0.00     0.009 A 
ATOM     18  C   UNL     1       6.843   7.495 -16.844  1.00  0.00     0.160 A 
ATOM     19  C   UNL     1       6.782   9.843 -16.222  1.00  0.00     0.050 A 
ATOM     20  C   UNL     1       6.319   8.531 -16.057  1.00  0.00     0.157 A 
BRANCH  18  21
ATOM     21  O   UNL     1       6.363   6.192 -16.640  1.00  0.00    -0.493 OA
ATOM     22  C   UNL     1       6.909   5.028 -17.253  1.00  0.00     0.278 C 
ENDBRANCH  18  21
BRANCH  20  23
ATOM     23  O   UNL     1       5.341   8.246 -15.106  1.00  0.00    -0.504 OA
ATOM     24  H   UNL     1       4.359   8.193 -15.353  1.00  0.00     0.293 HD
ENDBRANCH  20  23
ENDBRANCH  14  15
ENDBRANCH  12  14
ENDBRANCH   9  10
ENDBRANCH   1   9
TORSDOF 10
ENDMDL
MODEL 2
REMARK VINA RESULT:    -6.344      2.734      8.799
REMARK INTER + INTRA:         -10.446
REMARK INTER:                  -9.610
REMARK INTRA:                  -0.836
REMARK UNBOUND:                -0.579
REMARK SMILES COc1cc(CNC(=O)CCCCC=CC(C)C)ccc1O
REMARK SMILES IDX 11 1 12 2 13 3 14 4 15 5 16 6 17 7 18 8 10 9 8 10 9 11 7 12
REMARK SMILES IDX 6 14 5 15 4 16 19 17 3 18 20 19 21 20 2 21 1 22 22 23
REMARK H PARENT 7 13 22 24
REMARK Flexibility Score: inf
ROOT
ATOM      1  C   UNL     1       5.812   7.605 -16.560  1.00  0.00     0.010 C 
ENDROOT
BRANCH   1   2
ATOM      2  C   UNL     1       6.782   6.519 -16.058  1.00  0.00     0.005 C 
BRANCH   2   3
ATOM      3  C   UNL     1       7.613   5.916 -17.199  1.00  0.00     0.027 C 
BRANCH   3   4
ATOM      4  C   UNL     1       7.130   4.546 -17.592  1.00  0.00    -0.031 C 
ATOM      5  C   UNL     1       5.848   4.322 -17.926  1.00  0.00    -0.028 C 
BRANCH   5   6
ATOM      6  C   UNL     1       5.327   2.951 -18.290  1.00  0.00     0.005 C 
ATOM      7  C   UNL     1       6.352   1.862 -17.950  1.00  0.00     0.012 C 
ATOM      8  C   UNL     1       4.906   2.879 -19.763  1.00  0.00     0.012 C 
ENDBRANCH   5   6
ENDBRANCH   3   4
ENDBRANCH   2   3
ENDBRANCH   1   2
BRANCH   1   9
ATOM      9  C   UNL     1       6.108   8.978 -15.941  1.00  0.00     0.100 C 
BRANCH   9  10
ATOM     10  C   UNL     1       6.618   9.948 -16.966  1.00  0.00     0.220 C 
ATOM     11  O   UNL     1       5.806  10.719 -17.549  1.00  0.00    -0.275 OA
ATOM     12  N   UNL     1       8.021  10.030 -17.247  1.00  0.00    -0.352 N 
ATOM     13  H   UNL     1       8.669   9.369 -16.758  1.00  0.00     0.163 HD
BRANCH  12  14
ATOM     14  C   UNL     1       8.562  11.044 -18.151  1.00  0.00     0.151 C 
BRANCH  14  15
ATOM     15  C   UNL     1       8.758  10.470 -19.529  1.00  0.00    -0.025 A 
ATOM     16  C   UNL     1       8.840  11.325 -20.639  1.00  0.00     0.056 A 
ATOM     17  C   UNL     1       8.929   9.091 -19.705  1.00  0.00     0.009 A 
ATOM     18  C   UNL     1       9.071  10.804 -21.928  1.00  0.00     0.160 A 
ATOM     19  C   UNL     1       9.152   8.567 -20.981  1.00  0.00     0.050 A 
ATOM     20  C   UNL     1       9.223   9.419 -22.092  1.00  0.00     0.157 A 
BRANCH  18  21
ATOM     21  O   UNL     1       9.162  11.626 -23.062  1.00  0.00    -0.493 OA
ATOM     22  C   UNL     1       8.075  11.917 -23.935  1.00  0.00     0.278 C 
ENDBRANCH  18  21
BRANCH  20  23
ATOM     23  O   UNL     1       9.452   8.897 -23.363  1.00  0.00    -0.504 OA
ATOM     24  H   UNL     1       8.959   8.077 -23.697  1.00  0.00     0.293 HD
ENDBRANCH  20  23
ENDBRANCH  14  15
ENDBRANCH  12  14
ENDBRANCH   9  10
ENDBRANCH   1   9
TORSDOF 10
ENDMDL
MODEL 3
REMARK VINA RESULT:    -6.344      2.551      3.605
REMARK INTER + INTRA:         -10.446
REMARK INTER:                  -9.829
REMARK INTRA:                  -0.617
REMARK UNBOUND:                -0.579
REMARK SMILES COc1cc(CNC(=O)CCCCC=CC(C)C)ccc1O
REMARK SMILES IDX 11 1 12 2 13 3 14 4 15 5 16 6 17 7 18 8 10 9 8 10 9 11 7 12
REMARK SMILES IDX 6 14 5 15 4 16 19 17 3 18 20 19 21 20 2 21 1 22 22 23
REMARK H PARENT 7 13 22 24
REMARK Flexibility Score: inf
ROOT
ATOM      1  C   UNL     1      10.204  12.077 -20.041  1.00  0.00     0.010 C 
ENDROOT
BRANCH   1   2
ATOM      2  C   UNL     1      10.817  13.271 -20.795  1.00  0.00     0.005 C 
BRANCH   2   3
ATOM      3  C   UNL     1      10.095  13.550 -22.120  1.00  0.00     0.027 C 
BRANCH   3   4
ATOM      4  C   UNL     1       9.791  15.012 -22.306  1.00  0.00    -0.031 C 
ATOM      5  C   UNL     1       8.528  15.467 -22.353  1.00  0.00    -0.028 C 
BRANCH   5   6
ATOM      6  C   UNL     1       8.193  16.925 -22.573  1.00  0.00     0.005 C 
ATOM      7  C   UNL     1       9.246  17.837 -21.932  1.00  0.00     0.012 C 
ATOM      8  C   UNL     1       6.784  17.263 -22.070  1.00  0.00     0.012 C 
ENDBRANCH   5   6
ENDBRANCH   3   4
ENDBRANCH   2   3
ENDBRANCH   1   2
BRANCH   1   9
ATOM      9  C   UNL     1       9.896  12.412 -18.575  1.00  0.00     0.100 C 
BRANCH   9  10
ATOM     10  C   UNL     1       8.502  12.005 -18.197  1.00  0.00     0.220 C 
ATOM     11  O   UNL     1       7.556  12.202 -19.009  1.00  0.00    -0.275 OA
ATOM     12  N   UNL     1       8.255  11.357 -16.942  1.00  0.00    -0.352 N 
ATOM     13  H   UNL     1       9.056  11.219 -16.284  1.00  0.00     0.163 HD
BRANCH  12  14
ATOM     14  C   UNL     1       6.931  10.842 -16.596  1.00  0.00     0.151 C 
BRANCH  14  15
ATOM     15  C   UNL     1       6.942   9.338 -16.561  1.00  0.00    -0.025 A 
ATOM     16  C   UNL     1       6.130   8.651 -15.646  1.00  0.00     0.056 A 
ATOM     17  C   UNL     1       7.707   8.613 -17.485  1.00  0.00     0.009 A 
ATOM     18  C   UNL     1       6.096   7.242 -15.635  1.00  0.00     0.160 A 
ATOM     19  C   UNL     1       7.682   7.216 -17.477  1.00  0.00     0.050 A 
ATOM     20  C   UNL     1       6.880   6.530 -16.555  1.00  0.00     0.157 A 
BRANCH  18  21
ATOM     21  O   UNL     1       5.295   6.520 -14.737  1.00  0.00    -0.493 OA
ATOM     22  C   UNL     1       4.875   7.002 -13.465  1.00  0.00     0.278 C 
ENDBRANCH  18  21
BRANCH  20  23
ATOM     23  O   UNL     1       6.851   5.137 -16.550  1.00  0.00    -0.504 OA
ATOM     24  H   UNL     1       5.997   4.623 -16.736  1.00  0.00     0.293 HD
ENDBRANCH  20  23
ENDBRANCH  14  15
ENDBRANCH  12  14
ENDBRANCH   9  10
ENDBRANCH   1   9
TORSDOF 10
ENDMDL
MODEL 4
REMARK VINA RESULT:    -6.321      2.767      9.006
REMARK INTER + INTRA:         -10.410
REMARK INTER:                  -9.753
REMARK INTRA:                  -0.658
REMARK UNBOUND:                -0.579
REMARK SMILES COc1cc(CNC(=O)CCCCC=CC(C)C)ccc1O
REMARK SMILES IDX 11 1 12 2 13 3 14 4 15 5 16 6 17 7 18 8 10 9 8 10 9 11 7 12
REMARK SMILES IDX 6 14 5 15 4 16 19 17 3 18 20 19 21 20 2 21 1 22 22 23
REMARK H PARENT 7 13 22 24
REMARK Flexibility Score: inf
ROOT
ATOM      1  C   UNL     1       9.453   7.746 -18.802  1.00  0.00     0.010 C 
ENDROOT
BRANCH   1   2
ATOM      2  C   UNL     1       9.221   6.469 -17.974  1.00  0.00     0.005 C 
BRANCH   2   3
ATOM      3  C   UNL     1       8.123   6.657 -16.917  1.00  0.00     0.027 C 
BRANCH   3   4
ATOM      4  C   UNL     1       6.938   5.762 -17.164  1.00  0.00    -0.031 C 
ATOM      5  C   UNL     1       7.089   4.493 -17.578  1.00  0.00    -0.028 C 
BRANCH   5   6
ATOM      6  C   UNL     1       5.917   3.583 -17.868  1.00  0.00     0.005 C 
ATOM      7  C   UNL     1       6.360   2.117 -17.938  1.00  0.00     0.012 C 
ATOM      8  C   UNL     1       5.178   4.003 -19.144  1.00  0.00     0.012 C 
ENDBRANCH   5   6
ENDBRANCH   3   4
ENDBRANCH   2   3
ENDBRANCH   1   2
BRANCH   1   9
ATOM      9  C   UNL     1       9.731   7.436 -20.280  1.00  0.00     0.100 C 
BRANCH   9  10
ATOM     10  C   UNL     1       8.843   8.235 -21.189  1.00  0.00     0.220 C 
ATOM     11  O   UNL     1       7.635   8.417 -20.873  1.00  0.00    -0.275 OA
ATOM     12  N   UNL     1       9.376   8.824 -22.382  1.00  0.00    -0.352 N 
ATOM     13  H   UNL     1      10.378   8.644 -22.625  1.00  0.00     0.163 HD
BRANCH  12  14
ATOM     14  C   UNL     1       8.569   9.704 -23.225  1.00  0.00     0.151 C 
BRANCH  14  15
ATOM     15  C   UNL     1       8.965  11.141 -23.018  1.00  0.00    -0.025 A 
ATOM     16  C   UNL     1       9.401  11.573 -21.755  1.00  0.00     0.056 A 
ATOM     17  C   UNL     1       8.969  12.038 -24.094  1.00  0.00     0.009 A 
ATOM     18  C   UNL     1       9.819  12.905 -21.560  1.00  0.00     0.160 A 
ATOM     19  C   UNL     1       9.378  13.361 -23.905  1.00  0.00     0.050 A 
ATOM     20  C   UNL     1       9.802  13.796 -22.643  1.00  0.00     0.157 A 
BRANCH  18  21
ATOM     21  O   UNL     1      10.264  13.374 -20.314  1.00  0.00    -0.493 OA
ATOM     22  C   UNL     1      10.953  12.580 -19.354  1.00  0.00     0.278 C 
ENDBRANCH  18  21
BRANCH  20  23
ATOM     23  O   UNL     1      10.215  15.114 -22.456  1.00  0.00    -0.504 OA
ATOM     24  H   UNL     1       9.866  15.867 -23.038  1.00  0.00     0.293 HD
ENDBRANCH  20  23
ENDBRANCH  14  15
ENDBRANCH  12  14
ENDBRANCH   9  10
ENDBRANCH   1   9
TORSDOF 10
ENDMDL
MODEL 5
REMARK VINA RESULT:    -6.320      2.861      4.420
REMARK INTER + INTRA:         -10.409
REMARK INTER:                  -8.918
REMARK INTRA:                  -1.491
REMARK UNBOUND:                -0.579
REMARK SMILES COc1cc(CNC(=O)CCCCC=CC(C)C)ccc1O
REMARK SMILES IDX 11 1 12 2 13 3 14 4 15 5 16 6 17 7 18 8 10 9 8 10 9 11 7 12
REMARK SMILES IDX 6 14 5 15 4 16 19 17 3 18 20 19 21 20 2 21 1 22 22 23
REMARK H PARENT 7 13 22 24
REMARK Flexibility Score: inf
ROOT
ATOM      1  C   UNL     1       7.500  17.157 -22.350  1.00  0.00     0.010 C 
ENDROOT
BRANCH   1   2
ATOM      2  C   UNL     1       9.023  17.206 -22.129  1.00  0.00     0.005 C 
BRANCH   2   3
ATOM      3  C   UNL     1       9.658  15.809 -22.169  1.00  0.00     0.027 C 
BRANCH   3   4
ATOM      4  C   UNL     1       8.932  14.882 -23.106  1.00  0.00    -0.031 C 
ATOM      5  C   UNL     1       9.513  13.768 -23.583  1.00  0.00    -0.028 C 
BRANCH   5   6
ATOM      6  C   UNL     1       8.821  12.838 -24.553  1.00  0.00     0.005 C 
ATOM      7  C   UNL     1       8.857  11.389 -24.051  1.00  0.00     0.012 C 
ATOM      8  C   UNL     1       9.410  12.953 -25.964  1.00  0.00     0.012 C 
ENDBRANCH   5   6
ENDBRANCH   3   4
ENDBRANCH   2   3
ENDBRANCH   1   2
BRANCH   1   9
ATOM      9  C   UNL     1       6.724  17.075 -21.028  1.00  0.00     0.100 C 
BRANCH   9  10
ATOM     10  C   UNL     1       6.237  15.681 -20.759  1.00  0.00     0.220 C 
ATOM     11  O   UNL     1       5.360  15.174 -21.512  1.00  0.00    -0.275 OA
ATOM     12  N   UNL     1       6.797  14.916 -19.684  1.00  0.00    -0.352 N 
ATOM     13  H   UNL     1       7.512  15.368 -19.068  1.00  0.00     0.163 HD
BRANCH  12  14
ATOM     14  C   UNL     1       6.430  13.517 -19.469  1.00  0.00     0.151 C 
BRANCH  14  15
ATOM     15  C   UNL     1       7.662  12.666 -19.319  1.00  0.00    -0.025 A 
ATOM     16  C   UNL     1       7.583  11.426 -18.666  1.00  0.00     0.056 A 
ATOM     17  C   UNL     1       8.877  13.070 -19.888  1.00  0.00     0.009 A 
ATOM     18  C   UNL     1       8.719  10.599 -18.560  1.00  0.00     0.160 A 
ATOM     19  C   UNL     1      10.008  12.258 -19.781  1.00  0.00     0.050 A 
ATOM     20  C   UNL     1       9.933  11.025 -19.119  1.00  0.00     0.157 A 
BRANCH  18  21
ATOM     21  O   UNL     1       8.679   9.352 -17.916  1.00  0.00    -0.493 OA
ATOM     22  C   UNL     1       7.795   8.292 -18.268  1.00  0.00     0.278 C 
ENDBRANCH  18  21
BRANCH  20  23
ATOM     23  O   UNL     1      11.060  10.212 -19.018  1.00  0.00    -0.504 OA
ATOM     24  H   UNL     1      10.982   9.217 -18.838  1.00  0.00     0.293 HD
ENDBRANCH  20  23
ENDBRANCH  14  15
ENDBRANCH  12  14
ENDBRANCH   9  10
ENDBRANCH   1   9
TORSDOF 10
ENDMDL
MODEL 6
REMARK VINA RESULT:    -6.314      2.767      3.699
REMARK INTER + INTRA:         -10.400
REMARK INTER:                  -9.785
REMARK INTRA:                  -0.614
REMARK UNBOUND:                -0.579
REMARK SMILES COc1cc(CNC(=O)CCCCC=CC(C)C)ccc1O
REMARK SMILES IDX 11 1 12 2 13 3 14 4 15 5 16 6 17 7 18 8 10 9 8 10 9 11 7 12
REMARK SMILES IDX 6 14 5 15 4 16 19 17 3 18 20 19 21 20 2 21 1 22 22 23
REMARK H PARENT 7 13 22 24
REMARK Flexibility Score: inf
ROOT
ATOM      1  C   UNL     1      10.264  12.161 -19.876  1.00  0.00     0.010 C 
ENDROOT
BRANCH   1   2
ATOM      2  C   UNL     1      10.759  13.418 -20.615  1.00  0.00     0.005 C 
BRANCH   2   3
ATOM      3  C   UNL     1       9.953  13.692 -21.893  1.00  0.00     0.027 C 
BRANCH   3   4
ATOM      4  C   UNL     1       9.706  15.161 -22.104  1.00  0.00    -0.031 C 
ATOM      5  C   UNL     1       8.463  15.653 -22.236  1.00  0.00    -0.028 C 
BRANCH   5   6
ATOM      6  C   UNL     1       8.187  17.119 -22.484  1.00  0.00     0.005 C 
ATOM      7  C   UNL     1       9.358  17.989 -22.012  1.00  0.00     0.012 C 
ATOM      8  C   UNL     1       6.869  17.562 -21.838  1.00  0.00     0.012 C 
ENDBRANCH   5   6
ENDBRANCH   3   4
ENDBRANCH   2   3
ENDBRANCH   1   2
BRANCH   1   9
ATOM      9  C   UNL     1       9.865  12.460 -18.425  1.00  0.00     0.100 C 
BRANCH   9  10
ATOM     10  C   UNL     1       8.496  11.933 -18.108  1.00  0.00     0.220 C 
ATOM     11  O   UNL     1       7.573  12.050 -18.961  1.00  0.00    -0.275 OA
ATOM     12  N   UNL     1       8.252  11.260 -16.866  1.00  0.00    -0.352 N 
ATOM     13  H   UNL     1       9.033  11.190 -16.173  1.00  0.00     0.163 HD
BRANCH  12  14
ATOM     14  C   UNL     1       6.964  10.631 -16.578  1.00  0.00     0.151 C 
BRANCH  14  15
ATOM     15  C   UNL     1       7.074   9.134 -16.679  1.00  0.00    -0.025 A 
ATOM     16  C   UNL     1       7.971   8.557 -17.591  1.00  0.00     0.056 A 
ATOM     17  C   UNL     1       6.338   8.308 -15.819  1.00  0.00     0.009 A 
ATOM     18  C   UNL     1       8.118   7.157 -17.663  1.00  0.00     0.160 A 
ATOM     19  C   UNL     1       6.475   6.920 -15.889  1.00  0.00     0.050 A 
ATOM     20  C   UNL     1       7.361   6.342 -16.808  1.00  0.00     0.157 A 
BRANCH  18  21
ATOM     21  O   UNL     1       9.006   6.543 -18.560  1.00  0.00    -0.493 OA
ATOM     22  C   UNL     1      10.244   7.106 -18.980  1.00  0.00     0.278 C 
ENDBRANCH  18  21
BRANCH  20  23
ATOM     23  O   UNL     1       7.502   4.958 -16.873  1.00  0.00    -0.504 OA
ATOM     24  H   UNL     1       6.825   4.378 -17.355  1.00  0.00     0.293 HD
ENDBRANCH  20  23
ENDBRANCH  14  15
ENDBRANCH  12  14
ENDBRANCH   9  10
ENDBRANCH   1   9
TORSDOF 10
ENDMDL
MODEL 7
REMARK VINA RESULT:    -6.311      2.030      3.140
REMARK INTER + INTRA:         -10.395
REMARK INTER:                  -9.772
REMARK INTRA:                  -0.623
REMARK UNBOUND:                -0.579
REMARK SMILES COc1cc(CNC(=O)CCCCC=CC(C)C)ccc1O
REMARK SMILES IDX 11 1 12 2 13 3 14 4 15 5 16 6 17 7 18 8 10 9 8 10 9 11 7 12
REMARK SMILES IDX 6 14 5 15 4 16 19 17 3 18 20 19 21 20 2 21 1 22 22 23
REMARK H PARENT 7 13 22 24
REMARK Flexibility Score: inf
ROOT
ATOM      1  C   UNL     1       9.744  13.474 -20.412  1.00  0.00     0.010 C 
ENDROOT
BRANCH   1   2
ATOM      2  C   UNL     1      10.495  13.841 -21.706  1.00  0.00     0.005 C 
BRANCH   2   3
ATOM      3  C   UNL     1       9.542  14.009 -22.898  1.00  0.00     0.027 C 
BRANCH   3   4
ATOM      4  C   UNL     1       8.681  15.236 -22.769  1.00  0.00    -0.031 C 
ATOM      5  C   UNL     1       9.191  16.414 -22.371  1.00  0.00    -0.028 C 
BRANCH   5   6
ATOM      6  C   UNL     1       8.343  17.654 -22.198  1.00  0.00     0.005 C 
ATOM      7  C   UNL     1       9.086  18.722 -21.386  1.00  0.00     0.012 C 
ATOM      8  C   UNL     1       6.983  17.325 -21.573  1.00  0.00     0.012 C 
ENDBRANCH   5   6
ENDBRANCH   3   4
ENDBRANCH   2   3
ENDBRANCH   1   2
BRANCH   1   9
ATOM      9  C   UNL     1      10.468  12.382 -19.612  1.00  0.00     0.100 C 
BRANCH   9  10
ATOM     10  C   UNL     1       9.805  11.046 -19.775  1.00  0.00     0.220 C 
ATOM     11  O   UNL     1       9.592  10.596 -20.935  1.00  0.00    -0.275 OA
ATOM     12  N   UNL     1       9.459  10.267 -18.623  1.00  0.00    -0.352 N 
ATOM     13  H   UNL     1       9.635  10.672 -17.674  1.00  0.00     0.163 HD
BRANCH  12  14
ATOM     14  C   UNL     1       8.922   8.913 -18.749  1.00  0.00     0.151 C 
BRANCH  14  15
ATOM     15  C   UNL     1       7.870   8.664 -17.702  1.00  0.00    -0.025 A 
ATOM     16  C   UNL     1       7.387   7.363 -17.489  1.00  0.00     0.056 A 
ATOM     17  C   UNL     1       7.417   9.710 -16.888  1.00  0.00     0.009 A 
ATOM     18  C   UNL     1       6.436   7.109 -16.479  1.00  0.00     0.160 A 
ATOM     19  C   UNL     1       6.471   9.466 -15.890  1.00  0.00     0.050 A 
ATOM     20  C   UNL     1       5.979   8.170 -15.684  1.00  0.00     0.157 A 
BRANCH  18  21
ATOM     21  O   UNL     1       5.931   5.823 -16.234  1.00  0.00    -0.493 OA
ATOM     22  C   UNL     1       5.677   4.851 -17.244  1.00  0.00     0.278 C 
ENDBRANCH  18  21
BRANCH  20  23
ATOM     23  O   UNL     1       5.040   7.925 -14.684  1.00  0.00    -0.504 OA
ATOM     24  H   UNL     1       5.312   7.563 -13.777  1.00  0.00     0.293 HD
ENDBRANCH  20  23
ENDBRANCH  14  15
ENDBRANCH  12  14
ENDBRANCH   9  10
ENDBRANCH   1   9
TORSDOF 10
ENDMDL
MODEL 8
REMARK VINA RESULT:    -6.293      2.902      9.346
REMARK INTER + INTRA:         -10.368
REMARK INTER:                  -9.635
REMARK INTRA:                  -0.732
REMARK UNBOUND:                -0.579
REMARK SMILES COc1cc(CNC(=O)CCCCC=CC(C)C)ccc1O
REMARK SMILES IDX 11 1 12 2 13 3 14 4 15 5 16 6 17 7 18 8 10 9 8 10 9 11 7 12
REMARK SMILES IDX 6 14 5 15 4 16 19 17 3 18 20 19 21 20 2 21 1 22 22 23
REMARK H PARENT 7 13 22 24
REMARK Flexibility Score: inf
ROOT
ATOM      1  C   UNL     1       9.638   7.606 -18.607  1.00  0.00     0.010 C 
ENDROOT
BRANCH   1   2
ATOM      2  C   UNL     1       9.210   6.399 -17.752  1.00  0.00     0.005 C 
BRANCH   2   3
ATOM      3  C   UNL     1       8.006   6.723 -16.856  1.00  0.00     0.027 C 
BRANCH   3   4
ATOM      4  C   UNL     1       6.868   5.759 -17.064  1.00  0.00    -0.031 C 
ATOM      5  C   UNL     1       7.044   4.590 -17.701  1.00  0.00    -0.028 C 
BRANCH   5   6
ATOM      6  C   UNL     1       5.913   3.620 -17.955  1.00  0.00     0.005 C 
ATOM      7  C   UNL     1       6.395   2.168 -17.843  1.00  0.00     0.012 C 
ATOM      8  C   UNL     1       5.239   3.880 -19.307  1.00  0.00     0.012 C 
ENDBRANCH   5   6
ENDBRANCH   3   4
ENDBRANCH   2   3
ENDBRANCH   1   2
BRANCH   1   9
ATOM      9  C   UNL     1       9.751   7.251 -20.096  1.00  0.00     0.100 C 
BRANCH   9  10
ATOM     10  C   UNL     1       8.777   8.035 -20.926  1.00  0.00     0.220 C 
ATOM     11  O   UNL     1       7.606   8.224 -20.495  1.00  0.00    -0.275 OA
ATOM     12  N   UNL     1       9.188   8.602 -22.177  1.00  0.00    -0.352 N 
ATOM     13  H   UNL     1      10.160   8.416 -22.515  1.00  0.00     0.163 HD
BRANCH  12  14
ATOM     14  C   UNL     1       8.300   9.469 -22.951  1.00  0.00     0.151 C 
BRANCH  14  15
ATOM     15  C   UNL     1       8.802  10.888 -22.932  1.00  0.00    -0.025 A 
ATOM     16  C   UNL     1       8.662  11.696 -24.071  1.00  0.00     0.056 A 
ATOM     17  C   UNL     1       9.345  11.433 -21.761  1.00  0.00     0.009 A 
ATOM     18  C   UNL     1       9.084  13.041 -24.051  1.00  0.00     0.160 A 
ATOM     19  C   UNL     1       9.771  12.763 -21.737  1.00  0.00     0.050 A 
ATOM     20  C   UNL     1       9.643  13.567 -22.877  1.00  0.00     0.157 A 
BRANCH  18  21
ATOM     21  O   UNL     1       8.959  13.881 -25.168  1.00  0.00    -0.493 OA
ATOM     22  C   UNL     1       9.260  13.493 -26.505  1.00  0.00     0.278 C 
ENDBRANCH  18  21
BRANCH  20  23
ATOM     23  O   UNL     1      10.062  14.896 -22.850  1.00  0.00    -0.504 OA
ATOM     24  H   UNL     1      10.618  15.262 -22.087  1.00  0.00     0.293 HD
ENDBRANCH  20  23
ENDBRANCH  14  15
ENDBRANCH  12  14
ENDBRANCH   9  10
ENDBRANCH   1   9
TORSDOF 10
ENDMDL
MODEL 9
REMARK VINA RESULT:    -6.239      2.457      8.866
REMARK INTER + INTRA:         -10.284
REMARK INTER:                  -9.400
REMARK INTRA:                  -0.883
REMARK UNBOUND:                -0.579
REMARK SMILES COc1cc(CNC(=O)CCCCC=CC(C)C)ccc1O
REMARK SMILES IDX 11 1 12 2 13 3 14 4 15 5 16 6 17 7 18 8 10 9 8 10 9 11 7 12
REMARK SMILES IDX 6 14 5 15 4 16 19 17 3 18 20 19 21 20 2 21 1 22 22 23
REMARK H PARENT 7 13 22 24
REMARK Flexibility Score: inf
ROOT
ATOM      1  C   UNL     1       6.024   8.961 -16.780  1.00  0.00     0.010 C 
ENDROOT
BRANCH   1   2
ATOM      2  C   UNL     1       5.922   8.617 -15.282  1.00  0.00     0.005 C 
BRANCH   2   3
ATOM      3  C   UNL     1       5.914   7.102 -15.037  1.00  0.00     0.027 C 
BRANCH   3   4
ATOM      4  C   UNL     1       5.801   6.320 -16.318  1.00  0.00    -0.031 C 
ATOM      5  C   UNL     1       6.813   5.559 -16.769  1.00  0.00    -0.028 C 
BRANCH   5   6
ATOM      6  C   UNL     1       6.741   4.791 -18.069  1.00  0.00     0.005 C 
ATOM      7  C   UNL     1       6.487   5.732 -19.253  1.00  0.00     0.012 C 
ATOM      8  C   UNL     1       5.690   3.676 -18.008  1.00  0.00     0.012 C 
ENDBRANCH   5   6
ENDBRANCH   3   4
ENDBRANCH   2   3
ENDBRANCH   1   2
BRANCH   1   9
ATOM      9  C   UNL     1       6.992  10.123 -17.044  1.00  0.00     0.100 C 
BRANCH   9  10
ATOM     10  C   UNL     1       8.115   9.711 -17.950  1.00  0.00     0.220 C 
ATOM     11  O   UNL     1       8.410   8.488 -18.057  1.00  0.00    -0.275 OA
ATOM     12  N   UNL     1       8.817  10.694 -18.723  1.00  0.00    -0.352 N 
ATOM     13  H   UNL     1       8.560  11.701 -18.602  1.00  0.00     0.163 HD
BRANCH  12  14
ATOM     14  C   UNL     1       9.834  10.313 -19.701  1.00  0.00     0.151 C 
BRANCH  14  15
ATOM     15  C   UNL     1       9.453  10.799 -21.073  1.00  0.00    -0.025 A 
ATOM     16  C   UNL     1       9.482  12.172 -21.364  1.00  0.00     0.056 A 
ATOM     17  C   UNL     1       9.137   9.885 -22.087  1.00  0.00     0.009 A 
ATOM     18  C   UNL     1       9.173  12.637 -22.658  1.00  0.00     0.160 A 
ATOM     19  C   UNL     1       8.824  10.340 -23.371  1.00  0.00     0.050 A 
ATOM     20  C   UNL     1       8.841  11.711 -23.659  1.00  0.00     0.157 A 
BRANCH  18  21
ATOM     21  O   UNL     1       9.193  14.001 -22.988  1.00  0.00    -0.493 OA
ATOM     22  C   UNL     1       9.724  15.024 -22.152  1.00  0.00     0.278 C 
ENDBRANCH  18  21
BRANCH  20  23
ATOM     23  O   UNL     1       8.535  12.164 -24.941  1.00  0.00    -0.504 OA
ATOM     24  H   UNL     1       7.858  11.687 -25.524  1.00  0.00     0.293 HD
ENDBRANCH  20  23
ENDBRANCH  14  15
ENDBRANCH  12  14
ENDBRANCH   9  10
ENDBRANCH   1   9
TORSDOF 10
ENDMDL
