MODEL 1
REMARK VINA RESULT:    -7.272      0.000      0.000
REMARK INTER + INTRA:          -9.307
REMARK INTER:                  -8.972
REMARK INTRA:                  -0.335
REMARK UNBOUND:                -0.335
REMARK SMILES O=c1c(O)c(-c2cc(O)c(O)c(O)c2)oc2cc(O)cc(O)c12
REMARK SMILES IDX 5 1 3 2 2 3 1 4 23 5 21 6 20 7 18 8 17 9 16 10 15 11 6 12
REMARK SMILES IDX 7 13 8 14 14 15 10 16 12 17 9 18 11 20 13 22 4 24 22 26
REMARK SMILES IDX 19 28
REMARK H PARENT 9 19 11 21 13 23 4 25 22 27 19 29
REMARK Flexibility Score: inf
ROOT
ATOM      1  C   UNL     1      16.846  10.676  14.539  1.00  0.00     0.180 A 
ATOM      2  C   UNL     1      15.478  10.992  14.475  1.00  0.00     0.208 A 
ATOM      3  C   UNL     1      15.023  11.848  13.458  1.00  0.00     0.238 A 
ATOM      4  O   UNL     1      13.807  12.170  13.438  1.00  0.00    -0.285 OA
ATOM      5  C   UNL     1      15.939  12.362  12.509  1.00  0.00     0.111 A 
ATOM      6  C   UNL     1      15.582  13.204  11.413  1.00  0.00     0.134 A 
ATOM      7  C   UNL     1      16.589  13.760  10.614  1.00  0.00     0.093 A 
ATOM      8  C   UNL     1      17.931  13.454  10.829  1.00  0.00     0.123 A 
ATOM      9  C   UNL     1      18.287  12.584  11.861  1.00  0.00     0.094 A 
ATOM     10  C   UNL     1      17.309  12.042  12.698  1.00  0.00     0.146 A 
ATOM     11  O   UNL     1      17.690  11.228  13.675  1.00  0.00    -0.452 OA
ENDROOT
BRANCH   1  12
ATOM     12  C   UNL     1      17.396   9.763  15.568  1.00  0.00     0.029 A 
ATOM     13  C   UNL     1      17.672   8.419  15.277  1.00  0.00     0.062 A 
ATOM     14  C   UNL     1      18.214   7.577  16.256  1.00  0.00     0.162 A 
ATOM     15  C   UNL     1      17.703  10.263  16.842  1.00  0.00     0.062 A 
ATOM     16  C   UNL     1      18.498   8.072  17.537  1.00  0.00     0.200 A 
ATOM     17  C   UNL     1      18.243   9.433  17.830  1.00  0.00     0.162 A 
BRANCH  14  18
ATOM     18  O   UNL     1      18.479   6.240  15.962  1.00  0.00    -0.504 OA
ATOM     19  H   UNL     1      18.202   5.825  15.080  1.00  0.00     0.293 HD
ENDBRANCH  14  18
BRANCH  16  20
ATOM     20  O   UNL     1      19.031   7.188  18.480  1.00  0.00    -0.502 OA
ATOM     21  H   UNL     1      18.666   6.264  18.659  1.00  0.00     0.293 HD
ENDBRANCH  16  20
BRANCH  17  22
ATOM     22  O   UNL     1      18.511   9.998  19.079  1.00  0.00    -0.504 OA
ATOM     23  H   UNL     1      17.848  10.547  19.606  1.00  0.00     0.293 HD
ENDBRANCH  17  22
ENDBRANCH   1  12
BRANCH   2  24
ATOM     24  O   UNL     1      14.594  10.491  15.435  1.00  0.00    -0.502 OA
ATOM     25  H   UNL     1      13.832  11.039  15.812  1.00  0.00     0.293 HD
ENDBRANCH   2  24
BRANCH   6  26
ATOM     26  O   UNL     1      14.264  13.501  11.053  1.00  0.00    -0.507 OA
ATOM     27  H   UNL     1      13.794  13.133  10.240  1.00  0.00     0.293 HD
ENDBRANCH   6  26
BRANCH   8  28
ATOM     28  O   UNL     1      18.906  14.013  10.004  1.00  0.00    -0.508 OA
ATOM     29  H   UNL     1      18.732  14.862   9.478  1.00  0.00     0.293 HD
ENDBRANCH   8  28
TORSDOF 7
ENDMDL
MODEL 2
REMARK VINA RESULT:    -7.230     10.415     11.885
REMARK INTER + INTRA:          -9.255
REMARK INTER:                  -8.936
REMARK INTRA:                  -0.319
REMARK UNBOUND:                -0.335
REMARK SMILES O=c1c(O)c(-c2cc(O)c(O)c(O)c2)oc2cc(O)cc(O)c12
REMARK SMILES IDX 5 1 3 2 2 3 1 4 23 5 21 6 20 7 18 8 17 9 16 10 15 11 6 12
REMARK SMILES IDX 7 13 8 14 14 15 10 16 12 17 9 18 11 20 13 22 4 24 22 26
REMARK SMILES IDX 19 28
REMARK H PARENT 9 19 11 21 13 23 4 25 22 27 19 29
REMARK Flexibility Score: inf
ROOT
ATOM      1  C   UNL     1       8.761   2.788  12.741  1.00  0.00     0.180 A 
ATOM      2  C   UNL     1       7.432   3.093  12.403  1.00  0.00     0.208 A 
ATOM      3  C   UNL     1       7.003   4.429  12.464  1.00  0.00     0.238 A 
ATOM      4  O   UNL     1       5.798   4.689  12.213  1.00  0.00    -0.285 OA
ATOM      5  C   UNL     1       7.913   5.444  12.846  1.00  0.00     0.111 A 
ATOM      6  C   UNL     1       7.598   6.835  12.903  1.00  0.00     0.134 A 
ATOM      7  C   UNL     1       8.538   7.735  13.420  1.00  0.00     0.093 A 
ATOM      8  C   UNL     1       9.803   7.306  13.820  1.00  0.00     0.123 A 
ATOM      9  C   UNL     1      10.142   5.956  13.714  1.00  0.00     0.094 A 
ATOM     10  C   UNL     1       9.214   5.028  13.235  1.00  0.00     0.146 A 
ATOM     11  O   UNL     1       9.572   3.753  13.159  1.00  0.00    -0.452 OA
ENDROOT
BRANCH   1  12
ATOM     12  C   UNL     1       9.293   1.406  12.678  1.00  0.00     0.029 A 
ATOM     13  C   UNL     1       9.415   0.618  13.831  1.00  0.00     0.062 A 
ATOM     14  C   UNL     1       9.897  -0.694  13.748  1.00  0.00     0.162 A 
ATOM     15  C   UNL     1       9.627   0.851  11.434  1.00  0.00     0.062 A 
ATOM     16  C   UNL     1      10.253  -1.239  12.506  1.00  0.00     0.200 A 
ATOM     17  C   UNL     1      10.111  -0.457  11.335  1.00  0.00     0.162 A 
BRANCH  14  18
ATOM     18  O   UNL     1      10.022  -1.469  14.900  1.00  0.00    -0.504 OA
ATOM     19  H   UNL     1      10.397  -1.086  15.760  1.00  0.00     0.293 HD
ENDBRANCH  14  18
BRANCH  16  20
ATOM     20  O   UNL     1      10.737  -2.551  12.479  1.00  0.00    -0.502 OA
ATOM     21  H   UNL     1      10.149  -3.370  12.428  1.00  0.00     0.293 HD
ENDBRANCH  16  20
BRANCH  17  22
ATOM     22  O   UNL     1      10.435  -0.937  10.064  1.00  0.00    -0.504 OA
ATOM     23  H   UNL     1       9.766  -1.342   9.425  1.00  0.00     0.293 HD
ENDBRANCH  17  22
ENDBRANCH   1  12
BRANCH   2  24
ATOM     24  O   UNL     1       6.544   2.073  12.050  1.00  0.00    -0.502 OA
ATOM     25  H   UNL     1       6.372   1.810  11.088  1.00  0.00     0.293 HD
ENDBRANCH   2  24
BRANCH   6  26
ATOM     26  O   UNL     1       6.397   7.383  12.443  1.00  0.00    -0.507 OA
ATOM     27  H   UNL     1       5.479   7.044  12.689  1.00  0.00     0.293 HD
ENDBRANCH   6  26
BRANCH   8  28
ATOM     28  O   UNL     1      10.719   8.231  14.316  1.00  0.00    -0.508 OA
ATOM     29  H   UNL     1      10.578   8.692  15.207  1.00  0.00     0.293 HD
ENDBRANCH   8  28
TORSDOF 7
ENDMDL
MODEL 3
REMARK VINA RESULT:    -7.227     11.176     13.819
REMARK INTER + INTRA:          -9.252
REMARK INTER:                  -8.884
REMARK INTRA:                  -0.369
REMARK UNBOUND:                -0.335
REMARK SMILES O=c1c(O)c(-c2cc(O)c(O)c(O)c2)oc2cc(O)cc(O)c12
REMARK SMILES IDX 5 1 3 2 2 3 1 4 23 5 21 6 20 7 18 8 17 9 16 10 15 11 6 12
REMARK SMILES IDX 7 13 8 14 14 15 10 16 12 17 9 18 11 20 13 22 4 24 22 26
REMARK SMILES IDX 19 28
REMARK H PARENT 9 19 11 21 13 23 4 25 22 27 19 29
REMARK Flexibility Score: inf
ROOT
ATOM      1  C   UNL     1       7.483   3.513  12.750  1.00  0.00     0.180 A 
ATOM      2  C   UNL     1       7.112   2.911  13.964  1.00  0.00     0.208 A 
ATOM      3  C   UNL     1       7.525   1.595  14.228  1.00  0.00     0.238 A 
ATOM      4  O   UNL     1       7.145   1.044  15.292  1.00  0.00    -0.285 OA
ATOM      5  C   UNL     1       8.319   0.904  13.280  1.00  0.00     0.111 A 
ATOM      6  C   UNL     1       8.828  -0.417  13.461  1.00  0.00     0.134 A 
ATOM      7  C   UNL     1       9.492  -1.051  12.403  1.00  0.00     0.093 A 
ATOM      8  C   UNL     1       9.722  -0.391  11.197  1.00  0.00     0.123 A 
ATOM      9  C   UNL     1       9.280   0.923  11.031  1.00  0.00     0.094 A 
ATOM     10  C   UNL     1       8.584   1.570  12.055  1.00  0.00     0.146 A 
ATOM     11  O   UNL     1       8.171   2.815  11.853  1.00  0.00    -0.452 OA
ENDROOT
BRANCH   1  12
ATOM     12  C   UNL     1       7.105   4.905  12.412  1.00  0.00     0.029 A 
ATOM     13  C   UNL     1       7.915   5.990  12.776  1.00  0.00     0.062 A 
ATOM     14  C   UNL     1       7.553   7.297  12.427  1.00  0.00     0.162 A 
ATOM     15  C   UNL     1       5.943   5.142  11.662  1.00  0.00     0.062 A 
ATOM     16  C   UNL     1       6.379   7.535  11.698  1.00  0.00     0.200 A 
ATOM     17  C   UNL     1       5.568   6.442  11.307  1.00  0.00     0.162 A 
BRANCH  14  18
ATOM     18  O   UNL     1       8.360   8.371  12.798  1.00  0.00    -0.504 OA
ATOM     19  H   UNL     1       7.965   9.243  13.129  1.00  0.00     0.293 HD
ENDBRANCH  14  18
BRANCH  16  20
ATOM     20  O   UNL     1       6.059   8.858  11.382  1.00  0.00    -0.502 OA
ATOM     21  H   UNL     1       5.343   9.395  11.850  1.00  0.00     0.293 HD
ENDBRANCH  16  20
BRANCH  17  22
ATOM     22  O   UNL     1       4.392   6.601  10.571  1.00  0.00    -0.504 OA
ATOM     23  H   UNL     1       3.550   7.025  10.933  1.00  0.00     0.293 HD
ENDBRANCH  17  22
ENDBRANCH   1  12
BRANCH   2  24
ATOM     24  O   UNL     1       6.310   3.604  14.876  1.00  0.00    -0.502 OA
ATOM     25  H   UNL     1       5.381   3.292  15.131  1.00  0.00     0.293 HD
ENDBRANCH   2  24
BRANCH   6  26
ATOM     26  O   UNL     1       8.734  -1.134  14.658  1.00  0.00    -0.507 OA
ATOM     27  H   UNL     1       8.174  -0.857  15.450  1.00  0.00     0.293 HD
ENDBRANCH   6  26
BRANCH   8  28
ATOM     28  O   UNL     1      10.399  -1.047  10.171  1.00  0.00    -0.508 OA
ATOM     29  H   UNL     1       9.908  -1.610   9.487  1.00  0.00     0.293 HD
ENDBRANCH   8  28
TORSDOF 7
ENDMDL
MODEL 4
REMARK VINA RESULT:    -7.218      1.394      7.188
REMARK INTER + INTRA:          -9.240
REMARK INTER:                  -8.909
REMARK INTRA:                  -0.332
REMARK UNBOUND:                -0.335
REMARK SMILES O=c1c(O)c(-c2cc(O)c(O)c(O)c2)oc2cc(O)cc(O)c12
REMARK SMILES IDX 5 1 3 2 2 3 1 4 23 5 21 6 20 7 18 8 17 9 16 10 15 11 6 12
REMARK SMILES IDX 7 13 8 14 14 15 10 16 12 17 9 18 11 20 13 22 4 24 22 26
REMARK SMILES IDX 19 28
REMARK H PARENT 9 19 11 21 13 23 4 25 22 27 19 29
REMARK Flexibility Score: inf
ROOT
ATOM      1  C   UNL     1      17.248  10.584  14.902  1.00  0.00     0.180 A 
ATOM      2  C   UNL     1      17.530   9.210  14.821  1.00  0.00     0.208 A 
ATOM      3  C   UNL     1      17.884   8.517  15.990  1.00  0.00     0.238 A 
ATOM      4  O   UNL     1      18.188   7.299  15.903  1.00  0.00    -0.285 OA
ATOM      5  C   UNL     1      17.934   9.204  17.228  1.00  0.00     0.111 A 
ATOM      6  C   UNL     1      18.240   8.593  18.481  1.00  0.00     0.134 A 
ATOM      7  C   UNL     1      18.390   9.393  19.620  1.00  0.00     0.093 A 
ATOM      8  C   UNL     1      18.181  10.770  19.566  1.00  0.00     0.123 A 
ATOM      9  C   UNL     1      17.822  11.370  18.358  1.00  0.00     0.094 A 
ATOM     10  C   UNL     1      17.700  10.603  17.196  1.00  0.00     0.146 A 
ATOM     11  O   UNL     1      17.368  11.213  16.065  1.00  0.00    -0.452 OA
ENDROOT
BRANCH   1  12
ATOM     12  C   UNL     1      16.845  11.377  13.717  1.00  0.00     0.029 A 
ATOM     13  C   UNL     1      15.501  11.701  13.478  1.00  0.00     0.062 A 
ATOM     14  C   UNL     1      15.143  12.471  12.365  1.00  0.00     0.162 A 
ATOM     15  C   UNL     1      17.829  11.864  12.845  1.00  0.00     0.062 A 
ATOM     16  C   UNL     1      16.125  12.937  11.481  1.00  0.00     0.200 A 
ATOM     17  C   UNL     1      17.486  12.633  11.728  1.00  0.00     0.162 A 
BRANCH  14  18
ATOM     18  O   UNL     1      13.804  12.783  12.131  1.00  0.00    -0.504 OA
ATOM     19  H   UNL     1      13.238  13.251  12.829  1.00  0.00     0.293 HD
ENDBRANCH  14  18
BRANCH  16  20
ATOM     20  O   UNL     1      15.714  13.695  10.381  1.00  0.00    -0.502 OA
ATOM     21  H   UNL     1      15.078  13.363   9.671  1.00  0.00     0.293 HD
ENDBRANCH  16  20
BRANCH  17  22
ATOM     22  O   UNL     1      18.520  13.073  10.898  1.00  0.00    -0.504 OA
ATOM     23  H   UNL     1      18.377  13.500   9.995  1.00  0.00     0.293 HD
ENDBRANCH  17  22
ENDBRANCH   1  12
BRANCH   2  24
ATOM     24  O   UNL     1      17.496   8.556  13.586  1.00  0.00    -0.502 OA
ATOM     25  H   UNL     1      18.330   8.200  13.135  1.00  0.00     0.293 HD
ENDBRANCH   2  24
BRANCH   6  26
ATOM     26  O   UNL     1      18.380   7.214  18.664  1.00  0.00    -0.507 OA
ATOM     27  H   UNL     1      19.257   6.742  18.823  1.00  0.00     0.293 HD
ENDBRANCH   6  26
BRANCH   8  28
ATOM     28  O   UNL     1      18.323  11.534  20.723  1.00  0.00    -0.508 OA
ATOM     29  H   UNL     1      19.187  12.019  20.936  1.00  0.00     0.293 HD
ENDBRANCH   8  28
TORSDOF 7
ENDMDL
MODEL 5
REMARK VINA RESULT:    -7.141     11.245     13.838
REMARK INTER + INTRA:          -9.146
REMARK INTER:                  -8.789
REMARK INTRA:                  -0.356
REMARK UNBOUND:                -0.335
REMARK SMILES O=c1c(O)c(-c2cc(O)c(O)c(O)c2)oc2cc(O)cc(O)c12
REMARK SMILES IDX 5 1 3 2 2 3 1 4 23 5 21 6 20 7 18 8 17 9 16 10 15 11 6 12
REMARK SMILES IDX 7 13 8 14 14 15 10 16 12 17 9 18 11 20 13 22 4 24 22 26
REMARK SMILES IDX 19 28
REMARK H PARENT 9 19 11 21 13 23 4 25 22 27 19 29
REMARK Flexibility Score: inf
ROOT
ATOM      1  C   UNL     1       7.322   3.593  12.583  1.00  0.00     0.180 A 
ATOM      2  C   UNL     1       6.943   3.024  13.811  1.00  0.00     0.208 A 
ATOM      3  C   UNL     1       7.383   1.728  14.126  1.00  0.00     0.238 A 
ATOM      4  O   UNL     1       6.997   1.203  15.202  1.00  0.00    -0.285 OA
ATOM      5  C   UNL     1       8.211   1.025  13.217  1.00  0.00     0.111 A 
ATOM      6  C   UNL     1       8.749  -0.276  13.451  1.00  0.00     0.134 A 
ATOM      7  C   UNL     1       9.447  -0.928  12.427  1.00  0.00     0.093 A 
ATOM      8  C   UNL     1       9.684  -0.303  11.204  1.00  0.00     0.123 A 
ATOM      9  C   UNL     1       9.213   0.993  10.986  1.00  0.00     0.094 A 
ATOM     10  C   UNL     1       8.482   1.657  11.975  1.00  0.00     0.146 A 
ATOM     11  O   UNL     1       8.044   2.884  11.724  1.00  0.00    -0.452 OA
ENDROOT
BRANCH   1  12
ATOM     12  C   UNL     1       6.916   4.963  12.192  1.00  0.00     0.029 A 
ATOM     13  C   UNL     1       5.702   5.204  11.532  1.00  0.00     0.062 A 
ATOM     14  C   UNL     1       5.325   6.509  11.191  1.00  0.00     0.162 A 
ATOM     15  C   UNL     1       7.731   6.051  12.538  1.00  0.00     0.062 A 
ATOM     16  C   UNL     1       6.152   7.593  11.516  1.00  0.00     0.200 A 
ATOM     17  C   UNL     1       7.368   7.359  12.203  1.00  0.00     0.162 A 
BRANCH  14  18
ATOM     18  O   UNL     1       4.120   6.740  10.529  1.00  0.00    -0.504 OA
ATOM     19  H   UNL     1       3.661   6.013   9.992  1.00  0.00     0.293 HD
ENDBRANCH  14  18
BRANCH  16  20
ATOM     20  O   UNL     1       5.734   8.874  11.147  1.00  0.00    -0.502 OA
ATOM     21  H   UNL     1       5.924   9.708  11.682  1.00  0.00     0.293 HD
ENDBRANCH  16  20
BRANCH  17  22
ATOM     22  O   UNL     1       8.237   8.390  12.570  1.00  0.00    -0.504 OA
ATOM     23  H   UNL     1       8.411   8.670  13.524  1.00  0.00     0.293 HD
ENDBRANCH  17  22
ENDBRANCH   1  12
BRANCH   2  24
ATOM     24  O   UNL     1       6.107   3.726  14.684  1.00  0.00    -0.502 OA
ATOM     25  H   UNL     1       5.105   3.587  14.708  1.00  0.00     0.293 HD
ENDBRANCH   2  24
BRANCH   6  26
ATOM     26  O   UNL     1       8.650  -0.954  14.670  1.00  0.00    -0.507 OA
ATOM     27  H   UNL     1       7.877  -0.871  15.312  1.00  0.00     0.293 HD
ENDBRANCH   6  26
BRANCH   8  28
ATOM     28  O   UNL     1      10.396  -0.976  10.213  1.00  0.00    -0.508 OA
ATOM     29  H   UNL     1       9.932  -1.573   9.539  1.00  0.00     0.293 HD
ENDBRANCH   8  28
TORSDOF 7
ENDMDL
MODEL 6
REMARK VINA RESULT:    -7.109      1.400      7.193
REMARK INTER + INTRA:          -9.107
REMARK INTER:                  -8.757
REMARK INTRA:                  -0.350
REMARK UNBOUND:                -0.335
REMARK SMILES O=c1c(O)c(-c2cc(O)c(O)c(O)c2)oc2cc(O)cc(O)c12
REMARK SMILES IDX 5 1 3 2 2 3 1 4 23 5 21 6 20 7 18 8 17 9 16 10 15 11 6 12
REMARK SMILES IDX 7 13 8 14 14 15 10 16 12 17 9 18 11 20 13 22 4 24 22 26
REMARK SMILES IDX 19 28
REMARK H PARENT 9 19 11 21 13 23 4 25 22 27 19 29
REMARK Flexibility Score: inf
ROOT
ATOM      1  C   UNL     1      17.301  10.530  14.972  1.00  0.00     0.180 A 
ATOM      2  C   UNL     1      17.571   9.155  14.868  1.00  0.00     0.208 A 
ATOM      3  C   UNL     1      17.914   8.438  16.026  1.00  0.00     0.238 A 
ATOM      4  O   UNL     1      18.208   7.219  15.918  1.00  0.00    -0.285 OA
ATOM      5  C   UNL     1      17.965   9.102  17.276  1.00  0.00     0.111 A 
ATOM      6  C   UNL     1      18.261   8.466  18.519  1.00  0.00     0.134 A 
ATOM      7  C   UNL     1      18.413   9.244  19.673  1.00  0.00     0.093 A 
ATOM      8  C   UNL     1      18.216  10.624  19.643  1.00  0.00     0.123 A 
ATOM      9  C   UNL     1      17.868  11.249  18.444  1.00  0.00     0.094 A 
ATOM     10  C   UNL     1      17.744  10.504  17.268  1.00  0.00     0.146 A 
ATOM     11  O   UNL     1      17.422  11.137  16.147  1.00  0.00    -0.452 OA
ENDROOT
BRANCH   1  12
ATOM     12  C   UNL     1      16.909  11.347  13.800  1.00  0.00     0.029 A 
ATOM     13  C   UNL     1      17.872  11.909  12.948  1.00  0.00     0.062 A 
ATOM     14  C   UNL     1      17.482  12.659  11.832  1.00  0.00     0.162 A 
ATOM     15  C   UNL     1      15.550  11.515  13.498  1.00  0.00     0.062 A 
ATOM     16  C   UNL     1      16.123  12.846  11.545  1.00  0.00     0.200 A 
ATOM     17  C   UNL     1      15.146  12.262  12.387  1.00  0.00     0.162 A 
BRANCH  14  18
ATOM     18  O   UNL     1      18.444  13.220  10.994  1.00  0.00    -0.504 OA
ATOM     19  H   UNL     1      18.416  13.090   9.989  1.00  0.00     0.293 HD
ENDBRANCH  14  18
BRANCH  16  20
ATOM     20  O   UNL     1      15.787  13.609  10.423  1.00  0.00    -0.502 OA
ATOM     21  H   UNL     1      16.005  14.589  10.319  1.00  0.00     0.293 HD
ENDBRANCH  16  20
BRANCH  17  22
ATOM     22  O   UNL     1      13.774  12.397  12.157  1.00  0.00    -0.504 OA
ATOM     23  H   UNL     1      13.114  12.717  12.850  1.00  0.00     0.293 HD
ENDBRANCH  17  22
ENDBRANCH   1  12
BRANCH   2  24
ATOM     24  O   UNL     1      17.537   8.524  13.621  1.00  0.00    -0.502 OA
ATOM     25  H   UNL     1      17.212   7.573  13.501  1.00  0.00     0.293 HD
ENDBRANCH   2  24
BRANCH   6  26
ATOM     26  O   UNL     1      18.388   7.083  18.678  1.00  0.00    -0.507 OA
ATOM     27  H   UNL     1      18.330   6.599  19.561  1.00  0.00     0.293 HD
ENDBRANCH   6  26
BRANCH   8  28
ATOM     28  O   UNL     1      18.360  11.366  20.814  1.00  0.00    -0.508 OA
ATOM     29  H   UNL     1      18.342  10.925  21.726  1.00  0.00     0.293 HD
ENDBRANCH   8  28
TORSDOF 7
ENDMDL
MODEL 7
REMARK VINA RESULT:    -6.897     10.082     12.512
REMARK INTER + INTRA:          -8.845
REMARK INTER:                  -8.498
REMARK INTRA:                  -0.347
REMARK UNBOUND:                -0.335
REMARK SMILES O=c1c(O)c(-c2cc(O)c(O)c(O)c2)oc2cc(O)cc(O)c12
REMARK SMILES IDX 5 1 3 2 2 3 1 4 23 5 21 6 20 7 18 8 17 9 16 10 15 11 6 12
REMARK SMILES IDX 7 13 8 14 14 15 10 16 12 17 9 18 11 20 13 22 4 24 22 26
REMARK SMILES IDX 19 28
REMARK H PARENT 9 19 11 21 13 23 4 25 22 27 19 29
REMARK Flexibility Score: inf
ROOT
ATOM      1  C   UNL     1       8.560   4.125  13.293  1.00  0.00     0.180 A 
ATOM      2  C   UNL     1       7.818   3.501  14.311  1.00  0.00     0.208 A 
ATOM      3  C   UNL     1       7.754   2.099  14.346  1.00  0.00     0.238 A 
ATOM      4  O   UNL     1       7.045   1.548  15.227  1.00  0.00    -0.285 OA
ATOM      5  C   UNL     1       8.447   1.338  13.373  1.00  0.00     0.111 A 
ATOM      6  C   UNL     1       8.485  -0.088  13.338  1.00  0.00     0.134 A 
ATOM      7  C   UNL     1       9.093  -0.736  12.254  1.00  0.00     0.093 A 
ATOM      8  C   UNL     1       9.719  -0.011  11.241  1.00  0.00     0.123 A 
ATOM      9  C   UNL     1       9.739   1.383  11.297  1.00  0.00     0.094 A 
ATOM     10  C   UNL     1       9.110   2.059  12.346  1.00  0.00     0.146 A 
ATOM     11  O   UNL     1       9.143   3.386  12.356  1.00  0.00    -0.452 OA
ENDROOT
BRANCH   1  12
ATOM     12  C   UNL     1       8.693   5.598  13.204  1.00  0.00     0.029 A 
ATOM     13  C   UNL     1       7.830   6.362  12.404  1.00  0.00     0.062 A 
ATOM     14  C   UNL     1       7.957   7.755  12.352  1.00  0.00     0.162 A 
ATOM     15  C   UNL     1       9.661   6.251  13.980  1.00  0.00     0.062 A 
ATOM     16  C   UNL     1       8.941   8.405  13.109  1.00  0.00     0.200 A 
ATOM     17  C   UNL     1       9.800   7.643  13.937  1.00  0.00     0.162 A 
BRANCH  14  18
ATOM     18  O   UNL     1       7.100   8.507  11.549  1.00  0.00    -0.504 OA
ATOM     19  H   UNL     1       6.598   8.091  10.773  1.00  0.00     0.293 HD
ENDBRANCH  14  18
BRANCH  16  20
ATOM     20  O   UNL     1       9.030   9.797  13.015  1.00  0.00    -0.502 OA
ATOM     21  H   UNL     1       9.841  10.332  13.290  1.00  0.00     0.293 HD
ENDBRANCH  16  20
BRANCH  17  22
ATOM     22  O   UNL     1      10.796   8.222  14.727  1.00  0.00    -0.504 OA
ATOM     23  H   UNL     1      11.569   8.757  14.361  1.00  0.00     0.293 HD
ENDBRANCH  17  22
ENDBRANCH   1  12
BRANCH   2  24
ATOM     24  O   UNL     1       7.124   4.272  15.248  1.00  0.00    -0.502 OA
ATOM     25  H   UNL     1       7.400   4.325  16.220  1.00  0.00     0.293 HD
ENDBRANCH   2  24
BRANCH   6  26
ATOM     26  O   UNL     1       7.970  -0.909  14.346  1.00  0.00    -0.507 OA
ATOM     27  H   UNL     1       7.890  -1.913  14.284  1.00  0.00     0.293 HD
ENDBRANCH   6  26
BRANCH   8  28
ATOM     28  O   UNL     1      10.327  -0.688  10.186  1.00  0.00    -0.508 OA
ATOM     29  H   UNL     1       9.785  -1.220   9.514  1.00  0.00     0.293 HD
ENDBRANCH   8  28
TORSDOF 7
ENDMDL
MODEL 8
REMARK VINA RESULT:    -6.647     10.417     13.164
REMARK INTER + INTRA:          -8.537
REMARK INTER:                  -8.422
REMARK INTRA:                  -0.115
REMARK UNBOUND:                -0.335
REMARK SMILES O=c1c(O)c(-c2cc(O)c(O)c(O)c2)oc2cc(O)cc(O)c12
REMARK SMILES IDX 5 1 3 2 2 3 1 4 23 5 21 6 20 7 18 8 17 9 16 10 15 11 6 12
REMARK SMILES IDX 7 13 8 14 14 15 10 16 12 17 9 18 11 20 13 22 4 24 22 26
REMARK SMILES IDX 19 28
REMARK H PARENT 9 19 11 21 13 23 4 25 22 27 19 29
REMARK Flexibility Score: inf
ROOT
ATOM      1  C   UNL     1       7.580   5.081  15.173  1.00  0.00     0.180 A 
ATOM      2  C   UNL     1       8.400   6.191  15.439  1.00  0.00     0.208 A 
ATOM      3  C   UNL     1       8.745   6.480  16.769  1.00  0.00     0.238 A 
ATOM      4  O   UNL     1       9.434   7.505  17.006  1.00  0.00    -0.285 OA
ATOM      5  C   UNL     1       8.278   5.646  17.815  1.00  0.00     0.111 A 
ATOM      6  C   UNL     1       8.599   5.821  19.194  1.00  0.00     0.134 A 
ATOM      7  C   UNL     1       7.976   5.015  20.155  1.00  0.00     0.093 A 
ATOM      8  C   UNL     1       7.097   4.000  19.783  1.00  0.00     0.123 A 
ATOM      9  C   UNL     1       6.822   3.781  18.432  1.00  0.00     0.094 A 
ATOM     10  C   UNL     1       7.400   4.591  17.452  1.00  0.00     0.146 A 
ATOM     11  O   UNL     1       7.104   4.357  16.180  1.00  0.00    -0.452 OA
ENDROOT
BRANCH   1  12
ATOM     12  C   UNL     1       7.194   4.699  13.794  1.00  0.00     0.029 A 
ATOM     13  C   UNL     1       7.487   3.427  13.281  1.00  0.00     0.062 A 
ATOM     14  C   UNL     1       7.093   3.076  11.983  1.00  0.00     0.162 A 
ATOM     15  C   UNL     1       6.470   5.603  13.004  1.00  0.00     0.062 A 
ATOM     16  C   UNL     1       6.390   3.990  11.186  1.00  0.00     0.200 A 
ATOM     17  C   UNL     1       6.071   5.267  11.706  1.00  0.00     0.162 A 
BRANCH  14  18
ATOM     18  O   UNL     1       7.394   1.813  11.477  1.00  0.00    -0.504 OA
ATOM     19  H   UNL     1       8.168   1.266  11.837  1.00  0.00     0.293 HD
ENDBRANCH  14  18
BRANCH  16  20
ATOM     20  O   UNL     1       6.027   3.593   9.896  1.00  0.00    -0.502 OA
ATOM     21  H   UNL     1       6.610   3.034   9.290  1.00  0.00     0.293 HD
ENDBRANCH  16  20
BRANCH  17  22
ATOM     22  O   UNL     1       5.364   6.225  10.975  1.00  0.00    -0.504 OA
ATOM     23  H   UNL     1       5.775   6.811  10.264  1.00  0.00     0.293 HD
ENDBRANCH  17  22
ENDBRANCH   1  12
BRANCH   2  24
ATOM     24  O   UNL     1       8.831   7.013  14.394  1.00  0.00    -0.502 OA
ATOM     25  H   UNL     1       9.750   7.437  14.379  1.00  0.00     0.293 HD
ENDBRANCH   2  24
BRANCH   6  26
ATOM     26  O   UNL     1       9.534   6.746  19.667  1.00  0.00    -0.507 OA
ATOM     27  H   UNL     1      10.344   7.058  19.153  1.00  0.00     0.293 HD
ENDBRANCH   6  26
BRANCH   8  28
ATOM     28  O   UNL     1       6.507   3.206  20.765  1.00  0.00    -0.508 OA
ATOM     29  H   UNL     1       6.289   2.230  20.599  1.00  0.00     0.293 HD
ENDBRANCH   8  28
TORSDOF 7
ENDMDL
MODEL 9
REMARK VINA RESULT:    -6.600      1.537      3.386
REMARK INTER + INTRA:          -8.478
REMARK INTER:                  -8.151
REMARK INTRA:                  -0.328
REMARK UNBOUND:                -0.335
REMARK SMILES O=c1c(O)c(-c2cc(O)c(O)c(O)c2)oc2cc(O)cc(O)c12
REMARK SMILES IDX 5 1 3 2 2 3 1 4 23 5 21 6 20 7 18 8 17 9 16 10 15 11 6 12
REMARK SMILES IDX 7 13 8 14 14 15 10 16 12 17 9 18 11 20 13 22 4 24 22 26
REMARK SMILES IDX 19 28
REMARK H PARENT 9 19 11 21 13 23 4 25 22 27 19 29
REMARK Flexibility Score: inf
ROOT
ATOM      1  C   UNL     1      16.161  10.453  14.704  1.00  0.00     0.180 A 
ATOM      2  C   UNL     1      16.757  11.133  13.627  1.00  0.00     0.208 A 
ATOM      3  C   UNL     1      15.950  11.918  12.787  1.00  0.00     0.238 A 
ATOM      4  O   UNL     1      16.479  12.480  11.793  1.00  0.00    -0.285 OA
ATOM      5  C   UNL     1      14.561  12.025  13.043  1.00  0.00     0.111 A 
ATOM      6  C   UNL     1      13.657  12.824  12.281  1.00  0.00     0.134 A 
ATOM      7  C   UNL     1      12.283  12.752  12.544  1.00  0.00     0.093 A 
ATOM      8  C   UNL     1      11.788  11.963  13.582  1.00  0.00     0.123 A 
ATOM      9  C   UNL     1      12.670  11.224  14.372  1.00  0.00     0.094 A 
ATOM     10  C   UNL     1      14.043  11.247  14.111  1.00  0.00     0.146 A 
ATOM     11  O   UNL     1      14.847  10.521  14.879  1.00  0.00    -0.452 OA
ENDROOT
BRANCH   1  12
ATOM     12  C   UNL     1      16.950   9.627  15.647  1.00  0.00     0.029 A 
ATOM     13  C   UNL     1      17.340   8.320  15.322  1.00  0.00     0.062 A 
ATOM     14  C   UNL     1      18.106   7.563  16.217  1.00  0.00     0.162 A 
ATOM     15  C   UNL     1      17.368  10.181  16.866  1.00  0.00     0.062 A 
ATOM     16  C   UNL     1      18.503   8.109  17.446  1.00  0.00     0.200 A 
ATOM     17  C   UNL     1      18.133   9.436  17.770  1.00  0.00     0.162 A 
BRANCH  14  18
ATOM     18  O   UNL     1      18.483   6.261  15.890  1.00  0.00    -0.504 OA
ATOM     19  H   UNL     1      17.813   5.501  15.876  1.00  0.00     0.293 HD
ENDBRANCH  14  18
BRANCH  16  20
ATOM     20  O   UNL     1      19.259   7.309  18.306  1.00  0.00    -0.502 OA
ATOM     21  H   UNL     1      19.050   6.343  18.512  1.00  0.00     0.293 HD
ENDBRANCH  16  20
BRANCH  17  22
ATOM     22  O   UNL     1      18.502  10.049  18.970  1.00  0.00    -0.504 OA
ATOM     23  H   UNL     1      19.277   9.751  19.543  1.00  0.00     0.293 HD
ENDBRANCH  17  22
ENDBRANCH   1  12
BRANCH   2  24
ATOM     24  O   UNL     1      18.125  10.996  13.379  1.00  0.00    -0.502 OA
ATOM     25  H   UNL     1      18.525  10.154  12.983  1.00  0.00     0.293 HD
ENDBRANCH   2  24
BRANCH   6  26
ATOM     26  O   UNL     1      14.055  13.717  11.282  1.00  0.00    -0.507 OA
ATOM     27  H   UNL     1      13.934  14.718  11.324  1.00  0.00     0.293 HD
ENDBRANCH   6  26
BRANCH   8  28
ATOM     28  O   UNL     1      10.417  11.928  13.826  1.00  0.00    -0.508 OA
ATOM     29  H   UNL     1       9.943  11.064  14.064  1.00  0.00     0.293 HD
ENDBRANCH   8  28
TORSDOF 7
ENDMDL
