MODEL 1
REMARK VINA RESULT:    -2.200      0.000      0.000
REMARK INTER + INTRA:          -2.200
REMARK INTER:                  -2.200
REMARK INTRA:                   0.000
REMARK UNBOUND:                 0.000
REMARK SMILES CC(=O)[O-]
REMARK SMILES IDX 1 1 2 2 3 3 4 4
REMARK H PARENT
REMARK Flexibility Score: inf
ROOT
ATOM      1  C   UNL     1      33.547  51.212  48.954  1.00  0.00     0.063 C 
ATOM      2  C   UNL     1      33.931  52.197  50.005  1.00  0.00     0.038 C 
ATOM      3  O   UNL     1      34.650  53.187  49.710  1.00  0.00    -0.550 OA
ATOM      4  O   UNL     1      33.454  52.056  51.301  1.00  0.00    -0.550 OA
ENDROOT
TORSDOF 0
ENDMDL
MODEL 2
REMARK VINA RESULT:    -2.190      0.095      1.620
REMARK INTER + INTRA:          -2.190
REMARK INTER:                  -2.190
REMARK INTRA:                   0.000
REMARK UNBOUND:                 0.000
REMARK SMILES CC(=O)[O-]
REMARK SMILES IDX 1 1 2 2 3 3 4 4
REMARK H PARENT
REMARK Flexibility Score: inf
ROOT
ATOM      1  C   UNL     1      33.558  51.127  48.964  1.00  0.00     0.063 C 
ATOM      2  C   UNL     1      33.862  52.145  50.010  1.00  0.00     0.038 C 
ATOM      3  O   UNL     1      33.432  51.993  51.183  1.00  0.00    -0.550 OA
ATOM      4  O   UNL     1      34.665  53.236  49.708  1.00  0.00    -0.550 OA
ENDROOT
TORSDOF 0
ENDMDL
MODEL 3
REMARK VINA RESULT:    -2.105     14.569     15.316
REMARK INTER + INTRA:          -2.105
REMARK INTER:                  -2.105
REMARK INTRA:                   0.000
REMARK UNBOUND:                 0.000
REMARK SMILES CC(=O)[O-]
REMARK SMILES IDX 1 1 2 2 3 3 4 4
REMARK H PARENT
REMARK Flexibility Score: inf
ROOT
ATOM      1  C   UNL     1      41.124  66.218  46.508  1.00  0.00     0.063 C 
ATOM      2  C   UNL     1      41.426  64.761  46.423  1.00  0.00     0.038 C 
ATOM      3  O   UNL     1      40.596  63.918  46.855  1.00  0.00    -0.550 OA
ATOM      4  O   UNL     1      42.598  64.326  45.820  1.00  0.00    -0.550 OA
ENDROOT
TORSDOF 0
ENDMDL
MODEL 4
REMARK VINA RESULT:    -2.101     11.827     12.483
REMARK INTER + INTRA:          -2.101
REMARK INTER:                  -2.101
REMARK INTRA:                   0.000
REMARK UNBOUND:                 0.000
REMARK SMILES CC(=O)[O-]
REMARK SMILES IDX 1 1 2 2 3 3 4 4
REMARK H PARENT
REMARK Flexibility Score: inf
ROOT
ATOM      1  C   UNL     1      38.828  56.287  38.404  1.00  0.00     0.063 C 
ATOM      2  C   UNL     1      37.984  56.993  39.411  1.00  0.00     0.038 C 
ATOM      3  O   UNL     1      38.025  56.650  40.621  1.00  0.00    -0.550 OA
ATOM      4  O   UNL     1      37.190  58.065  39.026  1.00  0.00    -0.550 OA
ENDROOT
TORSDOF 0
ENDMDL
MODEL 5
REMARK VINA RESULT:    -2.077     14.614     15.287
REMARK INTER + INTRA:          -2.077
REMARK INTER:                  -2.077
REMARK INTRA:                   0.000
REMARK UNBOUND:                 0.000
REMARK SMILES CC(=O)[O-]
REMARK SMILES IDX 1 1 2 2 3 3 4 4
REMARK H PARENT
REMARK Flexibility Score: inf
ROOT
ATOM      1  C   UNL     1      41.228  66.267  46.346  1.00  0.00     0.063 C 
ATOM      2  C   UNL     1      41.493  64.800  46.350  1.00  0.00     0.038 C 
ATOM      3  O   UNL     1      42.577  64.354  45.891  1.00  0.00    -0.550 OA
ATOM      4  O   UNL     1      40.570  63.926  46.908  1.00  0.00    -0.550 OA
ENDROOT
TORSDOF 0
ENDMDL
MODEL 6
REMARK VINA RESULT:    -2.075      1.418      1.942
REMARK INTER + INTRA:          -2.075
REMARK INTER:                  -2.075
REMARK INTRA:                   0.000
REMARK UNBOUND:                 0.000
REMARK SMILES CC(=O)[O-]
REMARK SMILES IDX 1 1 2 2 3 3 4 4
REMARK H PARENT
REMARK Flexibility Score: inf
ROOT
ATOM      1  C   UNL     1      32.997  51.591  50.990  1.00  0.00     0.063 C 
ATOM      2  C   UNL     1      33.785  51.942  49.773  1.00  0.00     0.038 C 
ATOM      3  O   UNL     1      33.699  51.231  48.738  1.00  0.00    -0.550 OA
ATOM      4  O   UNL     1      34.574  53.084  49.760  1.00  0.00    -0.550 OA
ENDROOT
TORSDOF 0
ENDMDL
MODEL 7
REMARK VINA RESULT:    -2.066      8.538      8.983
REMARK INTER + INTRA:          -2.066
REMARK INTER:                  -2.066
REMARK INTRA:                   0.000
REMARK UNBOUND:                 0.000
REMARK SMILES CC(=O)[O-]
REMARK SMILES IDX 1 1 2 2 3 3 4 4
REMARK H PARENT
REMARK Flexibility Score: inf
ROOT
ATOM      1  C   UNL     1      37.057  59.479  55.494  1.00  0.00     0.063 C 
ATOM      2  C   UNL     1      37.263  58.004  55.570  1.00  0.00     0.038 C 
ATOM      3  O   UNL     1      36.870  57.263  54.632  1.00  0.00    -0.550 OA
ATOM      4  O   UNL     1      37.936  57.449  56.650  1.00  0.00    -0.550 OA
ENDROOT
TORSDOF 0
ENDMDL
MODEL 8
REMARK VINA RESULT:    -1.998      8.466      9.013
REMARK INTER + INTRA:          -1.998
REMARK INTER:                  -1.998
REMARK INTRA:                   0.000
REMARK UNBOUND:                 0.000
REMARK SMILES CC(=O)[O-]
REMARK SMILES IDX 1 1 2 2 3 3 4 4
REMARK H PARENT
REMARK Flexibility Score: inf
ROOT
ATOM      1  C   UNL     1      37.647  57.622  56.842  1.00  0.00     0.063 C 
ATOM      2  C   UNL     1      37.240  58.081  55.483  1.00  0.00     0.038 C 
ATOM      3  O   UNL     1      36.862  57.246  54.621  1.00  0.00    -0.550 OA
ATOM      4  O   UNL     1      37.224  59.436  55.182  1.00  0.00    -0.550 OA
ENDROOT
TORSDOF 0
ENDMDL
MODEL 9
REMARK VINA RESULT:    -1.948      2.033      2.179
REMARK INTER + INTRA:          -1.948
REMARK INTER:                  -1.948
REMARK INTRA:                   0.000
REMARK UNBOUND:                 0.000
REMARK SMILES CC(=O)[O-]
REMARK SMILES IDX 1 1 2 2 3 3 4 4
REMARK H PARENT
REMARK Flexibility Score: inf
ROOT
ATOM      1  C   UNL     1      32.417  51.440  50.831  1.00  0.00     0.063 C 
ATOM      2  C   UNL     1      33.116  51.325  49.519  1.00  0.00     0.038 C 
ATOM      3  O   UNL     1      34.104  52.060  49.263  1.00  0.00    -0.550 OA
ATOM      4  O   UNL     1      32.712  50.369  48.597  1.00  0.00    -0.550 OA
ENDROOT
TORSDOF 0
ENDMDL
