MODEL 1
REMARK VINA RESULT:    -3.701      0.000      0.000
REMARK INTER + INTRA:          -4.868
REMARK INTER:                  -5.107
REMARK INTRA:                   0.239
REMARK UNBOUND:                 0.239
REMARK SMILES CC[C@H](CC[C@H](C)[C@@H]1CC[C@@H]2[C@H]3CC=C4C[C@H](O)CC[C@@]4(C)[C@@H]3CC[C@]21C)C(C)C
REMARK SMILES IDX 5 1 4 2 3 3 2 4 1 5 28 6 29 7 30 8 6 9 7 10 8 11 9 12 26 13
REMARK SMILES IDX 10 14 11 15 25 16 27 17 12 18 24 19 23 20 13 21 21 22 14 23
REMARK SMILES IDX 15 24 20 25 22 26 16 27 19 28 17 29 18 30
REMARK H PARENT 18 31
REMARK Flexibility Score: inf
ROOT
ATOM      1  C   UNL     1     -13.350 -26.502 -11.010  1.00  0.00     0.004 C 
ENDROOT
BRANCH   1   2
ATOM      2  C   UNL     1     -14.835 -26.781 -11.370  1.00  0.00     0.004 C 
BRANCH   2   3
ATOM      3  C   UNL     1     -15.240 -26.608 -12.867  1.00  0.00    -0.009 C 
BRANCH   3   4
ATOM      4  C   UNL     1     -14.403 -25.501 -13.571  1.00  0.00     0.000 C 
ATOM      5  C   UNL     1     -15.072 -24.898 -14.805  1.00  0.00     0.004 C 
ENDBRANCH   3   4
BRANCH   3   6
ATOM      6  C   UNL     1     -15.366 -27.984 -13.619  1.00  0.00    -0.014 C 
ATOM      7  C   UNL     1     -14.678 -28.032 -14.993  1.00  0.00     0.007 C 
ATOM      8  C   UNL     1     -16.826 -28.464 -13.747  1.00  0.00     0.007 C 
ENDBRANCH   3   6
ENDBRANCH   2   3
ENDBRANCH   1   2
BRANCH   1   9
ATOM      9  C   UNL     1     -12.844 -27.325  -9.798  1.00  0.00    -0.011 C 
ATOM     10  C   UNL     1     -11.895 -26.483  -8.930  1.00  0.00     0.008 C 
BRANCH   9  11
ATOM     11  C   UNL     1     -12.351 -28.770 -10.176  1.00  0.00    -0.002 C 
ATOM     12  C   UNL     1     -10.836 -28.974  -9.916  1.00  0.00     0.005 C 
ATOM     13  C   UNL     1     -12.591 -29.442 -11.569  1.00  0.00    -0.026 C 
ATOM     14  C   UNL     1     -10.381 -30.130 -10.820  1.00  0.00     0.005 C 
ATOM     15  C   UNL     1     -11.678 -30.675 -11.400  1.00  0.00    -0.001 C 
ATOM     16  C   UNL     1     -14.024 -29.971 -11.826  1.00  0.00     0.007 C 
ATOM     17  C   UNL     1     -12.146 -28.524 -12.745  1.00  0.00     0.012 C 
ATOM     18  C   UNL     1     -11.614 -31.597 -12.640  1.00  0.00     0.000 C 
ATOM     19  C   UNL     1     -14.070 -30.908 -13.059  1.00  0.00     0.005 C 
ATOM     20  C   UNL     1     -13.054 -32.090 -12.970  1.00  0.00     0.003 C 
ATOM     21  C   UNL     1     -10.702 -32.804 -12.359  1.00  0.00     0.031 C 
ATOM     22  C   UNL     1     -13.077 -33.056 -14.217  1.00  0.00    -0.008 C 
ATOM     23  C   UNL     1     -10.853 -33.906 -13.371  1.00  0.00    -0.027 C 
ATOM     24  C   UNL     1     -11.979 -34.124 -14.082  1.00  0.00    -0.065 C 
ATOM     25  C   UNL     1     -14.472 -33.762 -14.283  1.00  0.00     0.014 C 
ATOM     26  C   UNL     1     -12.832 -32.284 -15.538  1.00  0.00     0.016 C 
ATOM     27  C   UNL     1     -12.055 -35.370 -14.947  1.00  0.00     0.063 C 
ATOM     28  C   UNL     1     -14.526 -34.963 -15.240  1.00  0.00     0.033 C 
ATOM     29  C   UNL     1     -13.454 -35.993 -14.875  1.00  0.00     0.118 C 
BRANCH  29  30
ATOM     30  O   UNL     1     -13.550 -37.125 -15.703  1.00  0.00    -0.393 OA
ATOM     31  H   UNL     1     -12.805 -37.090 -16.355  1.00  0.00     0.210 HD
ENDBRANCH  29  30
ENDBRANCH   9  11
ENDBRANCH   1   9
TORSDOF 7
ENDMDL
MODEL 2
REMARK VINA RESULT:    -3.684      0.620      1.379
REMARK INTER + INTRA:          -4.844
REMARK INTER:                  -4.307
REMARK INTRA:                  -0.537
REMARK UNBOUND:                 0.239
REMARK SMILES CC[C@H](CC[C@H](C)[C@@H]1CC[C@@H]2[C@H]3CC=C4C[C@H](O)CC[C@@]4(C)[C@@H]3CC[C@]21C)C(C)C
REMARK SMILES IDX 5 1 4 2 3 3 2 4 1 5 28 6 29 7 30 8 6 9 7 10 8 11 9 12 26 13
REMARK SMILES IDX 10 14 11 15 25 16 27 17 12 18 24 19 23 20 13 21 21 22 14 23
REMARK SMILES IDX 15 24 20 25 22 26 16 27 19 28 17 29 18 30
REMARK H PARENT 18 31
REMARK Flexibility Score: inf
ROOT
ATOM      1  C   UNL     1     -14.196 -27.185 -10.336  1.00  0.00     0.004 C 
ENDROOT
BRANCH   1   2
ATOM      2  C   UNL     1     -14.084 -26.379 -11.660  1.00  0.00     0.004 C 
BRANCH   2   3
ATOM      3  C   UNL     1     -14.650 -27.058 -12.946  1.00  0.00    -0.009 C 
BRANCH   3   4
ATOM      4  C   UNL     1     -16.144 -27.461 -12.781  1.00  0.00     0.000 C 
ATOM      5  C   UNL     1     -16.620 -28.525 -13.770  1.00  0.00     0.004 C 
ENDBRANCH   3   4
BRANCH   3   6
ATOM      6  C   UNL     1     -14.270 -26.276 -14.257  1.00  0.00    -0.014 C 
ATOM      7  C   UNL     1     -15.276 -25.191 -14.675  1.00  0.00     0.007 C 
ATOM      8  C   UNL     1     -13.983 -27.210 -15.450  1.00  0.00     0.007 C 
ENDBRANCH   3   6
ENDBRANCH   2   3
ENDBRANCH   1   2
BRANCH   1   9
ATOM      9  C   UNL     1     -12.826 -27.639  -9.773  1.00  0.00    -0.011 C 
ATOM     10  C   UNL     1     -11.766 -26.543  -9.979  1.00  0.00     0.008 C 
BRANCH   9  11
ATOM     11  C   UNL     1     -12.418 -29.096 -10.200  1.00  0.00    -0.002 C 
ATOM     12  C   UNL     1     -10.930 -29.415  -9.903  1.00  0.00     0.005 C 
ATOM     13  C   UNL     1     -12.657 -29.690 -11.628  1.00  0.00    -0.026 C 
ATOM     14  C   UNL     1     -10.523 -30.560 -10.844  1.00  0.00     0.005 C 
ATOM     15  C   UNL     1     -11.835 -30.989 -11.487  1.00  0.00    -0.001 C 
ATOM     16  C   UNL     1     -14.113 -30.109 -11.952  1.00  0.00     0.007 C 
ATOM     17  C   UNL     1     -12.112 -28.756 -12.749  1.00  0.00     0.012 C 
ATOM     18  C   UNL     1     -11.791 -31.860 -12.764  1.00  0.00     0.000 C 
ATOM     19  C   UNL     1     -14.180 -30.988 -13.226  1.00  0.00     0.005 C 
ATOM     20  C   UNL     1     -13.249 -32.239 -13.159  1.00  0.00     0.003 C 
ATOM     21  C   UNL     1     -10.973 -33.137 -12.509  1.00  0.00     0.031 C 
ATOM     22  C   UNL     1     -13.296 -33.148 -14.448  1.00  0.00    -0.008 C 
ATOM     23  C   UNL     1     -11.163 -34.184 -13.574  1.00  0.00    -0.027 C 
ATOM     24  C   UNL     1     -12.277 -34.293 -14.328  1.00  0.00    -0.065 C 
ATOM     25  C   UNL     1     -14.732 -33.753 -14.587  1.00  0.00     0.014 C 
ATOM     26  C   UNL     1     -12.956 -32.339 -15.725  1.00  0.00     0.016 C 
ATOM     27  C   UNL     1     -12.407 -35.493 -15.249  1.00  0.00     0.063 C 
ATOM     28  C   UNL     1     -14.835 -34.906 -15.599  1.00  0.00     0.033 C 
ATOM     29  C   UNL     1     -13.847 -36.022 -15.247  1.00  0.00     0.118 C 
BRANCH  29  30
ATOM     30  O   UNL     1     -13.991 -37.108 -16.127  1.00  0.00    -0.393 OA
ATOM     31  H   UNL     1     -14.784 -36.937 -16.695  1.00  0.00     0.210 HD
ENDBRANCH  29  30
ENDBRANCH   9  11
ENDBRANCH   1   9
TORSDOF 7
ENDMDL
MODEL 3
REMARK VINA RESULT:    -3.537      1.785      2.959
REMARK INTER + INTRA:          -4.642
REMARK INTER:                  -3.623
REMARK INTRA:                  -1.018
REMARK UNBOUND:                 0.239
REMARK SMILES CC[C@H](CC[C@H](C)[C@@H]1CC[C@@H]2[C@H]3CC=C4C[C@H](O)CC[C@@]4(C)[C@@H]3CC[C@]21C)C(C)C
REMARK SMILES IDX 5 1 4 2 3 3 2 4 1 5 28 6 29 7 30 8 6 9 7 10 8 11 9 12 26 13
REMARK SMILES IDX 10 14 11 15 25 16 27 17 12 18 24 19 23 20 13 21 21 22 14 23
REMARK SMILES IDX 15 24 20 25 22 26 16 27 19 28 17 29 18 30
REMARK H PARENT 18 31
REMARK Flexibility Score: inf
ROOT
ATOM      1  C   UNL     1     -10.571 -27.328  -9.523  1.00  0.00     0.004 C 
ENDROOT
BRANCH   1   2
ATOM      2  C   UNL     1     -11.733 -26.392  -9.957  1.00  0.00     0.004 C 
BRANCH   2   3
ATOM      3  C   UNL     1     -13.074 -26.526  -9.170  1.00  0.00    -0.009 C 
BRANCH   3   4
ATOM      4  C   UNL     1     -13.090 -25.632  -7.895  1.00  0.00     0.000 C 
ATOM      5  C   UNL     1     -11.888 -24.696  -7.770  1.00  0.00     0.004 C 
ENDBRANCH   3   4
BRANCH   3   6
ATOM      6  C   UNL     1     -14.334 -26.440 -10.108  1.00  0.00    -0.014 C 
ATOM      7  C   UNL     1     -15.491 -27.375  -9.720  1.00  0.00     0.007 C 
ATOM      8  C   UNL     1     -13.984 -26.630 -11.598  1.00  0.00     0.007 C 
ENDBRANCH   3   6
ENDBRANCH   2   3
ENDBRANCH   1   2
BRANCH   1   9
ATOM      9  C   UNL     1     -11.035 -28.529  -8.659  1.00  0.00    -0.011 C 
ATOM     10  C   UNL     1     -10.236 -28.593  -7.347  1.00  0.00     0.008 C 
BRANCH   9  11
ATOM     11  C   UNL     1     -11.168 -29.873  -9.465  1.00  0.00    -0.002 C 
ATOM     12  C   UNL     1      -9.875 -30.728  -9.424  1.00  0.00     0.005 C 
ATOM     13  C   UNL     1     -11.634 -29.959 -10.956  1.00  0.00    -0.026 C 
ATOM     14  C   UNL     1      -9.914 -31.653 -10.650  1.00  0.00     0.005 C 
ATOM     15  C   UNL     1     -11.309 -31.444 -11.223  1.00  0.00    -0.001 C 
ATOM     16  C   UNL     1     -13.153 -29.777 -11.202  1.00  0.00     0.007 C 
ATOM     17  C   UNL     1     -10.829 -28.995 -11.877  1.00  0.00     0.012 C 
ATOM     18  C   UNL     1     -11.602 -31.913 -12.667  1.00  0.00     0.000 C 
ATOM     19  C   UNL     1     -13.553 -30.217 -12.632  1.00  0.00     0.005 C 
ATOM     20  C   UNL     1     -13.111 -31.676 -12.971  1.00  0.00     0.003 C 
ATOM     21  C   UNL     1     -11.270 -33.407 -12.818  1.00  0.00     0.031 C 
ATOM     22  C   UNL     1     -13.503 -32.147 -14.426  1.00  0.00    -0.008 C 
ATOM     23  C   UNL     1     -11.838 -34.015 -14.072  1.00  0.00    -0.027 C 
ATOM     24  C   UNL     1     -12.939 -33.551 -14.698  1.00  0.00    -0.065 C 
ATOM     25  C   UNL     1     -15.062 -32.189 -14.540  1.00  0.00     0.014 C 
ATOM     26  C   UNL     1     -12.936 -31.188 -15.504  1.00  0.00     0.016 C 
ATOM     27  C   UNL     1     -13.501 -34.356 -15.858  1.00  0.00     0.063 C 
ATOM     28  C   UNL     1     -15.584 -32.936 -15.778  1.00  0.00     0.033 C 
ATOM     29  C   UNL     1     -15.034 -34.364 -15.817  1.00  0.00     0.118 C 
BRANCH  29  30
ATOM     30  O   UNL     1     -15.567 -35.072 -16.908  1.00  0.00    -0.393 OA
ATOM     31  H   UNL     1     -15.615 -36.029 -16.656  1.00  0.00     0.210 HD
ENDBRANCH  29  30
ENDBRANCH   9  11
ENDBRANCH   1   9
TORSDOF 7
ENDMDL
MODEL 4
REMARK VINA RESULT:    -2.496      3.239      8.500
REMARK INTER + INTRA:          -3.205
REMARK INTER:                  -2.615
REMARK INTRA:                  -0.590
REMARK UNBOUND:                 0.239
REMARK SMILES CC[C@H](CC[C@H](C)[C@@H]1CC[C@@H]2[C@H]3CC=C4C[C@H](O)CC[C@@]4(C)[C@@H]3CC[C@]21C)C(C)C
REMARK SMILES IDX 5 1 4 2 3 3 2 4 1 5 28 6 29 7 30 8 6 9 7 10 8 11 9 12 26 13
REMARK SMILES IDX 10 14 11 15 25 16 27 17 12 18 24 19 23 20 13 21 21 22 14 23
REMARK SMILES IDX 15 24 20 25 22 26 16 27 19 28 17 29 18 30
REMARK H PARENT 18 31
REMARK Flexibility Score: inf
ROOT
ATOM      1  C   UNL     1     -14.354 -33.689 -15.039  1.00  0.00     0.004 C 
ENDROOT
BRANCH   1   2
ATOM      2  C   UNL     1     -14.216 -35.164 -14.571  1.00  0.00     0.004 C 
BRANCH   2   3
ATOM      3  C   UNL     1     -13.524 -36.153 -15.560  1.00  0.00    -0.009 C 
BRANCH   3   4
ATOM      4  C   UNL     1     -12.555 -37.125 -14.825  1.00  0.00     0.000 C 
ATOM      5  C   UNL     1     -11.157 -36.554 -14.586  1.00  0.00     0.004 C 
ENDBRANCH   3   4
BRANCH   3   6
ATOM      6  C   UNL     1     -14.538 -36.800 -16.574  1.00  0.00    -0.014 C 
ATOM      7  C   UNL     1     -14.747 -36.004 -17.872  1.00  0.00     0.007 C 
ATOM      8  C   UNL     1     -15.902 -37.122 -15.931  1.00  0.00     0.007 C 
ENDBRANCH   3   6
ENDBRANCH   2   3
ENDBRANCH   1   2
BRANCH   1   9
ATOM      9  C   UNL     1     -13.275 -32.749 -14.442  1.00  0.00    -0.011 C 
ATOM     10  C   UNL     1     -12.133 -33.567 -13.816  1.00  0.00     0.008 C 
BRANCH   9  11
ATOM     11  C   UNL     1     -13.865 -31.584 -13.566  1.00  0.00    -0.002 C 
ATOM     12  C   UNL     1     -15.055 -30.862 -14.251  1.00  0.00     0.005 C 
ATOM     13  C   UNL     1     -13.010 -30.421 -12.964  1.00  0.00    -0.026 C 
ATOM     14  C   UNL     1     -15.149 -29.464 -13.621  1.00  0.00     0.005 C 
ATOM     15  C   UNL     1     -14.156 -29.514 -12.468  1.00  0.00    -0.001 C 
ATOM     16  C   UNL     1     -12.151 -30.784 -11.726  1.00  0.00     0.007 C 
ATOM     17  C   UNL     1     -12.122 -29.729 -14.040  1.00  0.00     0.012 C 
ATOM     18  C   UNL     1     -13.689 -28.187 -11.825  1.00  0.00     0.000 C 
ATOM     19  C   UNL     1     -11.627 -29.515 -11.008  1.00  0.00     0.005 C 
ATOM     20  C   UNL     1     -12.762 -28.517 -10.618  1.00  0.00     0.003 C 
ATOM     21  C   UNL     1     -14.902 -27.373 -11.343  1.00  0.00     0.031 C 
ATOM     22  C   UNL     1     -12.253 -27.213  -9.889  1.00  0.00    -0.008 C 
ATOM     23  C   UNL     1     -14.528 -26.249 -10.416  1.00  0.00    -0.027 C 
ATOM     24  C   UNL     1     -13.427 -26.253  -9.637  1.00  0.00    -0.065 C 
ATOM     25  C   UNL     1     -11.617 -27.616  -8.519  1.00  0.00     0.014 C 
ATOM     26  C   UNL     1     -11.198 -26.463 -10.742  1.00  0.00     0.016 C 
ATOM     27  C   UNL     1     -13.255 -25.131  -8.627  1.00  0.00     0.063 C 
ATOM     28  C   UNL     1     -11.378 -26.436  -7.563  1.00  0.00     0.033 C 
ATOM     29  C   UNL     1     -12.681 -25.672  -7.312  1.00  0.00     0.118 C 
BRANCH  29  30
ATOM     30  O   UNL     1     -12.480 -24.638  -6.382  1.00  0.00    -0.393 OA
ATOM     31  H   UNL     1     -13.094 -23.897  -6.613  1.00  0.00     0.210 HD
ENDBRANCH  29  30
ENDBRANCH   9  11
ENDBRANCH   1   9
TORSDOF 7
ENDMDL
MODEL 5
REMARK VINA RESULT:    -2.416      1.615      4.448
REMARK INTER + INTRA:          -3.095
REMARK INTER:                  -2.001
REMARK INTRA:                  -1.094
REMARK UNBOUND:                 0.239
REMARK SMILES CC[C@H](CC[C@H](C)[C@@H]1CC[C@@H]2[C@H]3CC=C4C[C@H](O)CC[C@@]4(C)[C@@H]3CC[C@]21C)C(C)C
REMARK SMILES IDX 5 1 4 2 3 3 2 4 1 5 28 6 29 7 30 8 6 9 7 10 8 11 9 12 26 13
REMARK SMILES IDX 10 14 11 15 25 16 27 17 12 18 24 19 23 20 13 21 21 22 14 23
REMARK SMILES IDX 15 24 20 25 22 26 16 27 19 28 17 29 18 30
REMARK H PARENT 18 31
REMARK Flexibility Score: inf
ROOT
ATOM      1  C   UNL     1     -12.173 -26.402 -10.455  1.00  0.00     0.004 C 
ENDROOT
BRANCH   1   2
ATOM      2  C   UNL     1     -12.890 -26.756  -9.122  1.00  0.00     0.004 C 
BRANCH   2   3
ATOM      3  C   UNL     1     -12.090 -26.506  -7.806  1.00  0.00    -0.009 C 
BRANCH   3   4
ATOM      4  C   UNL     1     -10.722 -27.247  -7.808  1.00  0.00     0.000 C 
ATOM      5  C   UNL     1     -10.835 -28.772  -7.793  1.00  0.00     0.004 C 
ENDBRANCH   3   4
BRANCH   3   6
ATOM      6  C   UNL     1     -12.070 -24.988  -7.393  1.00  0.00    -0.014 C 
ATOM      7  C   UNL     1     -13.420 -24.265  -7.529  1.00  0.00     0.007 C 
ATOM      8  C   UNL     1     -10.971 -24.185  -8.117  1.00  0.00     0.007 C 
ENDBRANCH   3   6
ENDBRANCH   2   3
ENDBRANCH   1   2
BRANCH   1   9
ATOM      9  C   UNL     1     -11.351 -27.577 -11.044  1.00  0.00    -0.011 C 
ATOM     10  C   UNL     1      -9.880 -27.168 -11.231  1.00  0.00     0.008 C 
BRANCH   9  11
ATOM     11  C   UNL     1     -12.044 -28.281 -12.268  1.00  0.00    -0.002 C 
ATOM     12  C   UNL     1     -13.215 -27.451 -12.854  1.00  0.00     0.005 C 
ATOM     13  C   UNL     1     -12.592 -29.746 -12.240  1.00  0.00    -0.026 C 
ATOM     14  C   UNL     1     -14.131 -28.437 -13.596  1.00  0.00     0.005 C 
ATOM     15  C   UNL     1     -13.350 -29.743 -13.585  1.00  0.00    -0.001 C 
ATOM     16  C   UNL     1     -11.527 -30.869 -12.323  1.00  0.00     0.007 C 
ATOM     17  C   UNL     1     -13.532 -29.996 -11.024  1.00  0.00     0.012 C 
ATOM     18  C   UNL     1     -14.093 -31.062 -13.903  1.00  0.00     0.000 C 
ATOM     19  C   UNL     1     -12.174 -32.242 -12.636  1.00  0.00     0.005 C 
ATOM     20  C   UNL     1     -13.058 -32.225 -13.922  1.00  0.00     0.003 C 
ATOM     21  C   UNL     1     -14.789 -30.962 -15.271  1.00  0.00     0.031 C 
ATOM     22  C   UNL     1     -13.732 -33.611 -14.260  1.00  0.00    -0.008 C 
ATOM     23  C   UNL     1     -15.241 -32.296 -15.802  1.00  0.00    -0.027 C 
ATOM     24  C   UNL     1     -14.657 -33.469 -15.480  1.00  0.00    -0.065 C 
ATOM     25  C   UNL     1     -12.610 -34.652 -14.586  1.00  0.00     0.014 C 
ATOM     26  C   UNL     1     -14.583 -34.131 -13.074  1.00  0.00     0.016 C 
ATOM     27  C   UNL     1     -15.103 -34.721 -16.214  1.00  0.00     0.063 C 
ATOM     28  C   UNL     1     -13.120 -35.943 -15.247  1.00  0.00     0.033 C 
ATOM     29  C   UNL     1     -13.902 -35.623 -16.524  1.00  0.00     0.118 C 
BRANCH  29  30
ATOM     30  O   UNL     1     -14.307 -36.805 -17.168  1.00  0.00    -0.393 OA
ATOM     31  H   UNL     1     -14.114 -36.707 -18.134  1.00  0.00     0.210 HD
ENDBRANCH  29  30
ENDBRANCH   9  11
ENDBRANCH   1   9
TORSDOF 7
ENDMDL
MODEL 6
REMARK VINA RESULT:    -2.275      3.345      8.226
REMARK INTER + INTRA:          -2.900
REMARK INTER:                  -2.002
REMARK INTRA:                  -0.898
REMARK UNBOUND:                 0.239
REMARK SMILES CC[C@H](CC[C@H](C)[C@@H]1CC[C@@H]2[C@H]3CC=C4C[C@H](O)CC[C@@]4(C)[C@@H]3CC[C@]21C)C(C)C
REMARK SMILES IDX 5 1 4 2 3 3 2 4 1 5 28 6 29 7 30 8 6 9 7 10 8 11 9 12 26 13
REMARK SMILES IDX 10 14 11 15 25 16 27 17 12 18 24 19 23 20 13 21 21 22 14 23
REMARK SMILES IDX 15 24 20 25 22 26 16 27 19 28 17 29 18 30
REMARK H PARENT 18 31
REMARK Flexibility Score: inf
ROOT
ATOM      1  C   UNL     1     -13.227 -32.681 -15.642  1.00  0.00     0.004 C 
ENDROOT
BRANCH   1   2
ATOM      2  C   UNL     1     -13.593 -33.946 -14.818  1.00  0.00     0.004 C 
BRANCH   2   3
ATOM      3  C   UNL     1     -12.981 -35.299 -15.297  1.00  0.00    -0.009 C 
BRANCH   3   4
ATOM      4  C   UNL     1     -11.968 -35.876 -14.265  1.00  0.00     0.000 C 
ATOM      5  C   UNL     1     -10.853 -34.907 -13.872  1.00  0.00     0.004 C 
ENDBRANCH   3   4
BRANCH   3   6
ATOM      6  C   UNL     1     -14.070 -36.292 -15.849  1.00  0.00    -0.014 C 
ATOM      7  C   UNL     1     -15.147 -35.640 -16.731  1.00  0.00     0.007 C 
ATOM      8  C   UNL     1     -14.738 -37.125 -14.737  1.00  0.00     0.007 C 
ENDBRANCH   3   6
ENDBRANCH   2   3
ENDBRANCH   1   2
BRANCH   1   9
ATOM      9  C   UNL     1     -13.917 -31.391 -15.130  1.00  0.00    -0.011 C 
ATOM     10  C   UNL     1     -14.398 -30.530 -16.311  1.00  0.00     0.008 C 
BRANCH   9  11
ATOM     11  C   UNL     1     -13.110 -30.647 -14.004  1.00  0.00    -0.002 C 
ATOM     12  C   UNL     1     -11.965 -31.511 -13.415  1.00  0.00     0.005 C 
ATOM     13  C   UNL     1     -13.767 -29.980 -12.750  1.00  0.00    -0.026 C 
ATOM     14  C   UNL     1     -11.661 -30.954 -12.016  1.00  0.00     0.005 C 
ATOM     15  C   UNL     1     -12.487 -29.677 -11.942  1.00  0.00    -0.001 C 
ATOM     16  C   UNL     1     -14.477 -28.626 -12.998  1.00  0.00     0.007 C 
ATOM     17  C   UNL     1     -14.728 -30.954 -12.006  1.00  0.00     0.012 C 
ATOM     18  C   UNL     1     -12.741 -29.030 -10.561  1.00  0.00     0.000 C 
ATOM     19  C   UNL     1     -14.783 -27.894 -11.667  1.00  0.00     0.005 C 
ATOM     20  C   UNL     1     -13.520 -27.698 -10.771  1.00  0.00     0.003 C 
ATOM     21  C   UNL     1     -11.405 -28.746  -9.853  1.00  0.00     0.031 C 
ATOM     22  C   UNL     1     -13.805 -26.958  -9.406  1.00  0.00    -0.008 C 
ATOM     23  C   UNL     1     -11.546 -27.821  -8.675  1.00  0.00    -0.027 C 
ATOM     24  C   UNL     1     -12.526 -26.902  -8.555  1.00  0.00    -0.065 C 
ATOM     25  C   UNL     1     -14.281 -25.500  -9.712  1.00  0.00     0.014 C 
ATOM     26  C   UNL     1     -14.895 -27.689  -8.583  1.00  0.00     0.016 C 
ATOM     27  C   UNL     1     -12.457 -25.922  -7.396  1.00  0.00     0.063 C 
ATOM     28  C   UNL     1     -14.280 -24.566  -8.491  1.00  0.00     0.033 C 
ATOM     29  C   UNL     1     -12.892 -24.522  -7.847  1.00  0.00     0.118 C 
BRANCH  29  30
ATOM     30  O   UNL     1     -12.870 -23.614  -6.775  1.00  0.00    -0.393 OA
ATOM     31  H   UNL     1     -12.344 -24.021  -6.041  1.00  0.00     0.210 HD
ENDBRANCH  29  30
ENDBRANCH   9  11
ENDBRANCH   1   9
TORSDOF 7
ENDMDL
MODEL 7
REMARK VINA RESULT:    -2.208      3.151      8.385
REMARK INTER + INTRA:          -2.808
REMARK INTER:                  -2.722
REMARK INTRA:                  -0.086
REMARK UNBOUND:                 0.239
REMARK SMILES CC[C@H](CC[C@H](C)[C@@H]1CC[C@@H]2[C@H]3CC=C4C[C@H](O)CC[C@@]4(C)[C@@H]3CC[C@]21C)C(C)C
REMARK SMILES IDX 5 1 4 2 3 3 2 4 1 5 28 6 29 7 30 8 6 9 7 10 8 11 9 12 26 13
REMARK SMILES IDX 10 14 11 15 25 16 27 17 12 18 24 19 23 20 13 21 21 22 14 23
REMARK SMILES IDX 15 24 20 25 22 26 16 27 19 28 17 29 18 30
REMARK H PARENT 18 31
REMARK Flexibility Score: inf
ROOT
ATOM      1  C   UNL     1     -13.671 -33.054 -14.576  1.00  0.00     0.004 C 
ENDROOT
BRANCH   1   2
ATOM      2  C   UNL     1     -13.829 -34.481 -15.170  1.00  0.00     0.004 C 
BRANCH   2   3
ATOM      3  C   UNL     1     -12.942 -35.604 -14.548  1.00  0.00    -0.009 C 
BRANCH   3   4
ATOM      4  C   UNL     1     -13.153 -36.973 -15.259  1.00  0.00     0.000 C 
ATOM      5  C   UNL     1     -14.518 -37.125 -15.932  1.00  0.00     0.004 C 
ENDBRANCH   3   4
BRANCH   3   6
ATOM      6  C   UNL     1     -11.453 -35.144 -14.331  1.00  0.00    -0.014 C 
ATOM      7  C   UNL     1     -10.461 -36.284 -14.047  1.00  0.00     0.007 C 
ATOM      8  C   UNL     1     -11.317 -34.050 -13.252  1.00  0.00     0.007 C 
ENDBRANCH   3   6
ENDBRANCH   2   3
ENDBRANCH   1   2
BRANCH   1   9
ATOM      9  C   UNL     1     -14.812 -32.087 -14.982  1.00  0.00    -0.011 C 
ATOM     10  C   UNL     1     -14.666 -31.665 -16.453  1.00  0.00     0.008 C 
BRANCH   9  11
ATOM     11  C   UNL     1     -15.063 -30.934 -13.943  1.00  0.00    -0.002 C 
ATOM     12  C   UNL     1     -16.131 -29.916 -14.422  1.00  0.00     0.005 C 
ATOM     13  C   UNL     1     -13.931 -30.040 -13.336  1.00  0.00    -0.026 C 
ATOM     14  C   UNL     1     -15.871 -28.607 -13.661  1.00  0.00     0.005 C 
ATOM     15  C   UNL     1     -14.811 -28.983 -12.635  1.00  0.00    -0.001 C 
ATOM     16  C   UNL     1     -13.060 -30.703 -12.240  1.00  0.00     0.007 C 
ATOM     17  C   UNL     1     -13.019 -29.423 -14.437  1.00  0.00     0.012 C 
ATOM     18  C   UNL     1     -14.019 -27.857 -11.931  1.00  0.00     0.000 C 
ATOM     19  C   UNL     1     -12.218 -29.653 -11.473  1.00  0.00     0.005 C 
ATOM     20  C   UNL     1     -13.078 -28.498 -10.869  1.00  0.00     0.003 C 
ATOM     21  C   UNL     1     -14.986 -26.876 -11.245  1.00  0.00     0.031 C 
ATOM     22  C   UNL     1     -12.242 -27.413 -10.086  1.00  0.00    -0.008 C 
ATOM     23  C   UNL     1     -14.302 -25.960 -10.267  1.00  0.00    -0.027 C 
ATOM     24  C   UNL     1     -13.160 -26.271  -9.619  1.00  0.00    -0.065 C 
ATOM     25  C   UNL     1     -11.584 -28.086  -8.837  1.00  0.00     0.014 C 
ATOM     26  C   UNL     1     -11.134 -26.798 -10.979  1.00  0.00     0.016 C 
ATOM     27  C   UNL     1     -12.666 -25.327  -8.536  1.00  0.00     0.063 C 
ATOM     28  C   UNL     1     -11.017 -27.092  -7.810  1.00  0.00     0.033 C 
ATOM     29  C   UNL     1     -12.102 -26.116  -7.348  1.00  0.00     0.118 C 
BRANCH  29  30
ATOM     30  O   UNL     1     -11.605 -25.254  -6.356  1.00  0.00    -0.393 OA
ATOM     31  H   UNL     1     -11.849 -25.632  -5.473  1.00  0.00     0.210 HD
ENDBRANCH  29  30
ENDBRANCH   9  11
ENDBRANCH   1   9
TORSDOF 7
ENDMDL
