MODEL 1
REMARK VINA RESULT:    -4.568      0.000      0.000
REMARK INTER + INTRA:          -4.568
REMARK INTER:                  -4.568
REMARK INTRA:                   0.000
REMARK UNBOUND:                 0.000
REMARK SMILES CC(C)=C1CC[C@H](C)CC1=O
REMARK SMILES IDX 8 1 7 2 6 3 5 4 4 5 2 6 1 7 3 8 10 9 11 10 9 11
REMARK H PARENT
REMARK Flexibility Score: inf
ROOT
ATOM      1  C   UNL     1      26.786  28.502  27.291  1.00  0.00     0.008 C 
ATOM      2  C   UNL     1      25.516  28.231  28.107  1.00  0.00    -0.006 C 
ATOM      3  C   UNL     1      25.185  29.431  29.007  1.00  0.00     0.008 C 
ATOM      4  C   UNL     1      23.976  29.138  29.905  1.00  0.00     0.039 C 
ATOM      5  C   UNL     1      22.769  28.646  29.117  1.00  0.00    -0.006 C 
ATOM      6  C   UNL     1      21.495  28.925  29.524  1.00  0.00    -0.070 C 
ATOM      7  C   UNL     1      21.230  29.717  30.784  1.00  0.00     0.039 C 
ATOM      8  C   UNL     1      20.291  28.491  28.720  1.00  0.00     0.039 C 
ATOM      9  C   UNL     1      23.062  27.756  27.955  1.00  0.00     0.159 C 
ATOM     10  O   UNL     1      22.263  26.843  27.611  1.00  0.00    -0.295 OA
ATOM     11  C   UNL     1      24.333  27.931  27.175  1.00  0.00     0.084 C 
ENDROOT
TORSDOF 0
ENDMDL
MODEL 2
REMARK VINA RESULT:    -4.558      3.347      6.209
REMARK INTER + INTRA:          -4.558
REMARK INTER:                  -4.558
REMARK INTRA:                   0.000
REMARK UNBOUND:                 0.000
REMARK SMILES CC(C)=C1CC[C@H](C)CC1=O
REMARK SMILES IDX 8 1 7 2 6 3 5 4 4 5 2 6 1 7 3 8 10 9 11 10 9 11
REMARK H PARENT
REMARK Flexibility Score: inf
ROOT
ATOM      1  C   UNL     1      16.532  29.056  29.369  1.00  0.00     0.008 C 
ATOM      2  C   UNL     1      17.554  27.913  29.359  1.00  0.00    -0.006 C 
ATOM      3  C   UNL     1      17.434  27.092  28.066  1.00  0.00     0.008 C 
ATOM      4  C   UNL     1      18.379  25.884  28.084  1.00  0.00     0.039 C 
ATOM      5  C   UNL     1      19.818  26.272  28.399  1.00  0.00    -0.006 C 
ATOM      6  C   UNL     1      20.871  25.579  27.873  1.00  0.00    -0.070 C 
ATOM      7  C   UNL     1      20.653  24.386  26.970  1.00  0.00     0.039 C 
ATOM      8  C   UNL     1      22.302  25.990  28.133  1.00  0.00     0.039 C 
ATOM      9  C   UNL     1      19.998  27.367  29.397  1.00  0.00     0.159 C 
ATOM     10  O   UNL     1      20.992  27.391  30.171  1.00  0.00    -0.295 OA
ATOM     11  C   UNL     1      18.980  28.467  29.500  1.00  0.00     0.084 C 
ENDROOT
TORSDOF 0
ENDMDL
MODEL 3
REMARK VINA RESULT:    -4.425      2.764      5.720
REMARK INTER + INTRA:          -4.425
REMARK INTER:                  -4.425
REMARK INTRA:                   0.000
REMARK UNBOUND:                 0.000
REMARK SMILES CC(C)=C1CC[C@H](C)CC1=O
REMARK SMILES IDX 8 1 7 2 6 3 5 4 4 5 2 6 1 7 3 8 10 9 11 10 9 11
REMARK H PARENT
REMARK Flexibility Score: inf
ROOT
ATOM      1  C   UNL     1      16.621  25.688  27.838  1.00  0.00     0.008 C 
ATOM      2  C   UNL     1      18.002  25.924  28.463  1.00  0.00    -0.006 C 
ATOM      3  C   UNL     1      19.115  25.549  27.472  1.00  0.00     0.008 C 
ATOM      4  C   UNL     1      20.501  25.682  28.115  1.00  0.00     0.039 C 
ATOM      5  C   UNL     1      20.721  27.047  28.752  1.00  0.00    -0.006 C 
ATOM      6  C   UNL     1      21.961  27.618  28.795  1.00  0.00    -0.070 C 
ATOM      7  C   UNL     1      23.171  26.910  28.229  1.00  0.00     0.039 C 
ATOM      8  C   UNL     1      22.182  28.997  29.374  1.00  0.00     0.039 C 
ATOM      9  C   UNL     1      19.534  27.658  29.420  1.00  0.00     0.159 C 
ATOM     10  O   UNL     1      19.660  28.398  30.432  1.00  0.00    -0.295 OA
ATOM     11  C   UNL     1      18.153  27.390  28.892  1.00  0.00     0.084 C 
ENDROOT
TORSDOF 0
ENDMDL
MODEL 4
REMARK VINA RESULT:    -4.407      4.773      7.658
REMARK INTER + INTRA:          -4.407
REMARK INTER:                  -4.407
REMARK INTRA:                   0.000
REMARK UNBOUND:                 0.000
REMARK SMILES CC(C)=C1CC[C@H](C)CC1=O
REMARK SMILES IDX 8 1 7 2 6 3 5 4 4 5 2 6 1 7 3 8 10 9 11 10 9 11
REMARK H PARENT
REMARK Flexibility Score: inf
ROOT
ATOM      1  C   UNL     1      14.274  30.380  29.997  1.00  0.00     0.008 C 
ATOM      2  C   UNL     1      15.579  30.948  29.425  1.00  0.00    -0.006 C 
ATOM      3  C   UNL     1      15.827  32.370  29.951  1.00  0.00     0.008 C 
ATOM      4  C   UNL     1      17.074  32.992  29.310  1.00  0.00     0.039 C 
ATOM      5  C   UNL     1      18.302  32.100  29.435  1.00  0.00    -0.006 C 
ATOM      6  C   UNL     1      19.555  32.630  29.545  1.00  0.00    -0.070 C 
ATOM      7  C   UNL     1      19.779  34.125  29.529  1.00  0.00     0.039 C 
ATOM      8  C   UNL     1      20.775  31.756  29.727  1.00  0.00     0.039 C 
ATOM      9  C   UNL     1      18.061  30.631  29.314  1.00  0.00     0.159 C 
ATOM     10  O   UNL     1      18.925  29.865  28.811  1.00  0.00    -0.295 OA
ATOM     11  C   UNL     1      16.764  30.040  29.787  1.00  0.00     0.084 C 
ENDROOT
TORSDOF 0
ENDMDL
MODEL 5
REMARK VINA RESULT:    -4.376      5.999      7.330
REMARK INTER + INTRA:          -4.376
REMARK INTER:                  -4.376
REMARK INTRA:                   0.000
REMARK UNBOUND:                 0.000
REMARK SMILES CC(C)=C1CC[C@H](C)CC1=O
REMARK SMILES IDX 8 1 7 2 6 3 5 4 4 5 2 6 1 7 3 8 10 9 11 10 9 11
REMARK H PARENT
REMARK Flexibility Score: inf
ROOT
ATOM      1  C   UNL     1      20.504  34.125  29.763  1.00  0.00     0.008 C 
ATOM      2  C   UNL     1      19.317  33.275  29.295  1.00  0.00    -0.006 C 
ATOM      3  C   UNL     1      19.564  31.788  29.595  1.00  0.00     0.008 C 
ATOM      4  C   UNL     1      18.433  30.912  29.042  1.00  0.00     0.039 C 
ATOM      5  C   UNL     1      17.057  31.380  29.496  1.00  0.00    -0.006 C 
ATOM      6  C   UNL     1      16.036  30.494  29.692  1.00  0.00    -0.070 C 
ATOM      7  C   UNL     1      16.224  29.014  29.447  1.00  0.00     0.039 C 
ATOM      8  C   UNL     1      14.683  30.939  30.197  1.00  0.00     0.039 C 
ATOM      9  C   UNL     1      16.867  32.857  29.599  1.00  0.00     0.159 C 
ATOM     10  O   UNL     1      15.749  33.392  29.369  1.00  0.00    -0.295 OA
ATOM     11  C   UNL     1      18.022  33.740  29.976  1.00  0.00     0.084 C 
ENDROOT
TORSDOF 0
ENDMDL
MODEL 6
REMARK VINA RESULT:    -4.371      4.924      7.156
REMARK INTER + INTRA:          -4.371
REMARK INTER:                  -4.371
REMARK INTRA:                   0.000
REMARK UNBOUND:                 0.000
REMARK SMILES CC(C)=C1CC[C@H](C)CC1=O
REMARK SMILES IDX 8 1 7 2 6 3 5 4 4 5 2 6 1 7 3 8 10 9 11 10 9 11
REMARK H PARENT
REMARK Flexibility Score: inf
ROOT
ATOM      1  C   UNL     1      19.129  29.372  28.741  1.00  0.00     0.008 C 
ATOM      2  C   UNL     1      18.350  28.059  28.879  1.00  0.00    -0.006 C 
ATOM      3  C   UNL     1      16.842  28.334  28.984  1.00  0.00     0.008 C 
ATOM      4  C   UNL     1      16.055  27.039  29.225  1.00  0.00     0.039 C 
ATOM      5  C   UNL     1      16.382  25.958  28.204  1.00  0.00    -0.006 C 
ATOM      6  C   UNL     1      15.444  25.047  27.810  1.00  0.00    -0.070 C 
ATOM      7  C   UNL     1      14.046  25.062  28.385  1.00  0.00     0.039 C 
ATOM      8  C   UNL     1      15.741  24.005  26.755  1.00  0.00     0.039 C 
ATOM      9  C   UNL     1      17.805  25.887  27.756  1.00  0.00     0.159 C 
ATOM     10  O   UNL     1      18.339  24.790  27.441  1.00  0.00    -0.295 OA
ATOM     11  C   UNL     1      18.633  27.137  27.683  1.00  0.00     0.084 C 
ENDROOT
TORSDOF 0
ENDMDL
MODEL 7
REMARK VINA RESULT:    -4.349      4.239      6.494
REMARK INTER + INTRA:          -4.349
REMARK INTER:                  -4.349
REMARK INTRA:                   0.000
REMARK UNBOUND:                 0.000
REMARK SMILES CC(C)=C1CC[C@H](C)CC1=O
REMARK SMILES IDX 8 1 7 2 6 3 5 4 4 5 2 6 1 7 3 8 10 9 11 10 9 11
REMARK H PARENT
REMARK Flexibility Score: inf
ROOT
ATOM      1  C   UNL     1      21.082  27.778  29.397  1.00  0.00     0.008 C 
ATOM      2  C   UNL     1      19.831  27.389  28.600  1.00  0.00    -0.006 C 
ATOM      3  C   UNL     1      19.835  25.886  28.285  1.00  0.00     0.008 C 
ATOM      4  C   UNL     1      18.643  25.498  27.401  1.00  0.00     0.039 C 
ATOM      5  C   UNL     1      17.313  25.971  27.973  1.00  0.00    -0.006 C 
ATOM      6  C   UNL     1      16.163  25.263  27.773  1.00  0.00    -0.070 C 
ATOM      7  C   UNL     1      16.158  23.988  26.960  1.00  0.00     0.039 C 
ATOM      8  C   UNL     1      14.849  25.693  28.384  1.00  0.00     0.039 C 
ATOM      9  C   UNL     1      17.328  27.299  28.655  1.00  0.00     0.159 C 
ATOM     10  O   UNL     1      16.323  28.059  28.633  1.00  0.00    -0.295 OA
ATOM     11  C   UNL     1      18.561  27.758  29.381  1.00  0.00     0.084 C 
ENDROOT
TORSDOF 0
ENDMDL
MODEL 8
REMARK VINA RESULT:    -4.327      5.231      6.570
REMARK INTER + INTRA:          -4.327
REMARK INTER:                  -4.327
REMARK INTRA:                   0.000
REMARK UNBOUND:                 0.000
REMARK SMILES CC(C)=C1CC[C@H](C)CC1=O
REMARK SMILES IDX 8 1 7 2 6 3 5 4 4 5 2 6 1 7 3 8 10 9 11 10 9 11
REMARK H PARENT
REMARK Flexibility Score: inf
ROOT
ATOM      1  C   UNL     1      18.542  26.746  28.254  1.00  0.00     0.008 C 
ATOM      2  C   UNL     1      18.385  28.095  28.965  1.00  0.00    -0.006 C 
ATOM      3  C   UNL     1      19.178  29.188  28.233  1.00  0.00     0.008 C 
ATOM      4  C   UNL     1      19.115  30.522  28.987  1.00  0.00     0.039 C 
ATOM      5  C   UNL     1      17.688  30.949  29.302  1.00  0.00    -0.006 C 
ATOM      6  C   UNL     1      17.337  32.267  29.357  1.00  0.00    -0.070 C 
ATOM      7  C   UNL     1      18.355  33.360  29.124  1.00  0.00     0.039 C 
ATOM      8  C   UNL     1      15.911  32.701  29.613  1.00  0.00     0.039 C 
ATOM      9  C   UNL     1      16.739  29.852  29.658  1.00  0.00     0.159 C 
ATOM     10  O   UNL     1      15.796  30.039  30.473  1.00  0.00    -0.295 OA
ATOM     11  C   UNL     1      16.902  28.489  29.048  1.00  0.00     0.084 C 
ENDROOT
TORSDOF 0
ENDMDL
MODEL 9
REMARK VINA RESULT:    -4.301      2.473      5.478
REMARK INTER + INTRA:          -4.301
REMARK INTER:                  -4.301
REMARK INTRA:                   0.000
REMARK UNBOUND:                 0.000
REMARK SMILES CC(C)=C1CC[C@H](C)CC1=O
REMARK SMILES IDX 8 1 7 2 6 3 5 4 4 5 2 6 1 7 3 8 10 9 11 10 9 11
REMARK H PARENT
REMARK Flexibility Score: inf
ROOT
ATOM      1  C   UNL     1      16.609  25.486  27.860  1.00  0.00     0.008 C 
ATOM      2  C   UNL     1      17.773  26.475  27.724  1.00  0.00    -0.006 C 
ATOM      3  C   UNL     1      17.474  27.771  28.494  1.00  0.00     0.008 C 
ATOM      4  C   UNL     1      18.583  28.811  28.286  1.00  0.00     0.039 C 
ATOM      5  C   UNL     1      19.968  28.257  28.589  1.00  0.00    -0.006 C 
ATOM      6  C   UNL     1      20.958  29.055  29.088  1.00  0.00    -0.070 C 
ATOM      7  C   UNL     1      20.725  30.526  29.343  1.00  0.00     0.039 C 
ATOM      8  C   UNL     1      22.319  28.503  29.446  1.00  0.00     0.039 C 
ATOM      9  C   UNL     1      20.205  26.834  28.201  1.00  0.00     0.159 C 
ATOM     10  O   UNL     1      21.342  26.437  27.831  1.00  0.00    -0.295 OA
ATOM     11  C   UNL     1      19.075  25.846  28.241  1.00  0.00     0.084 C 
ENDROOT
TORSDOF 0
ENDMDL
