MODEL 1
REMARK VINA RESULT:    -3.251      0.000      0.000
REMARK INTER + INTRA:          -3.545
REMARK INTER:                  -3.821
REMARK INTRA:                   0.276
REMARK UNBOUND:                 0.276
REMARK SMILES C=C[C@@]1(C)CC[C@@H](C(=C)C)C[C@@H]1C(=C)C
REMARK SMILES IDX 7 1 6 2 5 3 3 4 12 5 11 6 4 7 8 8 10 9 9 10 13 11 14 12
REMARK SMILES IDX 15 13 2 14 1 15
REMARK H PARENT
REMARK Flexibility Score: inf
ROOT
ATOM      1  C   UNL     1      19.450   0.179  -9.318  1.00  0.00     0.015 C 
ATOM      2  C   UNL     1      20.968   0.371  -9.481  1.00  0.00     0.009 C 
ATOM      3  C   UNL     1      21.756  -0.676  -8.682  1.00  0.00     0.012 C 
ATOM      4  C   UNL     1      21.397  -2.131  -9.095  1.00  0.00    -0.008 C 
ATOM      5  C   UNL     1      19.836  -2.377  -9.036  1.00  0.00     0.024 C 
ATOM      6  C   UNL     1      19.013  -1.248  -9.709  1.00  0.00     0.017 C 
ATOM      7  C   UNL     1      22.129  -3.125  -8.161  1.00  0.00     0.016 C 
ENDROOT
BRANCH   1   8
ATOM      8  C   UNL     1      18.677   1.227 -10.112  1.00  0.00    -0.077 C 
ATOM      9  C   UNL     1      19.403   2.145 -11.063  1.00  0.00     0.039 C 
ATOM     10  C   UNL     1      17.344   1.359  -9.989  1.00  0.00     0.008 C 
ENDBRANCH   1   8
BRANCH   5  11
ATOM     11  C   UNL     1      19.252  -2.791  -7.669  1.00  0.00    -0.077 C 
ATOM     12  C   UNL     1      17.951  -3.123  -7.577  1.00  0.00     0.008 C 
ATOM     13  C   UNL     1      20.055  -2.833  -6.392  1.00  0.00     0.039 C 
ENDBRANCH   5  11
BRANCH   4  14
ATOM     14  C   UNL     1      21.878  -2.379 -10.532  1.00  0.00    -0.028 C 
ATOM     15  C   UNL     1      22.951  -3.124 -10.840  1.00  0.00     0.004 C 
ENDBRANCH   4  14
TORSDOF 3
ENDMDL
MODEL 2
REMARK VINA RESULT:    -3.172      1.502      4.594
REMARK INTER + INTRA:          -3.453
REMARK INTER:                  -3.382
REMARK INTRA:                  -0.071
REMARK UNBOUND:                 0.276
REMARK SMILES C=C[C@@]1(C)CC[C@@H](C(=C)C)C[C@@H]1C(=C)C
REMARK SMILES IDX 7 1 6 2 5 3 3 4 12 5 11 6 4 7 8 8 10 9 9 10 13 11 14 12
REMARK SMILES IDX 15 13 2 14 1 15
REMARK H PARENT
REMARK Flexibility Score: inf
ROOT
ATOM      1  C   UNL     1      21.431  -1.331  -7.669  1.00  0.00     0.015 C 
ATOM      2  C   UNL     1      20.418  -2.479  -7.822  1.00  0.00     0.009 C 
ATOM      3  C   UNL     1      19.288  -2.107  -8.791  1.00  0.00     0.012 C 
ATOM      4  C   UNL     1      19.818  -1.727 -10.203  1.00  0.00    -0.008 C 
ATOM      5  C   UNL     1      20.931  -0.608 -10.117  1.00  0.00     0.024 C 
ATOM      6  C   UNL     1      22.003  -0.894  -9.034  1.00  0.00     0.017 C 
ATOM      7  C   UNL     1      18.638  -1.240 -11.079  1.00  0.00     0.016 C 
ENDROOT
BRANCH   1   8
ATOM      8  C   UNL     1      22.547  -1.709  -6.702  1.00  0.00    -0.077 C 
ATOM      9  C   UNL     1      23.065  -3.125  -6.659  1.00  0.00     0.039 C 
ATOM     10  C   UNL     1      23.093  -0.803  -5.872  1.00  0.00     0.008 C 
ENDBRANCH   1   8
BRANCH   5  11
ATOM     11  C   UNL     1      20.441   0.854 -10.083  1.00  0.00    -0.077 C 
ATOM     12  C   UNL     1      21.020   1.767 -10.886  1.00  0.00     0.008 C 
ATOM     13  C   UNL     1      19.342   1.350  -9.176  1.00  0.00     0.039 C 
ENDBRANCH   5  11
BRANCH   4  14
ATOM     14  C   UNL     1      20.424  -2.973 -10.864  1.00  0.00    -0.028 C 
ATOM     15  C   UNL     1      21.735  -3.125 -11.105  1.00  0.00     0.004 C 
ENDBRANCH   4  14
TORSDOF 3
ENDMDL
MODEL 3
REMARK VINA RESULT:    -2.493     11.264     14.707
REMARK INTER + INTRA:          -2.654
REMARK INTER:                  -2.947
REMARK INTRA:                   0.293
REMARK UNBOUND:                 0.276
REMARK SMILES C=C[C@@]1(C)CC[C@@H](C(=C)C)C[C@@H]1C(=C)C
REMARK SMILES IDX 7 1 6 2 5 3 3 4 12 5 11 6 4 7 8 8 10 9 9 10 13 11 14 12
REMARK SMILES IDX 15 13 2 14 1 15
REMARK H PARENT
REMARK Flexibility Score: inf
ROOT
ATOM      1  C   UNL     1      20.530  11.480  -9.947  1.00  0.00     0.015 C 
ATOM      2  C   UNL     1      21.334  12.713 -10.393  1.00  0.00     0.009 C 
ATOM      3  C   UNL     1      20.446  13.728 -11.125  1.00  0.00     0.012 C 
ATOM      4  C   UNL     1      19.251  14.208 -10.254  1.00  0.00    -0.008 C 
ATOM      5  C   UNL     1      18.426  12.985  -9.686  1.00  0.00     0.024 C 
ATOM      6  C   UNL     1      19.320  11.875  -9.075  1.00  0.00     0.017 C 
ATOM      7  C   UNL     1      18.334  15.123 -11.101  1.00  0.00     0.016 C 
ENDROOT
BRANCH   1   8
ATOM      8  C   UNL     1      21.422  10.475  -9.224  1.00  0.00    -0.077 C 
ATOM      9  C   UNL     1      20.858   9.624  -8.115  1.00  0.00     0.039 C 
ATOM     10  C   UNL     1      22.717  10.323  -9.552  1.00  0.00     0.008 C 
ENDBRANCH   1   8
BRANCH   5  11
ATOM     11  C   UNL     1      17.322  12.411 -10.599  1.00  0.00    -0.077 C 
ATOM     12  C   UNL     1      16.399  13.237 -11.125  1.00  0.00     0.008 C 
ATOM     13  C   UNL     1      17.193  10.946 -10.937  1.00  0.00     0.039 C 
ENDBRANCH   5  11
BRANCH   4  14
ATOM     14  C   UNL     1      19.788  15.029  -9.072  1.00  0.00    -0.028 C 
ATOM     15  C   UNL     1      19.034  15.863  -8.341  1.00  0.00     0.004 C 
ENDBRANCH   4  14
TORSDOF 3
ENDMDL
MODEL 4
REMARK VINA RESULT:    -2.407     10.260     13.264
REMARK INTER + INTRA:          -2.553
REMARK INTER:                  -3.003
REMARK INTRA:                   0.450
REMARK UNBOUND:                 0.276
REMARK SMILES C=C[C@@]1(C)CC[C@@H](C(=C)C)C[C@@H]1C(=C)C
REMARK SMILES IDX 7 1 6 2 5 3 3 4 12 5 11 6 4 7 8 8 10 9 9 10 13 11 14 12
REMARK SMILES IDX 15 13 2 14 1 15
REMARK H PARENT
REMARK Flexibility Score: inf
ROOT
ATOM      1  C   UNL     1      20.474  10.688  -7.064  1.00  0.00     0.015 C 
ATOM      2  C   UNL     1      19.128  11.419  -6.913  1.00  0.00     0.009 C 
ATOM      3  C   UNL     1      18.913  12.439  -8.039  1.00  0.00     0.012 C 
ATOM      4  C   UNL     1      18.964  11.787  -9.449  1.00  0.00    -0.008 C 
ATOM      5  C   UNL     1      20.286  10.944  -9.645  1.00  0.00     0.024 C 
ATOM      6  C   UNL     1      20.602  10.013  -8.446  1.00  0.00     0.017 C 
ATOM      7  C   UNL     1      18.871  12.893 -10.529  1.00  0.00     0.016 C 
ENDROOT
BRANCH   1   8
ATOM      8  C   UNL     1      20.680   9.679  -5.939  1.00  0.00    -0.077 C 
ATOM      9  C   UNL     1      20.657   8.201  -6.236  1.00  0.00     0.039 C 
ATOM     10  C   UNL     1      20.884  10.074  -4.671  1.00  0.00     0.008 C 
ENDBRANCH   1   8
BRANCH   5  11
ATOM     11  C   UNL     1      21.532  11.713 -10.132  1.00  0.00    -0.077 C 
ATOM     12  C   UNL     1      22.755  11.181  -9.947  1.00  0.00     0.008 C 
ATOM     13  C   UNL     1      21.475  13.063 -10.803  1.00  0.00     0.039 C 
ENDBRANCH   5  11
BRANCH   4  14
ATOM     14  C   UNL     1      17.757  10.853  -9.615  1.00  0.00    -0.028 C 
ATOM     15  C   UNL     1      16.870  10.952 -10.616  1.00  0.00     0.004 C 
ENDBRANCH   4  14
TORSDOF 3
ENDMDL
MODEL 5
REMARK VINA RESULT:    -1.765     10.625     14.064
REMARK INTER + INTRA:          -1.799
REMARK INTER:                  -1.971
REMARK INTRA:                   0.172
REMARK UNBOUND:                 0.276
REMARK SMILES C=C[C@@]1(C)CC[C@@H](C(=C)C)C[C@@H]1C(=C)C
REMARK SMILES IDX 7 1 6 2 5 3 3 4 12 5 11 6 4 7 8 8 10 9 9 10 13 11 14 12
REMARK SMILES IDX 15 13 2 14 1 15
REMARK H PARENT
REMARK Flexibility Score: inf
ROOT
ATOM      1  C   UNL     1      20.328  11.277  -7.985  1.00  0.00     0.015 C 
ATOM      2  C   UNL     1      18.894  11.814  -7.839  1.00  0.00     0.009 C 
ATOM      3  C   UNL     1      18.645  13.011  -8.766  1.00  0.00     0.012 C 
ATOM      4  C   UNL     1      18.891  12.665 -10.262  1.00  0.00    -0.008 C 
ATOM      5  C   UNL     1      20.320  12.024 -10.476  1.00  0.00     0.024 C 
ATOM      6  C   UNL     1      20.651  10.910  -9.449  1.00  0.00     0.017 C 
ATOM      7  C   UNL     1      18.748  13.948 -11.115  1.00  0.00     0.016 C 
ENDROOT
BRANCH   1   8
ATOM      8  C   UNL     1      20.567  10.090  -7.057  1.00  0.00    -0.077 C 
ATOM      9  C   UNL     1      20.432  10.257  -5.564  1.00  0.00     0.039 C 
ATOM     10  C   UNL     1      20.899   8.879  -7.537  1.00  0.00     0.008 C 
ENDBRANCH   1   8
BRANCH   5  11
ATOM     11  C   UNL     1      21.495  13.003 -10.675  1.00  0.00    -0.077 C 
ATOM     12  C   UNL     1      22.678  12.539 -11.121  1.00  0.00     0.008 C 
ATOM     13  C   UNL     1      21.414  14.481 -10.382  1.00  0.00     0.039 C 
ENDBRANCH   5  11
BRANCH   4  14
ATOM     14  C   UNL     1      17.827  11.659 -10.726  1.00  0.00    -0.028 C 
ATOM     15  C   UNL     1      16.595  12.009 -11.125  1.00  0.00     0.004 C 
ENDBRANCH   4  14
TORSDOF 3
ENDMDL
MODEL 6
REMARK VINA RESULT:    -1.597     10.937     14.472
REMARK INTER + INTRA:          -1.601
REMARK INTER:                  -2.126
REMARK INTRA:                   0.525
REMARK UNBOUND:                 0.276
REMARK SMILES C=C[C@@]1(C)CC[C@@H](C(=C)C)C[C@@H]1C(=C)C
REMARK SMILES IDX 7 1 6 2 5 3 3 4 12 5 11 6 4 7 8 8 10 9 9 10 13 11 14 12
REMARK SMILES IDX 15 13 2 14 1 15
REMARK H PARENT
REMARK Flexibility Score: inf
ROOT
ATOM      1  C   UNL     1      20.767  11.405  -8.896  1.00  0.00     0.015 C 
ATOM      2  C   UNL     1      19.285  11.414  -8.483  1.00  0.00     0.009 C 
ATOM      3  C   UNL     1      18.618  12.756  -8.811  1.00  0.00     0.012 C 
ATOM      4  C   UNL     1      18.710  13.111 -10.322  1.00  0.00    -0.008 C 
ATOM      5  C   UNL     1      20.201  13.036 -10.840  1.00  0.00     0.024 C 
ATOM      6  C   UNL     1      20.942  11.750 -10.390  1.00  0.00     0.017 C 
ATOM      7  C   UNL     1      18.135  14.529 -10.552  1.00  0.00     0.016 C 
ENDROOT
BRANCH   1   8
ATOM      8  C   UNL     1      21.421  10.068  -8.562  1.00  0.00    -0.077 C 
ATOM      9  C   UNL     1      22.700   9.659  -9.249  1.00  0.00     0.039 C 
ATOM     10  C   UNL     1      20.884   9.229  -7.659  1.00  0.00     0.008 C 
ENDBRANCH   1   8
BRANCH   5  11
ATOM     11  C   UNL     1      21.062  14.303 -10.655  1.00  0.00    -0.077 C 
ATOM     12  C   UNL     1      22.356  14.285 -11.025  1.00  0.00     0.008 C 
ATOM     13  C   UNL     1      20.545  15.588 -10.056  1.00  0.00     0.039 C 
ENDBRANCH   5  11
BRANCH   4  14
ATOM     14  C   UNL     1      17.860  12.114 -11.125  1.00  0.00    -0.028 C 
ATOM     15  C   UNL     1      16.773  11.499 -10.636  1.00  0.00     0.004 C 
ENDBRANCH   4  14
TORSDOF 3
ENDMDL
MODEL 7
REMARK VINA RESULT:    -1.481     11.809     14.680
REMARK INTER + INTRA:          -1.465
REMARK INTER:                  -1.498
REMARK INTRA:                   0.034
REMARK UNBOUND:                 0.276
REMARK SMILES C=C[C@@]1(C)CC[C@@H](C(=C)C)C[C@@H]1C(=C)C
REMARK SMILES IDX 7 1 6 2 5 3 3 4 12 5 11 6 4 7 8 8 10 9 9 10 13 11 14 12
REMARK SMILES IDX 15 13 2 14 1 15
REMARK H PARENT
REMARK Flexibility Score: inf
ROOT
ATOM      1  C   UNL     1      19.081  14.704  -9.958  1.00  0.00     0.015 C 
ATOM      2  C   UNL     1      19.681  14.171  -8.646  1.00  0.00     0.009 C 
ATOM      3  C   UNL     1      19.024  12.849  -8.225  1.00  0.00     0.012 C 
ATOM      4  C   UNL     1      19.160  11.746  -9.312  1.00  0.00    -0.008 C 
ATOM      5  C   UNL     1      18.641  12.255 -10.715  1.00  0.00     0.024 C 
ATOM      6  C   UNL     1      19.176  13.661 -11.092  1.00  0.00     0.017 C 
ATOM      7  C   UNL     1      18.365  10.492  -8.872  1.00  0.00     0.016 C 
ENDROOT
BRANCH   1   8
ATOM      8  C   UNL     1      19.737  16.019 -10.367  1.00  0.00    -0.077 C 
ATOM      9  C   UNL     1      18.907  17.122 -10.976  1.00  0.00     0.039 C 
ATOM     10  C   UNL     1      21.053  16.230 -10.197  1.00  0.00     0.008 C 
ENDBRANCH   1   8
BRANCH   5  11
ATOM     11  C   UNL     1      17.129  12.113 -10.988  1.00  0.00    -0.077 C 
ATOM     12  C   UNL     1      16.371  13.218 -11.114  1.00  0.00     0.008 C 
ATOM     13  C   UNL     1      16.420  10.787 -11.108  1.00  0.00     0.039 C 
ENDBRANCH   5  11
BRANCH   4  14
ATOM     14  C   UNL     1      20.638  11.353  -9.448  1.00  0.00    -0.028 C 
ATOM     15  C   UNL     1      21.170  10.252  -8.897  1.00  0.00     0.004 C 
ENDBRANCH   4  14
TORSDOF 3
ENDMDL
