MODEL 1
REMARK VINA RESULT:    -4.086      0.000      0.000
REMARK INTER + INTRA:          -5.699
REMARK INTER:                  -5.519
REMARK INTRA:                  -0.180
REMARK UNBOUND:                -0.180
REMARK SMILES CCCCCCCC(=O)[O-]
REMARK SMILES IDX 5 1 6 2 7 3 8 4 9 5 10 6 4 7 3 8 2 9 1 10
REMARK H PARENT
REMARK Flexibility Score: inf
ROOT
ATOM      1  C   UNL     1     124.099 121.512 120.890  1.00  0.00     0.000 C 
ENDROOT
BRANCH   1   2
ATOM      2  C   UNL     1     124.003 122.586 119.800  1.00  0.00     0.006 C 
BRANCH   2   3
ATOM      3  C   UNL     1     122.550 123.021 119.583  1.00  0.00     0.053 C 
BRANCH   3   4
ATOM      4  C   UNL     1     122.305 124.358 120.207  1.00  0.00     0.041 C 
ATOM      5  O   UNL     1     123.269 125.041 120.640  1.00  0.00    -0.550 OA
ATOM      6  O   UNL     1     121.015 124.871 120.268  1.00  0.00    -0.550 OA
ENDBRANCH   3   4
ENDBRANCH   2   3
ENDBRANCH   1   2
BRANCH   1   7
ATOM      7  C   UNL     1     125.293 120.579 120.637  1.00  0.00     0.000 C 
BRANCH   7   8
ATOM      8  C   UNL     1     126.050 120.223 121.927  1.00  0.00    -0.000 C 
BRANCH   8   9
ATOM      9  C   UNL     1     126.101 118.711 122.184  1.00  0.00    -0.003 C 
ATOM     10  C   UNL     1     126.076 117.929 120.875  1.00  0.00     0.004 C 
ENDBRANCH   8   9
ENDBRANCH   7   8
ENDBRANCH   1   7
TORSDOF 6
ENDMDL
MODEL 2
REMARK VINA RESULT:    -4.030      2.211      3.449
REMARK INTER + INTRA:          -5.623
REMARK INTER:                  -5.266
REMARK INTRA:                  -0.358
REMARK UNBOUND:                -0.180
REMARK SMILES CCCCCCCC(=O)[O-]
REMARK SMILES IDX 5 1 6 2 7 3 8 4 9 5 10 6 4 7 3 8 2 9 1 10
REMARK H PARENT
REMARK Flexibility Score: inf
ROOT
ATOM      1  C   UNL     1     124.356 121.913 120.684  1.00  0.00     0.000 C 
ENDROOT
BRANCH   1   2
ATOM      2  C   UNL     1     123.444 122.559 119.634  1.00  0.00     0.006 C 
BRANCH   2   3
ATOM      3  C   UNL     1     122.080 122.916 120.233  1.00  0.00     0.053 C 
BRANCH   3   4
ATOM      4  C   UNL     1     121.930 124.399 120.347  1.00  0.00     0.041 C 
ATOM      5  O   UNL     1     122.903 125.108 120.717  1.00  0.00    -0.550 OA
ATOM      6  O   UNL     1     120.729 125.005 119.999  1.00  0.00    -0.550 OA
ENDBRANCH   3   4
ENDBRANCH   2   3
ENDBRANCH   1   2
BRANCH   1   7
ATOM      7  C   UNL     1     125.716 122.623 120.742  1.00  0.00     0.000 C 
BRANCH   7   8
ATOM      8  C   UNL     1     125.940 123.366 122.069  1.00  0.00    -0.000 C 
BRANCH   8   9
ATOM      9  C   UNL     1     126.125 124.878 121.876  1.00  0.00    -0.003 C 
ATOM     10  C   UNL     1     125.627 125.653 123.092  1.00  0.00     0.004 C 
ENDBRANCH   8   9
ENDBRANCH   7   8
ENDBRANCH   1   7
TORSDOF 6
ENDMDL
MODEL 3
REMARK VINA RESULT:    -4.007      2.590      4.681
REMARK INTER + INTRA:          -5.593
REMARK INTER:                  -5.248
REMARK INTRA:                  -0.345
REMARK UNBOUND:                -0.180
REMARK SMILES CCCCCCCC(=O)[O-]
REMARK SMILES IDX 5 1 6 2 7 3 8 4 9 5 10 6 4 7 3 8 2 9 1 10
REMARK H PARENT
REMARK Flexibility Score: inf
ROOT
ATOM      1  C   UNL     1     125.421 122.091 121.117  1.00  0.00     0.000 C 
ENDROOT
BRANCH   1   2
ATOM      2  C   UNL     1     125.599 123.612 121.191  1.00  0.00     0.006 C 
BRANCH   2   3
ATOM      3  C   UNL     1     126.108 124.041 122.570  1.00  0.00     0.053 C 
BRANCH   3   4
ATOM      4  C   UNL     1     125.590 125.400 122.920  1.00  0.00     0.041 C 
ATOM      5  O   UNL     1     125.066 126.126 122.034  1.00  0.00    -0.550 OA
ATOM      6  O   UNL     1     125.643 125.847 124.234  1.00  0.00    -0.550 OA
ENDBRANCH   3   4
ENDBRANCH   2   3
ENDBRANCH   1   2
BRANCH   1   7
ATOM      7  C   UNL     1     124.009 121.725 120.637  1.00  0.00     0.000 C 
BRANCH   7   8
ATOM      8  C   UNL     1     123.424 122.766 119.670  1.00  0.00    -0.000 C 
BRANCH   8   9
ATOM      9  C   UNL     1     121.962 123.111 119.987  1.00  0.00    -0.003 C 
ATOM     10  C   UNL     1     121.821 124.570 120.412  1.00  0.00     0.004 C 
ENDBRANCH   8   9
ENDBRANCH   7   8
ENDBRANCH   1   7
TORSDOF 6
ENDMDL
MODEL 4
REMARK VINA RESULT:    -3.949     14.316     14.778
REMARK INTER + INTRA:          -5.514
REMARK INTER:                  -5.357
REMARK INTRA:                  -0.157
REMARK UNBOUND:                -0.180
REMARK SMILES CCCCCCCC(=O)[O-]
REMARK SMILES IDX 5 1 6 2 7 3 8 4 9 5 10 6 4 7 3 8 2 9 1 10
REMARK H PARENT
REMARK Flexibility Score: inf
ROOT
ATOM      1  C   UNL     1     111.608 115.645 126.371  1.00  0.00     0.000 C 
ENDROOT
BRANCH   1   2
ATOM      2  C   UNL     1     110.481 115.950 125.376  1.00  0.00     0.006 C 
BRANCH   2   3
ATOM      3  C   UNL     1     109.240 116.484 126.097  1.00  0.00     0.053 C 
BRANCH   3   4
ATOM      4  C   UNL     1     108.803 117.782 125.496  1.00  0.00     0.041 C 
ATOM      5  O   UNL     1     107.691 117.867 124.913  1.00  0.00    -0.550 OA
ATOM      6  O   UNL     1     109.604 118.910 125.619  1.00  0.00    -0.550 OA
ENDBRANCH   3   4
ENDBRANCH   2   3
ENDBRANCH   1   2
BRANCH   1   7
ATOM      7  C   UNL     1     112.879 115.191 125.640  1.00  0.00     0.000 C 
BRANCH   7   8
ATOM      8  C   UNL     1     114.155 115.432 126.462  1.00  0.00    -0.000 C 
BRANCH   8   9
ATOM      9  C   UNL     1     115.340 114.585 125.978  1.00  0.00    -0.003 C 
ATOM     10  C   UNL     1     115.275 114.359 124.470  1.00  0.00     0.004 C 
ENDBRANCH   8   9
ENDBRANCH   7   8
ENDBRANCH   1   7
TORSDOF 6
ENDMDL
MODEL 5
REMARK VINA RESULT:    -3.780      4.100      6.023
REMARK INTER + INTRA:          -5.285
REMARK INTER:                  -5.038
REMARK INTRA:                  -0.247
REMARK UNBOUND:                -0.180
REMARK SMILES CCCCCCCC(=O)[O-]
REMARK SMILES IDX 5 1 6 2 7 3 8 4 9 5 10 6 4 7 3 8 2 9 1 10
REMARK H PARENT
REMARK Flexibility Score: inf
ROOT
ATOM      1  C   UNL     1     126.121 120.513 121.440  1.00  0.00     0.000 C 
ENDROOT
BRANCH   1   2
ATOM      2  C   UNL     1     126.123 118.981 121.364  1.00  0.00     0.006 C 
BRANCH   2   3
ATOM      3  C   UNL     1     125.722 118.499 119.967  1.00  0.00     0.053 C 
BRANCH   3   4
ATOM      4  C   UNL     1     125.425 117.033 119.985  1.00  0.00     0.041 C 
ATOM      5  O   UNL     1     125.950 116.291 120.856  1.00  0.00    -0.550 OA
ATOM      6  O   UNL     1     124.532 116.493 119.068  1.00  0.00    -0.550 OA
ENDBRANCH   3   4
ENDBRANCH   2   3
ENDBRANCH   1   2
BRANCH   1   7
ATOM      7  C   UNL     1     125.530 121.125 120.161  1.00  0.00     0.000 C 
BRANCH   7   8
ATOM      8  C   UNL     1     124.696 122.387 120.439  1.00  0.00    -0.000 C 
BRANCH   8   9
ATOM      9  C   UNL     1     123.185 122.119 120.393  1.00  0.00    -0.003 C 
ATOM     10  C   UNL     1     122.448 123.248 119.680  1.00  0.00     0.004 C 
ENDBRANCH   8   9
ENDBRANCH   7   8
ENDBRANCH   1   7
TORSDOF 6
ENDMDL
MODEL 6
REMARK VINA RESULT:    -3.756     14.654     15.954
REMARK INTER + INTRA:          -5.254
REMARK INTER:                  -5.005
REMARK INTRA:                  -0.249
REMARK UNBOUND:                -0.180
REMARK SMILES CCCCCCCC(=O)[O-]
REMARK SMILES IDX 5 1 6 2 7 3 8 4 9 5 10 6 4 7 3 8 2 9 1 10
REMARK H PARENT
REMARK Flexibility Score: inf
ROOT
ATOM      1  C   UNL     1     109.240 116.739 125.973  1.00  0.00     0.000 C 
ENDROOT
BRANCH   1   2
ATOM      2  C   UNL     1     110.541 116.186 125.378  1.00  0.00     0.006 C 
BRANCH   2   3
ATOM      3  C   UNL     1     111.371 115.464 126.445  1.00  0.00     0.053 C 
BRANCH   3   4
ATOM      4  C   UNL     1     112.800 115.365 126.018  1.00  0.00     0.041 C 
ATOM      5  O   UNL     1     113.087 115.071 124.827  1.00  0.00    -0.550 OA
ATOM      6  O   UNL     1     113.817 115.642 126.922  1.00  0.00    -0.550 OA
ENDBRANCH   3   4
ENDBRANCH   2   3
ENDBRANCH   1   2
BRANCH   1   7
ATOM      7  C   UNL     1     108.708 117.910 125.135  1.00  0.00     0.000 C 
BRANCH   7   8
ATOM      8  C   UNL     1     109.589 119.165 125.244  1.00  0.00    -0.000 C 
BRANCH   8   9
ATOM      9  C   UNL     1     109.536 120.037 123.981  1.00  0.00    -0.003 C 
ATOM     10  C   UNL     1     108.361 119.643 123.090  1.00  0.00     0.004 C 
ENDBRANCH   8   9
ENDBRANCH   7   8
ENDBRANCH   1   7
TORSDOF 6
ENDMDL
MODEL 7
REMARK VINA RESULT:    -3.748     15.557     16.233
REMARK INTER + INTRA:          -5.242
REMARK INTER:                  -4.963
REMARK INTRA:                  -0.279
REMARK UNBOUND:                -0.180
REMARK SMILES CCCCCCCC(=O)[O-]
REMARK SMILES IDX 5 1 6 2 7 3 8 4 9 5 10 6 4 7 3 8 2 9 1 10
REMARK H PARENT
REMARK Flexibility Score: inf
ROOT
ATOM      1  C   UNL     1     108.558 116.748 126.005  1.00  0.00     0.000 C 
ENDROOT
BRANCH   1   2
ATOM      2  C   UNL     1     108.355 118.030 125.189  1.00  0.00     0.006 C 
BRANCH   2   3
ATOM      3  C   UNL     1     109.557 118.969 125.333  1.00  0.00     0.053 C 
BRANCH   3   4
ATOM      4  C   UNL     1     109.723 119.799 124.099  1.00  0.00     0.041 C 
ATOM      5  O   UNL     1     109.907 121.041 124.191  1.00  0.00    -0.550 OA
ATOM      6  O   UNL     1     109.723 119.193 122.849  1.00  0.00    -0.550 OA
ENDBRANCH   3   4
ENDBRANCH   2   3
ENDBRANCH   1   2
BRANCH   1   7
ATOM      7  C   UNL     1     110.014 116.267 125.921  1.00  0.00     0.000 C 
BRANCH   7   8
ATOM      8  C   UNL     1     110.384 115.297 127.054  1.00  0.00    -0.000 C 
BRANCH   8   9
ATOM      9  C   UNL     1     109.174 114.900 127.912  1.00  0.00    -0.003 C 
ATOM     10  C   UNL     1     109.601 114.054 129.107  1.00  0.00     0.004 C 
ENDBRANCH   8   9
ENDBRANCH   7   8
ENDBRANCH   1   7
TORSDOF 6
ENDMDL
MODEL 8
REMARK VINA RESULT:    -3.678      1.425      2.647
REMARK INTER + INTRA:          -5.148
REMARK INTER:                  -4.918
REMARK INTRA:                  -0.230
REMARK UNBOUND:                -0.180
REMARK SMILES CCCCCCCC(=O)[O-]
REMARK SMILES IDX 5 1 6 2 7 3 8 4 9 5 10 6 4 7 3 8 2 9 1 10
REMARK H PARENT
REMARK Flexibility Score: inf
ROOT
ATOM      1  C   UNL     1     125.974 119.916 120.653  1.00  0.00     0.000 C 
ENDROOT
BRANCH   1   2
ATOM      2  C   UNL     1     125.490 121.259 121.212  1.00  0.00     0.006 C 
BRANCH   2   3
ATOM      3  C   UNL     1     124.197 121.707 120.525  1.00  0.00     0.053 C 
BRANCH   3   4
ATOM      4  C   UNL     1     124.121 123.200 120.474  1.00  0.00     0.041 C 
ATOM      5  O   UNL     1     123.155 123.766 119.899  1.00  0.00    -0.550 OA
ATOM      6  O   UNL     1     125.093 123.968 121.104  1.00  0.00    -0.550 OA
ENDBRANCH   3   4
ENDBRANCH   2   3
ENDBRANCH   1   2
BRANCH   1   7
ATOM      7  C   UNL     1     126.125 118.877 121.774  1.00  0.00     0.000 C 
BRANCH   7   8
ATOM      8  C   UNL     1     126.065 117.431 121.253  1.00  0.00    -0.000 C 
BRANCH   8   9
ATOM      9  C   UNL     1     125.336 117.318 119.907  1.00  0.00    -0.003 C 
ATOM     10  C   UNL     1     125.560 115.948 119.274  1.00  0.00     0.004 C 
ENDBRANCH   8   9
ENDBRANCH   7   8
ENDBRANCH   1   7
TORSDOF 6
ENDMDL
MODEL 9
REMARK VINA RESULT:    -3.309      3.620      6.046
REMARK INTER + INTRA:          -4.650
REMARK INTER:                  -4.469
REMARK INTRA:                  -0.181
REMARK UNBOUND:                -0.180
REMARK SMILES CCCCCCCC(=O)[O-]
REMARK SMILES IDX 5 1 6 2 7 3 8 4 9 5 10 6 4 7 3 8 2 9 1 10
REMARK H PARENT
REMARK Flexibility Score: inf
ROOT
ATOM      1  C   UNL     1     124.395 121.314 120.840  1.00  0.00     0.000 C 
ENDROOT
BRANCH   1   2
ATOM      2  C   UNL     1     125.657 120.694 120.227  1.00  0.00     0.006 C 
BRANCH   2   3
ATOM      3  C   UNL     1     126.092 119.449 121.006  1.00  0.00     0.053 C 
BRANCH   3   4
ATOM      4  C   UNL     1     126.108 118.251 120.111  1.00  0.00     0.041 C 
ATOM      5  O   UNL     1     126.125 117.092 120.604  1.00  0.00    -0.550 OA
ATOM      6  O   UNL     1     126.056 118.412 118.732  1.00  0.00    -0.550 OA
ENDBRANCH   3   4
ENDBRANCH   2   3
ENDBRANCH   1   2
BRANCH   1   7
ATOM      7  C   UNL     1     123.910 122.509 120.006  1.00  0.00     0.000 C 
BRANCH   7   8
ATOM      8  C   UNL     1     122.379 122.642 119.996  1.00  0.00    -0.000 C 
BRANCH   8   9
ATOM      9  C   UNL     1     121.911 124.095 120.165  1.00  0.00    -0.003 C 
ATOM     10  C   UNL     1     123.073 125.007 120.542  1.00  0.00     0.004 C 
ENDBRANCH   8   9
ENDBRANCH   7   8
ENDBRANCH   1   7
TORSDOF 6
ENDMDL
