MODEL 1
REMARK VINA RESULT:    -4.626      0.000      0.000
REMARK INTER + INTRA:          -5.297
REMARK INTER:                  -5.167
REMARK INTRA:                  -0.130
REMARK UNBOUND:                -0.130
REMARK SMILES O=C([O-])C=Cc1ccccc1
REMARK SMILES IDX 4 1 5 2 2 3 1 4 3 5 6 6 7 7 11 8 8 9 10 10 9 11
REMARK H PARENT
REMARK Flexibility Score: inf
ROOT
ATOM      1  C   UNL     1      -4.518  38.110  18.162  1.00  0.00     0.025 C 
ATOM      2  C   UNL     1      -5.758  37.801  18.572  1.00  0.00     0.010 C 
ENDROOT
BRANCH   1   3
ATOM      3  C   UNL     1      -4.053  37.832  16.793  1.00  0.00     0.064 C 
ATOM      4  O   UNL     1      -4.122  36.672  16.302  1.00  0.00    -0.545 OA
ATOM      5  O   UNL     1      -3.527  38.864  16.027  1.00  0.00    -0.545 OA
ENDBRANCH   1   3
BRANCH   2   6
ATOM      6  C   UNL     1      -6.289  38.056  19.939  1.00  0.00    -0.026 A 
ATOM      7  C   UNL     1      -7.208  39.085  20.235  1.00  0.00     0.008 A 
ATOM      8  C   UNL     1      -5.851  37.224  20.986  1.00  0.00     0.008 A 
ATOM      9  C   UNL     1      -7.669  39.270  21.543  1.00  0.00     0.001 A 
ATOM     10  C   UNL     1      -6.314  37.414  22.291  1.00  0.00     0.001 A 
ATOM     11  C   UNL     1      -7.223  38.436  22.569  1.00  0.00     0.000 A 
ENDBRANCH   2   6
TORSDOF 2
ENDMDL
MODEL 2
REMARK VINA RESULT:    -4.616      0.106      1.462
REMARK INTER + INTRA:          -5.286
REMARK INTER:                  -5.159
REMARK INTRA:                  -0.127
REMARK UNBOUND:                -0.130
REMARK SMILES O=C([O-])C=Cc1ccccc1
REMARK SMILES IDX 4 1 5 2 2 3 1 4 3 5 6 6 7 7 11 8 8 9 10 10 9 11
REMARK H PARENT
REMARK Flexibility Score: inf
ROOT
ATOM      1  C   UNL     1      -4.478  38.100  18.242  1.00  0.00     0.025 C 
ATOM      2  C   UNL     1      -5.720  37.808  18.657  1.00  0.00     0.010 C 
ENDROOT
BRANCH   1   3
ATOM      3  C   UNL     1      -4.036  37.860  16.858  1.00  0.00     0.064 C 
ATOM      4  O   UNL     1      -4.143  36.722  16.326  1.00  0.00    -0.545 OA
ATOM      5  O   UNL     1      -3.493  38.907  16.124  1.00  0.00    -0.545 OA
ENDBRANCH   1   3
BRANCH   2   6
ATOM      6  C   UNL     1      -6.228  38.025  20.039  1.00  0.00    -0.026 A 
ATOM      7  C   UNL     1      -5.833  37.240  21.143  1.00  0.00     0.008 A 
ATOM      8  C   UNL     1      -7.149  39.069  20.251  1.00  0.00     0.008 A 
ATOM      9  C   UNL     1      -6.350  37.498  22.418  1.00  0.00     0.001 A 
ATOM     10  C   UNL     1      -7.661  39.321  21.527  1.00  0.00     0.001 A 
ATOM     11  C   UNL     1      -7.262  38.537  22.609  1.00  0.00     0.000 A 
ENDBRANCH   2   6
TORSDOF 2
ENDMDL
MODEL 3
REMARK VINA RESULT:    -4.457     11.841     13.270
REMARK INTER + INTRA:          -5.108
REMARK INTER:                  -4.976
REMARK INTRA:                  -0.132
REMARK UNBOUND:                -0.130
REMARK SMILES O=C([O-])C=Cc1ccccc1
REMARK SMILES IDX 4 1 5 2 2 3 1 4 3 5 6 6 7 7 11 8 8 9 10 10 9 11
REMARK H PARENT
REMARK Flexibility Score: inf
ROOT
ATOM      1  C   UNL     1      -1.399  38.018  30.133  1.00  0.00     0.025 C 
ATOM      2  C   UNL     1      -0.845  38.877  31.002  1.00  0.00     0.010 C 
ENDROOT
BRANCH   1   3
ATOM      3  C   UNL     1      -2.634  37.278  30.441  1.00  0.00     0.064 C 
ATOM      4  O   UNL     1      -3.243  36.623  29.552  1.00  0.00    -0.545 OA
ATOM      5  O   UNL     1      -3.139  37.300  31.735  1.00  0.00    -0.545 OA
ENDBRANCH   1   3
BRANCH   2   6
ATOM      6  C   UNL     1       0.400  39.654  30.752  1.00  0.00    -0.026 A 
ATOM      7  C   UNL     1       0.817  40.059  29.466  1.00  0.00     0.008 A 
ATOM      8  C   UNL     1       1.197  40.002  31.859  1.00  0.00     0.008 A 
ATOM      9  C   UNL     1       2.000  40.789  29.302  1.00  0.00     0.001 A 
ATOM     10  C   UNL     1       2.377  40.732  31.688  1.00  0.00     0.001 A 
ATOM     11  C   UNL     1       2.778  41.125  30.410  1.00  0.00     0.000 A 
ENDBRANCH   2   6
TORSDOF 2
ENDMDL
MODEL 4
REMARK VINA RESULT:    -4.385     13.505     15.243
REMARK INTER + INTRA:          -5.028
REMARK INTER:                  -4.900
REMARK INTRA:                  -0.129
REMARK UNBOUND:                -0.130
REMARK SMILES O=C([O-])C=Cc1ccccc1
REMARK SMILES IDX 4 1 5 2 2 3 1 4 3 5 6 6 7 7 11 8 8 9 10 10 9 11
REMARK H PARENT
REMARK Flexibility Score: inf
ROOT
ATOM      1  C   UNL     1      -5.950  34.112  34.402  1.00  0.00     0.025 C 
ATOM      2  C   UNL     1      -4.740  34.151  33.824  1.00  0.00     0.010 C 
ENDROOT
BRANCH   1   3
ATOM      3  C   UNL     1      -6.434  32.928  35.131  1.00  0.00     0.064 C 
ATOM      4  O   UNL     1      -7.471  32.979  35.846  1.00  0.00    -0.545 OA
ATOM      5  O   UNL     1      -5.735  31.732  35.030  1.00  0.00    -0.545 OA
ENDBRANCH   1   3
BRANCH   2   6
ATOM      6  C   UNL     1      -4.193  35.314  33.074  1.00  0.00    -0.026 A 
ATOM      7  C   UNL     1      -4.027  36.596  33.643  1.00  0.00     0.008 A 
ATOM      8  C   UNL     1      -3.823  35.122  31.730  1.00  0.00     0.008 A 
ATOM      9  C   UNL     1      -3.506  37.648  32.880  1.00  0.00     0.001 A 
ATOM     10  C   UNL     1      -3.303  36.177  30.974  1.00  0.00     0.001 A 
ATOM     11  C   UNL     1      -3.144  37.438  31.549  1.00  0.00     0.000 A 
ENDBRANCH   2   6
TORSDOF 2
ENDMDL
MODEL 5
REMARK VINA RESULT:    -4.329     15.670     16.820
REMARK INTER + INTRA:          -4.965
REMARK INTER:                  -4.826
REMARK INTRA:                  -0.139
REMARK UNBOUND:                -0.130
REMARK SMILES O=C([O-])C=Cc1ccccc1
REMARK SMILES IDX 4 1 5 2 2 3 1 4 3 5 6 6 7 7 11 8 8 9 10 10 9 11
REMARK H PARENT
REMARK Flexibility Score: inf
ROOT
ATOM      1  C   UNL     1      -5.450  31.234  34.982  1.00  0.00     0.025 C 
ATOM      2  C   UNL     1      -6.343  32.235  34.999  1.00  0.00     0.010 C 
ENDROOT
BRANCH   1   3
ATOM      3  C   UNL     1      -5.857  29.819  34.969  1.00  0.00     0.064 C 
ATOM      4  O   UNL     1      -6.179  29.222  36.032  1.00  0.00    -0.545 OA
ATOM      5  O   UNL     1      -5.888  29.129  33.764  1.00  0.00    -0.545 OA
ENDBRANCH   1   3
BRANCH   2   6
ATOM      6  C   UNL     1      -5.998  33.683  35.012  1.00  0.00    -0.026 A 
ATOM      7  C   UNL     1      -6.714  34.645  35.757  1.00  0.00     0.008 A 
ATOM      8  C   UNL     1      -4.900  34.109  34.242  1.00  0.00     0.008 A 
ATOM      9  C   UNL     1      -6.336  35.992  35.724  1.00  0.00     0.001 A 
ATOM     10  C   UNL     1      -4.527  35.457  34.214  1.00  0.00     0.001 A 
ATOM     11  C   UNL     1      -5.244  36.396  34.955  1.00  0.00     0.000 A 
ENDBRANCH   2   6
TORSDOF 2
ENDMDL
MODEL 6
REMARK VINA RESULT:    -4.318     13.483     15.216
REMARK INTER + INTRA:          -4.953
REMARK INTER:                  -4.811
REMARK INTRA:                  -0.142
REMARK UNBOUND:                -0.130
REMARK SMILES O=C([O-])C=Cc1ccccc1
REMARK SMILES IDX 4 1 5 2 2 3 1 4 3 5 6 6 7 7 11 8 8 9 10 10 9 11
REMARK H PARENT
REMARK Flexibility Score: inf
ROOT
ATOM      1  C   UNL     1      -5.797  34.238  34.475  1.00  0.00     0.025 C 
ATOM      2  C   UNL     1      -4.760  34.199  33.626  1.00  0.00     0.010 C 
ENDROOT
BRANCH   1   3
ATOM      3  C   UNL     1      -6.315  33.028  35.136  1.00  0.00     0.064 C 
ATOM      4  O   UNL     1      -5.731  31.917  35.018  1.00  0.00    -0.545 OA
ATOM      5  O   UNL     1      -7.469  33.111  35.905  1.00  0.00    -0.545 OA
ENDBRANCH   1   3
BRANCH   2   6
ATOM      6  C   UNL     1      -4.189  35.383  32.926  1.00  0.00    -0.026 A 
ATOM      7  C   UNL     1      -3.727  35.348  31.593  1.00  0.00     0.008 A 
ATOM      8  C   UNL     1      -4.109  36.596  33.635  1.00  0.00     0.008 A 
ATOM      9  C   UNL     1      -3.200  36.499  30.995  1.00  0.00     0.001 A 
ATOM     10  C   UNL     1      -3.582  37.742  33.031  1.00  0.00     0.001 A 
ATOM     11  C   UNL     1      -3.129  37.693  31.713  1.00  0.00     0.000 A 
ENDBRANCH   2   6
TORSDOF 2
ENDMDL
MODEL 7
REMARK VINA RESULT:    -4.310      1.840      2.367
REMARK INTER + INTRA:          -4.944
REMARK INTER:                  -4.801
REMARK INTRA:                  -0.143
REMARK UNBOUND:                -0.130
REMARK SMILES O=C([O-])C=Cc1ccccc1
REMARK SMILES IDX 4 1 5 2 2 3 1 4 3 5 6 6 7 7 11 8 8 9 10 10 9 11
REMARK H PARENT
REMARK Flexibility Score: inf
ROOT
ATOM      1  C   UNL     1      -3.326  37.693  19.122  1.00  0.00     0.025 C 
ATOM      2  C   UNL     1      -4.016  37.111  20.115  1.00  0.00     0.010 C 
ENDROOT
BRANCH   1   3
ATOM      3  C   UNL     1      -2.151  37.055  18.504  1.00  0.00     0.064 C 
ATOM      4  O   UNL     1      -2.232  35.917  17.967  1.00  0.00    -0.545 OA
ATOM      5  O   UNL     1      -0.931  37.719  18.511  1.00  0.00    -0.545 OA
ENDBRANCH   1   3
BRANCH   2   6
ATOM      6  C   UNL     1      -5.209  37.701  20.780  1.00  0.00    -0.026 A 
ATOM      7  C   UNL     1      -5.589  37.396  22.105  1.00  0.00     0.008 A 
ATOM      8  C   UNL     1      -5.996  38.609  20.047  1.00  0.00     0.008 A 
ATOM      9  C   UNL     1      -6.724  37.987  22.671  1.00  0.00     0.001 A 
ATOM     10  C   UNL     1      -7.129  39.196  20.619  1.00  0.00     0.001 A 
ATOM     11  C   UNL     1      -7.492  38.885  21.929  1.00  0.00     0.000 A 
ENDBRANCH   2   6
TORSDOF 2
ENDMDL
MODEL 8
REMARK VINA RESULT:    -4.213      6.893      9.086
REMARK INTER + INTRA:          -4.836
REMARK INTER:                  -4.691
REMARK INTRA:                  -0.145
REMARK UNBOUND:                -0.130
REMARK SMILES O=C([O-])C=Cc1ccccc1
REMARK SMILES IDX 4 1 5 2 2 3 1 4 3 5 6 6 7 7 11 8 8 9 10 10 9 11
REMARK H PARENT
REMARK Flexibility Score: inf
ROOT
ATOM      1  C   UNL     1      -0.769  34.226  16.685  1.00  0.00     0.025 C 
ATOM      2  C   UNL     1      -1.129  33.075  17.273  1.00  0.00     0.010 C 
ENDROOT
BRANCH   1   3
ATOM      3  C   UNL     1      -1.502  35.483  16.907  1.00  0.00     0.064 C 
ATOM      4  O   UNL     1      -1.078  36.353  17.716  1.00  0.00    -0.545 OA
ATOM      5  O   UNL     1      -2.683  35.717  16.214  1.00  0.00    -0.545 OA
ENDBRANCH   1   3
BRANCH   2   6
ATOM      6  C   UNL     1      -0.431  31.772  17.091  1.00  0.00    -0.026 A 
ATOM      7  C   UNL     1      -0.844  30.577  17.718  1.00  0.00     0.008 A 
ATOM      8  C   UNL     1       0.695  31.736  16.249  1.00  0.00     0.008 A 
ATOM      9  C   UNL     1      -0.142  29.385  17.504  1.00  0.00     0.001 A 
ATOM     10  C   UNL     1       1.392  30.542  16.038  1.00  0.00     0.001 A 
ATOM     11  C   UNL     1       0.973  29.368  16.665  1.00  0.00     0.000 A 
ENDBRANCH   2   6
TORSDOF 2
ENDMDL
MODEL 9
REMARK VINA RESULT:    -4.151     18.284     19.505
REMARK INTER + INTRA:          -4.767
REMARK INTER:                  -4.636
REMARK INTRA:                  -0.131
REMARK UNBOUND:                -0.130
REMARK SMILES O=C([O-])C=Cc1ccccc1
REMARK SMILES IDX 4 1 5 2 2 3 1 4 3 5 6 6 7 7 11 8 8 9 10 10 9 11
REMARK H PARENT
REMARK Flexibility Score: inf
ROOT
ATOM      1  C   UNL     1      -6.366  23.425  32.205  1.00  0.00     0.025 C 
ATOM      2  C   UNL     1      -6.148  23.904  33.439  1.00  0.00     0.010 C 
ENDROOT
BRANCH   1   3
ATOM      3  C   UNL     1      -6.082  22.026  31.844  1.00  0.00     0.064 C 
ATOM      4  O   UNL     1      -5.958  21.674  30.640  1.00  0.00    -0.545 OA
ATOM      5  O   UNL     1      -5.947  21.076  32.848  1.00  0.00    -0.545 OA
ENDBRANCH   1   3
BRANCH   2   6
ATOM      6  C   UNL     1      -6.413  25.304  33.867  1.00  0.00    -0.026 A 
ATOM      7  C   UNL     1      -7.516  25.676  34.667  1.00  0.00     0.008 A 
ATOM      8  C   UNL     1      -5.517  26.306  33.450  1.00  0.00     0.008 A 
ATOM      9  C   UNL     1      -7.707  27.013  35.034  1.00  0.00     0.001 A 
ATOM     10  C   UNL     1      -5.714  27.640  33.820  1.00  0.00     0.001 A 
ATOM     11  C   UNL     1      -6.808  27.992  34.612  1.00  0.00     0.000 A 
ENDBRANCH   2   6
TORSDOF 2
ENDMDL
