MODEL 1
REMARK VINA RESULT:    -4.196      0.000      0.000
REMARK INTER + INTRA:          -4.463
REMARK INTER:                  -4.441
REMARK INTRA:                  -0.022
REMARK UNBOUND:                -0.022
REMARK SMILES O=C([O-])c1cccnc1
REMARK SMILES IDX 4 1 5 2 9 3 6 4 8 5 7 6 2 7 1 8 3 9
REMARK H PARENT
REMARK Flexibility Score: inf
ROOT
ATOM      1  C   UNL     1      -6.663   7.533  25.425  1.00  0.00     0.016 A 
ATOM      2  C   UNL     1      -6.108   7.506  24.135  1.00  0.00     0.013 A 
ATOM      3  C   UNL     1      -7.852   8.258  25.626  1.00  0.00     0.120 A 
ATOM      4  C   UNL     1      -6.733   8.188  23.089  1.00  0.00     0.021 A 
ATOM      5  N   UNL     1      -8.440   8.913  24.589  1.00  0.00    -0.264 NA
ATOM      6  C   UNL     1      -7.910   8.894  23.338  1.00  0.00     0.111 A 
ENDROOT
BRANCH   1   7
ATOM      7  C   UNL     1      -6.012   6.814  26.541  1.00  0.00     0.073 C 
ATOM      8  O   UNL     1      -6.168   7.201  27.730  1.00  0.00    -0.545 OA
ATOM      9  O   UNL     1      -5.218   5.701  26.293  1.00  0.00    -0.545 OA
ENDBRANCH   1   7
TORSDOF 1
ENDMDL
MODEL 2
REMARK VINA RESULT:    -4.154      6.674      8.408
REMARK INTER + INTRA:          -4.419
REMARK INTER:                  -4.395
REMARK INTRA:                  -0.024
REMARK UNBOUND:                -0.022
REMARK SMILES O=C([O-])c1cccnc1
REMARK SMILES IDX 4 1 5 2 9 3 6 4 8 5 7 6 2 7 1 8 3 9
REMARK H PARENT
REMARK Flexibility Score: inf
ROOT
ATOM      1  C   UNL     1      -5.031   5.940  32.006  1.00  0.00     0.016 A 
ATOM      2  C   UNL     1      -4.604   4.612  31.851  1.00  0.00     0.013 A 
ATOM      3  C   UNL     1      -4.859   6.556  33.259  1.00  0.00     0.120 A 
ATOM      4  C   UNL     1      -4.024   3.932  32.924  1.00  0.00     0.021 A 
ATOM      5  N   UNL     1      -4.291   5.871  34.288  1.00  0.00    -0.264 NA
ATOM      6  C   UNL     1      -3.875   4.585  34.148  1.00  0.00     0.111 A 
ENDROOT
BRANCH   1   7
ATOM      7  C   UNL     1      -5.645   6.672  30.877  1.00  0.00     0.073 C 
ATOM      8  O   UNL     1      -5.698   6.153  29.730  1.00  0.00    -0.545 OA
ATOM      9  O   UNL     1      -6.173   7.943  31.067  1.00  0.00    -0.545 OA
ENDBRANCH   1   7
TORSDOF 1
ENDMDL
MODEL 3
REMARK VINA RESULT:    -4.048      3.035      4.010
REMARK INTER + INTRA:          -4.307
REMARK INTER:                  -4.289
REMARK INTRA:                  -0.018
REMARK UNBOUND:                -0.022
REMARK SMILES O=C([O-])c1cccnc1
REMARK SMILES IDX 4 1 5 2 9 3 6 4 8 5 7 6 2 7 1 8 3 9
REMARK H PARENT
REMARK Flexibility Score: inf
ROOT
ATOM      1  C   UNL     1      -6.971   8.240  24.533  1.00  0.00     0.016 A 
ATOM      2  C   UNL     1      -7.546   8.026  25.795  1.00  0.00     0.013 A 
ATOM      3  C   UNL     1      -5.754   7.599  24.236  1.00  0.00     0.120 A 
ATOM      4  C   UNL     1      -6.915   7.195  26.723  1.00  0.00     0.021 A 
ATOM      5  N   UNL     1      -5.159   6.794  25.157  1.00  0.00    -0.264 NA
ATOM      6  C   UNL     1      -5.709   6.581  26.383  1.00  0.00     0.111 A 
ENDROOT
BRANCH   1   7
ATOM      7  C   UNL     1      -7.630   9.117  23.542  1.00  0.00     0.073 C 
ATOM      8  O   UNL     1      -8.767   8.826  23.084  1.00  0.00    -0.545 OA
ATOM      9  O   UNL     1      -7.001  10.275  23.100  1.00  0.00    -0.545 OA
ENDBRANCH   1   7
TORSDOF 1
ENDMDL
MODEL 4
REMARK VINA RESULT:    -4.039      1.054      2.062
REMARK INTER + INTRA:          -4.297
REMARK INTER:                  -4.275
REMARK INTRA:                  -0.022
REMARK UNBOUND:                -0.022
REMARK SMILES O=C([O-])c1cccnc1
REMARK SMILES IDX 4 1 5 2 9 3 6 4 8 5 7 6 2 7 1 8 3 9
REMARK H PARENT
REMARK Flexibility Score: inf
ROOT
ATOM      1  C   UNL     1      -6.533   7.229  25.917  1.00  0.00     0.016 A 
ATOM      2  C   UNL     1      -7.779   7.590  26.454  1.00  0.00     0.013 A 
ATOM      3  C   UNL     1      -6.193   7.708  24.639  1.00  0.00     0.120 A 
ATOM      4  C   UNL     1      -8.647   8.405  25.726  1.00  0.00     0.021 A 
ATOM      5  N   UNL     1      -7.057   8.501  23.950  1.00  0.00    -0.264 NA
ATOM      6  C   UNL     1      -8.265   8.856  24.462  1.00  0.00     0.111 A 
ENDROOT
BRANCH   1   7
ATOM      7  C   UNL     1      -5.604   6.367  26.678  1.00  0.00     0.073 C 
ATOM      8  O   UNL     1      -4.710   5.706  26.085  1.00  0.00    -0.545 OA
ATOM      9  O   UNL     1      -5.705   6.274  28.061  1.00  0.00    -0.545 OA
ENDBRANCH   1   7
TORSDOF 1
ENDMDL
MODEL 5
REMARK VINA RESULT:    -4.028      2.860      3.360
REMARK INTER + INTRA:          -4.285
REMARK INTER:                  -4.263
REMARK INTRA:                  -0.022
REMARK UNBOUND:                -0.022
REMARK SMILES O=C([O-])c1cccnc1
REMARK SMILES IDX 4 1 5 2 9 3 6 4 8 5 7 6 2 7 1 8 3 9
REMARK H PARENT
REMARK Flexibility Score: inf
ROOT
ATOM      1  C   UNL     1      -6.585   7.244  26.567  1.00  0.00     0.016 A 
ATOM      2  C   UNL     1      -6.094   8.432  26.003  1.00  0.00     0.013 A 
ATOM      3  C   UNL     1      -5.717   6.141  26.662  1.00  0.00     0.120 A 
ATOM      4  C   UNL     1      -4.774   8.502  25.555  1.00  0.00     0.021 A 
ATOM      5  N   UNL     1      -4.435   6.236  26.217  1.00  0.00    -0.264 NA
ATOM      6  C   UNL     1      -3.950   7.382  25.671  1.00  0.00     0.111 A 
ENDROOT
BRANCH   1   7
ATOM      7  C   UNL     1      -7.981   7.157  27.046  1.00  0.00     0.073 C 
ATOM      8  O   UNL     1      -8.873   7.902  26.562  1.00  0.00    -0.545 OA
ATOM      9  O   UNL     1      -8.327   6.250  28.041  1.00  0.00    -0.545 OA
ENDBRANCH   1   7
TORSDOF 1
ENDMDL
MODEL 6
REMARK VINA RESULT:    -4.023      4.581      6.279
REMARK INTER + INTRA:          -4.280
REMARK INTER:                  -4.262
REMARK INTRA:                  -0.018
REMARK UNBOUND:                -0.022
REMARK SMILES O=C([O-])c1cccnc1
REMARK SMILES IDX 4 1 5 2 9 3 6 4 8 5 7 6 2 7 1 8 3 9
REMARK H PARENT
REMARK Flexibility Score: inf
ROOT
ATOM      1  C   UNL     1      -6.343   6.272  29.844  1.00  0.00     0.016 A 
ATOM      2  C   UNL     1      -5.822   5.176  30.551  1.00  0.00     0.013 A 
ATOM      3  C   UNL     1      -6.194   7.556  30.399  1.00  0.00     0.120 A 
ATOM      4  C   UNL     1      -5.175   5.373  31.773  1.00  0.00     0.021 A 
ATOM      5  N   UNL     1      -5.560   7.721  31.590  1.00  0.00    -0.264 NA
ATOM      6  C   UNL     1      -5.053   6.666  32.282  1.00  0.00     0.111 A 
ENDROOT
BRANCH   1   7
ATOM      7  C   UNL     1      -7.029   6.077  28.550  1.00  0.00     0.073 C 
ATOM      8  O   UNL     1      -6.425   5.553  27.576  1.00  0.00    -0.545 OA
ATOM      9  O   UNL     1      -8.353   6.470  28.389  1.00  0.00    -0.545 OA
ENDBRANCH   1   7
TORSDOF 1
ENDMDL
MODEL 7
REMARK VINA RESULT:    -4.002      3.434      4.541
REMARK INTER + INTRA:          -4.258
REMARK INTER:                  -4.239
REMARK INTRA:                  -0.019
REMARK UNBOUND:                -0.022
REMARK SMILES O=C([O-])c1cccnc1
REMARK SMILES IDX 4 1 5 2 9 3 6 4 8 5 7 6 2 7 1 8 3 9
REMARK H PARENT
REMARK Flexibility Score: inf
ROOT
ATOM      1  C   UNL     1      -6.460   6.835  29.389  1.00  0.00     0.016 A 
ATOM      2  C   UNL     1      -7.855   6.875  29.542  1.00  0.00     0.013 A 
ATOM      3  C   UNL     1      -5.928   6.914  28.089  1.00  0.00     0.120 A 
ATOM      4  C   UNL     1      -8.680   6.991  28.422  1.00  0.00     0.021 A 
ATOM      5  N   UNL     1      -6.754   7.026  27.015  1.00  0.00    -0.264 NA
ATOM      6  C   UNL     1      -8.106   7.066  27.153  1.00  0.00     0.111 A 
ENDROOT
BRANCH   1   7
ATOM      7  C   UNL     1      -5.575   6.713  30.567  1.00  0.00     0.073 C 
ATOM      8  O   UNL     1      -4.696   5.812  30.618  1.00  0.00    -0.545 OA
ATOM      9  O   UNL     1      -5.702   7.593  31.635  1.00  0.00    -0.545 OA
ENDBRANCH   1   7
TORSDOF 1
ENDMDL
MODEL 8
REMARK VINA RESULT:    -4.001      2.786      3.719
REMARK INTER + INTRA:          -4.256
REMARK INTER:                  -4.239
REMARK INTRA:                  -0.017
REMARK UNBOUND:                -0.022
REMARK SMILES O=C([O-])c1cccnc1
REMARK SMILES IDX 4 1 5 2 9 3 6 4 8 5 7 6 2 7 1 8 3 9
REMARK H PARENT
REMARK Flexibility Score: inf
ROOT
ATOM      1  C   UNL     1      -7.721   8.319  25.532  1.00  0.00     0.016 A 
ATOM      2  C   UNL     1      -6.555   7.629  25.901  1.00  0.00     0.013 A 
ATOM      3  C   UNL     1      -8.871   8.160  26.328  1.00  0.00     0.120 A 
ATOM      4  C   UNL     1      -6.552   6.810  27.031  1.00  0.00     0.021 A 
ATOM      5  N   UNL     1      -8.841   7.355  27.424  1.00  0.00    -0.264 NA
ATOM      6  C   UNL     1      -7.717   6.684  27.788  1.00  0.00     0.111 A 
ENDROOT
BRANCH   1   7
ATOM      7  C   UNL     1      -7.737   9.190  24.338  1.00  0.00     0.073 C 
ATOM      8  O   UNL     1      -7.116  10.287  24.336  1.00  0.00    -0.545 OA
ATOM      9  O   UNL     1      -8.439   8.811  23.200  1.00  0.00    -0.545 OA
ENDBRANCH   1   7
TORSDOF 1
ENDMDL
MODEL 9
REMARK VINA RESULT:    -3.911      1.996      2.652
REMARK INTER + INTRA:          -4.162
REMARK INTER:                  -4.141
REMARK INTRA:                  -0.021
REMARK UNBOUND:                -0.022
REMARK SMILES O=C([O-])c1cccnc1
REMARK SMILES IDX 4 1 5 2 9 3 6 4 8 5 7 6 2 7 1 8 3 9
REMARK H PARENT
REMARK Flexibility Score: inf
ROOT
ATOM      1  C   UNL     1      -7.037   8.401  24.754  1.00  0.00     0.016 A 
ATOM      2  C   UNL     1      -7.276   9.698  24.272  1.00  0.00     0.013 A 
ATOM      3  C   UNL     1      -6.101   7.599  24.077  1.00  0.00     0.120 A 
ATOM      4  C   UNL     1      -6.592  10.166  23.148  1.00  0.00     0.021 A 
ATOM      5  N   UNL     1      -5.448   8.078  22.984  1.00  0.00    -0.264 NA
ATOM      6  C   UNL     1      -5.673   9.333  22.510  1.00  0.00     0.111 A 
ENDROOT
BRANCH   1   7
ATOM      7  C   UNL     1      -7.754   7.895  25.943  1.00  0.00     0.073 C 
ATOM      8  O   UNL     1      -7.166   7.160  26.782  1.00  0.00    -0.545 OA
ATOM      9  O   UNL     1      -9.088   8.223  26.153  1.00  0.00    -0.545 OA
ENDBRANCH   1   7
TORSDOF 1
ENDMDL
