MODEL 1
REMARK VINA RESULT:    -3.329      0.000      0.000
REMARK INTER + INTRA:          -8.536
REMARK INTER:                  -6.054
REMARK INTRA:                  -2.483
REMARK UNBOUND:                -2.483
REMARK SMILES CCCCCCCCCCCCCCCCC
REMARK SMILES IDX 9 1 8 2 7 3 6 4 5 5 4 6 3 7 2 8 1 9 10 10 11 11 12 12 13 13
REMARK SMILES IDX 14 14 15 15 16 16 17 17
REMARK H PARENT
REMARK Flexibility Score: inf
ROOT
ATOM      1  C   UNL     1      40.692  19.805  -0.998  1.00  0.00    -0.000 C 
ENDROOT
BRANCH   1   2
ATOM      2  C   UNL     1      39.983  19.153  -2.205  1.00  0.00    -0.000 C 
BRANCH   2   3
ATOM      3  C   UNL     1      40.535  17.764  -2.569  1.00  0.00    -0.000 C 
BRANCH   3   4
ATOM      4  C   UNL     1      40.980  17.667  -4.038  1.00  0.00    -0.000 C 
BRANCH   4   5
ATOM      5  C   UNL     1      42.439  17.200  -4.194  1.00  0.00    -0.000 C 
BRANCH   5   6
ATOM      6  C   UNL     1      43.163  16.863  -2.878  1.00  0.00    -0.000 C 
BRANCH   6   7
ATOM      7  C   UNL     1      44.657  16.555  -3.076  1.00  0.00    -0.000 C 
BRANCH   7   8
ATOM      8  C   UNL     1      44.893  15.197  -3.754  1.00  0.00    -0.003 C 
ATOM      9  C   UNL     1      45.992  14.382  -3.074  1.00  0.00     0.004 C 
ENDBRANCH   7   8
ENDBRANCH   6   7
ENDBRANCH   5   6
ENDBRANCH   4   5
ENDBRANCH   3   4
ENDBRANCH   2   3
ENDBRANCH   1   2
BRANCH   1  10
ATOM     10  C   UNL     1      41.686  20.896  -1.433  1.00  0.00    -0.000 C 
BRANCH  10  11
ATOM     11  C   UNL     1      43.090  20.339  -1.718  1.00  0.00    -0.000 C 
BRANCH  11  12
ATOM     12  C   UNL     1      43.556  20.616  -3.154  1.00  0.00    -0.000 C 
BRANCH  12  13
ATOM     13  C   UNL     1      42.374  21.011  -4.048  1.00  0.00    -0.000 C 
BRANCH  13  14
ATOM     14  C   UNL     1      42.743  20.888  -5.535  1.00  0.00    -0.000 C 
BRANCH  14  15
ATOM     15  C   UNL     1      44.236  20.594  -5.759  1.00  0.00    -0.000 C 
BRANCH  15  16
ATOM     16  C   UNL     1      44.531  19.499  -6.800  1.00  0.00    -0.003 C 
ATOM     17  C   UNL     1      45.335  18.332  -6.229  1.00  0.00     0.004 C 
ENDBRANCH  15  16
ENDBRANCH  14  15
ENDBRANCH  13  14
ENDBRANCH  12  13
ENDBRANCH  11  12
ENDBRANCH  10  11
ENDBRANCH   1  10
TORSDOF 14
ENDMDL
MODEL 2
REMARK VINA RESULT:    -3.316      1.589      3.654
REMARK INTER + INTRA:          -8.513
REMARK INTER:                  -6.917
REMARK INTRA:                  -1.596
REMARK UNBOUND:                -2.483
REMARK SMILES CCCCCCCCCCCCCCCCC
REMARK SMILES IDX 9 1 8 2 7 3 6 4 5 5 4 6 3 7 2 8 1 9 10 10 11 11 12 12 13 13
REMARK SMILES IDX 14 14 15 15 16 16 17 17
REMARK H PARENT
REMARK Flexibility Score: inf
ROOT
ATOM      1  C   UNL     1      43.394  21.012  -3.352  1.00  0.00    -0.000 C 
ENDROOT
BRANCH   1   2
ATOM      2  C   UNL     1      43.476  20.292  -1.988  1.00  0.00    -0.000 C 
BRANCH   2   3
ATOM      3  C   UNL     1      42.250  20.530  -1.091  1.00  0.00    -0.000 C 
BRANCH   3   4
ATOM      4  C   UNL     1      41.392  19.267  -0.907  1.00  0.00    -0.000 C 
BRANCH   4   5
ATOM      5  C   UNL     1      41.399  18.350  -2.145  1.00  0.00    -0.000 C 
BRANCH   5   6
ATOM      6  C   UNL     1      42.159  17.022  -1.970  1.00  0.00    -0.000 C 
BRANCH   6   7
ATOM      7  C   UNL     1      42.964  16.623  -3.219  1.00  0.00    -0.000 C 
BRANCH   7   8
ATOM      8  C   UNL     1      44.481  16.662  -2.978  1.00  0.00    -0.003 C 
ATOM      9  C   UNL     1      45.121  15.275  -3.023  1.00  0.00     0.004 C 
ENDBRANCH   7   8
ENDBRANCH   6   7
ENDBRANCH   5   6
ENDBRANCH   4   5
ENDBRANCH   3   4
ENDBRANCH   2   3
ENDBRANCH   1   2
BRANCH   1  10
ATOM     10  C   UNL     1      43.699  20.062  -4.525  1.00  0.00    -0.000 C 
BRANCH  10  11
ATOM     11  C   UNL     1      44.098  20.812  -5.806  1.00  0.00    -0.000 C 
BRANCH  11  12
ATOM     12  C   UNL     1      44.850  19.919  -6.804  1.00  0.00    -0.000 C 
BRANCH  12  13
ATOM     13  C   UNL     1      45.071  18.516  -6.226  1.00  0.00    -0.000 C 
BRANCH  13  14
ATOM     14  C   UNL     1      46.430  17.948  -6.664  1.00  0.00    -0.000 C 
BRANCH  14  15
ATOM     15  C   UNL     1      47.067  17.033  -5.603  1.00  0.00    -0.000 C 
BRANCH  15  16
ATOM     16  C   UNL     1      48.582  16.813  -5.764  1.00  0.00    -0.003 C 
ATOM     17  C   UNL     1      49.158  15.843  -4.735  1.00  0.00     0.004 C 
ENDBRANCH  15  16
ENDBRANCH  14  15
ENDBRANCH  13  14
ENDBRANCH  12  13
ENDBRANCH  11  12
ENDBRANCH  10  11
ENDBRANCH   1  10
TORSDOF 14
ENDMDL
MODEL 3
REMARK VINA RESULT:    -3.297      1.429      4.136
REMARK INTER + INTRA:          -8.477
REMARK INTER:                  -6.628
REMARK INTRA:                  -1.850
REMARK UNBOUND:                -2.483
REMARK SMILES CCCCCCCCCCCCCCCCC
REMARK SMILES IDX 9 1 8 2 7 3 6 4 5 5 4 6 3 7 2 8 1 9 10 10 11 11 12 12 13 13
REMARK SMILES IDX 14 14 15 15 16 16 17 17
REMARK H PARENT
REMARK Flexibility Score: inf
ROOT
ATOM      1  C   UNL     1      43.583  20.647  -3.492  1.00  0.00    -0.000 C 
ENDROOT
BRANCH   1   2
ATOM      2  C   UNL     1      43.294  20.315  -4.972  1.00  0.00    -0.000 C 
BRANCH   2   3
ATOM      3  C   UNL     1      44.236  21.026  -5.960  1.00  0.00    -0.000 C 
BRANCH   3   4
ATOM      4  C   UNL     1      44.875  20.062  -6.973  1.00  0.00    -0.000 C 
BRANCH   4   5
ATOM      5  C   UNL     1      45.132  18.660  -6.389  1.00  0.00    -0.000 C 
BRANCH   5   6
ATOM      6  C   UNL     1      46.391  17.951  -6.920  1.00  0.00    -0.000 C 
BRANCH   6   7
ATOM      7  C   UNL     1      46.753  16.689  -6.118  1.00  0.00    -0.000 C 
BRANCH   7   8
ATOM      8  C   UNL     1      48.063  16.847  -5.332  1.00  0.00    -0.003 C 
ATOM      9  C   UNL     1      48.339  15.666  -4.403  1.00  0.00     0.004 C 
ENDBRANCH   7   8
ENDBRANCH   6   7
ENDBRANCH   5   6
ENDBRANCH   4   5
ENDBRANCH   3   4
ENDBRANCH   2   3
ENDBRANCH   1   2
BRANCH   1  10
ATOM     10  C   UNL     1      42.311  21.066  -2.735  1.00  0.00    -0.000 C 
BRANCH  10  11
ATOM     11  C   UNL     1      42.232  20.458  -1.325  1.00  0.00    -0.000 C 
BRANCH  11  12
ATOM     12  C   UNL     1      41.037  19.510  -1.155  1.00  0.00    -0.000 C 
BRANCH  12  13
ATOM     13  C   UNL     1      41.009  18.456  -2.269  1.00  0.00    -0.000 C 
BRANCH  13  14
ATOM     14  C   UNL     1      42.066  17.368  -2.025  1.00  0.00    -0.000 C 
BRANCH  14  15
ATOM     15  C   UNL     1      42.824  16.971  -3.303  1.00  0.00    -0.000 C 
BRANCH  15  16
ATOM     16  C   UNL     1      44.358  17.004  -3.183  1.00  0.00    -0.003 C 
ATOM     17  C   UNL     1      44.967  15.628  -2.924  1.00  0.00     0.004 C 
ENDBRANCH  15  16
ENDBRANCH  14  15
ENDBRANCH  13  14
ENDBRANCH  12  13
ENDBRANCH  11  12
ENDBRANCH  10  11
ENDBRANCH   1  10
TORSDOF 14
ENDMDL
MODEL 4
REMARK VINA RESULT:    -3.180      1.088      5.198
REMARK INTER + INTRA:          -8.265
REMARK INTER:                  -5.744
REMARK INTRA:                  -2.521
REMARK UNBOUND:                -2.483
REMARK SMILES CCCCCCCCCCCCCCCCC
REMARK SMILES IDX 9 1 8 2 7 3 6 4 5 5 4 6 3 7 2 8 1 9 10 10 11 11 12 12 13 13
REMARK SMILES IDX 14 14 15 15 16 16 17 17
REMARK H PARENT
REMARK Flexibility Score: inf
ROOT
ATOM      1  C   UNL     1      45.909  16.481  -6.005  1.00  0.00    -0.000 C 
ENDROOT
BRANCH   1   2
ATOM      2  C   UNL     1      46.529  16.205  -4.618  1.00  0.00    -0.000 C 
BRANCH   2   3
ATOM      3  C   UNL     1      45.539  15.594  -3.610  1.00  0.00    -0.000 C 
BRANCH   3   4
ATOM      4  C   UNL     1      44.662  16.653  -2.921  1.00  0.00    -0.000 C 
BRANCH   4   5
ATOM      5  C   UNL     1      43.188  16.223  -2.797  1.00  0.00    -0.000 C 
BRANCH   5   6
ATOM      6  C   UNL     1      42.352  16.372  -4.081  1.00  0.00    -0.000 C 
BRANCH   6   7
ATOM      7  C   UNL     1      40.979  17.020  -3.832  1.00  0.00    -0.000 C 
BRANCH   7   8
ATOM      8  C   UNL     1      40.619  18.063  -4.901  1.00  0.00    -0.003 C 
ATOM      9  C   UNL     1      39.907  19.283  -4.317  1.00  0.00     0.004 C 
ENDBRANCH   7   8
ENDBRANCH   6   7
ENDBRANCH   5   6
ENDBRANCH   4   5
ENDBRANCH   3   4
ENDBRANCH   2   3
ENDBRANCH   1   2
BRANCH   1  10
ATOM     10  C   UNL     1      45.864  17.985  -6.328  1.00  0.00    -0.000 C 
BRANCH  10  11
ATOM     11  C   UNL     1      44.458  18.585  -6.169  1.00  0.00    -0.000 C 
BRANCH  11  12
ATOM     12  C   UNL     1      44.420  20.091  -6.464  1.00  0.00    -0.000 C 
BRANCH  12  13
ATOM     13  C   UNL     1      43.938  20.878  -5.239  1.00  0.00    -0.000 C 
BRANCH  13  14
ATOM     14  C   UNL     1      43.602  19.934  -4.074  1.00  0.00    -0.000 C 
BRANCH  14  15
ATOM     15  C   UNL     1      43.192  20.683  -2.795  1.00  0.00    -0.000 C 
BRANCH  15  16
ATOM     16  C   UNL     1      42.561  19.801  -1.703  1.00  0.00    -0.003 C 
ATOM     17  C   UNL     1      41.353  20.452  -1.032  1.00  0.00     0.004 C 
ENDBRANCH  15  16
ENDBRANCH  14  15
ENDBRANCH  13  14
ENDBRANCH  12  13
ENDBRANCH  11  12
ENDBRANCH  10  11
ENDBRANCH   1  10
TORSDOF 14
ENDMDL
MODEL 5
REMARK VINA RESULT:    -3.157      1.467      4.291
REMARK INTER + INTRA:          -8.223
REMARK INTER:                  -6.071
REMARK INTRA:                  -2.152
REMARK UNBOUND:                -2.483
REMARK SMILES CCCCCCCCCCCCCCCCC
REMARK SMILES IDX 9 1 8 2 7 3 6 4 5 5 4 6 3 7 2 8 1 9 10 10 11 11 12 12 13 13
REMARK SMILES IDX 14 14 15 15 16 16 17 17
REMARK H PARENT
REMARK Flexibility Score: inf
ROOT
ATOM      1  C   UNL     1      42.250  16.126  -3.851  1.00  0.00    -0.000 C 
ENDROOT
BRANCH   1   2
ATOM      2  C   UNL     1      43.238  16.242  -2.670  1.00  0.00    -0.000 C 
BRANCH   2   3
ATOM      3  C   UNL     1      44.633  16.744  -3.079  1.00  0.00    -0.000 C 
BRANCH   3   4
ATOM      4  C   UNL     1      44.800  16.862  -4.603  1.00  0.00    -0.000 C 
BRANCH   4   5
ATOM      5  C   UNL     1      45.936  15.980  -5.155  1.00  0.00    -0.000 C 
BRANCH   5   6
ATOM      6  C   UNL     1      47.358  16.440  -4.788  1.00  0.00    -0.000 C 
BRANCH   6   7
ATOM      7  C   UNL     1      48.230  15.304  -4.225  1.00  0.00    -0.000 C 
BRANCH   7   8
ATOM      8  C   UNL     1      47.419  14.035  -3.923  1.00  0.00    -0.003 C 
ATOM      9  C   UNL     1      47.281  13.767  -2.425  1.00  0.00     0.004 C 
ENDBRANCH   7   8
ENDBRANCH   6   7
ENDBRANCH   5   6
ENDBRANCH   4   5
ENDBRANCH   3   4
ENDBRANCH   2   3
ENDBRANCH   1   2
BRANCH   1  10
ATOM     10  C   UNL     1      41.113  17.159  -3.757  1.00  0.00    -0.000 C 
BRANCH  10  11
ATOM     11  C   UNL     1      41.180  18.218  -4.869  1.00  0.00    -0.000 C 
BRANCH  11  12
ATOM     12  C   UNL     1      41.431  19.632  -4.326  1.00  0.00    -0.000 C 
BRANCH  12  13
ATOM     13  C   UNL     1      42.932  19.946  -4.286  1.00  0.00    -0.000 C 
BRANCH  13  14
ATOM     14  C   UNL     1      43.315  20.634  -2.967  1.00  0.00    -0.000 C 
BRANCH  14  15
ATOM     15  C   UNL     1      42.788  19.890  -1.728  1.00  0.00    -0.000 C 
BRANCH  15  16
ATOM     16  C   UNL     1      41.867  20.721  -0.817  1.00  0.00    -0.003 C 
ATOM     17  C   UNL     1      40.459  20.141  -0.700  1.00  0.00     0.004 C 
ENDBRANCH  15  16
ENDBRANCH  14  15
ENDBRANCH  13  14
ENDBRANCH  12  13
ENDBRANCH  11  12
ENDBRANCH  10  11
ENDBRANCH   1  10
TORSDOF 14
ENDMDL
MODEL 6
REMARK VINA RESULT:    -3.155      1.173      4.340
REMARK INTER + INTRA:          -8.220
REMARK INTER:                  -6.261
REMARK INTRA:                  -1.959
REMARK UNBOUND:                -2.483
REMARK SMILES CCCCCCCCCCCCCCCCC
REMARK SMILES IDX 9 1 8 2 7 3 6 4 5 5 4 6 3 7 2 8 1 9 10 10 11 11 12 12 13 13
REMARK SMILES IDX 14 14 15 15 16 16 17 17
REMARK H PARENT
REMARK Flexibility Score: inf
ROOT
ATOM      1  C   UNL     1      44.106  20.949  -5.797  1.00  0.00    -0.000 C 
ENDROOT
BRANCH   1   2
ATOM      2  C   UNL     1      44.740  20.005  -6.842  1.00  0.00    -0.000 C 
BRANCH   2   3
ATOM      3  C   UNL     1      44.605  18.514  -6.488  1.00  0.00    -0.000 C 
BRANCH   3   4
ATOM      4  C   UNL     1      45.959  17.844  -6.202  1.00  0.00    -0.000 C 
BRANCH   4   5
ATOM      5  C   UNL     1      45.892  16.816  -5.058  1.00  0.00    -0.000 C 
BRANCH   5   6
ATOM      6  C   UNL     1      44.665  16.942  -4.136  1.00  0.00    -0.000 C 
BRANCH   6   7
ATOM      7  C   UNL     1      44.738  16.015  -2.910  1.00  0.00    -0.000 C 
BRANCH   7   8
ATOM      8  C   UNL     1      44.155  14.622  -3.191  1.00  0.00    -0.003 C 
ATOM      9  C   UNL     1      42.675  14.668  -3.569  1.00  0.00     0.004 C 
ENDBRANCH   7   8
ENDBRANCH   6   7
ENDBRANCH   5   6
ENDBRANCH   4   5
ENDBRANCH   3   4
ENDBRANCH   2   3
ENDBRANCH   1   2
BRANCH   1  10
ATOM     10  C   UNL     1      43.500  20.177  -4.612  1.00  0.00    -0.000 C 
BRANCH  10  11
ATOM     11  C   UNL     1      43.370  21.039  -3.346  1.00  0.00    -0.000 C 
BRANCH  11  12
ATOM     12  C   UNL     1      43.507  20.219  -2.055  1.00  0.00    -0.000 C 
BRANCH  12  13
ATOM     13  C   UNL     1      42.345  20.507  -1.097  1.00  0.00    -0.000 C 
BRANCH  13  14
ATOM     14  C   UNL     1      41.468  19.260  -0.904  1.00  0.00    -0.000 C 
BRANCH  14  15
ATOM     15  C   UNL     1      41.822  18.123  -1.879  1.00  0.00    -0.000 C 
BRANCH  15  16
ATOM     16  C   UNL     1      40.707  17.751  -2.872  1.00  0.00    -0.003 C 
ATOM     17  C   UNL     1      40.119  18.963  -3.592  1.00  0.00     0.004 C 
ENDBRANCH  15  16
ENDBRANCH  14  15
ENDBRANCH  13  14
ENDBRANCH  12  13
ENDBRANCH  11  12
ENDBRANCH  10  11
ENDBRANCH   1  10
TORSDOF 14
ENDMDL
MODEL 7
REMARK VINA RESULT:    -3.139      1.153      2.519
REMARK INTER + INTRA:          -8.191
REMARK INTER:                  -6.070
REMARK INTRA:                  -2.122
REMARK UNBOUND:                -2.483
REMARK SMILES CCCCCCCCCCCCCCCCC
REMARK SMILES IDX 9 1 8 2 7 3 6 4 5 5 4 6 3 7 2 8 1 9 10 10 11 11 12 12 13 13
REMARK SMILES IDX 14 14 15 15 16 16 17 17
REMARK H PARENT
REMARK Flexibility Score: inf
ROOT
ATOM      1  C   UNL     1      40.057  17.684  -2.929  1.00  0.00    -0.000 C 
ENDROOT
BRANCH   1   2
ATOM      2  C   UNL     1      40.824  17.496  -4.256  1.00  0.00    -0.000 C 
BRANCH   2   3
ATOM      3  C   UNL     1      41.883  16.382  -4.204  1.00  0.00    -0.000 C 
BRANCH   3   4
ATOM      4  C   UNL     1      42.445  16.159  -2.790  1.00  0.00    -0.000 C 
BRANCH   4   5
ATOM      5  C   UNL     1      43.868  15.569  -2.795  1.00  0.00    -0.000 C 
BRANCH   5   6
ATOM      6  C   UNL     1      44.965  16.512  -3.323  1.00  0.00    -0.000 C 
BRANCH   6   7
ATOM      7  C   UNL     1      45.677  15.963  -4.572  1.00  0.00    -0.000 C 
BRANCH   7   8
ATOM      8  C   UNL     1      46.936  16.766  -4.932  1.00  0.00    -0.003 C 
ATOM      9  C   UNL     1      46.928  17.257  -6.379  1.00  0.00     0.004 C 
ENDBRANCH   7   8
ENDBRANCH   6   7
ENDBRANCH   5   6
ENDBRANCH   4   5
ENDBRANCH   3   4
ENDBRANCH   2   3
ENDBRANCH   1   2
BRANCH   1  10
ATOM     10  C   UNL     1      39.995  19.161  -2.502  1.00  0.00    -0.000 C 
BRANCH  10  11
ATOM     11  C   UNL     1      41.031  19.511  -1.422  1.00  0.00    -0.000 C 
BRANCH  11  12
ATOM     12  C   UNL     1      41.993  20.623  -1.862  1.00  0.00    -0.000 C 
BRANCH  12  13
ATOM     13  C   UNL     1      43.265  20.034  -2.485  1.00  0.00    -0.000 C 
BRANCH  13  14
ATOM     14  C   UNL     1      43.489  20.583  -3.902  1.00  0.00    -0.000 C 
BRANCH  14  15
ATOM     15  C   UNL     1      43.841  19.485  -4.921  1.00  0.00    -0.000 C 
BRANCH  15  16
ATOM     16  C   UNL     1      44.458  19.996  -6.235  1.00  0.00    -0.003 C 
ATOM     17  C   UNL     1      44.448  21.519  -6.348  1.00  0.00     0.004 C 
ENDBRANCH  15  16
ENDBRANCH  14  15
ENDBRANCH  13  14
ENDBRANCH  12  13
ENDBRANCH  11  12
ENDBRANCH  10  11
ENDBRANCH   1  10
TORSDOF 14
ENDMDL
MODEL 8
REMARK VINA RESULT:    -3.133      1.188      6.044
REMARK INTER + INTRA:          -8.179
REMARK INTER:                  -6.036
REMARK INTRA:                  -2.143
REMARK UNBOUND:                -2.483
REMARK SMILES CCCCCCCCCCCCCCCCC
REMARK SMILES IDX 9 1 8 2 7 3 6 4 5 5 4 6 3 7 2 8 1 9 10 10 11 11 12 12 13 13
REMARK SMILES IDX 14 14 15 15 16 16 17 17
REMARK H PARENT
REMARK Flexibility Score: inf
ROOT
ATOM      1  C   UNL     1      46.122  17.692  -6.202  1.00  0.00    -0.000 C 
ENDROOT
BRANCH   1   2
ATOM      2  C   UNL     1      45.229  18.870  -6.646  1.00  0.00    -0.000 C 
BRANCH   2   3
ATOM      3  C   UNL     1      43.906  18.970  -5.866  1.00  0.00    -0.000 C 
BRANCH   3   4
ATOM      4  C   UNL     1      43.866  20.177  -4.914  1.00  0.00    -0.000 C 
BRANCH   4   5
ATOM      5  C   UNL     1      42.891  19.982  -3.737  1.00  0.00    -0.000 C 
BRANCH   5   6
ATOM      6  C   UNL     1      43.415  20.456  -2.369  1.00  0.00    -0.000 C 
BRANCH   6   7
ATOM      7  C   UNL     1      42.475  20.089  -1.207  1.00  0.00    -0.000 C 
BRANCH   7   8
ATOM      8  C   UNL     1      40.998  20.338  -1.545  1.00  0.00    -0.003 C 
ATOM      9  C   UNL     1      40.100  20.324  -0.308  1.00  0.00     0.004 C 
ENDBRANCH   7   8
ENDBRANCH   6   7
ENDBRANCH   5   6
ENDBRANCH   4   5
ENDBRANCH   3   4
ENDBRANCH   2   3
ENDBRANCH   1   2
BRANCH   1  10
ATOM     10  C   UNL     1      45.493  16.330  -6.542  1.00  0.00    -0.000 C 
BRANCH  10  11
ATOM     11  C   UNL     1      45.875  15.232  -5.536  1.00  0.00    -0.000 C 
BRANCH  11  12
ATOM     12  C   UNL     1      46.344  15.801  -4.190  1.00  0.00    -0.000 C 
BRANCH  12  13
ATOM     13  C   UNL     1      45.319  15.514  -3.085  1.00  0.00    -0.000 C 
BRANCH  13  14
ATOM     14  C   UNL     1      44.294  16.654  -2.976  1.00  0.00    -0.000 C 
BRANCH  14  15
ATOM     15  C   UNL     1      42.906  16.264  -3.512  1.00  0.00    -0.000 C 
BRANCH  15  16
ATOM     16  C   UNL     1      41.793  16.214  -2.451  1.00  0.00    -0.003 C 
ATOM     17  C   UNL     1      40.565  17.038  -2.832  1.00  0.00     0.004 C 
ENDBRANCH  15  16
ENDBRANCH  14  15
ENDBRANCH  13  14
ENDBRANCH  12  13
ENDBRANCH  11  12
ENDBRANCH  10  11
ENDBRANCH   1  10
TORSDOF 14
ENDMDL
MODEL 9
REMARK VINA RESULT:    -3.107      1.417      4.759
REMARK INTER + INTRA:          -8.133
REMARK INTER:                  -6.511
REMARK INTRA:                  -1.623
REMARK UNBOUND:                -2.483
REMARK SMILES CCCCCCCCCCCCCCCCC
REMARK SMILES IDX 9 1 8 2 7 3 6 4 5 5 4 6 3 7 2 8 1 9 10 10 11 11 12 12 13 13
REMARK SMILES IDX 14 14 15 15 16 16 17 17
REMARK H PARENT
REMARK Flexibility Score: inf
ROOT
ATOM      1  C   UNL     1      43.657  19.820  -4.336  1.00  0.00    -0.000 C 
ENDROOT
BRANCH   1   2
ATOM      2  C   UNL     1      43.410  20.909  -3.268  1.00  0.00    -0.000 C 
BRANCH   2   3
ATOM      3  C   UNL     1      43.513  20.391  -1.824  1.00  0.00    -0.000 C 
BRANCH   3   4
ATOM      4  C   UNL     1      42.212  20.588  -1.026  1.00  0.00    -0.000 C 
BRANCH   4   5
ATOM      5  C   UNL     1      41.383  19.296  -0.900  1.00  0.00    -0.000 C 
BRANCH   5   6
ATOM      6  C   UNL     1      40.581  18.908  -2.156  1.00  0.00    -0.000 C 
BRANCH   6   7
ATOM      7  C   UNL     1      41.064  17.594  -2.794  1.00  0.00    -0.000 C 
BRANCH   7   8
ATOM      8  C   UNL     1      42.152  16.901  -1.961  1.00  0.00    -0.003 C 
ATOM      9  C   UNL     1      43.366  16.496  -2.796  1.00  0.00     0.004 C 
ENDBRANCH   7   8
ENDBRANCH   6   7
ENDBRANCH   5   6
ENDBRANCH   4   5
ENDBRANCH   3   4
ENDBRANCH   2   3
ENDBRANCH   1   2
BRANCH   1  10
ATOM     10  C   UNL     1      44.082  20.422  -5.687  1.00  0.00    -0.000 C 
BRANCH  10  11
ATOM     11  C   UNL     1      44.802  19.406  -6.588  1.00  0.00    -0.000 C 
BRANCH  11  12
ATOM     12  C   UNL     1      44.904  18.015  -5.948  1.00  0.00    -0.000 C 
BRANCH  12  13
ATOM     13  C   UNL     1      46.350  17.506  -5.967  1.00  0.00    -0.000 C 
BRANCH  13  14
ATOM     14  C   UNL     1      46.584  16.468  -4.858  1.00  0.00    -0.000 C 
BRANCH  14  15
ATOM     15  C   UNL     1      48.042  15.981  -4.791  1.00  0.00    -0.000 C 
BRANCH  15  16
ATOM     16  C   UNL     1      48.270  14.744  -3.904  1.00  0.00    -0.003 C 
ATOM     17  C   UNL     1      47.355  13.575  -4.261  1.00  0.00     0.004 C 
ENDBRANCH  15  16
ENDBRANCH  14  15
ENDBRANCH  13  14
ENDBRANCH  12  13
ENDBRANCH  11  12
ENDBRANCH  10  11
ENDBRANCH   1  10
TORSDOF 14
ENDMDL
