MODEL 1
REMARK VINA RESULT:    22.096      0.000      0.000
REMARK INTER + INTRA:          26.286
REMARK INTER:                  26.618
REMARK INTRA:                  -0.332
REMARK UNBOUND:                -0.332
REMARK SMILES Oc1cc(O)c2cc(O)c(-c3ccc(O)c(O)c3)[o+]c2c1
REMARK SMILES IDX 10 1 19 2 20 3 21 4 2 5 3 6 4 7 6 8 7 9 8 10 11 11 12 12
REMARK SMILES IDX 13 13 14 14 18 15 16 16 15 17 17 19 9 21 1 23 5 25
REMARK H PARENT 15 18 17 20 9 22 1 24 5 26
REMARK Flexibility Score: inf
ROOT
ATOM      1  C   UNL     1      -5.907   4.152  15.227  1.00  0.00     0.402 A 
ATOM      2  O   UNL     1      -5.130   3.620  14.286  1.00  0.00    -0.202 OA
ATOM      3  C   UNL     1      -4.284   2.621  14.520  1.00  0.00     0.368 A 
ATOM      4  C   UNL     1      -3.505   2.115  13.474  1.00  0.00     0.162 A 
ATOM      5  C   UNL     1      -2.612   1.060  13.706  1.00  0.00     0.128 A 
ATOM      6  C   UNL     1      -2.499   0.512  14.989  1.00  0.00     0.093 A 
ATOM      7  C   UNL     1      -3.273   1.010  16.048  1.00  0.00     0.136 A 
ATOM      8  C   UNL     1      -4.170   2.069  15.814  1.00  0.00     0.125 A 
ATOM      9  C   UNL     1      -4.961   2.612  16.833  1.00  0.00     0.078 A 
ATOM     10  C   UNL     1      -5.831   3.668  16.549  1.00  0.00     0.223 A 
ENDROOT
BRANCH   1  11
ATOM     11  C   UNL     1      -6.818   5.255  14.843  1.00  0.00     0.087 A 
ATOM     12  C   UNL     1      -8.078   4.952  14.306  1.00  0.00     0.022 A 
ATOM     13  C   UNL     1      -8.962   5.976  13.954  1.00  0.00     0.051 A 
ATOM     14  C   UNL     1      -8.603   7.317  14.147  1.00  0.00     0.157 A 
ATOM     15  C   UNL     1      -6.469   6.600  15.054  1.00  0.00     0.068 A 
ATOM     16  C   UNL     1      -7.352   7.628  14.704  1.00  0.00     0.158 A 
BRANCH  14  17
ATOM     17  O   UNL     1      -9.485   8.336  13.793  1.00  0.00    -0.504 OA
ATOM     18  H   UNL     1      -9.631   9.143  14.389  1.00  0.00     0.293 HD
ENDBRANCH  14  17
BRANCH  16  19
ATOM     19  O   UNL     1      -6.970   8.952  14.922  1.00  0.00    -0.504 OA
ATOM     20  H   UNL     1      -6.041   9.199  15.241  1.00  0.00     0.293 HD
ENDBRANCH  16  19
ENDBRANCH   1  11
BRANCH  10  21
ATOM     21  O   UNL     1      -6.586   4.246  17.571  1.00  0.00    -0.500 OA
ATOM     22  H   UNL     1      -7.366   3.759  17.996  1.00  0.00     0.294 HD
ENDBRANCH  10  21
BRANCH   5  23
ATOM     23  O   UNL     1      -1.833   0.550  12.672  1.00  0.00    -0.507 OA
ATOM     24  H   UNL     1      -2.047  -0.340  12.237  1.00  0.00     0.293 HD
ENDBRANCH   5  23
BRANCH   7  25
ATOM     25  O   UNL     1      -3.149   0.456  17.322  1.00  0.00    -0.507 OA
ATOM     26  H   UNL     1      -2.495  -0.293  17.515  1.00  0.00     0.293 HD
ENDBRANCH   7  25
TORSDOF 6
ENDMDL
MODEL 2
REMARK VINA RESULT:    22.122      1.761      6.842
REMARK INTER + INTRA:          26.316
REMARK INTER:                  26.444
REMARK INTRA:                  -0.129
REMARK UNBOUND:                -0.332
REMARK SMILES Oc1cc(O)c2cc(O)c(-c3ccc(O)c(O)c3)[o+]c2c1
REMARK SMILES IDX 10 1 19 2 20 3 21 4 2 5 3 6 4 7 6 8 7 9 8 10 11 11 12 12
REMARK SMILES IDX 13 13 14 14 18 15 16 16 15 17 17 19 9 21 1 23 5 25
REMARK H PARENT 15 18 17 20 9 22 1 24 5 26
REMARK Flexibility Score: inf
ROOT
ATOM      1  C   UNL     1      -3.859   2.597  14.100  1.00  0.00     0.402 A 
ATOM      2  O   UNL     1      -4.893   3.298  13.637  1.00  0.00    -0.202 OA
ATOM      3  C   UNL     1      -5.892   3.716  14.408  1.00  0.00     0.368 A 
ATOM      4  C   UNL     1      -6.940   4.451  13.845  1.00  0.00     0.162 A 
ATOM      5  C   UNL     1      -7.997   4.901  14.647  1.00  0.00     0.128 A 
ATOM      6  C   UNL     1      -8.004   4.613  16.017  1.00  0.00     0.093 A 
ATOM      7  C   UNL     1      -6.961   3.876  16.596  1.00  0.00     0.136 A 
ATOM      8  C   UNL     1      -5.899   3.425  15.789  1.00  0.00     0.125 A 
ATOM      9  C   UNL     1      -4.835   2.679  16.310  1.00  0.00     0.078 A 
ATOM     10  C   UNL     1      -3.809   2.248  15.465  1.00  0.00     0.223 A 
ENDROOT
BRANCH   1  11
ATOM     11  C   UNL     1      -2.801   2.196  13.144  1.00  0.00     0.087 A 
ATOM     12  C   UNL     1      -2.068   3.185  12.472  1.00  0.00     0.022 A 
ATOM     13  C   UNL     1      -1.052   2.831  11.581  1.00  0.00     0.051 A 
ATOM     14  C   UNL     1      -0.745   1.482  11.360  1.00  0.00     0.157 A 
ATOM     15  C   UNL     1      -2.477   0.844  12.936  1.00  0.00     0.068 A 
ATOM     16  C   UNL     1      -1.459   0.485  12.045  1.00  0.00     0.158 A 
BRANCH  14  17
ATOM     17  O   UNL     1       0.267   1.131  10.468  1.00  0.00    -0.504 OA
ATOM     18  H   UNL     1       1.184   1.562  10.509  1.00  0.00     0.293 HD
ENDBRANCH  14  17
BRANCH  16  19
ATOM     19  O   UNL     1      -1.168  -0.866  11.858  1.00  0.00    -0.504 OA
ATOM     20  H   UNL     1      -1.727  -1.601  12.276  1.00  0.00     0.293 HD
ENDBRANCH  16  19
ENDBRANCH   1  11
BRANCH  10  21
ATOM     21  O   UNL     1      -2.772   1.462  15.968  1.00  0.00    -0.500 OA
ATOM     22  H   UNL     1      -1.824   1.812  16.036  1.00  0.00     0.294 HD
ENDBRANCH  10  21
BRANCH   5  23
ATOM     23  O   UNL     1      -9.044   5.634  14.095  1.00  0.00    -0.507 OA
ATOM     24  H   UNL     1      -9.425   5.409  13.183  1.00  0.00     0.293 HD
ENDBRANCH   5  23
BRANCH   7  25
ATOM     25  O   UNL     1      -6.981   3.594  17.962  1.00  0.00    -0.507 OA
ATOM     26  H   UNL     1      -6.280   3.969  18.592  1.00  0.00     0.293 HD
ENDBRANCH   7  25
TORSDOF 6
ENDMDL
MODEL 3
REMARK VINA RESULT:    24.032      1.461      7.262
REMARK INTER + INTRA:          28.618
REMARK INTER:                  28.927
REMARK INTRA:                  -0.309
REMARK UNBOUND:                -0.332
REMARK SMILES Oc1cc(O)c2cc(O)c(-c3ccc(O)c(O)c3)[o+]c2c1
REMARK SMILES IDX 10 1 19 2 20 3 21 4 2 5 3 6 4 7 6 8 7 9 8 10 11 11 12 12
REMARK SMILES IDX 13 13 14 14 18 15 16 16 15 17 17 19 9 21 1 23 5 25
REMARK H PARENT 15 18 17 20 9 22 1 24 5 26
REMARK Flexibility Score: inf
ROOT
ATOM      1  C   UNL     1      -6.312   4.849  15.204  1.00  0.00     0.402 A 
ATOM      2  O   UNL     1      -6.088   6.011  15.816  1.00  0.00    -0.202 OA
ATOM      3  C   UNL     1      -6.755   7.124  15.529  1.00  0.00     0.368 A 
ATOM      4  C   UNL     1      -6.463   8.304  16.222  1.00  0.00     0.162 A 
ATOM      5  C   UNL     1      -7.161   9.483  15.931  1.00  0.00     0.128 A 
ATOM      6  C   UNL     1      -8.153   9.482  14.944  1.00  0.00     0.093 A 
ATOM      7  C   UNL     1      -8.456   8.307  14.240  1.00  0.00     0.136 A 
ATOM      8  C   UNL     1      -7.755   7.122  14.533  1.00  0.00     0.125 A 
ATOM      9  C   UNL     1      -8.009   5.923  13.858  1.00  0.00     0.078 A 
ATOM     10  C   UNL     1      -7.280   4.775  14.181  1.00  0.00     0.223 A 
ENDROOT
BRANCH   1  11
ATOM     11  C   UNL     1      -5.512   3.674  15.618  1.00  0.00     0.087 A 
ATOM     12  C   UNL     1      -5.885   2.955  16.763  1.00  0.00     0.022 A 
ATOM     13  C   UNL     1      -5.157   1.831  17.162  1.00  0.00     0.051 A 
ATOM     14  C   UNL     1      -4.053   1.402  16.414  1.00  0.00     0.157 A 
ATOM     15  C   UNL     1      -4.417   3.229  14.857  1.00  0.00     0.068 A 
ATOM     16  C   UNL     1      -3.686   2.102  15.252  1.00  0.00     0.158 A 
BRANCH  14  17
ATOM     17  O   UNL     1      -3.327   0.282  16.814  1.00  0.00    -0.504 OA
ATOM     18  H   UNL     1      -2.334   0.198  16.628  1.00  0.00     0.293 HD
ENDBRANCH  14  17
BRANCH  16  19
ATOM     19  O   UNL     1      -2.601   1.692  14.477  1.00  0.00    -0.504 OA
ATOM     20  H   UNL     1      -2.715   1.344  13.533  1.00  0.00     0.293 HD
ENDBRANCH  16  19
ENDBRANCH   1  11
BRANCH  10  21
ATOM     21  O   UNL     1      -7.494   3.589  13.478  1.00  0.00    -0.500 OA
ATOM     22  H   UNL     1      -7.733   2.726  13.951  1.00  0.00     0.294 HD
ENDBRANCH  10  21
BRANCH   5  23
ATOM     23  O   UNL     1      -6.877  10.662  16.616  1.00  0.00    -0.507 OA
ATOM     24  H   UNL     1      -6.562  10.652  17.580  1.00  0.00     0.293 HD
ENDBRANCH   5  23
BRANCH   7  25
ATOM     25  O   UNL     1      -9.446   8.319  13.258  1.00  0.00    -0.507 OA
ATOM     26  H   UNL     1      -9.676   9.163  12.745  1.00  0.00     0.293 HD
ENDBRANCH   7  25
TORSDOF 6
ENDMDL
