MODEL 1
REMARK VINA RESULT:    -5.163      0.000      0.000
REMARK INTER + INTRA:          -9.830
REMARK INTER:                  -8.031
REMARK INTRA:                  -1.799
REMARK UNBOUND:                -1.799
REMARK SMILES COc1cc(CNC(=O)CCCCC=CC(C)C)ccc1O
REMARK SMILES IDX 11 1 12 2 13 3 14 4 15 5 16 6 17 7 18 8 10 9 8 10 9 11 7 12
REMARK SMILES IDX 6 14 5 15 4 16 19 17 3 18 20 19 21 20 2 21 1 22 22 23
REMARK H PARENT 7 13 22 24
REMARK Flexibility Score: inf
ROOT
ATOM      1  C   UNL     1     113.534 114.675 113.587  1.00  0.00     0.010 C 
ENDROOT
BRANCH   1   2
ATOM      2  C   UNL     1     113.840 115.556 114.807  1.00  0.00     0.005 C 
BRANCH   2   3
ATOM      3  C   UNL     1     114.933 114.947 115.697  1.00  0.00     0.027 C 
BRANCH   3   4
ATOM      4  C   UNL     1     116.114 114.459 114.898  1.00  0.00    -0.031 C 
ATOM      5  C   UNL     1     117.255 115.164 114.827  1.00  0.00    -0.028 C 
BRANCH   5   6
ATOM      6  C   UNL     1     118.445 114.658 114.048  1.00  0.00     0.005 C 
ATOM      7  C   UNL     1     118.193 113.232 113.548  1.00  0.00     0.012 C 
ATOM      8  C   UNL     1     118.748 115.592 112.871  1.00  0.00     0.012 C 
ENDBRANCH   5   6
ENDBRANCH   3   4
ENDBRANCH   2   3
ENDBRANCH   1   2
BRANCH   1   9
ATOM      9  C   UNL     1     113.205 115.529 112.361  1.00  0.00     0.100 C 
BRANCH   9  10
ATOM     10  C   UNL     1     114.350 116.445 112.049  1.00  0.00     0.220 C 
ATOM     11  O   UNL     1     115.501 115.962 111.875  1.00  0.00    -0.275 OA
ATOM     12  N   UNL     1     114.145 117.862 112.009  1.00  0.00    -0.352 N 
ATOM     13  H   UNL     1     113.169 118.236 112.060  1.00  0.00     0.163 HD
BRANCH  12  14
ATOM     14  C   UNL     1     115.249 118.813 112.084  1.00  0.00     0.151 C 
BRANCH  14  15
ATOM     15  C   UNL     1     115.606 119.064 113.523  1.00  0.00    -0.025 A 
ATOM     16  C   UNL     1     114.809 119.902 114.319  1.00  0.00     0.056 A 
ATOM     17  C   UNL     1     116.779 118.515 114.059  1.00  0.00     0.009 A 
ATOM     18  C   UNL     1     115.170 120.176 115.653  1.00  0.00     0.160 A 
ATOM     19  C   UNL     1     117.140 118.780 115.381  1.00  0.00     0.050 A 
ATOM     20  C   UNL     1     116.339 119.607 116.179  1.00  0.00     0.157 A 
BRANCH  18  21
ATOM     21  O   UNL     1     114.399 121.006 116.482  1.00  0.00    -0.493 OA
ATOM     22  C   UNL     1     113.809 122.233 116.067  1.00  0.00     0.278 C 
ENDBRANCH  18  21
BRANCH  20  23
ATOM     23  O   UNL     1     116.700 119.870 117.501  1.00  0.00    -0.504 OA
ATOM     24  H   UNL     1     116.324 119.330 118.271  1.00  0.00     0.293 HD
ENDBRANCH  20  23
ENDBRANCH  14  15
ENDBRANCH  12  14
ENDBRANCH   9  10
ENDBRANCH   1   9
TORSDOF 10
ENDMDL
MODEL 2
REMARK VINA RESULT:    -5.030      1.842      5.482
REMARK INTER + INTRA:          -9.623
REMARK INTER:                  -7.406
REMARK INTRA:                  -2.217
REMARK UNBOUND:                -1.799
REMARK SMILES COc1cc(CNC(=O)CCCCC=CC(C)C)ccc1O
REMARK SMILES IDX 11 1 12 2 13 3 14 4 15 5 16 6 17 7 18 8 10 9 8 10 9 11 7 12
REMARK SMILES IDX 6 14 5 15 4 16 19 17 3 18 20 19 21 20 2 21 1 22 22 23
REMARK H PARENT 7 13 22 24
REMARK Flexibility Score: inf
ROOT
ATOM      1  C   UNL     1     115.446 119.639 114.248  1.00  0.00     0.010 C 
ENDROOT
BRANCH   1   2
ATOM      2  C   UNL     1     114.399 119.433 113.144  1.00  0.00     0.005 C 
BRANCH   2   3
ATOM      3  C   UNL     1     115.004 118.789 111.888  1.00  0.00     0.027 C 
BRANCH   3   4
ATOM      4  C   UNL     1     114.920 117.285 111.921  1.00  0.00    -0.031 C 
ATOM      5  C   UNL     1     113.792 116.652 112.283  1.00  0.00    -0.028 C 
BRANCH   5   6
ATOM      6  C   UNL     1     113.703 115.145 112.287  1.00  0.00     0.005 C 
ATOM      7  C   UNL     1     115.055 114.526 111.915  1.00  0.00     0.012 C 
ATOM      8  C   UNL     1     113.243 114.641 113.659  1.00  0.00     0.012 C 
ENDBRANCH   5   6
ENDBRANCH   3   4
ENDBRANCH   2   3
ENDBRANCH   1   2
BRANCH   1   9
ATOM      9  C   UNL     1     114.796 119.624 115.633  1.00  0.00     0.100 C 
BRANCH   9  10
ATOM     10  C   UNL     1     115.166 118.369 116.362  1.00  0.00     0.220 C 
ATOM     11  O   UNL     1     115.583 118.440 117.549  1.00  0.00    -0.275 OA
ATOM     12  N   UNL     1     115.100 117.104 115.693  1.00  0.00    -0.352 N 
ATOM     13  H   UNL     1     114.660 117.053 114.744  1.00  0.00     0.163 HD
BRANCH  12  14
ATOM     14  C   UNL     1     115.782 115.917 116.198  1.00  0.00     0.151 C 
BRANCH  14  15
ATOM     15  C   UNL     1     116.754 115.413 115.167  1.00  0.00    -0.025 A 
ATOM     16  C   UNL     1     117.379 116.306 114.282  1.00  0.00     0.056 A 
ATOM     17  C   UNL     1     116.987 114.037 115.039  1.00  0.00     0.009 A 
ATOM     18  C   UNL     1     118.252 115.829 113.283  1.00  0.00     0.160 A 
ATOM     19  C   UNL     1     117.854 113.559 114.054  1.00  0.00     0.050 A 
ATOM     20  C   UNL     1     118.488 114.450 113.179  1.00  0.00     0.157 A 
BRANCH  18  21
ATOM     21  O   UNL     1     118.898 116.688 112.381  1.00  0.00    -0.493 OA
ATOM     22  C   UNL     1     118.623 118.079 112.257  1.00  0.00     0.278 C 
ENDBRANCH  18  21
BRANCH  20  23
ATOM     23  O   UNL     1     119.354 113.972 112.196  1.00  0.00    -0.504 OA
ATOM     24  H   UNL     1     119.009 113.603 111.318  1.00  0.00     0.293 HD
ENDBRANCH  20  23
ENDBRANCH  14  15
ENDBRANCH  12  14
ENDBRANCH   9  10
ENDBRANCH   1   9
TORSDOF 10
ENDMDL
MODEL 3
REMARK VINA RESULT:    -5.024      2.330      4.818
REMARK INTER + INTRA:          -9.613
REMARK INTER:                  -7.552
REMARK INTRA:                  -2.060
REMARK UNBOUND:                -1.799
REMARK SMILES COc1cc(CNC(=O)CCCCC=CC(C)C)ccc1O
REMARK SMILES IDX 11 1 12 2 13 3 14 4 15 5 16 6 17 7 18 8 10 9 8 10 9 11 7 12
REMARK SMILES IDX 6 14 5 15 4 16 19 17 3 18 20 19 21 20 2 21 1 22 22 23
REMARK H PARENT 7 13 22 24
REMARK Flexibility Score: inf
ROOT
ATOM      1  C   UNL     1     113.763 116.508 112.236  1.00  0.00     0.010 C 
ENDROOT
BRANCH   1   2
ATOM      2  C   UNL     1     115.007 117.332 111.876  1.00  0.00     0.005 C 
BRANCH   2   3
ATOM      3  C   UNL     1     114.762 118.841 112.027  1.00  0.00     0.027 C 
BRANCH   3   4
ATOM      4  C   UNL     1     114.988 119.316 113.439  1.00  0.00    -0.031 C 
ATOM      5  C   UNL     1     115.902 118.741 114.237  1.00  0.00    -0.028 C 
BRANCH   5   6
ATOM      6  C   UNL     1     116.145 119.238 115.642  1.00  0.00     0.005 C 
ATOM      7  C   UNL     1     115.165 120.363 115.990  1.00  0.00     0.012 C 
ATOM      8  C   UNL     1     116.017 118.087 116.645  1.00  0.00     0.012 C 
ENDBRANCH   5   6
ENDBRANCH   3   4
ENDBRANCH   2   3
ENDBRANCH   1   2
BRANCH   1   9
ATOM      9  C   UNL     1     114.082 115.011 112.251  1.00  0.00     0.100 C 
BRANCH   9  10
ATOM     10  C   UNL     1     114.975 114.686 113.409  1.00  0.00     0.220 C 
ATOM     11  O   UNL     1     114.518 114.746 114.582  1.00  0.00    -0.275 OA
ATOM     12  N   UNL     1     116.354 114.368 113.185  1.00  0.00    -0.352 N 
ATOM     13  H   UNL     1     116.690 114.229 112.204  1.00  0.00     0.163 HD
BRANCH  12  14
ATOM     14  C   UNL     1     117.349 114.410 114.252  1.00  0.00     0.151 C 
BRANCH  14  15
ATOM     15  C   UNL     1     118.190 115.649 114.114  1.00  0.00    -0.025 A 
ATOM     16  C   UNL     1     118.842 116.194 115.231  1.00  0.00     0.056 A 
ATOM     17  C   UNL     1     118.269 116.306 112.878  1.00  0.00     0.009 A 
ATOM     18  C   UNL     1     119.590 117.384 115.111  1.00  0.00     0.160 A 
ATOM     19  C   UNL     1     119.012 117.482 112.754  1.00  0.00     0.050 A 
ATOM     20  C   UNL     1     119.673 118.020 113.865  1.00  0.00     0.157 A 
BRANCH  18  21
ATOM     21  O   UNL     1     120.258 117.960 116.202  1.00  0.00    -0.493 OA
ATOM     22  C   UNL     1     119.645 118.813 117.163  1.00  0.00     0.278 C 
ENDBRANCH  18  21
BRANCH  20  23
ATOM     23  O   UNL     1     120.415 119.194 113.738  1.00  0.00    -0.504 OA
ATOM     24  H   UNL     1     121.124 119.300 113.023  1.00  0.00     0.293 HD
ENDBRANCH  20  23
ENDBRANCH  14  15
ENDBRANCH  12  14
ENDBRANCH   9  10
ENDBRANCH   1   9
TORSDOF 10
ENDMDL
MODEL 4
REMARK VINA RESULT:    -5.020      1.117      2.329
REMARK INTER + INTRA:          -9.607
REMARK INTER:                  -7.780
REMARK INTRA:                  -1.827
REMARK UNBOUND:                -1.799
REMARK SMILES COc1cc(CNC(=O)CCCCC=CC(C)C)ccc1O
REMARK SMILES IDX 11 1 12 2 13 3 14 4 15 5 16 6 17 7 18 8 10 9 8 10 9 11 7 12
REMARK SMILES IDX 6 14 5 15 4 16 19 17 3 18 20 19 21 20 2 21 1 22 22 23
REMARK H PARENT 7 13 22 24
REMARK Flexibility Score: inf
ROOT
ATOM      1  C   UNL     1     113.743 114.593 113.628  1.00  0.00     0.010 C 
ENDROOT
BRANCH   1   2
ATOM      2  C   UNL     1     113.635 115.583 114.797  1.00  0.00     0.005 C 
BRANCH   2   3
ATOM      3  C   UNL     1     114.736 115.360 115.844  1.00  0.00     0.027 C 
BRANCH   3   4
ATOM      4  C   UNL     1     115.932 114.645 115.270  1.00  0.00    -0.031 C 
ATOM      5  C   UNL     1     117.087 114.549 115.948  1.00  0.00    -0.028 C 
BRANCH   5   6
ATOM      6  C   UNL     1     118.273 113.808 115.381  1.00  0.00     0.005 C 
ATOM      7  C   UNL     1     118.443 112.453 116.078  1.00  0.00     0.012 C 
ATOM      8  C   UNL     1     118.111 113.616 113.870  1.00  0.00     0.012 C 
ENDBRANCH   5   6
ENDBRANCH   3   4
ENDBRANCH   2   3
ENDBRANCH   1   2
BRANCH   1   9
ATOM      9  C   UNL     1     113.500 115.296 112.290  1.00  0.00     0.100 C 
BRANCH   9  10
ATOM     10  C   UNL     1     114.631 116.231 111.987  1.00  0.00     0.220 C 
ATOM     11  O   UNL     1     115.802 115.776 111.882  1.00  0.00    -0.275 OA
ATOM     12  N   UNL     1     114.388 117.638 111.875  1.00  0.00    -0.352 N 
ATOM     13  H   UNL     1     113.401 117.985 111.869  1.00  0.00     0.163 HD
BRANCH  12  14
ATOM     14  C   UNL     1     115.461 118.625 111.954  1.00  0.00     0.151 C 
BRANCH  14  15
ATOM     15  C   UNL     1     115.762 118.932 113.396  1.00  0.00    -0.025 A 
ATOM     16  C   UNL     1     116.849 118.322 114.041  1.00  0.00     0.056 A 
ATOM     17  C   UNL     1     114.914 119.777 114.123  1.00  0.00     0.009 A 
ATOM     18  C   UNL     1     117.103 118.571 115.405  1.00  0.00     0.160 A 
ATOM     19  C   UNL     1     115.162 120.031 115.473  1.00  0.00     0.050 A 
ATOM     20  C   UNL     1     116.254 119.433 116.115  1.00  0.00     0.157 A 
BRANCH  18  21
ATOM     21  O   UNL     1     118.180 117.984 116.086  1.00  0.00    -0.493 OA
ATOM     22  C   UNL     1     119.295 117.369 115.451  1.00  0.00     0.278 C 
ENDBRANCH  18  21
BRANCH  20  23
ATOM     23  O   UNL     1     116.501 119.688 117.463  1.00  0.00    -0.504 OA
ATOM     24  H   UNL     1     116.914 118.989 118.069  1.00  0.00     0.293 HD
ENDBRANCH  20  23
ENDBRANCH  14  15
ENDBRANCH  12  14
ENDBRANCH   9  10
ENDBRANCH   1   9
TORSDOF 10
ENDMDL
MODEL 5
REMARK VINA RESULT:    -4.938      2.456      4.679
REMARK INTER + INTRA:          -9.479
REMARK INTER:                  -8.030
REMARK INTRA:                  -1.449
REMARK UNBOUND:                -1.799
REMARK SMILES COc1cc(CNC(=O)CCCCC=CC(C)C)ccc1O
REMARK SMILES IDX 11 1 12 2 13 3 14 4 15 5 16 6 17 7 18 8 10 9 8 10 9 11 7 12
REMARK SMILES IDX 6 14 5 15 4 16 19 17 3 18 20 19 21 20 2 21 1 22 22 23
REMARK H PARENT 7 13 22 24
REMARK Flexibility Score: inf
ROOT
ATOM      1  C   UNL     1     114.567 119.612 113.289  1.00  0.00     0.010 C 
ENDROOT
BRANCH   1   2
ATOM      2  C   UNL     1     115.110 119.999 114.672  1.00  0.00     0.005 C 
BRANCH   2   3
ATOM      3  C   UNL     1     115.825 118.825 115.359  1.00  0.00     0.027 C 
BRANCH   3   4
ATOM      4  C   UNL     1     114.890 117.681 115.652  1.00  0.00    -0.031 C 
ATOM      5  C   UNL     1     114.624 116.737 114.734  1.00  0.00    -0.028 C 
BRANCH   5   6
ATOM      6  C   UNL     1     113.708 115.577 115.041  1.00  0.00     0.005 C 
ATOM      7  C   UNL     1     113.453 114.745 113.779  1.00  0.00     0.012 C 
ATOM      8  C   UNL     1     114.308 114.701 116.147  1.00  0.00     0.012 C 
ENDBRANCH   5   6
ENDBRANCH   3   4
ENDBRANCH   2   3
ENDBRANCH   1   2
BRANCH   1   9
ATOM      9  C   UNL     1     115.594 119.907 112.193  1.00  0.00     0.100 C 
BRANCH   9  10
ATOM     10  C   UNL     1     116.454 118.703 111.957  1.00  0.00     0.220 C 
ATOM     11  O   UNL     1     115.921 117.564 111.881  1.00  0.00    -0.275 OA
ATOM     12  N   UNL     1     117.878 118.843 111.876  1.00  0.00    -0.352 N 
ATOM     13  H   UNL     1     118.293 119.803 111.844  1.00  0.00     0.163 HD
BRANCH  12  14
ATOM     14  C   UNL     1     118.783 117.708 112.021  1.00  0.00     0.151 C 
BRANCH  14  15
ATOM     15  C   UNL     1     118.913 117.345 113.475  1.00  0.00    -0.025 A 
ATOM     16  C   UNL     1     119.681 118.140 114.341  1.00  0.00     0.056 A 
ATOM     17  C   UNL     1     118.324 116.169 113.958  1.00  0.00     0.009 A 
ATOM     18  C   UNL     1     119.843 117.774 115.692  1.00  0.00     0.160 A 
ATOM     19  C   UNL     1     118.479 115.803 115.296  1.00  0.00     0.050 A 
ATOM     20  C   UNL     1     119.234 116.602 116.164  1.00  0.00     0.157 A 
BRANCH  18  21
ATOM     21  O   UNL     1     120.600 118.542 116.590  1.00  0.00    -0.493 OA
ATOM     22  C   UNL     1     122.020 118.517 116.673  1.00  0.00     0.278 C 
ENDBRANCH  18  21
BRANCH  20  23
ATOM     23  O   UNL     1     119.387 116.236 117.501  1.00  0.00    -0.504 OA
ATOM     24  H   UNL     1     119.918 116.804 118.150  1.00  0.00     0.293 HD
ENDBRANCH  20  23
ENDBRANCH  14  15
ENDBRANCH  12  14
ENDBRANCH   9  10
ENDBRANCH   1   9
TORSDOF 10
ENDMDL
MODEL 6
REMARK VINA RESULT:    -4.932      2.124      4.015
REMARK INTER + INTRA:          -9.471
REMARK INTER:                  -7.337
REMARK INTRA:                  -2.134
REMARK UNBOUND:                -1.799
REMARK SMILES COc1cc(CNC(=O)CCCCC=CC(C)C)ccc1O
REMARK SMILES IDX 11 1 12 2 13 3 14 4 15 5 16 6 17 7 18 8 10 9 8 10 9 11 7 12
REMARK SMILES IDX 6 14 5 15 4 16 19 17 3 18 20 19 21 20 2 21 1 22 22 23
REMARK H PARENT 7 13 22 24
REMARK Flexibility Score: inf
ROOT
ATOM      1  C   UNL     1     118.327 114.004 113.005  1.00  0.00     0.010 C 
ENDROOT
BRANCH   1   2
ATOM      2  C   UNL     1     117.067 113.563 112.245  1.00  0.00     0.005 C 
BRANCH   2   3
ATOM      3  C   UNL     1     116.144 114.748 111.925  1.00  0.00     0.027 C 
BRANCH   3   4
ATOM      4  C   UNL     1     115.018 114.878 112.918  1.00  0.00    -0.031 C 
ATOM      5  C   UNL     1     115.034 115.814 113.881  1.00  0.00    -0.028 C 
BRANCH   5   6
ATOM      6  C   UNL     1     113.891 115.959 114.857  1.00  0.00     0.005 C 
ATOM      7  C   UNL     1     112.977 114.730 114.799  1.00  0.00     0.012 C 
ATOM      8  C   UNL     1     114.426 116.161 116.279  1.00  0.00     0.012 C 
ENDBRANCH   5   6
ENDBRANCH   3   4
ENDBRANCH   2   3
ENDBRANCH   1   2
BRANCH   1   9
ATOM      9  C   UNL     1     118.093 113.980 114.516  1.00  0.00     0.100 C 
BRANCH   9  10
ATOM     10  C   UNL     1     118.472 115.299 115.118  1.00  0.00     0.220 C 
ATOM     11  O   UNL     1     118.254 115.510 116.341  1.00  0.00    -0.275 OA
ATOM     12  N   UNL     1     119.024 116.332 114.292  1.00  0.00    -0.352 N 
ATOM     13  H   UNL     1     119.287 116.107 113.305  1.00  0.00     0.163 HD
BRANCH  12  14
ATOM     14  C   UNL     1     119.065 117.729 114.713  1.00  0.00     0.151 C 
BRANCH  14  15
ATOM     15  C   UNL     1     117.760 118.397 114.380  1.00  0.00    -0.025 A 
ATOM     16  C   UNL     1     116.912 118.851 115.402  1.00  0.00     0.056 A 
ATOM     17  C   UNL     1     117.351 118.508 113.044  1.00  0.00     0.009 A 
ATOM     18  C   UNL     1     115.666 119.434 115.092  1.00  0.00     0.160 A 
ATOM     19  C   UNL     1     116.120 119.087 112.730  1.00  0.00     0.050 A 
ATOM     20  C   UNL     1     115.279 119.551 113.749  1.00  0.00     0.157 A 
BRANCH  18  21
ATOM     21  O   UNL     1     114.791 119.902 116.083  1.00  0.00    -0.493 OA
ATOM     22  C   UNL     1     114.755 121.243 116.558  1.00  0.00     0.278 C 
ENDBRANCH  18  21
BRANCH  20  23
ATOM     23  O   UNL     1     114.050 120.130 113.434  1.00  0.00    -0.504 OA
ATOM     24  H   UNL     1     113.807 121.063 113.746  1.00  0.00     0.293 HD
ENDBRANCH  20  23
ENDBRANCH  14  15
ENDBRANCH  12  14
ENDBRANCH   9  10
ENDBRANCH   1   9
TORSDOF 10
ENDMDL
MODEL 7
REMARK VINA RESULT:    -4.893      2.728      6.103
REMARK INTER + INTRA:          -9.410
REMARK INTER:                  -7.437
REMARK INTRA:                  -1.973
REMARK UNBOUND:                -1.799
REMARK SMILES COc1cc(CNC(=O)CCCCC=CC(C)C)ccc1O
REMARK SMILES IDX 11 1 12 2 13 3 14 4 15 5 16 6 17 7 18 8 10 9 8 10 9 11 7 12
REMARK SMILES IDX 6 14 5 15 4 16 19 17 3 18 20 19 21 20 2 21 1 22 22 23
REMARK H PARENT 7 13 22 24
REMARK Flexibility Score: inf
ROOT
ATOM      1  C   UNL     1     119.368 118.490 113.725  1.00  0.00     0.010 C 
ENDROOT
BRANCH   1   2
ATOM      2  C   UNL     1     119.676 117.563 114.909  1.00  0.00     0.005 C 
BRANCH   2   3
ATOM      3  C   UNL     1     118.420 117.247 115.735  1.00  0.00     0.027 C 
BRANCH   3   4
ATOM      4  C   UNL     1     117.200 117.958 115.211  1.00  0.00    -0.031 C 
ATOM      5  C   UNL     1     116.121 118.165 115.984  1.00  0.00    -0.028 C 
BRANCH   5   6
ATOM      6  C   UNL     1     114.910 118.902 115.463  1.00  0.00     0.005 C 
ATOM      7  C   UNL     1     114.822 120.299 116.088  1.00  0.00     0.012 C 
ATOM      8  C   UNL     1     114.962 119.001 113.935  1.00  0.00     0.012 C 
ENDBRANCH   5   6
ENDBRANCH   3   4
ENDBRANCH   2   3
ENDBRANCH   1   2
BRANCH   1   9
ATOM      9  C   UNL     1     119.703 117.812 112.395  1.00  0.00     0.100 C 
BRANCH   9  10
ATOM     10  C   UNL     1     118.622 116.843 112.024  1.00  0.00     0.220 C 
ATOM     11  O   UNL     1     117.438 117.253 111.895  1.00  0.00    -0.275 OA
ATOM     12  N   UNL     1     118.927 115.451 111.876  1.00  0.00    -0.352 N 
ATOM     13  H   UNL     1     119.927 115.145 111.891  1.00  0.00     0.163 HD
BRANCH  12  14
ATOM     14  C   UNL     1     117.894 114.420 111.888  1.00  0.00     0.151 C 
BRANCH  14  15
ATOM     15  C   UNL     1     117.281 114.332 113.258  1.00  0.00    -0.025 A 
ATOM     16  C   UNL     1     117.976 113.716 114.310  1.00  0.00     0.056 A 
ATOM     17  C   UNL     1     115.979 114.804 113.474  1.00  0.00     0.009 A 
ATOM     18  C   UNL     1     117.382 113.589 115.583  1.00  0.00     0.160 A 
ATOM     19  C   UNL     1     115.387 114.685 114.732  1.00  0.00     0.050 A 
ATOM     20  C   UNL     1     116.084 114.081 115.786  1.00  0.00     0.157 A 
BRANCH  18  21
ATOM     21  O   UNL     1     118.044 112.983 116.661  1.00  0.00    -0.493 OA
ATOM     22  C   UNL     1     118.716 111.730 116.591  1.00  0.00     0.278 C 
ENDBRANCH  18  21
BRANCH  20  23
ATOM     23  O   UNL     1     115.492 113.964 117.043  1.00  0.00    -0.504 OA
ATOM     24  H   UNL     1     114.813 113.239 117.244  1.00  0.00     0.293 HD
ENDBRANCH  20  23
ENDBRANCH  14  15
ENDBRANCH  12  14
ENDBRANCH   9  10
ENDBRANCH   1   9
TORSDOF 10
ENDMDL
MODEL 8
REMARK VINA RESULT:    -4.815      2.492      5.479
REMARK INTER + INTRA:          -9.288
REMARK INTER:                  -7.385
REMARK INTRA:                  -1.903
REMARK UNBOUND:                -1.799
REMARK SMILES COc1cc(CNC(=O)CCCCC=CC(C)C)ccc1O
REMARK SMILES IDX 11 1 12 2 13 3 14 4 15 5 16 6 17 7 18 8 10 9 8 10 9 11 7 12
REMARK SMILES IDX 6 14 5 15 4 16 19 17 3 18 20 19 21 20 2 21 1 22 22 23
REMARK H PARENT 7 13 22 24
REMARK Flexibility Score: inf
ROOT
ATOM      1  C   UNL     1     118.992 118.286 112.862  1.00  0.00     0.010 C 
ENDROOT
BRANCH   1   2
ATOM      2  C   UNL     1     119.498 117.942 114.270  1.00  0.00     0.005 C 
BRANCH   2   3
ATOM      3  C   UNL     1     118.384 118.041 115.322  1.00  0.00     0.027 C 
BRANCH   3   4
ATOM      4  C   UNL     1     117.166 118.756 114.798  1.00  0.00    -0.031 C 
ATOM      5  C   UNL     1     115.969 118.151 114.732  1.00  0.00    -0.028 C 
BRANCH   5   6
ATOM      6  C   UNL     1     114.745 118.880 114.232  1.00  0.00     0.005 C 
ATOM      7  C   UNL     1     114.709 120.309 114.783  1.00  0.00     0.012 C 
ATOM      8  C   UNL     1     114.722 118.897 112.699  1.00  0.00     0.012 C 
ENDBRANCH   5   6
ENDBRANCH   3   4
ENDBRANCH   2   3
ENDBRANCH   1   2
BRANCH   1   9
ATOM      9  C   UNL     1     119.285 117.149 111.880  1.00  0.00     0.100 C 
BRANCH   9  10
ATOM     10  C   UNL     1     118.402 115.975 112.174  1.00  0.00     0.220 C 
ATOM     11  O   UNL     1     118.919 114.888 112.548  1.00  0.00    -0.275 OA
ATOM     12  N   UNL     1     116.987 116.072 111.972  1.00  0.00    -0.352 N 
ATOM     13  H   UNL     1     116.568 117.006 111.755  1.00  0.00     0.163 HD
BRANCH  12  14
ATOM     14  C   UNL     1     116.129 114.896 111.876  1.00  0.00     0.151 C 
BRANCH  14  15
ATOM     15  C   UNL     1     115.193 114.853 113.052  1.00  0.00    -0.025 A 
ATOM     16  C   UNL     1     115.696 114.747 114.358  1.00  0.00     0.056 A 
ATOM     17  C   UNL     1     113.807 114.848 112.843  1.00  0.00     0.009 A 
ATOM     18  C   UNL     1     114.818 114.657 115.457  1.00  0.00     0.160 A 
ATOM     19  C   UNL     1     112.933 114.763 113.928  1.00  0.00     0.050 A 
ATOM     20  C   UNL     1     113.434 114.670 115.233  1.00  0.00     0.157 A 
BRANCH  18  21
ATOM     21  O   UNL     1     115.280 114.553 116.778  1.00  0.00    -0.493 OA
ATOM     22  C   UNL     1     115.720 115.653 117.567  1.00  0.00     0.278 C 
ENDBRANCH  18  21
BRANCH  20  23
ATOM     23  O   UNL     1     112.559 114.586 116.316  1.00  0.00    -0.504 OA
ATOM     24  H   UNL     1     112.354 115.390 116.896  1.00  0.00     0.293 HD
ENDBRANCH  20  23
ENDBRANCH  14  15
ENDBRANCH  12  14
ENDBRANCH   9  10
ENDBRANCH   1   9
TORSDOF 10
ENDMDL
