MODEL 1
REMARK VINA RESULT:    -3.935      0.000      0.000
REMARK INTER + INTRA:          -5.433
REMARK INTER:                  -5.315
REMARK INTRA:                  -0.117
REMARK UNBOUND:                -0.117
REMARK SMILES CCCCCCCC=O
REMARK SMILES IDX 5 1 4 2 3 3 2 4 1 5 6 6 7 7 8 8 9 9
REMARK H PARENT
REMARK Flexibility Score: inf
ROOT
ATOM      1  C   UNL     1      25.563  58.202  -9.072  1.00  0.00     0.000 C 
ENDROOT
BRANCH   1   2
ATOM      2  C   UNL     1      26.796  58.612  -9.886  1.00  0.00     0.000 C 
BRANCH   2   3
ATOM      3  C   UNL     1      27.061  60.120  -9.763  1.00  0.00    -0.000 C 
BRANCH   3   4
ATOM      4  C   UNL     1      28.205  60.595 -10.672  1.00  0.00    -0.003 C 
ATOM      5  C   UNL     1      29.221  59.492 -10.969  1.00  0.00     0.004 C 
ENDBRANCH   3   4
ENDBRANCH   2   3
ENDBRANCH   1   2
BRANCH   1   6
ATOM      6  C   UNL     1      25.600  56.706  -8.730  1.00  0.00     0.008 C 
BRANCH   6   7
ATOM      7  C   UNL     1      24.218  56.050  -8.854  1.00  0.00     0.072 C 
BRANCH   7   8
ATOM      8  C   UNL     1      23.826  55.319  -7.603  1.00  0.00     0.224 C 
ATOM      9  O   UNL     1      22.683  54.913  -7.456  1.00  0.00    -0.303 OA
ENDBRANCH   7   8
ENDBRANCH   6   7
ENDBRANCH   1   6
TORSDOF 6
ENDMDL
MODEL 2
REMARK VINA RESULT:    -3.929      3.040      5.849
REMARK INTER + INTRA:          -5.424
REMARK INTER:                  -5.240
REMARK INTRA:                  -0.184
REMARK UNBOUND:                -0.117
REMARK SMILES CCCCCCCC=O
REMARK SMILES IDX 5 1 4 2 3 3 2 4 1 5 6 6 7 7 8 8 9 9
REMARK H PARENT
REMARK Flexibility Score: inf
ROOT
ATOM      1  C   UNL     1      25.231  58.221  -8.947  1.00  0.00     0.000 C 
ENDROOT
BRANCH   1   2
ATOM      2  C   UNL     1      25.897  56.840  -8.912  1.00  0.00     0.000 C 
BRANCH   2   3
ATOM      3  C   UNL     1      25.163  55.899  -7.945  1.00  0.00    -0.000 C 
BRANCH   3   4
ATOM      4  C   UNL     1      23.734  55.575  -8.405  1.00  0.00    -0.003 C 
ATOM      5  C   UNL     1      22.865  55.009  -7.281  1.00  0.00     0.004 C 
ENDBRANCH   3   4
ENDBRANCH   2   3
ENDBRANCH   1   2
BRANCH   1   6
ATOM      6  C   UNL     1      26.241  59.310  -9.335  1.00  0.00     0.008 C 
BRANCH   6   7
ATOM      7  C   UNL     1      27.253  58.815 -10.378  1.00  0.00     0.072 C 
BRANCH   7   8
ATOM      8  C   UNL     1      28.375  59.789 -10.583  1.00  0.00     0.224 C 
ATOM      9  O   UNL     1      28.142  60.977 -10.745  1.00  0.00    -0.303 OA
ENDBRANCH   7   8
ENDBRANCH   6   7
ENDBRANCH   1   6
TORSDOF 6
ENDMDL
MODEL 3
REMARK VINA RESULT:    -3.694     14.948     16.598
REMARK INTER + INTRA:          -5.106
REMARK INTER:                  -4.931
REMARK INTRA:                  -0.175
REMARK UNBOUND:                -0.117
REMARK SMILES CCCCCCCC=O
REMARK SMILES IDX 5 1 4 2 3 3 2 4 1 5 6 6 7 7 8 8 9 9
REMARK H PARENT
REMARK Flexibility Score: inf
ROOT
ATOM      1  C   UNL     1      31.533  45.571   0.604  1.00  0.00     0.000 C 
ENDROOT
BRANCH   1   2
ATOM      2  C   UNL     1      32.361  45.364   1.878  1.00  0.00     0.000 C 
BRANCH   2   3
ATOM      3  C   UNL     1      33.070  46.662   2.291  1.00  0.00    -0.000 C 
BRANCH   3   4
ATOM      4  C   UNL     1      32.643  47.152   3.683  1.00  0.00    -0.003 C 
ATOM      5  C   UNL     1      32.477  48.670   3.749  1.00  0.00     0.004 C 
ENDBRANCH   3   4
ENDBRANCH   2   3
ENDBRANCH   1   2
BRANCH   1   6
ATOM      6  C   UNL     1      30.030  45.568   0.918  1.00  0.00     0.008 C 
BRANCH   6   7
ATOM      7  C   UNL     1      29.182  45.240  -0.319  1.00  0.00     0.072 C 
BRANCH   7   8
ATOM      8  C   UNL     1      27.985  46.138  -0.437  1.00  0.00     0.224 C 
ATOM      9  O   UNL     1      27.798  46.791  -1.452  1.00  0.00    -0.303 OA
ENDBRANCH   7   8
ENDBRANCH   6   7
ENDBRANCH   1   6
TORSDOF 6
ENDMDL
MODEL 4
REMARK VINA RESULT:    -3.678     14.687     16.969
REMARK INTER + INTRA:          -5.086
REMARK INTER:                  -4.897
REMARK INTRA:                  -0.189
REMARK UNBOUND:                -0.117
REMARK SMILES CCCCCCCC=O
REMARK SMILES IDX 5 1 4 2 3 3 2 4 1 5 6 6 7 7 8 8 9 9
REMARK H PARENT
REMARK Flexibility Score: inf
ROOT
ATOM      1  C   UNL     1      31.408  44.538   0.668  1.00  0.00     0.000 C 
ENDROOT
BRANCH   1   2
ATOM      2  C   UNL     1      30.057  44.403  -0.046  1.00  0.00     0.000 C 
BRANCH   2   3
ATOM      3  C   UNL     1      29.219  45.679   0.118  1.00  0.00    -0.000 C 
BRANCH   3   4
ATOM      4  C   UNL     1      27.918  45.641  -0.699  1.00  0.00    -0.003 C 
ATOM      5  C   UNL     1      27.589  46.987  -1.348  1.00  0.00     0.004 C 
ENDBRANCH   3   4
ENDBRANCH   2   3
ENDBRANCH   1   2
BRANCH   1   6
ATOM      6  C   UNL     1      31.486  45.852   1.457  1.00  0.00     0.008 C 
BRANCH   6   7
ATOM      7  C   UNL     1      32.844  46.032   2.149  1.00  0.00     0.072 C 
BRANCH   7   8
ATOM      8  C   UNL     1      32.737  46.857   3.398  1.00  0.00     0.224 C 
ATOM      9  O   UNL     1      31.856  47.694   3.513  1.00  0.00    -0.303 OA
ENDBRANCH   7   8
ENDBRANCH   6   7
ENDBRANCH   1   6
TORSDOF 6
ENDMDL
MODEL 5
REMARK VINA RESULT:    -3.649     14.943     16.955
REMARK INTER + INTRA:          -5.046
REMARK INTER:                  -4.622
REMARK INTRA:                  -0.424
REMARK UNBOUND:                -0.117
REMARK SMILES CCCCCCCC=O
REMARK SMILES IDX 5 1 4 2 3 3 2 4 1 5 6 6 7 7 8 8 9 9
REMARK H PARENT
REMARK Flexibility Score: inf
ROOT
ATOM      1  C   UNL     1      31.477  45.522   0.686  1.00  0.00     0.000 C 
ENDROOT
BRANCH   1   2
ATOM      2  C   UNL     1      32.154  44.389   1.468  1.00  0.00     0.000 C 
BRANCH   2   3
ATOM      3  C   UNL     1      32.354  43.151   0.581  1.00  0.00    -0.000 C 
BRANCH   3   4
ATOM      4  C   UNL     1      32.532  43.509  -0.903  1.00  0.00    -0.003 C 
ATOM      5  C   UNL     1      31.709  42.613  -1.830  1.00  0.00     0.004 C 
ENDBRANCH   3   4
ENDBRANCH   2   3
ENDBRANCH   1   2
BRANCH   1   6
ATOM      6  C   UNL     1      29.964  45.540   0.945  1.00  0.00     0.008 C 
BRANCH   6   7
ATOM      7  C   UNL     1      29.157  45.219  -0.321  1.00  0.00     0.072 C 
BRANCH   7   8
ATOM      8  C   UNL     1      27.961  46.114  -0.471  1.00  0.00     0.224 C 
ATOM      9  O   UNL     1      27.831  46.812  -1.465  1.00  0.00    -0.303 OA
ENDBRANCH   7   8
ENDBRANCH   6   7
ENDBRANCH   1   6
TORSDOF 6
ENDMDL
MODEL 6
REMARK VINA RESULT:    -3.552     15.895     17.486
REMARK INTER + INTRA:          -4.916
REMARK INTER:                  -4.618
REMARK INTRA:                  -0.298
REMARK UNBOUND:                -0.117
REMARK SMILES CCCCCCCC=O
REMARK SMILES IDX 5 1 4 2 3 3 2 4 1 5 6 6 7 7 8 8 9 9
REMARK H PARENT
REMARK Flexibility Score: inf
ROOT
ATOM      1  C   UNL     1      32.465  46.159   1.405  1.00  0.00     0.000 C 
ENDROOT
BRANCH   1   2
ATOM      2  C   UNL     1      31.983  44.707   1.518  1.00  0.00     0.000 C 
BRANCH   2   3
ATOM      3  C   UNL     1      30.745  44.468   0.641  1.00  0.00    -0.000 C 
BRANCH   3   4
ATOM      4  C   UNL     1      29.720  45.608   0.742  1.00  0.00    -0.003 C 
ATOM      5  C   UNL     1      28.691  45.579  -0.388  1.00  0.00     0.004 C 
ENDBRANCH   3   4
ENDBRANCH   2   3
ENDBRANCH   1   2
BRANCH   1   6
ATOM      6  C   UNL     1      33.006  46.665   2.749  1.00  0.00     0.008 C 
BRANCH   6   7
ATOM      7  C   UNL     1      31.992  47.553   3.484  1.00  0.00     0.072 C 
BRANCH   7   8
ATOM      8  C   UNL     1      32.535  48.926   3.753  1.00  0.00     0.224 C 
ATOM      9  O   UNL     1      33.308  49.451   2.968  1.00  0.00    -0.303 OA
ENDBRANCH   7   8
ENDBRANCH   6   7
ENDBRANCH   1   6
TORSDOF 6
ENDMDL
MODEL 7
REMARK VINA RESULT:    -3.511      4.969      6.984
REMARK INTER + INTRA:          -4.859
REMARK INTER:                  -4.475
REMARK INTRA:                  -0.384
REMARK UNBOUND:                -0.117
REMARK SMILES CCCCCCCC=O
REMARK SMILES IDX 5 1 4 2 3 3 2 4 1 5 6 6 7 7 8 8 9 9
REMARK H PARENT
REMARK Flexibility Score: inf
ROOT
ATOM      1  C   UNL     1      30.300  57.581 -13.164  1.00  0.00     0.000 C 
ENDROOT
BRANCH   1   2
ATOM      2  C   UNL     1      31.611  56.948 -13.648  1.00  0.00     0.000 C 
BRANCH   2   3
ATOM      3  C   UNL     1      32.590  58.022 -14.144  1.00  0.00    -0.000 C 
BRANCH   3   4
ATOM      4  C   UNL     1      34.023  57.796 -13.637  1.00  0.00    -0.003 C 
ATOM      5  C   UNL     1      34.104  56.716 -12.557  1.00  0.00     0.004 C 
ENDBRANCH   3   4
ENDBRANCH   2   3
ENDBRANCH   1   2
BRANCH   1   6
ATOM      6  C   UNL     1      30.496  59.067 -12.830  1.00  0.00     0.008 C 
BRANCH   6   7
ATOM      7  C   UNL     1      30.474  59.327 -11.318  1.00  0.00     0.072 C 
BRANCH   7   8
ATOM      8  C   UNL     1      29.149  59.859 -10.855  1.00  0.00     0.224 C 
ATOM      9  O   UNL     1      28.188  59.114 -10.742  1.00  0.00    -0.303 OA
ENDBRANCH   7   8
ENDBRANCH   6   7
ENDBRANCH   1   6
TORSDOF 6
ENDMDL
MODEL 8
REMARK VINA RESULT:    -3.423     17.660     18.883
REMARK INTER + INTRA:          -4.741
REMARK INTER:                  -4.467
REMARK INTRA:                  -0.274
REMARK UNBOUND:                -0.117
REMARK SMILES CCCCCCCC=O
REMARK SMILES IDX 5 1 4 2 3 3 2 4 1 5 6 6 7 7 8 8 9 9
REMARK H PARENT
REMARK Flexibility Score: inf
ROOT
ATOM      1  C   UNL     1      16.978  44.007   1.307  1.00  0.00     0.000 C 
ENDROOT
BRANCH   1   2
ATOM      2  C   UNL     1      15.720  44.683   1.867  1.00  0.00     0.000 C 
BRANCH   2   3
ATOM      3  C   UNL     1      15.051  45.568   0.806  1.00  0.00    -0.000 C 
BRANCH   3   4
ATOM      4  C   UNL     1      15.744  45.477  -0.562  1.00  0.00    -0.003 C 
ATOM      5  C   UNL     1      15.026  46.286  -1.643  1.00  0.00     0.004 C 
ENDBRANCH   3   4
ENDBRANCH   2   3
ENDBRANCH   1   2
BRANCH   1   6
ATOM      6  C   UNL     1      18.146  44.107   2.299  1.00  0.00     0.008 C 
BRANCH   6   7
ATOM      7  C   UNL     1      19.506  44.142   1.589  1.00  0.00     0.072 C 
BRANCH   7   8
ATOM      8  C   UNL     1      19.375  44.478   0.133  1.00  0.00     0.224 C 
ATOM      9  O   UNL     1      19.459  45.637  -0.245  1.00  0.00    -0.303 OA
ENDBRANCH   7   8
ENDBRANCH   6   7
ENDBRANCH   1   6
TORSDOF 6
ENDMDL
MODEL 9
REMARK VINA RESULT:    -3.415     17.305     19.170
REMARK INTER + INTRA:          -4.730
REMARK INTER:                  -4.248
REMARK INTRA:                  -0.482
REMARK UNBOUND:                -0.117
REMARK SMILES CCCCCCCC=O
REMARK SMILES IDX 5 1 4 2 3 3 2 4 1 5 6 6 7 7 8 8 9 9
REMARK H PARENT
REMARK Flexibility Score: inf
ROOT
ATOM      1  C   UNL     1      15.861  43.321   1.405  1.00  0.00     0.000 C 
ENDROOT
BRANCH   1   2
ATOM      2  C   UNL     1      17.337  42.922   1.286  1.00  0.00     0.000 C 
BRANCH   2   3
ATOM      3  C   UNL     1      18.239  43.923   2.021  1.00  0.00    -0.000 C 
BRANCH   3   4
ATOM      4  C   UNL     1      19.509  44.269   1.229  1.00  0.00    -0.003 C 
ATOM      5  C   UNL     1      19.219  45.109  -0.015  1.00  0.00     0.004 C 
ENDBRANCH   3   4
ENDBRANCH   2   3
ENDBRANCH   1   2
BRANCH   1   6
ATOM      6  C   UNL     1      15.720  44.790   1.825  1.00  0.00     0.008 C 
BRANCH   6   7
ATOM      7  C   UNL     1      14.841  45.589   0.853  1.00  0.00     0.072 C 
BRANCH   7   8
ATOM      8  C   UNL     1      15.167  45.288  -0.581  1.00  0.00     0.224 C 
ATOM      9  O   UNL     1      15.994  45.956  -1.181  1.00  0.00    -0.303 OA
ENDBRANCH   7   8
ENDBRANCH   6   7
ENDBRANCH   1   6
TORSDOF 6
ENDMDL
