MODEL 1
REMARK VINA RESULT:    -6.027      0.000      0.000
REMARK INTER + INTRA:          -7.062
REMARK INTER:                  -7.084
REMARK INTRA:                   0.022
REMARK UNBOUND:                 0.022
REMARK SMILES O=c1c(O)c(-c2ccc(O)cc2)oc2cc(O)cc(O)c12
REMARK SMILES IDX 5 1 3 2 2 3 1 4 21 5 19 6 18 7 16 8 15 9 14 10 13 11 6 12
REMARK SMILES IDX 7 13 8 14 9 15 12 16 11 17 10 18 4 20 20 22 17 24
REMARK H PARENT 10 19 4 21 20 23 17 25
REMARK Flexibility Score: inf
ROOT
ATOM      1  C   UNL     1      17.835  30.517  32.465  1.00  0.00     0.180 A 
ATOM      2  C   UNL     1      18.384  29.961  33.633  1.00  0.00     0.208 A 
ATOM      3  C   UNL     1      18.097  30.559  34.870  1.00  0.00     0.238 A 
ATOM      4  O   UNL     1      18.635  30.089  35.908  1.00  0.00    -0.285 OA
ATOM      5  C   UNL     1      17.254  31.695  34.927  1.00  0.00     0.111 A 
ATOM      6  C   UNL     1      16.865  32.358  36.130  1.00  0.00     0.134 A 
ATOM      7  C   UNL     1      16.134  33.550  36.057  1.00  0.00     0.093 A 
ATOM      8  C   UNL     1      15.723  34.068  34.826  1.00  0.00     0.123 A 
ATOM      9  C   UNL     1      16.048  33.396  33.649  1.00  0.00     0.094 A 
ATOM     10  C   UNL     1      16.806  32.224  33.689  1.00  0.00     0.146 A 
ATOM     11  O   UNL     1      17.102  31.622  32.543  1.00  0.00    -0.452 OA
ENDROOT
BRANCH   1  12
ATOM     12  C   UNL     1      18.071  29.929  31.126  1.00  0.00     0.021 A 
ATOM     13  C   UNL     1      18.420  30.767  30.054  1.00  0.00     0.016 A 
ATOM     14  C   UNL     1      18.626  30.235  28.777  1.00  0.00     0.047 A 
ATOM     15  C   UNL     1      18.469  28.864  28.552  1.00  0.00     0.115 A 
ATOM     16  C   UNL     1      17.895  28.554  30.889  1.00  0.00     0.016 A 
ATOM     17  C   UNL     1      18.100  28.025  29.611  1.00  0.00     0.047 A 
BRANCH  15  18
ATOM     18  O   UNL     1      18.677  28.349  27.275  1.00  0.00    -0.508 OA
ATOM     19  H   UNL     1      17.910  27.990  26.718  1.00  0.00     0.293 HD
ENDBRANCH  15  18
ENDBRANCH   1  12
BRANCH   2  20
ATOM     20  O   UNL     1      19.231  28.853  33.553  1.00  0.00    -0.502 OA
ATOM     21  H   UNL     1      20.150  28.839  33.979  1.00  0.00     0.293 HD
ENDBRANCH   2  20
BRANCH   6  22
ATOM     22  O   UNL     1      17.145  31.875  37.412  1.00  0.00    -0.507 OA
ATOM     23  H   UNL     1      16.452  31.546  38.066  1.00  0.00     0.293 HD
ENDBRANCH   6  22
BRANCH   8  24
ATOM     24  O   UNL     1      14.982  35.246  34.763  1.00  0.00    -0.508 OA
ATOM     25  H   UNL     1      15.418  36.136  34.553  1.00  0.00     0.293 HD
ENDBRANCH   8  24
TORSDOF 5
ENDMDL
MODEL 2
REMARK VINA RESULT:    -6.011      3.524      6.564
REMARK INTER + INTRA:          -7.044
REMARK INTER:                  -6.763
REMARK INTRA:                  -0.281
REMARK UNBOUND:                 0.022
REMARK SMILES O=c1c(O)c(-c2ccc(O)cc2)oc2cc(O)cc(O)c12
REMARK SMILES IDX 5 1 3 2 2 3 1 4 21 5 19 6 18 7 16 8 15 9 14 10 13 11 6 12
REMARK SMILES IDX 7 13 8 14 9 15 12 16 11 17 10 18 4 20 20 22 17 24
REMARK H PARENT 10 19 4 21 20 23 17 25
REMARK Flexibility Score: inf
ROOT
ATOM      1  C   UNL     1      19.312  26.390  28.903  1.00  0.00     0.180 A 
ATOM      2  C   UNL     1      19.003  27.333  27.908  1.00  0.00     0.208 A 
ATOM      3  C   UNL     1      18.649  28.636  28.292  1.00  0.00     0.238 A 
ATOM      4  O   UNL     1      18.321  29.462  27.399  1.00  0.00    -0.285 OA
ATOM      5  C   UNL     1      18.624  28.985  29.664  1.00  0.00     0.111 A 
ATOM      6  C   UNL     1      18.318  30.287  30.164  1.00  0.00     0.134 A 
ATOM      7  C   UNL     1      18.195  30.484  31.545  1.00  0.00     0.093 A 
ATOM      8  C   UNL     1      18.430  29.443  32.445  1.00  0.00     0.123 A 
ATOM      9  C   UNL     1      18.787  28.183  31.968  1.00  0.00     0.094 A 
ATOM     10  C   UNL     1      18.883  27.947  30.595  1.00  0.00     0.146 A 
ATOM     11  O   UNL     1      19.215  26.729  30.184  1.00  0.00    -0.452 OA
ENDROOT
BRANCH   1  12
ATOM     12  C   UNL     1      19.719  25.004  28.576  1.00  0.00     0.021 A 
ATOM     13  C   UNL     1      21.082  24.697  28.440  1.00  0.00     0.016 A 
ATOM     14  C   UNL     1      21.487  23.399  28.110  1.00  0.00     0.047 A 
ATOM     15  C   UNL     1      20.535  22.398  27.897  1.00  0.00     0.115 A 
ATOM     16  C   UNL     1      18.765  23.997  28.341  1.00  0.00     0.016 A 
ATOM     17  C   UNL     1      19.172  22.701  28.010  1.00  0.00     0.047 A 
BRANCH  15  18
ATOM     18  O   UNL     1      20.952  21.111  27.569  1.00  0.00    -0.508 OA
ATOM     19  H   UNL     1      20.356  20.305  27.723  1.00  0.00     0.293 HD
ENDBRANCH  15  18
ENDBRANCH   1  12
BRANCH   2  20
ATOM     20  O   UNL     1      19.013  26.962  26.561  1.00  0.00    -0.502 OA
ATOM     21  H   UNL     1      18.162  26.792  26.037  1.00  0.00     0.293 HD
ENDBRANCH   2  20
BRANCH   6  22
ATOM     22  O   UNL     1      18.155  31.415  29.355  1.00  0.00    -0.507 OA
ATOM     23  H   UNL     1      17.915  32.335  29.693  1.00  0.00     0.293 HD
ENDBRANCH   6  22
BRANCH   8  24
ATOM     24  O   UNL     1      18.321  29.652  33.818  1.00  0.00    -0.508 OA
ATOM     25  H   UNL     1      18.461  28.900  34.483  1.00  0.00     0.293 HD
ENDBRANCH   8  24
TORSDOF 5
ENDMDL
MODEL 3
REMARK VINA RESULT:    -5.956      2.125      4.090
REMARK INTER + INTRA:          -6.979
REMARK INTER:                  -6.922
REMARK INTRA:                  -0.057
REMARK UNBOUND:                 0.022
REMARK SMILES O=c1c(O)c(-c2ccc(O)cc2)oc2cc(O)cc(O)c12
REMARK SMILES IDX 5 1 3 2 2 3 1 4 21 5 19 6 18 7 16 8 15 9 14 10 13 11 6 12
REMARK SMILES IDX 7 13 8 14 9 15 12 16 11 17 10 18 4 20 20 22 17 24
REMARK H PARENT 10 19 4 21 20 23 17 25
REMARK Flexibility Score: inf
ROOT
ATOM      1  C   UNL     1      18.387  29.005  30.165  1.00  0.00     0.180 A 
ATOM      2  C   UNL     1      18.607  30.230  29.512  1.00  0.00     0.208 A 
ATOM      3  C   UNL     1      18.405  31.425  30.221  1.00  0.00     0.238 A 
ATOM      4  O   UNL     1      18.552  32.519  29.615  1.00  0.00    -0.285 OA
ATOM      5  C   UNL     1      18.002  31.381  31.577  1.00  0.00     0.111 A 
ATOM      6  C   UNL     1      17.806  32.528  32.403  1.00  0.00     0.134 A 
ATOM      7  C   UNL     1      17.280  32.371  33.691  1.00  0.00     0.093 A 
ATOM      8  C   UNL     1      17.004  31.102  34.205  1.00  0.00     0.123 A 
ATOM      9  C   UNL     1      17.247  29.972  33.428  1.00  0.00     0.094 A 
ATOM     10  C   UNL     1      17.738  30.099  32.127  1.00  0.00     0.146 A 
ATOM     11  O   UNL     1      17.945  28.997  31.417  1.00  0.00    -0.452 OA
ENDROOT
BRANCH   1  12
ATOM     12  C   UNL     1      18.603  27.703  29.492  1.00  0.00     0.021 A 
ATOM     13  C   UNL     1      19.559  26.810  30.003  1.00  0.00     0.016 A 
ATOM     14  C   UNL     1      19.794  25.585  29.371  1.00  0.00     0.047 A 
ATOM     15  C   UNL     1      19.089  25.245  28.212  1.00  0.00     0.115 A 
ATOM     16  C   UNL     1      17.912  27.364  28.314  1.00  0.00     0.016 A 
ATOM     17  C   UNL     1      18.150  26.139  27.683  1.00  0.00     0.047 A 
BRANCH  15  18
ATOM     18  O   UNL     1      19.334  24.022  27.593  1.00  0.00    -0.508 OA
ATOM     19  H   UNL     1      19.879  23.960  26.740  1.00  0.00     0.293 HD
ENDBRANCH  15  18
ENDBRANCH   1  12
BRANCH   2  20
ATOM     20  O   UNL     1      18.984  30.251  28.167  1.00  0.00    -0.502 OA
ATOM     21  H   UNL     1      19.819  30.727  27.843  1.00  0.00     0.293 HD
ENDBRANCH   2  20
BRANCH   6  22
ATOM     22  O   UNL     1      18.137  33.832  32.018  1.00  0.00    -0.507 OA
ATOM     23  H   UNL     1      18.928  34.077  31.443  1.00  0.00     0.293 HD
ENDBRANCH   6  22
BRANCH   8  24
ATOM     24  O   UNL     1      16.495  30.953  35.494  1.00  0.00    -0.508 OA
ATOM     25  H   UNL     1      17.092  30.705  36.275  1.00  0.00     0.293 HD
ENDBRANCH   8  24
TORSDOF 5
ENDMDL
MODEL 4
REMARK VINA RESULT:    -5.933      0.128      1.064
REMARK INTER + INTRA:          -6.952
REMARK INTER:                  -7.084
REMARK INTRA:                   0.132
REMARK UNBOUND:                 0.022
REMARK SMILES O=c1c(O)c(-c2ccc(O)cc2)oc2cc(O)cc(O)c12
REMARK SMILES IDX 5 1 3 2 2 3 1 4 21 5 19 6 18 7 16 8 15 9 14 10 13 11 6 12
REMARK SMILES IDX 7 13 8 14 9 15 12 16 11 17 10 18 4 20 20 22 17 24
REMARK H PARENT 10 19 4 21 20 23 17 25
REMARK Flexibility Score: inf
ROOT
ATOM      1  C   UNL     1      17.817  30.531  32.465  1.00  0.00     0.180 A 
ATOM      2  C   UNL     1      18.376  29.920  33.600  1.00  0.00     0.208 A 
ATOM      3  C   UNL     1      18.121  30.473  34.865  1.00  0.00     0.238 A 
ATOM      4  O   UNL     1      18.668  29.952  35.873  1.00  0.00    -0.285 OA
ATOM      5  C   UNL     1      17.299  31.619  34.982  1.00  0.00     0.111 A 
ATOM      6  C   UNL     1      16.942  32.239  36.217  1.00  0.00     0.134 A 
ATOM      7  C   UNL     1      16.231  33.446  36.204  1.00  0.00     0.093 A 
ATOM      8  C   UNL     1      15.808  34.019  35.003  1.00  0.00     0.123 A 
ATOM      9  C   UNL     1      16.100  33.390  33.795  1.00  0.00     0.094 A 
ATOM     10  C   UNL     1      16.839  32.205  33.774  1.00  0.00     0.146 A 
ATOM     11  O   UNL     1      17.105  31.644  32.600  1.00  0.00    -0.452 OA
ENDROOT
BRANCH   1  12
ATOM     12  C   UNL     1      18.019  29.993  31.099  1.00  0.00     0.021 A 
ATOM     13  C   UNL     1      17.905  28.611  30.877  1.00  0.00     0.016 A 
ATOM     14  C   UNL     1      18.114  28.080  29.601  1.00  0.00     0.047 A 
ATOM     15  C   UNL     1      18.454  28.919  28.535  1.00  0.00     0.115 A 
ATOM     16  C   UNL     1      18.382  30.830  30.029  1.00  0.00     0.016 A 
ATOM     17  C   UNL     1      18.591  30.296  28.754  1.00  0.00     0.047 A 
BRANCH  15  18
ATOM     18  O   UNL     1      18.659  28.376  27.270  1.00  0.00    -0.508 OA
ATOM     19  H   UNL     1      18.039  27.670  26.890  1.00  0.00     0.293 HD
ENDBRANCH  15  18
ENDBRANCH   1  12
BRANCH   2  20
ATOM     20  O   UNL     1      19.202  28.802  33.461  1.00  0.00    -0.502 OA
ATOM     21  H   UNL     1      19.313  28.112  34.196  1.00  0.00     0.293 HD
ENDBRANCH   2  20
BRANCH   6  22
ATOM     22  O   UNL     1      17.236  31.701  37.474  1.00  0.00    -0.507 OA
ATOM     23  H   UNL     1      16.556  31.292  38.096  1.00  0.00     0.293 HD
ENDBRANCH   6  22
BRANCH   8  24
ATOM     24  O   UNL     1      15.086  35.211  35.000  1.00  0.00    -0.508 OA
ATOM     25  H   UNL     1      15.340  35.983  34.396  1.00  0.00     0.293 HD
ENDBRANCH   8  24
TORSDOF 5
ENDMDL
MODEL 5
REMARK VINA RESULT:    -5.905      2.425      7.256
REMARK INTER + INTRA:          -6.919
REMARK INTER:                  -6.621
REMARK INTRA:                  -0.299
REMARK UNBOUND:                 0.022
REMARK SMILES O=c1c(O)c(-c2ccc(O)cc2)oc2cc(O)cc(O)c12
REMARK SMILES IDX 5 1 3 2 2 3 1 4 21 5 19 6 18 7 16 8 15 9 14 10 13 11 6 12
REMARK SMILES IDX 7 13 8 14 9 15 12 16 11 17 10 18 4 20 20 22 17 24
REMARK H PARENT 10 19 4 21 20 23 17 25
REMARK Flexibility Score: inf
ROOT
ATOM      1  C   UNL     1      17.545  30.984  35.107  1.00  0.00     0.180 A 
ATOM      2  C   UNL     1      17.390  31.219  33.730  1.00  0.00     0.208 A 
ATOM      3  C   UNL     1      17.885  30.273  32.819  1.00  0.00     0.238 A 
ATOM      4  O   UNL     1      17.791  30.515  31.586  1.00  0.00    -0.285 OA
ATOM      5  C   UNL     1      18.512  29.096  33.294  1.00  0.00     0.111 A 
ATOM      6  C   UNL     1      19.014  28.051  32.461  1.00  0.00     0.134 A 
ATOM      7  C   UNL     1      19.733  26.995  33.035  1.00  0.00     0.093 A 
ATOM      8  C   UNL     1      19.911  26.914  34.418  1.00  0.00     0.123 A 
ATOM      9  C   UNL     1      19.374  27.898  35.244  1.00  0.00     0.094 A 
ATOM     10  C   UNL     1      18.683  28.982  34.698  1.00  0.00     0.146 A 
ATOM     11  O   UNL     1      18.197  29.903  35.521  1.00  0.00    -0.452 OA
ENDROOT
BRANCH   1  12
ATOM     12  C   UNL     1      17.028  31.922  36.131  1.00  0.00     0.021 A 
ATOM     13  C   UNL     1      17.888  32.886  36.682  1.00  0.00     0.016 A 
ATOM     14  C   UNL     1      17.427  33.768  37.664  1.00  0.00     0.047 A 
ATOM     15  C   UNL     1      16.107  33.687  38.119  1.00  0.00     0.115 A 
ATOM     16  C   UNL     1      15.708  31.832  36.607  1.00  0.00     0.016 A 
ATOM     17  C   UNL     1      15.250  32.714  37.590  1.00  0.00     0.047 A 
BRANCH  15  18
ATOM     18  O   UNL     1      15.662  34.571  39.099  1.00  0.00    -0.508 OA
ATOM     19  H   UNL     1      16.053  34.566  40.034  1.00  0.00     0.293 HD
ENDBRANCH  15  18
ENDBRANCH   1  12
BRANCH   2  20
ATOM     20  O   UNL     1      16.787  32.397  33.282  1.00  0.00    -0.502 OA
ATOM     21  H   UNL     1      15.838  32.651  33.531  1.00  0.00     0.293 HD
ENDBRANCH   2  20
BRANCH   6  22
ATOM     22  O   UNL     1      18.811  27.990  31.079  1.00  0.00    -0.507 OA
ATOM     23  H   UNL     1      19.212  28.630  30.410  1.00  0.00     0.293 HD
ENDBRANCH   6  22
BRANCH   8  24
ATOM     24  O   UNL     1      20.614  25.851  34.982  1.00  0.00    -0.508 OA
ATOM     25  H   UNL     1      21.459  25.489  34.556  1.00  0.00     0.293 HD
ENDBRANCH   8  24
TORSDOF 5
ENDMDL
MODEL 6
REMARK VINA RESULT:    -5.850      2.176      7.111
REMARK INTER + INTRA:          -6.854
REMARK INTER:                  -6.926
REMARK INTRA:                   0.071
REMARK UNBOUND:                 0.022
REMARK SMILES O=c1c(O)c(-c2ccc(O)cc2)oc2cc(O)cc(O)c12
REMARK SMILES IDX 5 1 3 2 2 3 1 4 21 5 19 6 18 7 16 8 15 9 14 10 13 11 6 12
REMARK SMILES IDX 7 13 8 14 9 15 12 16 11 17 10 18 4 20 20 22 17 24
REMARK H PARENT 10 19 4 21 20 23 17 25
REMARK Flexibility Score: inf
ROOT
ATOM      1  C   UNL     1      18.381  28.874  32.289  1.00  0.00     0.180 A 
ATOM      2  C   UNL     1      19.304  27.967  32.839  1.00  0.00     0.208 A 
ATOM      3  C   UNL     1      19.844  26.965  32.018  1.00  0.00     0.238 A 
ATOM      4  O   UNL     1      20.629  26.123  32.530  1.00  0.00    -0.285 OA
ATOM      5  C   UNL     1      19.469  26.891  30.655  1.00  0.00     0.111 A 
ATOM      6  C   UNL     1      19.984  25.940  29.723  1.00  0.00     0.134 A 
ATOM      7  C   UNL     1      19.443  25.876  28.432  1.00  0.00     0.093 A 
ATOM      8  C   UNL     1      18.452  26.771  28.022  1.00  0.00     0.123 A 
ATOM      9  C   UNL     1      17.985  27.740  28.906  1.00  0.00     0.094 A 
ATOM     10  C   UNL     1      18.479  27.806  30.211  1.00  0.00     0.146 A 
ATOM     11  O   UNL     1      17.998  28.738  31.025  1.00  0.00    -0.452 OA
ENDROOT
BRANCH   1  12
ATOM     12  C   UNL     1      17.786  29.973  33.084  1.00  0.00     0.021 A 
ATOM     13  C   UNL     1      17.187  29.686  34.322  1.00  0.00     0.016 A 
ATOM     14  C   UNL     1      16.601  30.706  35.078  1.00  0.00     0.047 A 
ATOM     15  C   UNL     1      16.592  32.020  34.601  1.00  0.00     0.115 A 
ATOM     16  C   UNL     1      17.756  31.294  32.601  1.00  0.00     0.016 A 
ATOM     17  C   UNL     1      17.168  32.311  33.358  1.00  0.00     0.047 A 
BRANCH  15  18
ATOM     18  O   UNL     1      16.004  33.025  35.365  1.00  0.00    -0.508 OA
ATOM     19  H   UNL     1      16.414  33.949  35.430  1.00  0.00     0.293 HD
ENDBRANCH  15  18
ENDBRANCH   1  12
BRANCH   2  20
ATOM     20  O   UNL     1      19.644  28.045  34.192  1.00  0.00    -0.502 OA
ATOM     21  H   UNL     1      18.948  28.049  34.928  1.00  0.00     0.293 HD
ENDBRANCH   2  20
BRANCH   6  22
ATOM     22  O   UNL     1      21.037  25.064  30.003  1.00  0.00    -0.507 OA
ATOM     23  H   UNL     1      21.480  24.969  30.904  1.00  0.00     0.293 HD
ENDBRANCH   6  22
BRANCH   8  24
ATOM     24  O   UNL     1      17.932  26.710  26.731  1.00  0.00    -0.508 OA
ATOM     25  H   UNL     1      16.934  26.664  26.563  1.00  0.00     0.293 HD
ENDBRANCH   8  24
TORSDOF 5
ENDMDL
MODEL 7
REMARK VINA RESULT:    -5.767      1.729      7.005
REMARK INTER + INTRA:          -6.756
REMARK INTER:                  -6.514
REMARK INTRA:                  -0.242
REMARK UNBOUND:                 0.022
REMARK SMILES O=c1c(O)c(-c2ccc(O)cc2)oc2cc(O)cc(O)c12
REMARK SMILES IDX 5 1 3 2 2 3 1 4 21 5 19 6 18 7 16 8 15 9 14 10 13 11 6 12
REMARK SMILES IDX 7 13 8 14 9 15 12 16 11 17 10 18 4 20 20 22 17 24
REMARK H PARENT 10 19 4 21 20 23 17 25
REMARK Flexibility Score: inf
ROOT
ATOM      1  C   UNL     1      17.896  31.447  32.725  1.00  0.00     0.180 A 
ATOM      2  C   UNL     1      18.306  32.485  31.870  1.00  0.00     0.208 A 
ATOM      3  C   UNL     1      18.568  32.193  30.522  1.00  0.00     0.238 A 
ATOM      4  O   UNL     1      18.986  33.116  29.774  1.00  0.00    -0.285 OA
ATOM      5  C   UNL     1      18.403  30.871  30.042  1.00  0.00     0.111 A 
ATOM      6  C   UNL     1      18.603  30.470  28.686  1.00  0.00     0.134 A 
ATOM      7  C   UNL     1      18.538  29.112  28.351  1.00  0.00     0.093 A 
ATOM      8  C   UNL     1      18.217  28.149  29.310  1.00  0.00     0.123 A 
ATOM      9  C   UNL     1      17.963  28.537  30.624  1.00  0.00     0.094 A 
ATOM     10  C   UNL     1      18.054  29.880  30.996  1.00  0.00     0.146 A 
ATOM     11  O   UNL     1      17.815  30.205  32.260  1.00  0.00    -0.452 OA
ENDROOT
BRANCH   1  12
ATOM     12  C   UNL     1      17.577  31.681  34.152  1.00  0.00     0.021 A 
ATOM     13  C   UNL     1      18.453  31.209  35.144  1.00  0.00     0.016 A 
ATOM     14  C   UNL     1      18.160  31.400  36.497  1.00  0.00     0.047 A 
ATOM     15  C   UNL     1      16.982  32.049  36.877  1.00  0.00     0.115 A 
ATOM     16  C   UNL     1      16.383  32.315  34.541  1.00  0.00     0.016 A 
ATOM     17  C   UNL     1      16.092  32.504  35.895  1.00  0.00     0.047 A 
BRANCH  15  18
ATOM     18  O   UNL     1      16.702  32.232  38.229  1.00  0.00    -0.508 OA
ATOM     19  H   UNL     1      16.713  33.153  38.653  1.00  0.00     0.293 HD
ENDBRANCH  15  18
ENDBRANCH   1  12
BRANCH   2  20
ATOM     20  O   UNL     1      18.483  33.778  32.369  1.00  0.00    -0.502 OA
ATOM     21  H   UNL     1      18.359  34.004  33.350  1.00  0.00     0.293 HD
ENDBRANCH   2  20
BRANCH   6  22
ATOM     22  O   UNL     1      18.837  31.362  27.635  1.00  0.00    -0.507 OA
ATOM     23  H   UNL     1      19.242  31.110  26.747  1.00  0.00     0.293 HD
ENDBRANCH   6  22
BRANCH   8  24
ATOM     24  O   UNL     1      18.139  26.801  28.965  1.00  0.00    -0.508 OA
ATOM     25  H   UNL     1      17.946  26.086  29.657  1.00  0.00     0.293 HD
ENDBRANCH   8  24
TORSDOF 5
ENDMDL
MODEL 8
REMARK VINA RESULT:    -5.742      1.723      2.972
REMARK INTER + INTRA:          -6.727
REMARK INTER:                  -6.694
REMARK INTRA:                  -0.033
REMARK UNBOUND:                 0.022
REMARK SMILES O=c1c(O)c(-c2ccc(O)cc2)oc2cc(O)cc(O)c12
REMARK SMILES IDX 5 1 3 2 2 3 1 4 21 5 19 6 18 7 16 8 15 9 14 10 13 11 6 12
REMARK SMILES IDX 7 13 8 14 9 15 12 16 11 17 10 18 4 20 20 22 17 24
REMARK H PARENT 10 19 4 21 20 23 17 25
REMARK Flexibility Score: inf
ROOT
ATOM      1  C   UNL     1      17.966  30.477  32.428  1.00  0.00     0.180 A 
ATOM      2  C   UNL     1      18.106  31.752  31.852  1.00  0.00     0.208 A 
ATOM      3  C   UNL     1      17.665  32.875  32.570  1.00  0.00     0.238 A 
ATOM      4  O   UNL     1      17.744  34.008  32.027  1.00  0.00    -0.285 OA
ATOM      5  C   UNL     1      17.104  32.712  33.860  1.00  0.00     0.111 A 
ATOM      6  C   UNL     1      16.661  33.783  34.693  1.00  0.00     0.134 A 
ATOM      7  C   UNL     1      16.003  33.496  35.895  1.00  0.00     0.093 A 
ATOM      8  C   UNL     1      15.830  32.178  36.325  1.00  0.00     0.123 A 
ATOM      9  C   UNL     1      16.312  31.128  35.547  1.00  0.00     0.094 A 
ATOM     10  C   UNL     1      16.941  31.381  34.326  1.00  0.00     0.146 A 
ATOM     11  O   UNL     1      17.375  30.351  33.611  1.00  0.00    -0.452 OA
ENDROOT
BRANCH   1  12
ATOM     12  C   UNL     1      18.430  29.248  31.743  1.00  0.00     0.021 A 
ATOM     13  C   UNL     1      19.397  28.437  32.359  1.00  0.00     0.016 A 
ATOM     14  C   UNL     1      19.864  27.284  31.721  1.00  0.00     0.047 A 
ATOM     15  C   UNL     1      19.385  26.936  30.455  1.00  0.00     0.115 A 
ATOM     16  C   UNL     1      17.966  28.904  30.461  1.00  0.00     0.016 A 
ATOM     17  C   UNL     1      18.436  27.752  29.824  1.00  0.00     0.047 A 
BRANCH  15  18
ATOM     18  O   UNL     1      19.860  25.786  29.831  1.00  0.00    -0.508 OA
ATOM     19  H   UNL     1      20.609  25.824  29.150  1.00  0.00     0.293 HD
ENDBRANCH  15  18
ENDBRANCH   1  12
BRANCH   2  20
ATOM     20  O   UNL     1      18.642  31.889  30.569  1.00  0.00    -0.502 OA
ATOM     21  H   UNL     1      18.261  32.534  29.887  1.00  0.00     0.293 HD
ENDBRANCH   2  20
BRANCH   6  22
ATOM     22  O   UNL     1      16.866  35.135  34.400  1.00  0.00    -0.507 OA
ATOM     23  H   UNL     1      17.007  35.857  35.090  1.00  0.00     0.293 HD
ENDBRANCH   6  22
BRANCH   8  24
ATOM     24  O   UNL     1      15.188  31.902  37.531  1.00  0.00    -0.508 OA
ATOM     25  H   UNL     1      14.616  32.596  37.997  1.00  0.00     0.293 HD
ENDBRANCH   8  24
TORSDOF 5
ENDMDL
MODEL 9
REMARK VINA RESULT:    -5.656      2.326      7.451
REMARK INTER + INTRA:          -6.627
REMARK INTER:                  -6.351
REMARK INTRA:                  -0.276
REMARK UNBOUND:                 0.022
REMARK SMILES O=c1c(O)c(-c2ccc(O)cc2)oc2cc(O)cc(O)c12
REMARK SMILES IDX 5 1 3 2 2 3 1 4 21 5 19 6 18 7 16 8 15 9 14 10 13 11 6 12
REMARK SMILES IDX 7 13 8 14 9 15 12 16 11 17 10 18 4 20 20 22 17 24
REMARK H PARENT 10 19 4 21 20 23 17 25
REMARK Flexibility Score: inf
ROOT
ATOM      1  C   UNL     1      18.706  29.281  31.061  1.00  0.00     0.180 A 
ATOM      2  C   UNL     1      20.021  29.660  30.740  1.00  0.00     0.208 A 
ATOM      3  C   UNL     1      20.536  29.325  29.477  1.00  0.00     0.238 A 
ATOM      4  O   UNL     1      21.732  29.620  29.215  1.00  0.00    -0.285 OA
ATOM      5  C   UNL     1      19.726  28.631  28.546  1.00  0.00     0.111 A 
ATOM      6  C   UNL     1      20.132  28.276  27.225  1.00  0.00     0.134 A 
ATOM      7  C   UNL     1      19.295  27.475  26.437  1.00  0.00     0.093 A 
ATOM      8  C   UNL     1      18.041  27.072  26.900  1.00  0.00     0.123 A 
ATOM      9  C   UNL     1      17.611  27.463  28.166  1.00  0.00     0.094 A 
ATOM     10  C   UNL     1      18.438  28.231  28.988  1.00  0.00     0.146 A 
ATOM     11  O   UNL     1      17.995  28.573  30.192  1.00  0.00    -0.452 OA
ENDROOT
BRANCH   1  12
ATOM     12  C   UNL     1      18.085  29.619  32.363  1.00  0.00     0.021 A 
ATOM     13  C   UNL     1      17.314  30.788  32.478  1.00  0.00     0.016 A 
ATOM     14  C   UNL     1      16.737  31.137  33.702  1.00  0.00     0.047 A 
ATOM     15  C   UNL     1      16.934  30.334  34.829  1.00  0.00     0.115 A 
ATOM     16  C   UNL     1      18.297  28.825  33.504  1.00  0.00     0.016 A 
ATOM     17  C   UNL     1      17.719  29.178  34.727  1.00  0.00     0.047 A 
BRANCH  15  18
ATOM     18  O   UNL     1      16.353  30.694  36.042  1.00  0.00    -0.508 OA
ATOM     19  H   UNL     1      15.894  31.590  36.164  1.00  0.00     0.293 HD
ENDBRANCH  15  18
ENDBRANCH   1  12
BRANCH   2  20
ATOM     20  O   UNL     1      20.811  30.325  31.681  1.00  0.00    -0.502 OA
ATOM     21  H   UNL     1      21.772  30.064  31.866  1.00  0.00     0.293 HD
ENDBRANCH   2  20
BRANCH   6  22
ATOM     22  O   UNL     1      21.324  28.704  26.633  1.00  0.00    -0.507 OA
ATOM     23  H   UNL     1      21.631  28.448  25.707  1.00  0.00     0.293 HD
ENDBRANCH   6  22
BRANCH   8  24
ATOM     24  O   UNL     1      17.208  26.288  26.103  1.00  0.00    -0.508 OA
ATOM     25  H   UNL     1      16.517  25.667  26.508  1.00  0.00     0.293 HD
ENDBRANCH   8  24
TORSDOF 5
ENDMDL
