MODEL 1
REMARK VINA RESULT:    -3.583      0.000      0.000
REMARK INTER + INTRA:          -3.583
REMARK INTER:                  -3.583
REMARK INTRA:                   0.000
REMARK UNBOUND:                 0.000
REMARK SMILES CC1(C)O[C@]2(C)CC[C@H]1CC2
REMARK SMILES IDX 1 1 2 2 9 3 8 4 7 5 5 6 4 7 11 8 10 9 6 10 3 11
REMARK H PARENT
REMARK Flexibility Score: inf
ROOT
ATOM      1  C   UNL     1      -3.005   4.328  -4.459  1.00  0.00     0.042 C 
ATOM      2  C   UNL     1      -2.103   3.523  -5.418  1.00  0.00     0.066 C 
ATOM      3  C   UNL     1      -1.194   4.489  -6.273  1.00  0.00     0.021 C 
ATOM      4  C   UNL     1      -0.277   3.628  -7.175  1.00  0.00     0.009 C 
ATOM      5  C   UNL     1       0.448   2.574  -6.304  1.00  0.00     0.035 C 
ATOM      6  C   UNL     1       0.088   2.788  -4.806  1.00  0.00     0.066 C 
ATOM      7  O   UNL     1      -1.319   2.611  -4.633  1.00  0.00    -0.369 OA
ATOM      8  C   UNL     1       0.473   4.239  -4.396  1.00  0.00     0.035 C 
ATOM      9  C   UNL     1      -0.253   5.254  -5.312  1.00  0.00     0.009 C 
ATOM     10  C   UNL     1       0.826   1.773  -3.929  1.00  0.00     0.042 C 
ATOM     11  C   UNL     1      -3.029   2.693  -6.333  1.00  0.00     0.042 C 
ENDROOT
TORSDOF 0
ENDMDL
MODEL 2
REMARK VINA RESULT:    -3.518     12.608     14.082
REMARK INTER + INTRA:          -3.518
REMARK INTER:                  -3.518
REMARK INTRA:                   0.000
REMARK UNBOUND:                 0.000
REMARK SMILES CC1(C)O[C@]2(C)CC[C@H]1CC2
REMARK SMILES IDX 1 1 2 2 9 3 8 4 7 5 5 6 4 7 11 8 10 9 6 10 3 11
REMARK H PARENT
REMARK Flexibility Score: inf
ROOT
ATOM      1  C   UNL     1      -1.259   0.897   5.989  1.00  0.00     0.042 C 
ATOM      2  C   UNL     1      -1.759   1.677   7.224  1.00  0.00     0.066 C 
ATOM      3  C   UNL     1      -2.059   0.693   8.421  1.00  0.00     0.021 C 
ATOM      4  C   UNL     1      -2.506   1.531   9.643  1.00  0.00     0.009 C 
ATOM      5  C   UNL     1      -1.466   2.649   9.900  1.00  0.00     0.035 C 
ATOM      6  C   UNL     1      -0.278   2.502   8.907  1.00  0.00     0.066 C 
ATOM      7  O   UNL     1      -0.762   2.649   7.572  1.00  0.00    -0.369 OA
ATOM      8  C   UNL     1       0.346   1.086   9.071  1.00  0.00     0.035 C 
ATOM      9  C   UNL     1      -0.736   0.005   8.834  1.00  0.00     0.009 C 
ATOM     10  C   UNL     1       0.775   3.582   9.173  1.00  0.00     0.042 C 
ATOM     11  C   UNL     1      -3.039   2.431   6.804  1.00  0.00     0.042 C 
ENDROOT
TORSDOF 0
ENDMDL
MODEL 3
REMARK VINA RESULT:    -3.423      1.523      3.482
REMARK INTER + INTRA:          -3.423
REMARK INTER:                  -3.423
REMARK INTRA:                   0.000
REMARK UNBOUND:                 0.000
REMARK SMILES CC1(C)O[C@]2(C)CC[C@H]1CC2
REMARK SMILES IDX 1 1 2 2 9 3 8 4 7 5 5 6 4 7 11 8 10 9 6 10 3 11
REMARK H PARENT
REMARK Flexibility Score: inf
ROOT
ATOM      1  C   UNL     1       0.641   1.624  -3.733  1.00  0.00     0.042 C 
ATOM      2  C   UNL     1       1.309   2.757  -4.541  1.00  0.00     0.066 C 
ATOM      3  C   UNL     1       0.925   2.654  -6.068  1.00  0.00     0.021 C 
ATOM      4  C   UNL     1       1.579   3.840  -6.819  1.00  0.00     0.009 C 
ATOM      5  C   UNL     1       1.219   5.160  -6.094  1.00  0.00     0.035 C 
ATOM      6  C   UNL     1       0.249   4.866  -4.913  1.00  0.00     0.066 C 
ATOM      7  O   UNL     1       0.902   4.011  -3.974  1.00  0.00    -0.369 OA
ATOM      8  C   UNL     1      -1.016   4.147  -5.465  1.00  0.00     0.035 C 
ATOM      9  C   UNL     1      -0.603   2.852  -6.203  1.00  0.00     0.009 C 
ATOM     10  C   UNL     1      -0.142   6.168  -4.209  1.00  0.00     0.042 C 
ATOM     11  C   UNL     1       2.836   2.619  -4.351  1.00  0.00     0.042 C 
ENDROOT
TORSDOF 0
ENDMDL
MODEL 4
REMARK VINA RESULT:    -3.372      1.417      2.956
REMARK INTER + INTRA:          -3.372
REMARK INTER:                  -3.372
REMARK INTRA:                   0.000
REMARK UNBOUND:                 0.000
REMARK SMILES CC1(C)O[C@]2(C)CC[C@H]1CC2
REMARK SMILES IDX 1 1 2 2 9 3 8 4 7 5 5 6 4 7 11 8 10 9 6 10 3 11
REMARK H PARENT
REMARK Flexibility Score: inf
ROOT
ATOM      1  C   UNL     1      -1.444   2.284  -4.886  1.00  0.00     0.042 C 
ATOM      2  C   UNL     1       0.036   2.678  -4.696  1.00  0.00     0.066 C 
ATOM      3  C   UNL     1       0.782   2.729  -6.086  1.00  0.00     0.021 C 
ATOM      4  C   UNL     1       2.243   3.177  -5.842  1.00  0.00     0.009 C 
ATOM      5  C   UNL     1       2.242   4.476  -5.000  1.00  0.00     0.035 C 
ATOM      6  C   UNL     1       0.779   4.948  -4.760  1.00  0.00     0.066 C 
ATOM      7  O   UNL     1       0.079   3.945  -4.023  1.00  0.00    -0.369 OA
ATOM      8  C   UNL     1       0.081   5.151  -6.136  1.00  0.00     0.035 C 
ATOM      9  C   UNL     1       0.133   3.836  -6.950  1.00  0.00     0.009 C 
ATOM     10  C   UNL     1       0.764   6.252  -3.958  1.00  0.00     0.042 C 
ATOM     11  C   UNL     1       0.678   1.621  -3.770  1.00  0.00     0.042 C 
ENDROOT
TORSDOF 0
ENDMDL
MODEL 5
REMARK VINA RESULT:    -3.366     12.050     13.669
REMARK INTER + INTRA:          -3.366
REMARK INTER:                  -3.366
REMARK INTRA:                   0.000
REMARK UNBOUND:                 0.000
REMARK SMILES CC1(C)O[C@]2(C)CC[C@H]1CC2
REMARK SMILES IDX 1 1 2 2 9 3 8 4 7 5 5 6 4 7 11 8 10 9 6 10 3 11
REMARK H PARENT
REMARK Flexibility Score: inf
ROOT
ATOM      1  C   UNL     1       0.354   2.762   8.415  1.00  0.00     0.042 C 
ATOM      2  C   UNL     1      -0.330   1.392   8.614  1.00  0.00     0.066 C 
ATOM      3  C   UNL     1      -1.866   1.480   8.264  1.00  0.00     0.021 C 
ATOM      4  C   UNL     1      -2.487   0.072   8.432  1.00  0.00     0.009 C 
ATOM      5  C   UNL     1      -1.645  -0.953   7.634  1.00  0.00     0.035 C 
ATOM      6  C   UNL     1      -0.515  -0.218   6.858  1.00  0.00     0.066 C 
ATOM      7  O   UNL     1       0.349   0.431   7.793  1.00  0.00    -0.369 OA
ATOM      8  C   UNL     1      -1.154   0.853   5.927  1.00  0.00     0.035 C 
ATOM      9  C   UNL     1      -2.008   1.835   6.765  1.00  0.00     0.009 C 
ATOM     10  C   UNL     1       0.305  -1.217   6.037  1.00  0.00     0.042 C 
ATOM     11  C   UNL     1      -0.128   0.989  10.091  1.00  0.00     0.042 C 
ENDROOT
TORSDOF 0
ENDMDL
MODEL 6
REMARK VINA RESULT:    -3.281      1.190      3.247
REMARK INTER + INTRA:          -3.281
REMARK INTER:                  -3.281
REMARK INTRA:                   0.000
REMARK UNBOUND:                 0.000
REMARK SMILES CC1(C)O[C@]2(C)CC[C@H]1CC2
REMARK SMILES IDX 1 1 2 2 9 3 8 4 7 5 5 6 4 7 11 8 10 9 6 10 3 11
REMARK H PARENT
REMARK Flexibility Score: inf
ROOT
ATOM      1  C   UNL     1       1.909   3.408  -5.165  1.00  0.00     0.042 C 
ATOM      2  C   UNL     1       0.436   2.998  -4.948  1.00  0.00     0.066 C 
ATOM      3  C   UNL     1      -0.398   4.205  -4.368  1.00  0.00     0.021 C 
ATOM      4  C   UNL     1      -1.872   3.756  -4.221  1.00  0.00     0.009 C 
ATOM      5  C   UNL     1      -2.355   3.151  -5.562  1.00  0.00     0.035 C 
ATOM      6  C   UNL     1      -1.235   3.280  -6.633  1.00  0.00     0.066 C 
ATOM      7  O   UNL     1      -0.089   2.543  -6.204  1.00  0.00    -0.369 OA
ATOM      8  C   UNL     1      -0.849   4.780  -6.783  1.00  0.00     0.035 C 
ATOM      9  C   UNL     1      -0.401   5.346  -5.414  1.00  0.00     0.009 C 
ATOM     10  C   UNL     1      -1.712   2.717  -7.975  1.00  0.00     0.042 C 
ATOM     11  C   UNL     1       0.430   1.807  -3.966  1.00  0.00     0.042 C 
ENDROOT
TORSDOF 0
ENDMDL
MODEL 7
REMARK VINA RESULT:    -3.224      1.320      2.989
REMARK INTER + INTRA:          -3.224
REMARK INTER:                  -3.224
REMARK INTRA:                   0.000
REMARK UNBOUND:                 0.000
REMARK SMILES CC1(C)O[C@]2(C)CC[C@H]1CC2
REMARK SMILES IDX 1 1 2 2 9 3 8 4 7 5 5 6 4 7 11 8 10 9 6 10 3 11
REMARK H PARENT
REMARK Flexibility Score: inf
ROOT
ATOM      1  C   UNL     1       0.772   5.563  -4.178  1.00  0.00     0.042 C 
ATOM      2  C   UNL     1       0.529   4.847  -5.524  1.00  0.00     0.066 C 
ATOM      3  C   UNL     1       1.491   3.606  -5.677  1.00  0.00     0.021 C 
ATOM      4  C   UNL     1       1.170   2.899  -7.016  1.00  0.00     0.009 C 
ATOM      5  C   UNL     1      -0.351   2.619  -7.090  1.00  0.00     0.035 C 
ATOM      6  C   UNL     1      -1.033   3.055  -5.761  1.00  0.00     0.066 C 
ATOM      7  O   UNL     1      -0.852   4.460  -5.581  1.00  0.00    -0.369 OA
ATOM      8  C   UNL     1      -0.364   2.298  -4.578  1.00  0.00     0.035 C 
ATOM      9  C   UNL     1       1.156   2.586  -4.563  1.00  0.00     0.009 C 
ATOM     10  C   UNL     1      -2.533   2.751  -5.808  1.00  0.00     0.042 C 
ATOM     11  C   UNL     1       0.785   5.878  -6.645  1.00  0.00     0.042 C 
ENDROOT
TORSDOF 0
ENDMDL
MODEL 8
REMARK VINA RESULT:    -3.220      1.372      3.055
REMARK INTER + INTRA:          -3.220
REMARK INTER:                  -3.220
REMARK INTRA:                   0.000
REMARK UNBOUND:                 0.000
REMARK SMILES CC1(C)O[C@]2(C)CC[C@H]1CC2
REMARK SMILES IDX 1 1 2 2 9 3 8 4 7 5 5 6 4 7 11 8 10 9 6 10 3 11
REMARK H PARENT
REMARK Flexibility Score: inf
ROOT
ATOM      1  C   UNL     1      -1.454   6.117  -5.241  1.00  0.00     0.042 C 
ATOM      2  C   UNL     1      -0.446   4.970  -5.013  1.00  0.00     0.066 C 
ATOM      3  C   UNL     1      -1.129   3.772  -4.248  1.00  0.00     0.021 C 
ATOM      4  C   UNL     1      -0.091   2.634  -4.093  1.00  0.00     0.009 C 
ATOM      5  C   UNL     1       0.528   2.319  -5.476  1.00  0.00     0.035 C 
ATOM      6  C   UNL     1      -0.162   3.182  -6.572  1.00  0.00     0.066 C 
ATOM      7  O   UNL     1       0.065   4.564  -6.291  1.00  0.00    -0.369 OA
ATOM      8  C   UNL     1      -1.692   2.901  -6.547  1.00  0.00     0.035 C 
ATOM      9  C   UNL     1      -2.259   3.202  -5.139  1.00  0.00     0.009 C 
ATOM     10  C   UNL     1       0.418   2.855  -7.951  1.00  0.00     0.042 C 
ATOM     11  C   UNL     1       0.726   5.546  -4.189  1.00  0.00     0.042 C 
ENDROOT
TORSDOF 0
ENDMDL
MODEL 9
REMARK VINA RESULT:    -3.177      1.365      2.532
REMARK INTER + INTRA:          -3.177
REMARK INTER:                  -3.177
REMARK INTRA:                   0.000
REMARK UNBOUND:                 0.000
REMARK SMILES CC1(C)O[C@]2(C)CC[C@H]1CC2
REMARK SMILES IDX 1 1 2 2 9 3 8 4 7 5 5 6 4 7 11 8 10 9 6 10 3 11
REMARK H PARENT
REMARK Flexibility Score: inf
ROOT
ATOM      1  C   UNL     1      -0.401   5.911  -6.606  1.00  0.00     0.042 C 
ATOM      2  C   UNL     1      -0.758   4.836  -5.558  1.00  0.00     0.066 C 
ATOM      3  C   UNL     1      -1.603   3.676  -6.214  1.00  0.00     0.021 C 
ATOM      4  C   UNL     1      -1.888   2.606  -5.133  1.00  0.00     0.009 C 
ATOM      5  C   UNL     1      -0.556   2.203  -4.454  1.00  0.00     0.035 C 
ATOM      6  C   UNL     1       0.630   2.936  -5.142  1.00  0.00     0.066 C 
ATOM      7  O   UNL     1       0.464   4.346  -4.986  1.00  0.00    -0.369 OA
ATOM      8  C   UNL     1       0.628   2.587  -6.659  1.00  0.00     0.035 C 
ATOM      9  C   UNL     1      -0.731   2.981  -7.286  1.00  0.00     0.009 C 
ATOM     10  C   UNL     1       1.958   2.521  -4.502  1.00  0.00     0.042 C 
ATOM     11  C   UNL     1      -1.564   5.534  -4.440  1.00  0.00     0.042 C 
ENDROOT
TORSDOF 0
ENDMDL
