MODEL 1
REMARK VINA RESULT:    -4.113      0.000      0.000
REMARK INTER + INTRA:          -5.124
REMARK INTER:                  -5.796
REMARK INTRA:                   0.672
REMARK UNBOUND:                 0.672
REMARK SMILES CC1=CCC(=C(C)C)C(=O)CC(C)=CCC1
REMARK SMILES IDX 12 1 14 2 13 3 15 4 16 5 2 6 1 7 3 8 11 10 9 11 10 12 5 13
REMARK SMILES IDX 6 14 7 15 8 16 4 17
REMARK H PARENT
REMARK Flexibility Score: 60.00
ROOT
ATOM      1  C   UNL     1       4.634   4.800 108.268  1.00  0.00    -0.070 C 
ATOM      2  C   UNL     1       4.908   4.250 109.475  1.00  0.00    -0.027 C 
ATOM      3  C   UNL     1       3.318   5.514 108.097  1.00  0.00     0.039 C 
ENDROOT
BRANCH   2   4
ATOM      4  C   UNL     1       6.146   3.449 109.807  1.00  0.00     0.032 C 
BRANCH   4   5
ATOM      5  C   UNL     1       5.792   2.047 110.325  1.00  0.00     0.034 C 
BRANCH   5   6
ATOM      6  C   UNL     1       6.202   0.928 109.379  1.00  0.00    -0.077 C 
ATOM      7  C   UNL     1       7.362   0.043 109.757  1.00  0.00     0.039 C 
ATOM      8  C   UNL     1       5.589   0.692 108.196  1.00  0.00    -0.023 CG0
ATOM      9  G   UNL     1       4.371   1.422 107.679  1.00  0.00     0.000 G0
ENDBRANCH   5   6
ENDBRANCH   4   5
ENDBRANCH   2   4
BRANCH   1  10
ATOM     10  C   UNL     1       5.591   4.730 107.094  1.00  0.00     0.111 C 
BRANCH  10  11
ATOM     11  C   UNL     1       5.784   3.311 106.637  1.00  0.00     0.163 C 
ATOM     12  O   UNL     1       6.939   2.913 106.325  1.00  0.00    -0.294 OA
BRANCH  11  13
ATOM     13  C   UNL     1       4.637   2.374 106.525  1.00  0.00    -0.002 C 
ATOM     14  C   UNL     1       3.844   2.389 105.419  1.00  0.00    -0.069 C 
ATOM     15  C   UNL     1       4.047   3.413 104.325  1.00  0.00     0.039 C 
ATOM     16  C   UNL     1       2.704   1.408 105.263  1.00  0.00     0.039 C 
BRANCH  13  17
ATOM     17  C   UNL     1       4.360   1.398 107.664  1.00  0.00     0.066 CG0
ATOM     18  G   UNL     1       5.596   0.696 108.177  1.00  0.00     0.000 G0
ENDBRANCH  13  17
ENDBRANCH  11  13
ENDBRANCH  10  11
ENDBRANCH   1  10
TORSDOF 0
ENDMDL
MODEL 2
REMARK VINA RESULT:    -4.079      2.207      2.769
REMARK INTER + INTRA:          -5.076
REMARK INTER:                  -5.678
REMARK INTRA:                   0.601
REMARK UNBOUND:                 0.672
REMARK SMILES CC1=CCC(=C(C)C)C(=O)CC(C)=CCC1
REMARK SMILES IDX 12 1 14 2 13 3 15 4 16 5 2 6 1 7 3 8 11 10 9 11 10 12 5 13
REMARK SMILES IDX 6 14 7 15 8 16 4 17
REMARK H PARENT
REMARK Flexibility Score: 60.00
ROOT
ATOM      1  C   UNL     1       3.665   5.389 107.869  1.00  0.00    -0.070 C 
ATOM      2  C   UNL     1       4.394   4.932 108.915  1.00  0.00    -0.027 C 
ATOM      3  C   UNL     1       3.245   6.836 107.876  1.00  0.00     0.039 C 
ENDROOT
BRANCH   2   4
ATOM      4  C   UNL     1       4.848   3.503 109.103  1.00  0.00     0.032 C 
BRANCH   4   5
ATOM      5  C   UNL     1       6.317   3.316 108.693  1.00  0.00     0.034 C 
BRANCH   5   6
ATOM      6  C   UNL     1       6.510   2.313 107.566  1.00  0.00    -0.077 C 
ATOM      7  C   UNL     1       6.668   0.853 107.910  1.00  0.00     0.039 C 
ATOM      8  C   UNL     1       6.568   2.661 106.260  1.00  0.00    -0.023 CG0
ATOM      9  G   UNL     1       6.363   4.056 105.716  1.00  0.00     0.000 G0
ENDBRANCH   5   6
ENDBRANCH   4   5
ENDBRANCH   2   4
BRANCH   1  10
ATOM     10  C   UNL     1       3.261   4.511 106.701  1.00  0.00     0.111 C 
BRANCH  10  11
ATOM     11  C   UNL     1       3.941   4.949 105.435  1.00  0.00     0.163 C 
ATOM     12  O   UNL     1       3.517   5.968 104.824  1.00  0.00    -0.294 OA
BRANCH  11  13
ATOM     13  C   UNL     1       5.091   4.192 104.875  1.00  0.00    -0.002 C 
ATOM     14  C   UNL     1       5.006   3.629 103.639  1.00  0.00    -0.069 C 
ATOM     15  C   UNL     1       3.719   3.675 102.846  1.00  0.00     0.039 C 
ATOM     16  C   UNL     1       6.183   2.900 103.032  1.00  0.00     0.039 C 
BRANCH  13  17
ATOM     17  C   UNL     1       6.363   4.054 105.704  1.00  0.00     0.066 CG0
ATOM     18  G   UNL     1       6.576   2.668 106.267  1.00  0.00     0.000 G0
ENDBRANCH  13  17
ENDBRANCH  11  13
ENDBRANCH  10  11
ENDBRANCH   1  10
TORSDOF 0
ENDMDL
MODEL 3
REMARK VINA RESULT:    -4.057      1.979      3.365
REMARK INTER + INTRA:          -5.046
REMARK INTER:                  -5.435
REMARK INTRA:                   0.389
REMARK UNBOUND:                 0.672
REMARK SMILES CC1=CCC(=C(C)C)C(=O)CC(C)=CCC1
REMARK SMILES IDX 12 1 14 2 13 3 15 4 16 5 2 6 1 7 3 8 11 10 9 11 10 12 5 13
REMARK SMILES IDX 6 14 7 15 8 16 4 17
REMARK H PARENT
REMARK Flexibility Score: 60.00
ROOT
ATOM      1  C   UNL     1       8.061   1.931 106.217  1.00  0.00    -0.070 C 
ATOM      2  C   UNL     1       8.534   1.512 107.415  1.00  0.00    -0.027 C 
ATOM      3  C   UNL     1       9.046   2.120 105.092  1.00  0.00     0.039 C 
ENDROOT
BRANCH   2   4
ATOM      4  C   UNL     1       7.704   1.329 108.664  1.00  0.00     0.032 C 
BRANCH   4   5
ATOM      5  C   UNL     1       7.235   2.675 109.236  1.00  0.00     0.034 C 
BRANCH   5   6
ATOM      6  C   UNL     1       5.754   2.704 109.584  1.00  0.00    -0.077 C 
ATOM      7  C   UNL     1       5.224   1.716 110.592  1.00  0.00     0.039 C 
ATOM      8  C   UNL     1       4.873   3.562 109.019  1.00  0.00    -0.023 CG0
ATOM      9  G   UNL     1       5.224   4.664 108.047  1.00  0.00     0.000 G0
ENDBRANCH   5   6
ENDBRANCH   4   5
ENDBRANCH   2   4
BRANCH   1  10
ATOM     10  C   UNL     1       6.593   2.213 105.964  1.00  0.00     0.111 C 
BRANCH  10  11
ATOM     11  C   UNL     1       6.325   3.691 105.925  1.00  0.00     0.163 C 
ATOM     12  O   UNL     1       7.144   4.454 105.345  1.00  0.00    -0.294 OA
BRANCH  11  13
ATOM     13  C   UNL     1       5.124   4.275 106.577  1.00  0.00    -0.002 C 
ATOM     14  C   UNL     1       3.972   4.441 105.872  1.00  0.00    -0.069 C 
ATOM     15  C   UNL     1       3.908   4.129 104.393  1.00  0.00     0.039 C 
ATOM     16  C   UNL     1       2.725   4.985 106.531  1.00  0.00     0.039 C 
BRANCH  13  17
ATOM     17  C   UNL     1       5.201   4.685 108.043  1.00  0.00     0.066 CG0
ATOM     18  G   UNL     1       4.868   3.568 109.006  1.00  0.00     0.000 G0
ENDBRANCH  13  17
ENDBRANCH  11  13
ENDBRANCH  10  11
ENDBRANCH   1  10
TORSDOF 0
ENDMDL
MODEL 4
REMARK VINA RESULT:    -4.041      2.094      3.169
REMARK INTER + INTRA:          -5.024
REMARK INTER:                  -5.509
REMARK INTRA:                   0.485
REMARK UNBOUND:                 0.672
REMARK SMILES CC1=CCC(=C(C)C)C(=O)CC(C)=CCC1
REMARK SMILES IDX 12 1 14 2 13 3 15 4 16 5 2 6 1 7 3 8 11 10 9 11 10 12 5 13
REMARK SMILES IDX 6 14 7 15 8 16 4 17
REMARK H PARENT
REMARK Flexibility Score: 60.00
ROOT
ATOM      1  C   UNL     1       4.841   3.905 107.343  1.00  0.00    -0.070 C 
ATOM      2  C   UNL     1       4.679   3.815 108.684  1.00  0.00    -0.027 C 
ATOM      3  C   UNL     1       3.606   3.994 106.483  1.00  0.00     0.039 C 
ENDROOT
BRANCH   2   4
ATOM      4  C   UNL     1       5.797   3.658 109.688  1.00  0.00     0.032 C 
BRANCH   4   5
ATOM      5  C   UNL     1       5.686   2.333 110.458  1.00  0.00     0.034 C 
BRANCH   5   6
ATOM      6  C   UNL     1       5.527   1.118 109.556  1.00  0.00    -0.077 C 
ATOM      7  C   UNL     1       4.243   0.330 109.616  1.00  0.00     0.039 C 
ATOM      8  C   UNL     1       6.491   0.689 108.708  1.00  0.00    -0.023 CG0
ATOM      9  G   UNL     1       7.810   1.382 108.457  1.00  0.00     0.000 G0
ENDBRANCH   5   6
ENDBRANCH   4   5
ENDBRANCH   2   4
BRANCH   1  10
ATOM     10  C   UNL     1       6.203   3.923 106.676  1.00  0.00     0.111 C 
BRANCH  10  11
ATOM     11  C   UNL     1       6.690   2.528 106.403  1.00  0.00     0.163 C 
ATOM     12  O   UNL     1       6.035   1.786 105.622  1.00  0.00    -0.294 OA
BRANCH  11  13
ATOM     13  C   UNL     1       7.917   1.998 107.053  1.00  0.00    -0.002 C 
ATOM     14  C   UNL     1       9.114   2.056 106.410  1.00  0.00    -0.069 C 
ATOM     15  C   UNL     1       9.216   2.569 104.991  1.00  0.00     0.039 C 
ATOM     16  C   UNL     1      10.382   1.570 107.076  1.00  0.00     0.039 C 
BRANCH  13  17
ATOM     17  C   UNL     1       7.814   1.389 108.447  1.00  0.00     0.066 CG0
ATOM     18  G   UNL     1       6.498   0.696 108.712  1.00  0.00     0.000 G0
ENDBRANCH  13  17
ENDBRANCH  11  13
ENDBRANCH  10  11
ENDBRANCH   1  10
TORSDOF 0
ENDMDL
MODEL 5
REMARK VINA RESULT:    -4.026      2.095      4.721
REMARK INTER + INTRA:          -5.002
REMARK INTER:                  -5.518
REMARK INTRA:                   0.516
REMARK UNBOUND:                 0.672
REMARK SMILES CC1=CCC(=C(C)C)C(=O)CC(C)=CCC1
REMARK SMILES IDX 12 1 14 2 13 3 15 4 16 5 2 6 1 7 3 8 11 10 9 11 10 12 5 13
REMARK SMILES IDX 6 14 7 15 8 16 4 17
REMARK H PARENT
REMARK Flexibility Score: 60.00
ROOT
ATOM      1  C   UNL     1       3.059   4.080 106.254  1.00  0.00    -0.070 C 
ATOM      2  C   UNL     1       3.160   3.520 105.025  1.00  0.00    -0.027 C 
ATOM      3  C   UNL     1       2.265   5.354 106.389  1.00  0.00     0.039 C 
ENDROOT
BRANCH   2   4
ATOM      4  C   UNL     1       3.963   2.283 104.694  1.00  0.00     0.032 C 
BRANCH   4   5
ATOM      5  C   UNL     1       5.169   2.612 103.801  1.00  0.00     0.034 C 
BRANCH   5   6
ATOM      6  C   UNL     1       5.872   3.906 104.183  1.00  0.00    -0.077 C 
ATOM      7  C   UNL     1       5.666   5.127 103.321  1.00  0.00     0.039 C 
ATOM      8  C   UNL     1       6.694   4.021 105.251  1.00  0.00    -0.023 CG0
ATOM      9  G   UNL     1       6.968   2.935 106.265  1.00  0.00     0.000 G0
ENDBRANCH   5   6
ENDBRANCH   4   5
ENDBRANCH   2   4
BRANCH   1  10
ATOM     10  C   UNL     1       3.706   3.482 107.488  1.00  0.00     0.111 C 
BRANCH  10  11
ATOM     11  C   UNL     1       5.083   4.043 107.703  1.00  0.00     0.163 C 
ATOM     12  O   UNL     1       5.222   5.276 107.924  1.00  0.00    -0.294 OA
BRANCH  11  13
ATOM     13  C   UNL     1       6.288   3.176 107.636  1.00  0.00    -0.002 C 
ATOM     14  C   UNL     1       6.786   2.604 108.765  1.00  0.00    -0.069 C 
ATOM     15  C   UNL     1       6.191   2.906 110.123  1.00  0.00     0.039 C 
ATOM     16  C   UNL     1       7.979   1.677 108.710  1.00  0.00     0.039 C 
BRANCH  13  17
ATOM     17  C   UNL     1       6.958   2.939 106.287  1.00  0.00     0.066 CG0
ATOM     18  G   UNL     1       6.687   4.026 105.273  1.00  0.00     0.000 G0
ENDBRANCH  13  17
ENDBRANCH  11  13
ENDBRANCH  10  11
ENDBRANCH   1  10
TORSDOF 0
ENDMDL
MODEL 6
REMARK VINA RESULT:    -4.013      2.340      4.261
REMARK INTER + INTRA:          -4.984
REMARK INTER:                  -5.484
REMARK INTRA:                   0.500
REMARK UNBOUND:                 0.672
REMARK SMILES CC1=CCC(=C(C)C)C(=O)CC(C)=CCC1
REMARK SMILES IDX 12 1 14 2 13 3 15 4 16 5 2 6 1 7 3 8 11 10 9 11 10 12 5 13
REMARK SMILES IDX 6 14 7 15 8 16 4 17
REMARK H PARENT
REMARK Flexibility Score: 60.00
ROOT
ATOM      1  C   UNL     1       5.839   2.654 109.584  1.00  0.00    -0.070 C 
ATOM      2  C   UNL     1       5.010   3.598 109.080  1.00  0.00    -0.027 C 
ATOM      3  C   UNL     1       5.276   1.676 110.583  1.00  0.00     0.039 C 
ENDROOT
BRANCH   2   4
ATOM      4  C   UNL     1       5.416   4.692 108.119  1.00  0.00     0.032 C 
BRANCH   4   5
ATOM      5  C   UNL     1       4.658   4.586 106.787  1.00  0.00     0.034 C 
BRANCH   5   6
ATOM      6  C   UNL     1       4.503   3.158 106.287  1.00  0.00    -0.077 C 
ATOM      7  C   UNL     1       3.127   2.543 106.256  1.00  0.00     0.039 C 
ATOM      8  C   UNL     1       5.544   2.393 105.883  1.00  0.00    -0.023 CG0
ATOM      9  G   UNL     1       6.979   2.853 105.777  1.00  0.00     0.000 G0
ENDBRANCH   5   6
ENDBRANCH   4   5
ENDBRANCH   2   4
BRANCH   1  10
ATOM     10  C   UNL     1       7.298   2.540 109.185  1.00  0.00     0.111 C 
BRANCH  10  11
ATOM     11  C   UNL     1       7.465   1.627 108.002  1.00  0.00     0.163 C 
ATOM     12  O   UNL     1       7.201   0.400 108.125  1.00  0.00    -0.294 OA
BRANCH  11  13
ATOM     13  C   UNL     1       7.958   2.138 106.697  1.00  0.00    -0.002 C 
ATOM     14  C   UNL     1       9.256   1.952 106.333  1.00  0.00    -0.069 C 
ATOM     15  C   UNL     1      10.249   1.311 107.277  1.00  0.00     0.039 C 
ATOM     16  C   UNL     1       9.763   2.418 104.987  1.00  0.00     0.039 C 
BRANCH  13  17
ATOM     17  C   UNL     1       6.991   2.872 105.774  1.00  0.00     0.066 CG0
ATOM     18  G   UNL     1       5.561   2.400 105.892  1.00  0.00     0.000 G0
ENDBRANCH  13  17
ENDBRANCH  11  13
ENDBRANCH  10  11
ENDBRANCH   1  10
TORSDOF 0
ENDMDL
MODEL 7
REMARK VINA RESULT:    -3.975      1.501      2.190
REMARK INTER + INTRA:          -4.931
REMARK INTER:                  -5.429
REMARK INTRA:                   0.499
REMARK UNBOUND:                 0.672
REMARK SMILES CC1=CCC(=C(C)C)C(=O)CC(C)=CCC1
REMARK SMILES IDX 12 1 14 2 13 3 15 4 16 5 2 6 1 7 3 8 11 10 9 11 10 12 5 13
REMARK SMILES IDX 6 14 7 15 8 16 4 17
REMARK H PARENT
REMARK Flexibility Score: 60.00
ROOT
ATOM      1  C   UNL     1       3.444   4.544 107.211  1.00  0.00    -0.070 C 
ATOM      2  C   UNL     1       4.152   5.089 108.228  1.00  0.00    -0.027 C 
ATOM      3  C   UNL     1       2.925   5.465 106.136  1.00  0.00     0.039 C 
ENDROOT
BRANCH   2   4
ATOM      4  C   UNL     1       4.694   4.329 109.416  1.00  0.00     0.032 C 
BRANCH   4   5
ATOM      5  C   UNL     1       5.809   3.355 109.006  1.00  0.00     0.034 C 
BRANCH   5   6
ATOM      6  C   UNL     1       5.585   1.933 109.501  1.00  0.00    -0.077 C 
ATOM      7  C   UNL     1       5.289   1.710 110.962  1.00  0.00     0.039 C 
ATOM      8  C   UNL     1       5.656   0.846 108.699  1.00  0.00    -0.023 CG0
ATOM      9  G   UNL     1       5.872   0.873 107.203  1.00  0.00     0.000 G0
ENDBRANCH   5   6
ENDBRANCH   4   5
ENDBRANCH   2   4
BRANCH   1  10
ATOM     10  C   UNL     1       3.157   3.059 107.108  1.00  0.00     0.111 C 
BRANCH  10  11
ATOM     11  C   UNL     1       4.087   2.395 106.132  1.00  0.00     0.163 C 
ATOM     12  O   UNL     1       4.416   3.004 105.078  1.00  0.00    -0.294 OA
BRANCH  11  13
ATOM     13  C   UNL     1       4.608   1.024 106.373  1.00  0.00    -0.002 C 
ATOM     14  C   UNL     1       3.958  -0.057 105.866  1.00  0.00    -0.069 C 
ATOM     15  C   UNL     1       2.646   0.095 105.128  1.00  0.00     0.039 C 
ATOM     16  C   UNL     1       4.501  -1.455 106.056  1.00  0.00     0.039 C 
BRANCH  13  17
ATOM     17  C   UNL     1       5.879   0.848 107.198  1.00  0.00     0.066 CG0
ATOM     18  G   UNL     1       5.643   0.857 108.690  1.00  0.00     0.000 G0
ENDBRANCH  13  17
ENDBRANCH  11  13
ENDBRANCH  10  11
ENDBRANCH   1  10
TORSDOF 0
ENDMDL
MODEL 8
REMARK VINA RESULT:    -3.898      2.075      4.076
REMARK INTER + INTRA:          -4.821
REMARK INTER:                  -5.259
REMARK INTRA:                   0.438
REMARK UNBOUND:                 0.672
REMARK SMILES CC1=CCC(=C(C)C)C(=O)CC(C)=CCC1
REMARK SMILES IDX 12 1 14 2 13 3 15 4 16 5 2 6 1 7 3 8 11 10 9 11 10 12 5 13
REMARK SMILES IDX 6 14 7 15 8 16 4 17
REMARK H PARENT
REMARK Flexibility Score: 60.00
ROOT
ATOM      1  C   UNL     1       5.508   3.208 108.995  1.00  0.00    -0.070 C 
ATOM      2  C   UNL     1       4.963   4.374 109.416  1.00  0.00    -0.027 C 
ATOM      3  C   UNL     1       6.678   2.653 109.767  1.00  0.00     0.039 C 
ENDROOT
BRANCH   2   4
ATOM      4  C   UNL     1       3.830   5.103 108.732  1.00  0.00     0.032 C 
BRANCH   4   5
ATOM      5  C   UNL     1       4.270   5.699 107.386  1.00  0.00     0.034 C 
BRANCH   5   6
ATOM      6  C   UNL     1       3.294   5.425 106.252  1.00  0.00    -0.077 C 
ATOM      7  C   UNL     1       1.867   5.895 106.390  1.00  0.00     0.039 C 
ATOM      8  C   UNL     1       3.631   4.759 105.123  1.00  0.00    -0.023 CG0
ATOM      9  G   UNL     1       5.019   4.275 104.773  1.00  0.00     0.000 G0
ENDBRANCH   5   6
ENDBRANCH   4   5
ENDBRANCH   2   4
BRANCH   1  10
ATOM     10  C   UNL     1       4.991   2.443 107.792  1.00  0.00     0.111 C 
BRANCH  10  11
ATOM     11  C   UNL     1       5.883   2.645 106.599  1.00  0.00     0.163 C 
ATOM     12  O   UNL     1       7.134   2.659 106.757  1.00  0.00    -0.294 OA
BRANCH  11  13
ATOM     13  C   UNL     1       5.318   2.854 105.241  1.00  0.00    -0.002 C 
ATOM     14  C   UNL     1       5.068   1.789 104.431  1.00  0.00    -0.069 C 
ATOM     15  C   UNL     1       5.440   0.384 104.848  1.00  0.00     0.039 C 
ATOM     16  C   UNL     1       4.445   1.977 103.066  1.00  0.00     0.039 C 
BRANCH  13  17
ATOM     17  C   UNL     1       5.026   4.273 104.768  1.00  0.00     0.066 CG0
ATOM     18  G   UNL     1       3.634   4.753 105.107  1.00  0.00     0.000 G0
ENDBRANCH  13  17
ENDBRANCH  11  13
ENDBRANCH  10  11
ENDBRANCH   1  10
TORSDOF 0
ENDMDL
MODEL 9
REMARK VINA RESULT:    -3.871      1.635      3.825
REMARK INTER + INTRA:          -4.784
REMARK INTER:                  -5.148
REMARK INTRA:                   0.364
REMARK UNBOUND:                 0.672
REMARK SMILES CC1=CCC(=C(C)C)C(=O)CC(C)=CCC1
REMARK SMILES IDX 12 1 14 2 13 3 15 4 16 5 2 6 1 7 3 8 11 10 9 11 10 12 5 13
REMARK SMILES IDX 6 14 7 15 8 16 4 17
REMARK H PARENT
REMARK Flexibility Score: 60.00
ROOT
ATOM      1  C   UNL     1       3.927   4.599 107.571  1.00  0.00    -0.070 C 
ATOM      2  C   UNL     1       3.063   4.271 106.581  1.00  0.00    -0.027 C 
ATOM      3  C   UNL     1       3.503   5.652 108.562  1.00  0.00     0.039 C 
ENDROOT
BRANCH   2   4
ATOM      4  C   UNL     1       3.343   3.285 105.471  1.00  0.00     0.032 C 
BRANCH   4   5
ATOM      5  C   UNL     1       2.787   1.891 105.797  1.00  0.00     0.034 C 
BRANCH   5   6
ATOM      6  C   UNL     1       3.796   0.771 105.590  1.00  0.00    -0.077 C 
ATOM      7  C   UNL     1       4.055   0.274 104.190  1.00  0.00     0.039 C 
ATOM      8  C   UNL     1       4.467   0.177 106.603  1.00  0.00    -0.023 CG0
ATOM      9  G   UNL     1       4.395   0.581 108.057  1.00  0.00     0.000 G0
ENDBRANCH   5   6
ENDBRANCH   4   5
ENDBRANCH   2   4
BRANCH   1  10
ATOM     10  C   UNL     1       5.290   3.953 107.722  1.00  0.00     0.111 C 
BRANCH  10  11
ATOM     11  C   UNL     1       5.278   2.913 108.807  1.00  0.00     0.163 C 
ATOM     12  O   UNL     1       5.053   3.263 109.997  1.00  0.00    -0.294 OA
BRANCH  11  13
ATOM     13  C   UNL     1       5.550   1.483 108.508  1.00  0.00    -0.002 C 
ATOM     14  C   UNL     1       6.809   0.983 108.634  1.00  0.00    -0.069 C 
ATOM     15  C   UNL     1       7.975   1.879 108.987  1.00  0.00     0.039 C 
ATOM     16  C   UNL     1       7.095  -0.481 108.385  1.00  0.00     0.039 C 
BRANCH  13  17
ATOM     17  C   UNL     1       4.401   0.587 108.058  1.00  0.00     0.066 CG0
ATOM     18  G   UNL     1       4.478   0.183 106.604  1.00  0.00     0.000 G0
ENDBRANCH  13  17
ENDBRANCH  11  13
ENDBRANCH  10  11
ENDBRANCH   1  10
TORSDOF 0
ENDMDL
