MODEL 1
REMARK VINA RESULT:    -7.197      0.000      0.000
REMARK INTER + INTRA:          -9.000
REMARK INTER:                  -8.670
REMARK INTRA:                  -0.331
REMARK UNBOUND:                -0.331
REMARK SMILES O=c1c(O)c(-c2ccc(O)c(O)c2)oc2cc(O)cc(O)c12
REMARK SMILES IDX 5 1 3 2 2 3 1 4 22 5 20 6 19 7 17 8 16 9 15 10 14 11 6 12
REMARK SMILES IDX 7 13 8 14 9 15 13 16 11 17 10 18 12 20 4 22 21 24 18 26
REMARK H PARENT 10 19 12 21 4 23 21 25 18 27
REMARK Flexibility Score: inf
ROOT
ATOM      1  C   UNL     1       3.045 -14.231  15.940  1.00  0.00     0.180 A 
ATOM      2  C   UNL     1       1.748 -14.097  15.405  1.00  0.00     0.208 A 
ATOM      3  C   UNL     1       1.586 -14.105  14.011  1.00  0.00     0.238 A 
ATOM      4  O   UNL     1       0.431 -13.976  13.521  1.00  0.00    -0.285 OA
ATOM      5  C   UNL     1       2.712 -14.267  13.179  1.00  0.00     0.111 A 
ATOM      6  C   UNL     1       2.633 -14.291  11.765  1.00  0.00     0.134 A 
ATOM      7  C   UNL     1       3.800 -14.465  11.006  1.00  0.00     0.093 A 
ATOM      8  C   UNL     1       5.042 -14.617  11.633  1.00  0.00     0.123 A 
ATOM      9  C   UNL     1       5.124 -14.593  13.026  1.00  0.00     0.094 A 
ATOM     10  C   UNL     1       3.973 -14.419  13.800  1.00  0.00     0.146 A 
ATOM     11  O   UNL     1       4.082 -14.396  15.123  1.00  0.00    -0.452 OA
ENDROOT
BRANCH   1  12
ATOM     12  C   UNL     1       3.300 -14.212  17.397  1.00  0.00     0.025 A 
ATOM     13  C   UNL     1       3.492 -13.005  18.093  1.00  0.00     0.016 A 
ATOM     14  C   UNL     1       3.755 -13.014  19.465  1.00  0.00     0.051 A 
ATOM     15  C   UNL     1       3.846 -14.227  20.159  1.00  0.00     0.157 A 
ATOM     16  C   UNL     1       3.414 -15.427  18.095  1.00  0.00     0.062 A 
ATOM     17  C   UNL     1       3.678 -15.436  19.472  1.00  0.00     0.158 A 
BRANCH  15  18
ATOM     18  O   UNL     1       4.107 -14.239  21.528  1.00  0.00    -0.504 OA
ATOM     19  H   UNL     1       4.510 -13.438  21.998  1.00  0.00     0.293 HD
ENDBRANCH  15  18
BRANCH  17  20
ATOM     20  O   UNL     1       3.776 -16.642  20.164  1.00  0.00    -0.504 OA
ATOM     21  H   UNL     1       2.987 -17.275  20.240  1.00  0.00     0.293 HD
ENDBRANCH  17  20
ENDBRANCH   1  12
BRANCH   2  22
ATOM     22  O   UNL     1       0.644 -13.988  16.253  1.00  0.00    -0.502 OA
ATOM     23  H   UNL     1       0.552 -14.541  17.098  1.00  0.00     0.293 HD
ENDBRANCH   2  22
BRANCH   6  24
ATOM     24  O   UNL     1       1.408 -14.143  11.111  1.00  0.00    -0.507 OA
ATOM     25  H   UNL     1       1.110 -14.785  10.387  1.00  0.00     0.293 HD
ENDBRANCH   6  24
BRANCH   8  26
ATOM     26  O   UNL     1       6.201 -14.791  10.879  1.00  0.00    -0.508 OA
ATOM     27  H   UNL     1       6.264 -15.504  10.161  1.00  0.00     0.293 HD
ENDBRANCH   8  26
TORSDOF 6
ENDMDL
MODEL 2
REMARK VINA RESULT:    -6.867     11.302     12.883
REMARK INTER + INTRA:          -8.602
REMARK INTER:                  -8.284
REMARK INTRA:                  -0.319
REMARK UNBOUND:                -0.331
REMARK SMILES O=c1c(O)c(-c2ccc(O)c(O)c2)oc2cc(O)cc(O)c12
REMARK SMILES IDX 5 1 3 2 2 3 1 4 22 5 20 6 19 7 17 8 16 9 15 10 14 11 6 12
REMARK SMILES IDX 7 13 8 14 9 15 13 16 11 17 10 18 12 20 4 22 21 24 18 26
REMARK H PARENT 10 19 12 21 4 23 21 25 18 27
REMARK Flexibility Score: inf
ROOT
ATOM      1  C   UNL     1      12.093 -23.674  15.517  1.00  0.00     0.180 A 
ATOM      2  C   UNL     1      13.041 -22.723  15.091  1.00  0.00     0.208 A 
ATOM      3  C   UNL     1      12.800 -22.009  13.907  1.00  0.00     0.238 A 
ATOM      4  O   UNL     1      13.647 -21.163  13.510  1.00  0.00    -0.285 OA
ATOM      5  C   UNL     1      11.612 -22.239  13.184  1.00  0.00     0.111 A 
ATOM      6  C   UNL     1      11.291 -21.557  11.984  1.00  0.00     0.134 A 
ATOM      7  C   UNL     1      10.083 -21.837  11.327  1.00  0.00     0.093 A 
ATOM      8  C   UNL     1       9.192 -22.782  11.847  1.00  0.00     0.123 A 
ATOM      9  C   UNL     1       9.504 -23.457  13.027  1.00  0.00     0.094 A 
ATOM     10  C   UNL     1      10.704 -23.194  13.697  1.00  0.00     0.146 A 
ATOM     11  O   UNL     1      10.977 -23.853  14.816  1.00  0.00    -0.452 OA
ENDROOT
BRANCH   1  12
ATOM     12  C   UNL     1      12.284 -24.481  16.743  1.00  0.00     0.025 A 
ATOM     13  C   UNL     1      13.084 -25.637  16.742  1.00  0.00     0.016 A 
ATOM     14  C   UNL     1      13.231 -26.396  17.906  1.00  0.00     0.051 A 
ATOM     15  C   UNL     1      12.570 -26.020  19.082  1.00  0.00     0.157 A 
ATOM     16  C   UNL     1      11.607 -24.120  17.920  1.00  0.00     0.062 A 
ATOM     17  C   UNL     1      11.755 -24.881  19.089  1.00  0.00     0.158 A 
BRANCH  15  18
ATOM     18  O   UNL     1      12.716 -26.774  20.246  1.00  0.00    -0.504 OA
ATOM     19  H   UNL     1      12.454 -27.752  20.280  1.00  0.00     0.293 HD
ENDBRANCH  15  18
BRANCH  17  20
ATOM     20  O   UNL     1      11.093 -24.514  20.259  1.00  0.00    -0.504 OA
ATOM     21  H   UNL     1      11.368 -23.693  20.788  1.00  0.00     0.293 HD
ENDBRANCH  17  20
ENDBRANCH   1  12
BRANCH   2  22
ATOM     22  O   UNL     1      14.186 -22.479  15.853  1.00  0.00    -0.502 OA
ATOM     23  H   UNL     1      14.260 -22.757  16.825  1.00  0.00     0.293 HD
ENDBRANCH   2  22
BRANCH   6  24
ATOM     24  O   UNL     1      12.160 -20.609  11.443  1.00  0.00    -0.507 OA
ATOM     25  H   UNL     1      11.818 -19.782  10.967  1.00  0.00     0.293 HD
ENDBRANCH   6  24
BRANCH   8  26
ATOM     26  O   UNL     1       7.992 -23.059  11.194  1.00  0.00    -0.508 OA
ATOM     27  H   UNL     1       7.584 -23.987  11.207  1.00  0.00     0.293 HD
ENDBRANCH   8  26
TORSDOF 6
ENDMDL
MODEL 3
REMARK VINA RESULT:    -6.703     12.518     13.987
REMARK INTER + INTRA:          -8.405
REMARK INTER:                  -8.325
REMARK INTRA:                  -0.079
REMARK UNBOUND:                -0.331
REMARK SMILES O=c1c(O)c(-c2ccc(O)c(O)c2)oc2cc(O)cc(O)c12
REMARK SMILES IDX 5 1 3 2 2 3 1 4 22 5 20 6 19 7 17 8 16 9 15 10 14 11 6 12
REMARK SMILES IDX 7 13 8 14 9 15 13 16 11 17 10 18 12 20 4 22 21 24 18 26
REMARK H PARENT 10 19 12 21 4 23 21 25 18 27
REMARK Flexibility Score: inf
ROOT
ATOM      1  C   UNL     1      12.726 -24.524  15.496  1.00  0.00     0.180 A 
ATOM      2  C   UNL     1      13.251 -23.346  14.929  1.00  0.00     0.208 A 
ATOM      3  C   UNL     1      12.527 -22.703  13.913  1.00  0.00     0.238 A 
ATOM      4  O   UNL     1      12.992 -21.653  13.391  1.00  0.00    -0.285 OA
ATOM      5  C   UNL     1      11.288 -23.231  13.497  1.00  0.00     0.111 A 
ATOM      6  C   UNL     1      10.496 -22.641  12.483  1.00  0.00     0.134 A 
ATOM      7  C   UNL     1       9.268 -23.224  12.131  1.00  0.00     0.093 A 
ATOM      8  C   UNL     1       8.820 -24.383  12.774  1.00  0.00     0.123 A 
ATOM      9  C   UNL     1       9.599 -24.969  13.773  1.00  0.00     0.094 A 
ATOM     10  C   UNL     1      10.825 -24.404  14.137  1.00  0.00     0.146 A 
ATOM     11  O   UNL     1      11.547 -24.985  15.088  1.00  0.00    -0.452 OA
ENDROOT
BRANCH   1  12
ATOM     12  C   UNL     1      13.438 -25.271  16.557  1.00  0.00     0.025 A 
ATOM     13  C   UNL     1      14.766 -25.702  16.385  1.00  0.00     0.016 A 
ATOM     14  C   UNL     1      15.409 -26.426  17.392  1.00  0.00     0.051 A 
ATOM     15  C   UNL     1      14.733 -26.743  18.577  1.00  0.00     0.157 A 
ATOM     16  C   UNL     1      12.758 -25.609  17.739  1.00  0.00     0.062 A 
ATOM     17  C   UNL     1      13.404 -26.335  18.750  1.00  0.00     0.158 A 
BRANCH  15  18
ATOM     18  O   UNL     1      15.373 -27.463  19.584  1.00  0.00    -0.504 OA
ATOM     19  H   UNL     1      16.080 -27.039  20.172  1.00  0.00     0.293 HD
ENDBRANCH  15  18
BRANCH  17  20
ATOM     20  O   UNL     1      12.732 -26.657  19.928  1.00  0.00    -0.504 OA
ATOM     21  H   UNL     1      11.724 -26.769  19.950  1.00  0.00     0.293 HD
ENDBRANCH  17  20
ENDBRANCH   1  12
BRANCH   2  22
ATOM     22  O   UNL     1      14.456 -22.816  15.394  1.00  0.00    -0.502 OA
ATOM     23  H   UNL     1      15.009 -22.164  14.848  1.00  0.00     0.293 HD
ENDBRANCH   2  22
BRANCH   6  24
ATOM     24  O   UNL     1      10.916 -21.484  11.824  1.00  0.00    -0.507 OA
ATOM     25  H   UNL     1      10.382 -20.624  11.865  1.00  0.00     0.293 HD
ENDBRANCH   6  24
BRANCH   8  26
ATOM     26  O   UNL     1       7.601 -24.962  12.426  1.00  0.00    -0.508 OA
ATOM     27  H   UNL     1       6.823 -24.989  13.075  1.00  0.00     0.293 HD
ENDBRANCH   8  26
TORSDOF 6
ENDMDL
MODEL 4
REMARK VINA RESULT:    -6.591     12.076     14.898
REMARK INTER + INTRA:          -8.271
REMARK INTER:                  -8.124
REMARK INTRA:                  -0.146
REMARK UNBOUND:                -0.331
REMARK SMILES O=c1c(O)c(-c2ccc(O)c(O)c2)oc2cc(O)cc(O)c12
REMARK SMILES IDX 5 1 3 2 2 3 1 4 22 5 20 6 19 7 17 8 16 9 15 10 14 11 6 12
REMARK SMILES IDX 7 13 8 14 9 15 13 16 11 17 10 18 12 20 4 22 21 24 18 26
REMARK H PARENT 10 19 12 21 4 23 21 25 18 27
REMARK Flexibility Score: inf
ROOT
ATOM      1  C   UNL     1      12.253 -24.064  15.174  1.00  0.00     0.180 A 
ATOM      2  C   UNL     1      13.256 -25.037  14.993  1.00  0.00     0.208 A 
ATOM      3  C   UNL     1      13.688 -25.780  16.102  1.00  0.00     0.238 A 
ATOM      4  O   UNL     1      14.592 -26.646  15.953  1.00  0.00    -0.285 OA
ATOM      5  C   UNL     1      13.101 -25.556  17.363  1.00  0.00     0.111 A 
ATOM      6  C   UNL     1      13.476 -26.266  18.530  1.00  0.00     0.134 A 
ATOM      7  C   UNL     1      12.837 -25.990  19.748  1.00  0.00     0.093 A 
ATOM      8  C   UNL     1      11.830 -25.021  19.821  1.00  0.00     0.123 A 
ATOM      9  C   UNL     1      11.457 -24.318  18.674  1.00  0.00     0.094 A 
ATOM     10  C   UNL     1      12.083 -24.577  17.451  1.00  0.00     0.146 A 
ATOM     11  O   UNL     1      11.712 -23.891  16.377  1.00  0.00    -0.452 OA
ENDROOT
BRANCH   1  12
ATOM     12  C   UNL     1      11.758 -23.227  14.059  1.00  0.00     0.025 A 
ATOM     13  C   UNL     1      12.618 -22.372  13.346  1.00  0.00     0.016 A 
ATOM     14  C   UNL     1      12.123 -21.573  12.312  1.00  0.00     0.051 A 
ATOM     15  C   UNL     1      10.761 -21.605  11.985  1.00  0.00     0.157 A 
ATOM     16  C   UNL     1      10.390 -23.239  13.740  1.00  0.00     0.062 A 
ATOM     17  C   UNL     1       9.893 -22.438  12.702  1.00  0.00     0.158 A 
BRANCH  15  18
ATOM     18  O   UNL     1      10.265 -20.811  10.953  1.00  0.00    -0.504 OA
ATOM     19  H   UNL     1      10.529 -19.838  10.859  1.00  0.00     0.293 HD
ENDBRANCH  15  18
BRANCH  17  20
ATOM     20  O   UNL     1       8.537 -22.462  12.378  1.00  0.00    -0.504 OA
ATOM     21  H   UNL     1       7.857 -21.924  12.904  1.00  0.00     0.293 HD
ENDBRANCH  17  20
ENDBRANCH   1  12
BRANCH   2  22
ATOM     22  O   UNL     1      13.786 -25.274  13.722  1.00  0.00    -0.502 OA
ATOM     23  H   UNL     1      13.845 -26.204  13.324  1.00  0.00     0.293 HD
ENDBRANCH   2  22
BRANCH   6  24
ATOM     24  O   UNL     1      14.476 -27.239  18.488  1.00  0.00    -0.507 OA
ATOM     25  H   UNL     1      15.409 -27.031  18.154  1.00  0.00     0.293 HD
ENDBRANCH   6  24
BRANCH   8  26
ATOM     26  O   UNL     1      11.194 -24.748  21.031  1.00  0.00    -0.508 OA
ATOM     27  H   UNL     1      10.899 -23.809  21.273  1.00  0.00     0.293 HD
ENDBRANCH   8  26
TORSDOF 6
ENDMDL
MODEL 5
REMARK VINA RESULT:    -6.575      1.449      2.889
REMARK INTER + INTRA:          -8.251
REMARK INTER:                  -8.165
REMARK INTRA:                  -0.086
REMARK UNBOUND:                -0.331
REMARK SMILES O=c1c(O)c(-c2ccc(O)c(O)c2)oc2cc(O)cc(O)c12
REMARK SMILES IDX 5 1 3 2 2 3 1 4 22 5 20 6 19 7 17 8 16 9 15 10 14 11 6 12
REMARK SMILES IDX 7 13 8 14 9 15 13 16 11 17 10 18 12 20 4 22 21 24 18 26
REMARK H PARENT 10 19 12 21 4 23 21 25 18 27
REMARK Flexibility Score: inf
ROOT
ATOM      1  C   UNL     1       2.999 -14.368  15.969  1.00  0.00     0.180 A 
ATOM      2  C   UNL     1       3.869 -13.799  15.018  1.00  0.00     0.208 A 
ATOM      3  C   UNL     1       3.561 -13.928  13.655  1.00  0.00     0.238 A 
ATOM      4  O   UNL     1       4.337 -13.431  12.795  1.00  0.00    -0.285 OA
ATOM      5  C   UNL     1       2.385 -14.601  13.267  1.00  0.00     0.111 A 
ATOM      6  C   UNL     1       2.001 -14.771  11.914  1.00  0.00     0.134 A 
ATOM      7  C   UNL     1       0.809 -15.447  11.609  1.00  0.00     0.093 A 
ATOM      8  C   UNL     1      -0.002 -15.955  12.629  1.00  0.00     0.123 A 
ATOM      9  C   UNL     1       0.373 -15.791  13.963  1.00  0.00     0.094 A 
ATOM     10  C   UNL     1       1.557 -15.122  14.288  1.00  0.00     0.146 A 
ATOM     11  O   UNL     1       1.891 -14.984  15.565  1.00  0.00    -0.452 OA
ENDROOT
BRANCH   1  12
ATOM     12  C   UNL     1       3.264 -14.291  17.423  1.00  0.00     0.025 A 
ATOM     13  C   UNL     1       3.422 -13.055  18.076  1.00  0.00     0.016 A 
ATOM     14  C   UNL     1       3.695 -13.009  19.445  1.00  0.00     0.051 A 
ATOM     15  C   UNL     1       3.831 -14.194  20.179  1.00  0.00     0.157 A 
ATOM     16  C   UNL     1       3.422 -15.477  18.160  1.00  0.00     0.062 A 
ATOM     17  C   UNL     1       3.696 -15.431  19.535  1.00  0.00     0.158 A 
BRANCH  15  18
ATOM     18  O   UNL     1       4.102 -14.151  21.546  1.00  0.00    -0.504 OA
ATOM     19  H   UNL     1       4.300 -13.278  22.019  1.00  0.00     0.293 HD
ENDBRANCH  15  18
BRANCH  17  20
ATOM     20  O   UNL     1       3.838 -16.608  20.267  1.00  0.00    -0.504 OA
ATOM     21  H   UNL     1       3.449 -17.486  19.939  1.00  0.00     0.293 HD
ENDBRANCH  17  20
ENDBRANCH   1  12
BRANCH   2  22
ATOM     22  O   UNL     1       5.001 -13.093  15.432  1.00  0.00    -0.502 OA
ATOM     23  H   UNL     1       5.158 -12.124  15.180  1.00  0.00     0.293 HD
ENDBRANCH   2  22
BRANCH   6  24
ATOM     24  O   UNL     1       2.790 -14.275  10.875  1.00  0.00    -0.507 OA
ATOM     25  H   UNL     1       3.465 -13.535  11.025  1.00  0.00     0.293 HD
ENDBRANCH   6  24
BRANCH   8  26
ATOM     26  O   UNL     1      -1.186 -16.626  12.326  1.00  0.00    -0.508 OA
ATOM     27  H   UNL     1      -1.575 -16.617  11.390  1.00  0.00     0.293 HD
ENDBRANCH   8  26
TORSDOF 6
ENDMDL
MODEL 6
REMARK VINA RESULT:    -6.500     13.794     15.296
REMARK INTER + INTRA:          -8.160
REMARK INTER:                  -8.024
REMARK INTRA:                  -0.136
REMARK UNBOUND:                -0.331
REMARK SMILES O=c1c(O)c(-c2ccc(O)c(O)c2)oc2cc(O)cc(O)c12
REMARK SMILES IDX 5 1 3 2 2 3 1 4 22 5 20 6 19 7 17 8 16 9 15 10 14 11 6 12
REMARK SMILES IDX 7 13 8 14 9 15 13 16 11 17 10 18 12 20 4 22 21 24 18 26
REMARK H PARENT 10 19 12 21 4 23 21 25 18 27
REMARK Flexibility Score: inf
ROOT
ATOM      1  C   UNL     1      13.461 -25.430  16.573  1.00  0.00     0.180 A 
ATOM      2  C   UNL     1      12.786 -25.823  15.400  1.00  0.00     0.208 A 
ATOM      3  C   UNL     1      11.615 -25.143  15.032  1.00  0.00     0.238 A 
ATOM      4  O   UNL     1      10.997 -25.493  13.990  1.00  0.00    -0.285 OA
ATOM      5  C   UNL     1      11.152 -24.073  15.824  1.00  0.00     0.111 A 
ATOM      6  C   UNL     1       9.984 -23.333  15.520  1.00  0.00     0.134 A 
ATOM      7  C   UNL     1       9.593 -22.274  16.355  1.00  0.00     0.093 A 
ATOM      8  C   UNL     1      10.348 -21.944  17.486  1.00  0.00     0.123 A 
ATOM      9  C   UNL     1      11.499 -22.671  17.790  1.00  0.00     0.094 A 
ATOM     10  C   UNL     1      11.905 -23.730  16.972  1.00  0.00     0.146 A 
ATOM     11  O   UNL     1      13.002 -24.407  17.287  1.00  0.00    -0.452 OA
ENDROOT
BRANCH   1  12
ATOM     12  C   UNL     1      14.690 -26.111  17.038  1.00  0.00     0.025 A 
ATOM     13  C   UNL     1      15.862 -26.121  16.260  1.00  0.00     0.016 A 
ATOM     14  C   UNL     1      17.003 -26.790  16.710  1.00  0.00     0.051 A 
ATOM     15  C   UNL     1      16.986 -27.471  17.933  1.00  0.00     0.157 A 
ATOM     16  C   UNL     1      14.673 -26.812  18.255  1.00  0.00     0.062 A 
ATOM     17  C   UNL     1      15.818 -27.484  18.707  1.00  0.00     0.158 A 
BRANCH  15  18
ATOM     18  O   UNL     1      18.124 -28.138  18.386  1.00  0.00    -0.504 OA
ATOM     19  H   UNL     1      18.058 -28.951  18.987  1.00  0.00     0.293 HD
ENDBRANCH  15  18
BRANCH  17  20
ATOM     20  O   UNL     1      15.803 -28.168  19.921  1.00  0.00    -0.504 OA
ATOM     21  H   UNL     1      14.933 -28.423  20.375  1.00  0.00     0.293 HD
ENDBRANCH  17  20
ENDBRANCH   1  12
BRANCH   2  22
ATOM     22  O   UNL     1      13.294 -26.854  14.606  1.00  0.00    -0.502 OA
ATOM     23  H   UNL     1      13.734 -27.677  15.003  1.00  0.00     0.293 HD
ENDBRANCH   2  22
BRANCH   6  24
ATOM     24  O   UNL     1       9.211 -23.639  14.399  1.00  0.00    -0.507 OA
ATOM     25  H   UNL     1       9.002 -24.596  14.140  1.00  0.00     0.293 HD
ENDBRANCH   6  24
BRANCH   8  26
ATOM     26  O   UNL     1       9.961 -20.892  18.315  1.00  0.00    -0.508 OA
ATOM     27  H   UNL     1      10.630 -20.403  18.898  1.00  0.00     0.293 HD
ENDBRANCH   8  26
TORSDOF 6
ENDMDL
MODEL 7
REMARK VINA RESULT:    -6.402     12.505     14.754
REMARK INTER + INTRA:          -8.042
REMARK INTER:                  -7.722
REMARK INTRA:                  -0.320
REMARK UNBOUND:                -0.331
REMARK SMILES O=c1c(O)c(-c2ccc(O)c(O)c2)oc2cc(O)cc(O)c12
REMARK SMILES IDX 5 1 3 2 2 3 1 4 22 5 20 6 19 7 17 8 16 9 15 10 14 11 6 12
REMARK SMILES IDX 7 13 8 14 9 15 13 16 11 17 10 18 12 20 4 22 21 24 18 26
REMARK H PARENT 10 19 12 21 4 23 21 25 18 27
REMARK Flexibility Score: inf
ROOT
ATOM      1  C   UNL     1      11.383 -24.452  15.401  1.00  0.00     0.180 A 
ATOM      2  C   UNL     1      11.024 -24.173  16.735  1.00  0.00     0.208 A 
ATOM      3  C   UNL     1      11.820 -24.684  17.772  1.00  0.00     0.238 A 
ATOM      4  O   UNL     1      11.503 -24.449  18.970  1.00  0.00    -0.285 OA
ATOM      5  C   UNL     1      12.967 -25.443  17.462  1.00  0.00     0.111 A 
ATOM      6  C   UNL     1      13.824 -25.989  18.447  1.00  0.00     0.134 A 
ATOM      7  C   UNL     1      14.953 -26.727  18.057  1.00  0.00     0.093 A 
ATOM      8  C   UNL     1      15.239 -26.927  16.702  1.00  0.00     0.123 A 
ATOM      9  C   UNL     1      14.396 -26.391  15.727  1.00  0.00     0.094 A 
ATOM     10  C   UNL     1      13.266 -25.654  16.095  1.00  0.00     0.146 A 
ATOM     11  O   UNL     1      12.480 -25.160  15.147  1.00  0.00    -0.452 OA
ENDROOT
BRANCH   1  12
ATOM     12  C   UNL     1      10.584 -23.967  14.254  1.00  0.00     0.025 A 
ATOM     13  C   UNL     1      10.878 -22.746  13.620  1.00  0.00     0.016 A 
ATOM     14  C   UNL     1      10.094 -22.297  12.554  1.00  0.00     0.051 A 
ATOM     15  C   UNL     1       8.999 -23.051  12.116  1.00  0.00     0.157 A 
ATOM     16  C   UNL     1       9.471 -24.708  13.823  1.00  0.00     0.062 A 
ATOM     17  C   UNL     1       8.685 -24.258  12.753  1.00  0.00     0.158 A 
BRANCH  15  18
ATOM     18  O   UNL     1       8.217 -22.606  11.051  1.00  0.00    -0.504 OA
ATOM     19  H   UNL     1       8.027 -21.622  10.907  1.00  0.00     0.293 HD
ENDBRANCH  15  18
BRANCH  17  20
ATOM     20  O   UNL     1       7.590 -25.003  12.318  1.00  0.00    -0.504 OA
ATOM     21  H   UNL     1       7.081 -25.613  12.948  1.00  0.00     0.293 HD
ENDBRANCH  17  20
ENDBRANCH   1  12
BRANCH   2  22
ATOM     22  O   UNL     1       9.911 -23.377  17.014  1.00  0.00    -0.502 OA
ATOM     23  H   UNL     1       9.490 -23.337  17.935  1.00  0.00     0.293 HD
ENDBRANCH   2  22
BRANCH   6  24
ATOM     24  O   UNL     1      13.565 -25.805  19.807  1.00  0.00    -0.507 OA
ATOM     25  H   UNL     1      13.634 -24.894  20.244  1.00  0.00     0.293 HD
ENDBRANCH   6  24
BRANCH   8  26
ATOM     26  O   UNL     1      16.359 -27.659  16.314  1.00  0.00    -0.508 OA
ATOM     27  H   UNL     1      17.229 -27.611  16.833  1.00  0.00     0.293 HD
ENDBRANCH   8  26
TORSDOF 6
ENDMDL
MODEL 8
REMARK VINA RESULT:    -6.374     12.518     14.914
REMARK INTER + INTRA:          -8.009
REMARK INTER:                  -7.752
REMARK INTRA:                  -0.256
REMARK UNBOUND:                -0.331
REMARK SMILES O=c1c(O)c(-c2ccc(O)c(O)c2)oc2cc(O)cc(O)c12
REMARK SMILES IDX 5 1 3 2 2 3 1 4 22 5 20 6 19 7 17 8 16 9 15 10 14 11 6 12
REMARK SMILES IDX 7 13 8 14 9 15 13 16 11 17 10 18 12 20 4 22 21 24 18 26
REMARK H PARENT 10 19 12 21 4 23 21 25 18 27
REMARK Flexibility Score: inf
ROOT
ATOM      1  C   UNL     1      11.828 -24.223  15.381  1.00  0.00     0.180 A 
ATOM      2  C   UNL     1      11.330 -24.112  16.695  1.00  0.00     0.208 A 
ATOM      3  C   UNL     1      12.006 -24.770  17.734  1.00  0.00     0.238 A 
ATOM      4  O   UNL     1      11.564 -24.686  18.911  1.00  0.00    -0.285 OA
ATOM      5  C   UNL     1      13.173 -25.508  17.449  1.00  0.00     0.111 A 
ATOM      6  C   UNL     1      13.915 -26.196  18.439  1.00  0.00     0.134 A 
ATOM      7  C   UNL     1      15.072 -26.902  18.077  1.00  0.00     0.093 A 
ATOM      8  C   UNL     1      15.501 -26.930  16.745  1.00  0.00     0.123 A 
ATOM      9  C   UNL     1      14.773 -26.255  15.765  1.00  0.00     0.094 A 
ATOM     10  C   UNL     1      13.616 -25.547  16.106  1.00  0.00     0.146 A 
ATOM     11  O   UNL     1      12.940 -24.916  15.153  1.00  0.00    -0.452 OA
ENDROOT
BRANCH   1  12
ATOM     12  C   UNL     1      11.161 -23.575  14.230  1.00  0.00     0.025 A 
ATOM     13  C   UNL     1       9.938 -24.053  13.727  1.00  0.00     0.016 A 
ATOM     14  C   UNL     1       9.339 -23.439  12.624  1.00  0.00     0.051 A 
ATOM     15  C   UNL     1       9.959 -22.350  11.998  1.00  0.00     0.157 A 
ATOM     16  C   UNL     1      11.788 -22.496  13.586  1.00  0.00     0.062 A 
ATOM     17  C   UNL     1      11.188 -21.879  12.479  1.00  0.00     0.158 A 
BRANCH  15  18
ATOM     18  O   UNL     1       9.363 -21.734  10.899  1.00  0.00    -0.504 OA
ATOM     19  H   UNL     1       9.786 -21.767   9.980  1.00  0.00     0.293 HD
ENDBRANCH  15  18
BRANCH  17  20
ATOM     20  O   UNL     1      11.806 -20.799  11.850  1.00  0.00    -0.504 OA
ATOM     21  H   UNL     1      12.812 -20.678  11.872  1.00  0.00     0.293 HD
ENDBRANCH  17  20
ENDBRANCH   1  12
BRANCH   2  22
ATOM     22  O   UNL     1      10.200 -23.334  16.957  1.00  0.00    -0.502 OA
ATOM     23  H   UNL     1       9.521 -23.585  17.667  1.00  0.00     0.293 HD
ENDBRANCH   2  22
BRANCH   6  24
ATOM     24  O   UNL     1      13.512 -26.185  19.776  1.00  0.00    -0.507 OA
ATOM     25  H   UNL     1      13.537 -27.021  20.347  1.00  0.00     0.293 HD
ENDBRANCH   6  24
BRANCH   8  26
ATOM     26  O   UNL     1      16.651 -27.631  16.385  1.00  0.00    -0.508 OA
ATOM     27  H   UNL     1      16.675 -28.644  16.381  1.00  0.00     0.293 HD
ENDBRANCH   8  26
TORSDOF 6
ENDMDL
MODEL 9
REMARK VINA RESULT:    -6.294     13.565     15.426
REMARK INTER + INTRA:          -7.913
REMARK INTER:                  -7.709
REMARK INTRA:                  -0.204
REMARK UNBOUND:                -0.331
REMARK SMILES O=c1c(O)c(-c2ccc(O)c(O)c2)oc2cc(O)cc(O)c12
REMARK SMILES IDX 5 1 3 2 2 3 1 4 22 5 20 6 19 7 17 8 16 9 15 10 14 11 6 12
REMARK SMILES IDX 7 13 8 14 9 15 13 16 11 17 10 18 12 20 4 22 21 24 18 26
REMARK H PARENT 10 19 12 21 4 23 21 25 18 27
REMARK Flexibility Score: inf
ROOT
ATOM      1  C   UNL     1      12.904 -24.484  16.538  1.00  0.00     0.180 A 
ATOM      2  C   UNL     1      13.704 -24.442  15.379  1.00  0.00     0.208 A 
ATOM      3  C   UNL     1      14.905 -25.167  15.357  1.00  0.00     0.238 A 
ATOM      4  O   UNL     1      15.633 -25.129  14.328  1.00  0.00    -0.285 OA
ATOM      5  C   UNL     1      15.276 -25.936  16.479  1.00  0.00     0.111 A 
ATOM      6  C   UNL     1      16.468 -26.699  16.535  1.00  0.00     0.134 A 
ATOM      7  C   UNL     1      16.762 -27.445  17.687  1.00  0.00     0.093 A 
ATOM      8  C   UNL     1      15.888 -27.443  18.779  1.00  0.00     0.123 A 
ATOM      9  C   UNL     1      14.714 -26.691  18.729  1.00  0.00     0.094 A 
ATOM     10  C   UNL     1      14.403 -25.940  17.591  1.00  0.00     0.146 A 
ATOM     11  O   UNL     1      13.280 -25.231  17.572  1.00  0.00    -0.452 OA
ENDROOT
BRANCH   1  12
ATOM     12  C   UNL     1      11.635 -23.731  16.646  1.00  0.00     0.025 A 
ATOM     13  C   UNL     1      10.510 -24.076  15.875  1.00  0.00     0.016 A 
ATOM     14  C   UNL     1       9.329 -23.336  15.977  1.00  0.00     0.051 A 
ATOM     15  C   UNL     1       9.260 -22.233  16.837  1.00  0.00     0.157 A 
ATOM     16  C   UNL     1      11.565 -22.611  17.491  1.00  0.00     0.062 A 
ATOM     17  C   UNL     1      10.380 -21.868  17.593  1.00  0.00     0.158 A 
BRANCH  15  18
ATOM     18  O   UNL     1       8.083 -21.493  16.942  1.00  0.00    -0.504 OA
ATOM     19  H   UNL     1       7.261 -21.867  17.400  1.00  0.00     0.293 HD
ENDBRANCH  15  18
BRANCH  17  20
ATOM     20  O   UNL     1      10.310 -20.765  18.443  1.00  0.00    -0.504 OA
ATOM     21  H   UNL     1       9.853 -20.821  19.347  1.00  0.00     0.293 HD
ENDBRANCH  17  20
ENDBRANCH   1  12
BRANCH   2  22
ATOM     22  O   UNL     1      13.288 -23.712  14.262  1.00  0.00    -0.502 OA
ATOM     23  H   UNL     1      13.375 -22.703  14.211  1.00  0.00     0.293 HD
ENDBRANCH   2  22
BRANCH   6  24
ATOM     24  O   UNL     1      17.358 -26.721  15.460  1.00  0.00    -0.507 OA
ATOM     25  H   UNL     1      17.322 -26.027  14.723  1.00  0.00     0.293 HD
ENDBRANCH   6  24
BRANCH   8  26
ATOM     26  O   UNL     1      16.180 -28.184  19.923  1.00  0.00    -0.508 OA
ATOM     27  H   UNL     1      16.656 -29.078  19.867  1.00  0.00     0.293 HD
ENDBRANCH   8  26
TORSDOF 6
ENDMDL
