MODEL 1
REMARK VINA RESULT:    -4.617      0.000      0.000
REMARK INTER + INTRA:          -8.122
REMARK INTER:                  -6.776
REMARK INTRA:                  -1.346
REMARK UNBOUND:                -1.346
REMARK SMILES CCCOC(=O)c1ccccc1C(=O)OCCC
REMARK SMILES IDX 7 1 8 2 9 3 10 4 11 5 12 6 5 7 6 8 4 9 3 10 2 11 1 12 13 13
REMARK SMILES IDX 14 14 15 15 16 16 17 17 18 18
REMARK H PARENT
REMARK Flexibility Score: inf
ROOT
ATOM      1  C   UNL     1       8.681  -2.408  41.715  1.00  0.00     0.074 A 
ATOM      2  C   UNL     1       8.544  -1.471  40.675  1.00  0.00     0.016 A 
ATOM      3  C   UNL     1       8.038  -1.853  39.432  1.00  0.00     0.001 A 
ATOM      4  C   UNL     1       7.663  -3.176  39.207  1.00  0.00     0.001 A 
ATOM      5  C   UNL     1       7.771  -4.117  40.231  1.00  0.00     0.016 A 
ATOM      6  C   UNL     1       8.255  -3.750  41.499  1.00  0.00     0.074 A 
ENDROOT
BRANCH   1   7
ATOM      7  C   UNL     1       9.330  -1.961  42.970  1.00  0.00     0.339 C 
ATOM      8  O   UNL     1       8.638  -1.484  43.911  1.00  0.00    -0.246 OA
BRANCH   7   9
ATOM      9  O   UNL     1      10.710  -2.125  43.126  1.00  0.00    -0.462 OA
BRANCH   9  10
ATOM     10  C   UNL     1      11.604  -2.211  42.021  1.00  0.00     0.233 C 
BRANCH  10  11
ATOM     11  C   UNL     1      12.046  -3.662  41.841  1.00  0.00     0.038 C 
ATOM     12  C   UNL     1      11.801  -4.142  40.413  1.00  0.00     0.007 C 
ENDBRANCH  10  11
ENDBRANCH   9  10
ENDBRANCH   7   9
ENDBRANCH   1   7
BRANCH   6  13
ATOM     13  C   UNL     1       8.237  -4.770  42.570  1.00  0.00     0.339 C 
ATOM     14  O   UNL     1       7.200  -4.941  43.268  1.00  0.00    -0.246 OA
BRANCH  13  15
ATOM     15  O   UNL     1       9.358  -5.587  42.762  1.00  0.00    -0.462 OA
BRANCH  15  16
ATOM     16  C   UNL     1       9.287  -7.009  42.856  1.00  0.00     0.233 C 
BRANCH  16  17
ATOM     17  C   UNL     1       8.963  -7.621  41.490  1.00  0.00     0.038 C 
ATOM     18  C   UNL     1       7.662  -8.416  41.537  1.00  0.00     0.007 C 
ENDBRANCH  16  17
ENDBRANCH  15  16
ENDBRANCH  13  15
ENDBRANCH   6  13
TORSDOF 8
ENDMDL
MODEL 2
REMARK VINA RESULT:    -4.605      0.199      3.964
REMARK INTER + INTRA:          -8.104
REMARK INTER:                  -6.884
REMARK INTRA:                  -1.220
REMARK UNBOUND:                -1.346
REMARK SMILES CCCOC(=O)c1ccccc1C(=O)OCCC
REMARK SMILES IDX 7 1 8 2 9 3 10 4 11 5 12 6 5 7 6 8 4 9 3 10 2 11 1 12 13 13
REMARK SMILES IDX 14 14 15 15 16 16 17 17 18 18
REMARK H PARENT
REMARK Flexibility Score: inf
ROOT
ATOM      1  C   UNL     1       8.221  -3.797  41.446  1.00  0.00     0.074 A 
ATOM      2  C   UNL     1       7.815  -4.173  40.153  1.00  0.00     0.016 A 
ATOM      3  C   UNL     1       7.694  -3.223  39.138  1.00  0.00     0.001 A 
ATOM      4  C   UNL     1       7.976  -1.884  39.398  1.00  0.00     0.001 A 
ATOM      5  C   UNL     1       8.402  -1.492  40.667  1.00  0.00     0.016 A 
ATOM      6  C   UNL     1       8.553  -2.436  41.699  1.00  0.00     0.074 A 
ENDROOT
BRANCH   1   7
ATOM      7  C   UNL     1       8.218  -4.836  42.503  1.00  0.00     0.339 C 
ATOM      8  O   UNL     1       7.185  -5.033  43.200  1.00  0.00    -0.246 OA
BRANCH   7   9
ATOM      9  O   UNL     1       9.350  -5.636  42.683  1.00  0.00    -0.462 OA
BRANCH   9  10
ATOM     10  C   UNL     1       9.270  -7.033  42.946  1.00  0.00     0.233 C 
BRANCH  10  11
ATOM     11  C   UNL     1       9.052  -7.783  41.634  1.00  0.00     0.038 C 
ATOM     12  C   UNL     1       7.645  -8.369  41.557  1.00  0.00     0.007 C 
ENDBRANCH  10  11
ENDBRANCH   9  10
ENDBRANCH   7   9
ENDBRANCH   1   7
BRANCH   6  13
ATOM     13  C   UNL     1       9.115  -1.971  42.986  1.00  0.00     0.339 C 
ATOM     14  O   UNL     1       8.351  -1.706  43.955  1.00  0.00    -0.246 OA
BRANCH  13  15
ATOM     15  O   UNL     1      10.503  -1.886  43.141  1.00  0.00    -0.462 OA
BRANCH  15  16
ATOM     16  C   UNL     1      11.427  -2.092  42.073  1.00  0.00     0.233 C 
BRANCH  16  17
ATOM     17  C   UNL     1      11.980  -3.519  42.110  1.00  0.00     0.038 C 
ATOM     18  C   UNL     1      11.861  -4.193  40.747  1.00  0.00     0.007 C 
ENDBRANCH  16  17
ENDBRANCH  15  16
ENDBRANCH  13  15
ENDBRANCH   6  13
TORSDOF 8
ENDMDL
MODEL 3
REMARK VINA RESULT:    -4.540      1.425      4.888
REMARK INTER + INTRA:          -8.009
REMARK INTER:                  -7.223
REMARK INTRA:                  -0.786
REMARK UNBOUND:                -1.346
REMARK SMILES CCCOC(=O)c1ccccc1C(=O)OCCC
REMARK SMILES IDX 7 1 8 2 9 3 10 4 11 5 12 6 5 7 6 8 4 9 3 10 2 11 1 12 13 13
REMARK SMILES IDX 14 14 15 15 16 16 17 17 18 18
REMARK H PARENT
REMARK Flexibility Score: inf
ROOT
ATOM      1  C   UNL     1       8.271  -3.537  41.488  1.00  0.00     0.074 A 
ATOM      2  C   UNL     1       7.736  -3.808  40.216  1.00  0.00     0.016 A 
ATOM      3  C   UNL     1       7.601  -2.794  39.267  1.00  0.00     0.001 A 
ATOM      4  C   UNL     1       7.998  -1.494  39.573  1.00  0.00     0.001 A 
ATOM      5  C   UNL     1       8.552  -1.207  40.820  1.00  0.00     0.016 A 
ATOM      6  C   UNL     1       8.719  -2.218  41.784  1.00  0.00     0.074 A 
ENDROOT
BRANCH   1   7
ATOM      7  C   UNL     1       8.280  -4.633  42.485  1.00  0.00     0.339 C 
ATOM      8  O   UNL     1       7.268  -4.846  43.208  1.00  0.00    -0.246 OA
BRANCH   7   9
ATOM      9  O   UNL     1       9.398  -5.467  42.579  1.00  0.00    -0.462 OA
BRANCH   9  10
ATOM     10  C   UNL     1       9.295  -6.862  42.849  1.00  0.00     0.233 C 
BRANCH  10  11
ATOM     11  C   UNL     1       8.899  -7.597  41.570  1.00  0.00     0.038 C 
ATOM     12  C   UNL     1       7.857  -8.676  41.852  1.00  0.00     0.007 C 
ENDBRANCH  10  11
ENDBRANCH   9  10
ENDBRANCH   7   9
ENDBRANCH   1   7
BRANCH   6  13
ATOM     13  C   UNL     1       9.415  -1.867  43.041  1.00  0.00     0.339 C 
ATOM     14  O   UNL     1      10.676  -1.833  43.082  1.00  0.00    -0.246 OA
BRANCH  13  15
ATOM     15  O   UNL     1       8.664  -1.514  44.169  1.00  0.00    -0.462 OA
BRANCH  15  16
ATOM     16  C   UNL     1       8.709  -0.222  44.770  1.00  0.00     0.233 C 
BRANCH  16  17
ATOM     17  C   UNL     1       9.396  -0.290  46.137  1.00  0.00     0.038 C 
ATOM     18  C   UNL     1      10.870   0.089  46.034  1.00  0.00     0.007 C 
ENDBRANCH  16  17
ENDBRANCH  15  16
ENDBRANCH  13  15
ENDBRANCH   6  13
TORSDOF 8
ENDMDL
MODEL 4
REMARK VINA RESULT:    -4.527      2.484      5.377
REMARK INTER + INTRA:          -7.990
REMARK INTER:                  -7.223
REMARK INTRA:                  -0.768
REMARK UNBOUND:                -1.346
REMARK SMILES CCCOC(=O)c1ccccc1C(=O)OCCC
REMARK SMILES IDX 7 1 8 2 9 3 10 4 11 5 12 6 5 7 6 8 4 9 3 10 2 11 1 12 13 13
REMARK SMILES IDX 14 14 15 15 16 16 17 17 18 18
REMARK H PARENT
REMARK Flexibility Score: inf
ROOT
ATOM      1  C   UNL     1       8.629  -3.946  41.156  1.00  0.00     0.074 A 
ATOM      2  C   UNL     1       8.625  -3.431  42.465  1.00  0.00     0.016 A 
ATOM      3  C   UNL     1       8.601  -2.055  42.692  1.00  0.00     0.001 A 
ATOM      4  C   UNL     1       8.581  -1.170  41.616  1.00  0.00     0.001 A 
ATOM      5  C   UNL     1       8.562  -1.658  40.309  1.00  0.00     0.016 A 
ATOM      6  C   UNL     1       8.562  -3.042  40.057  1.00  0.00     0.074 A 
ENDROOT
BRANCH   1   7
ATOM      7  C   UNL     1       8.770  -5.411  40.987  1.00  0.00     0.339 C 
ATOM      8  O   UNL     1       9.863  -5.906  40.597  1.00  0.00    -0.246 OA
BRANCH   7   9
ATOM      9  O   UNL     1       7.699  -6.247  41.318  1.00  0.00    -0.462 OA
BRANCH   9  10
ATOM     10  C   UNL     1       7.882  -7.573  41.803  1.00  0.00     0.233 C 
BRANCH  10  11
ATOM     11  C   UNL     1       8.219  -7.525  43.292  1.00  0.00     0.038 C 
ATOM     12  C   UNL     1       7.993  -8.881  43.955  1.00  0.00     0.007 C 
ENDBRANCH  10  11
ENDBRANCH   9  10
ENDBRANCH   7   9
ENDBRANCH   1   7
BRANCH   6  13
ATOM     13  C   UNL     1       8.427  -3.491  38.654  1.00  0.00     0.339 C 
ATOM     14  O   UNL     1       9.444  -3.854  38.002  1.00  0.00    -0.246 OA
BRANCH  13  15
ATOM     15  O   UNL     1       7.154  -3.568  38.075  1.00  0.00    -0.462 OA
BRANCH  15  16
ATOM     16  C   UNL     1       6.895  -3.272  36.704  1.00  0.00     0.233 C 
BRANCH  16  17
ATOM     17  C   UNL     1       6.741  -1.762  36.501  1.00  0.00     0.038 C 
ATOM     18  C   UNL     1       5.511  -1.230  37.230  1.00  0.00     0.007 C 
ENDBRANCH  16  17
ENDBRANCH  15  16
ENDBRANCH  13  15
ENDBRANCH   6  13
TORSDOF 8
ENDMDL
MODEL 5
REMARK VINA RESULT:    -4.502      2.459      4.300
REMARK INTER + INTRA:          -7.953
REMARK INTER:                  -7.171
REMARK INTRA:                  -0.783
REMARK UNBOUND:                -1.346
REMARK SMILES CCCOC(=O)c1ccccc1C(=O)OCCC
REMARK SMILES IDX 7 1 8 2 9 3 10 4 11 5 12 6 5 7 6 8 4 9 3 10 2 11 1 12 13 13
REMARK SMILES IDX 14 14 15 15 16 16 17 17 18 18
REMARK H PARENT
REMARK Flexibility Score: inf
ROOT
ATOM      1  C   UNL     1       8.654  -3.086  39.925  1.00  0.00     0.074 A 
ATOM      2  C   UNL     1       8.636  -1.700  40.160  1.00  0.00     0.016 A 
ATOM      3  C   UNL     1       8.608  -1.196  41.461  1.00  0.00     0.001 A 
ATOM      4  C   UNL     1       8.597  -2.069  42.547  1.00  0.00     0.001 A 
ATOM      5  C   UNL     1       8.637  -3.448  42.338  1.00  0.00     0.016 A 
ATOM      6  C   UNL     1       8.689  -3.976  41.036  1.00  0.00     0.074 A 
ENDROOT
BRANCH   1   7
ATOM      7  C   UNL     1       8.567  -3.553  38.522  1.00  0.00     0.339 C 
ATOM      8  O   UNL     1       9.616  -3.826  37.874  1.00  0.00    -0.246 OA
BRANCH   7   9
ATOM      9  O   UNL     1       7.312  -3.743  37.936  1.00  0.00    -0.462 OA
BRANCH   9  10
ATOM     10  C   UNL     1       7.033  -3.392  36.584  1.00  0.00     0.233 C 
BRANCH  10  11
ATOM     11  C   UNL     1       6.753  -1.894  36.498  1.00  0.00     0.038 C 
ATOM     12  C   UNL     1       5.626  -1.485  37.442  1.00  0.00     0.007 C 
ENDBRANCH  10  11
ENDBRANCH   9  10
ENDBRANCH   7   9
ENDBRANCH   1   7
BRANCH   6  13
ATOM     13  C   UNL     1       8.843  -5.441  40.889  1.00  0.00     0.339 C 
ATOM     14  O   UNL     1       9.950  -5.931  40.534  1.00  0.00    -0.246 OA
BRANCH  13  15
ATOM     15  O   UNL     1       7.769  -6.281  41.206  1.00  0.00    -0.462 OA
BRANCH  15  16
ATOM     16  C   UNL     1       7.841  -7.311  42.190  1.00  0.00     0.233 C 
BRANCH  16  17
ATOM     17  C   UNL     1       8.014  -8.679  41.524  1.00  0.00     0.038 C 
ATOM     18  C   UNL     1       7.101  -9.722  42.161  1.00  0.00     0.007 C 
ENDBRANCH  16  17
ENDBRANCH  15  16
ENDBRANCH  13  15
ENDBRANCH   6  13
TORSDOF 8
ENDMDL
MODEL 6
REMARK VINA RESULT:    -4.471      1.606      2.719
REMARK INTER + INTRA:          -7.908
REMARK INTER:                  -6.669
REMARK INTRA:                  -1.239
REMARK UNBOUND:                -1.346
REMARK SMILES CCCOC(=O)c1ccccc1C(=O)OCCC
REMARK SMILES IDX 7 1 8 2 9 3 10 4 11 5 12 6 5 7 6 8 4 9 3 10 2 11 1 12 13 13
REMARK SMILES IDX 14 14 15 15 16 16 17 17 18 18
REMARK H PARENT
REMARK Flexibility Score: inf
ROOT
ATOM      1  C   UNL     1       8.491  -2.540  41.090  1.00  0.00     0.074 A 
ATOM      2  C   UNL     1       8.849  -1.192  40.909  1.00  0.00     0.016 A 
ATOM      3  C   UNL     1       9.105  -0.368  42.005  1.00  0.00     0.001 A 
ATOM      4  C   UNL     1       9.008  -0.876  43.299  1.00  0.00     0.001 A 
ATOM      5  C   UNL     1       8.676  -2.216  43.502  1.00  0.00     0.016 A 
ATOM      6  C   UNL     1       8.436  -3.070  42.411  1.00  0.00     0.074 A 
ENDROOT
BRANCH   1   7
ATOM      7  C   UNL     1       8.121  -3.326  39.890  1.00  0.00     0.339 C 
ATOM      8  O   UNL     1       7.093  -3.027  39.223  1.00  0.00    -0.246 OA
BRANCH   7   9
ATOM      9  O   UNL     1       8.953  -4.368  39.468  1.00  0.00    -0.462 OA
BRANCH   9  10
ATOM     10  C   UNL     1      10.280  -4.151  39.000  1.00  0.00     0.233 C 
BRANCH  10  11
ATOM     11  C   UNL     1      11.265  -4.863  39.924  1.00  0.00     0.038 C 
ATOM     12  C   UNL     1      11.884  -3.893  40.927  1.00  0.00     0.007 C 
ENDBRANCH  10  11
ENDBRANCH   9  10
ENDBRANCH   7   9
ENDBRANCH   1   7
BRANCH   6  13
ATOM     13  C   UNL     1       8.201  -4.504  42.692  1.00  0.00     0.339 C 
ATOM     14  O   UNL     1       7.029  -4.930  42.885  1.00  0.00    -0.246 OA
BRANCH  13  15
ATOM     15  O   UNL     1       9.281  -5.394  42.683  1.00  0.00    -0.462 OA
BRANCH  15  16
ATOM     16  C   UNL     1       9.144  -6.799  42.887  1.00  0.00     0.233 C 
BRANCH  16  17
ATOM     17  C   UNL     1       9.002  -7.524  41.546  1.00  0.00     0.038 C 
ATOM     18  C   UNL     1       7.753  -8.400  41.522  1.00  0.00     0.007 C 
ENDBRANCH  16  17
ENDBRANCH  15  16
ENDBRANCH  13  15
ENDBRANCH   6  13
TORSDOF 8
ENDMDL
MODEL 7
REMARK VINA RESULT:    -4.466      1.585      4.069
REMARK INTER + INTRA:          -7.901
REMARK INTER:                  -6.640
REMARK INTRA:                  -1.261
REMARK UNBOUND:                -1.346
REMARK SMILES CCCOC(=O)c1ccccc1C(=O)OCCC
REMARK SMILES IDX 7 1 8 2 9 3 10 4 11 5 12 6 5 7 6 8 4 9 3 10 2 11 1 12 13 13
REMARK SMILES IDX 14 14 15 15 16 16 17 17 18 18
REMARK H PARENT
REMARK Flexibility Score: inf
ROOT
ATOM      1  C   UNL     1       8.459  -3.031  42.419  1.00  0.00     0.074 A 
ATOM      2  C   UNL     1       8.680  -2.151  43.494  1.00  0.00     0.016 A 
ATOM      3  C   UNL     1       9.011  -0.815  43.267  1.00  0.00     0.001 A 
ATOM      4  C   UNL     1       9.128  -0.336  41.964  1.00  0.00     0.001 A 
ATOM      5  C   UNL     1       8.891  -1.186  40.882  1.00  0.00     0.016 A 
ATOM      6  C   UNL     1       8.533  -2.530  41.088  1.00  0.00     0.074 A 
ENDROOT
BRANCH   1   7
ATOM      7  C   UNL     1       8.223  -4.460  42.731  1.00  0.00     0.339 C 
ATOM      8  O   UNL     1       7.056  -4.878  42.964  1.00  0.00    -0.246 OA
BRANCH   7   9
ATOM      9  O   UNL     1       9.298  -5.354  42.708  1.00  0.00    -0.462 OA
BRANCH   9  10
ATOM     10  C   UNL     1       9.136  -6.755  42.909  1.00  0.00     0.233 C 
BRANCH  10  11
ATOM     11  C   UNL     1       8.958  -7.443  41.558  1.00  0.00     0.038 C 
ATOM     12  C   UNL     1       7.705  -8.315  41.541  1.00  0.00     0.007 C 
ENDBRANCH  10  11
ENDBRANCH   9  10
ENDBRANCH   7   9
ENDBRANCH   1   7
BRANCH   6  13
ATOM     13  C   UNL     1       8.187  -3.344  39.902  1.00  0.00     0.339 C 
ATOM     14  O   UNL     1       7.138  -3.099  39.247  1.00  0.00    -0.246 OA
BRANCH  13  15
ATOM     15  O   UNL     1       9.065  -4.349  39.477  1.00  0.00    -0.462 OA
BRANCH  15  16
ATOM     16  C   UNL     1      10.423  -4.105  39.118  1.00  0.00     0.233 C 
BRANCH  16  17
ATOM     17  C   UNL     1      11.370  -4.812  40.092  1.00  0.00     0.038 C 
ATOM     18  C   UNL     1      11.968  -3.828  41.092  1.00  0.00     0.007 C 
ENDBRANCH  16  17
ENDBRANCH  15  16
ENDBRANCH  13  15
ENDBRANCH   6  13
TORSDOF 8
ENDMDL
MODEL 8
REMARK VINA RESULT:    -4.411      2.229      4.357
REMARK INTER + INTRA:          -7.820
REMARK INTER:                  -6.782
REMARK INTRA:                  -1.038
REMARK UNBOUND:                -1.346
REMARK SMILES CCCOC(=O)c1ccccc1C(=O)OCCC
REMARK SMILES IDX 7 1 8 2 9 3 10 4 11 5 12 6 5 7 6 8 4 9 3 10 2 11 1 12 13 13
REMARK SMILES IDX 14 14 15 15 16 16 17 17 18 18
REMARK H PARENT
REMARK Flexibility Score: inf
ROOT
ATOM      1  C   UNL     1       8.524  -3.366  41.935  1.00  0.00     0.074 A 
ATOM      2  C   UNL     1       7.776  -3.869  43.015  1.00  0.00     0.016 A 
ATOM      3  C   UNL     1       7.270  -5.169  42.990  1.00  0.00     0.001 A 
ATOM      4  C   UNL     1       7.502  -5.987  41.887  1.00  0.00     0.001 A 
ATOM      5  C   UNL     1       8.260  -5.518  40.814  1.00  0.00     0.016 A 
ATOM      6  C   UNL     1       8.799  -4.219  40.828  1.00  0.00     0.074 A 
ENDROOT
BRANCH   1   7
ATOM      7  C   UNL     1       8.933  -1.943  41.977  1.00  0.00     0.339 C 
ATOM      8  O   UNL     1       8.265  -1.069  41.359  1.00  0.00    -0.246 OA
BRANCH   7   9
ATOM      9  O   UNL     1      10.033  -1.567  42.754  1.00  0.00    -0.462 OA
BRANCH   9  10
ATOM     10  C   UNL     1       9.978  -0.502  43.698  1.00  0.00     0.233 C 
BRANCH  10  11
ATOM     11  C   UNL     1       9.009  -0.868  44.819  1.00  0.00     0.038 C 
ATOM     12  C   UNL     1       9.239  -0.003  46.055  1.00  0.00     0.007 C 
ENDBRANCH  10  11
ENDBRANCH   9  10
ENDBRANCH   7   9
ENDBRANCH   1   7
BRANCH   6  13
ATOM     13  C   UNL     1       9.686  -3.825  39.710  1.00  0.00     0.339 C 
ATOM     14  O   UNL     1      10.896  -4.183  39.702  1.00  0.00    -0.246 OA
BRANCH  13  15
ATOM     15  O   UNL     1       9.157  -3.105  38.633  1.00  0.00    -0.462 OA
BRANCH  15  16
ATOM     16  C   UNL     1       8.599  -3.721  37.473  1.00  0.00     0.233 C 
BRANCH  16  17
ATOM     17  C   UNL     1       7.093  -3.458  37.398  1.00  0.00     0.038 C 
ATOM     18  C   UNL     1       6.681  -2.332  38.342  1.00  0.00     0.007 C 
ENDBRANCH  16  17
ENDBRANCH  15  16
ENDBRANCH  13  15
ENDBRANCH   6  13
TORSDOF 8
ENDMDL
MODEL 9
REMARK VINA RESULT:    -4.394      2.099      4.091
REMARK INTER + INTRA:          -7.794
REMARK INTER:                  -6.593
REMARK INTRA:                  -1.201
REMARK UNBOUND:                -1.346
REMARK SMILES CCCOC(=O)c1ccccc1C(=O)OCCC
REMARK SMILES IDX 7 1 8 2 9 3 10 4 11 5 12 6 5 7 6 8 4 9 3 10 2 11 1 12 13 13
REMARK SMILES IDX 14 14 15 15 16 16 17 17 18 18
REMARK H PARENT
REMARK Flexibility Score: inf
ROOT
ATOM      1  C   UNL     1       9.296  -2.253  40.630  1.00  0.00     0.074 A 
ATOM      2  C   UNL     1       8.708  -0.979  40.531  1.00  0.00     0.016 A 
ATOM      3  C   UNL     1       8.505  -0.196  41.668  1.00  0.00     0.001 A 
ATOM      4  C   UNL     1       8.885  -0.672  42.921  1.00  0.00     0.001 A 
ATOM      5  C   UNL     1       9.490  -1.923  43.040  1.00  0.00     0.016 A 
ATOM      6  C   UNL     1       9.725  -2.720  41.905  1.00  0.00     0.074 A 
ENDROOT
BRANCH   1   7
ATOM      7  C   UNL     1       9.378  -3.076  39.401  1.00  0.00     0.339 C 
ATOM      8  O   UNL     1      10.491  -3.284  38.845  1.00  0.00    -0.246 OA
BRANCH   7   9
ATOM      9  O   UNL     1       8.218  -3.670  38.893  1.00  0.00    -0.462 OA
BRANCH   9  10
ATOM     10  C   UNL     1       7.965  -3.792  37.497  1.00  0.00     0.233 C 
BRANCH  10  11
ATOM     11  C   UNL     1       7.246  -2.539  37.002  1.00  0.00     0.038 C 
ATOM     12  C   UNL     1       6.018  -2.232  37.855  1.00  0.00     0.007 C 
ENDBRANCH  10  11
ENDBRANCH   9  10
ENDBRANCH   7   9
ENDBRANCH   1   7
BRANCH   6  13
ATOM     13  C   UNL     1      10.472  -3.984  42.089  1.00  0.00     0.339 C 
ATOM     14  O   UNL     1      11.713  -4.028  41.867  1.00  0.00    -0.246 OA
BRANCH  13  15
ATOM     15  O   UNL     1       9.801  -5.115  42.570  1.00  0.00    -0.462 OA
BRANCH  15  16
ATOM     16  C   UNL     1       9.094  -6.026  41.730  1.00  0.00     0.233 C 
BRANCH  16  17
ATOM     17  C   UNL     1       7.593  -5.728  41.760  1.00  0.00     0.038 C 
ATOM     18  C   UNL     1       7.164  -5.187  43.121  1.00  0.00     0.007 C 
ENDBRANCH  16  17
ENDBRANCH  15  16
ENDBRANCH  13  15
ENDBRANCH   6  13
TORSDOF 8
ENDMDL
