MODEL 1
REMARK VINA RESULT:    -4.137      0.000      0.000
REMARK INTER + INTRA:          -5.488
REMARK INTER:                  -5.105
REMARK INTRA:                  -0.383
REMARK UNBOUND:                -0.383
REMARK SMILES C=CC(=C)CCC=C(C)C
REMARK SMILES IDX 5 1 6 2 7 3 9 4 8 5 10 6 3 7 4 8 2 9 1 10
REMARK H PARENT
REMARK Flexibility Score: inf
ROOT
ATOM      1  C   UNL     1     163.727 169.356 199.445  1.00  0.00     0.039 C 
ENDROOT
BRANCH   1   2
ATOM      2  C   UNL     1     164.883 170.092 200.132  1.00  0.00     0.032 C 
BRANCH   2   3
ATOM      3  C   UNL     1     166.104 170.141 199.246  1.00  0.00    -0.028 C 
ATOM      4  C   UNL     1     168.460 169.753 198.656  1.00  0.00     0.039 C 
ATOM      5  C   UNL     1     167.305 169.651 199.620  1.00  0.00    -0.080 C 
ATOM      6  C   UNL     1     167.512 169.010 200.971  1.00  0.00     0.039 C 
ENDBRANCH   2   3
ENDBRANCH   1   2
BRANCH   1   7
ATOM      7  C   UNL     1     163.188 168.254 200.331  1.00  0.00    -0.055 C 
ATOM      8  C   UNL     1     163.421 168.304 201.648  1.00  0.00     0.012 C 
BRANCH   7   9
ATOM      9  C   UNL     1     162.365 167.139 199.795  1.00  0.00    -0.005 C 
ATOM     10  C   UNL     1     162.487 165.869 200.184  1.00  0.00     0.009 C 
ENDBRANCH   7   9
ENDBRANCH   1   7
TORSDOF 4
ENDMDL
MODEL 2
REMARK VINA RESULT:    -4.121      1.193      2.163
REMARK INTER + INTRA:          -5.468
REMARK INTER:                  -4.754
REMARK INTRA:                  -0.714
REMARK UNBOUND:                -0.383
REMARK SMILES C=CC(=C)CCC=C(C)C
REMARK SMILES IDX 5 1 6 2 7 3 9 4 8 5 10 6 3 7 4 8 2 9 1 10
REMARK H PARENT
REMARK Flexibility Score: inf
ROOT
ATOM      1  C   UNL     1     163.526 168.538 201.993  1.00  0.00     0.039 C 
ENDROOT
BRANCH   1   2
ATOM      2  C   UNL     1     164.517 169.663 201.677  1.00  0.00     0.032 C 
BRANCH   2   3
ATOM      3  C   UNL     1     165.928 169.137 201.572  1.00  0.00    -0.028 C 
ATOM      4  C   UNL     1     168.097 168.747 200.481  1.00  0.00     0.039 C 
ATOM      5  C   UNL     1     166.702 169.316 200.480  1.00  0.00    -0.080 C 
ATOM      6  C   UNL     1     166.199 170.067 199.270  1.00  0.00     0.039 C 
ENDBRANCH   2   3
ENDBRANCH   1   2
BRANCH   1   7
ATOM      7  C   UNL     1     163.035 167.880 200.722  1.00  0.00    -0.055 C 
ATOM      8  C   UNL     1     163.233 166.568 200.549  1.00  0.00     0.012 C 
BRANCH   7   9
ATOM      9  C   UNL     1     162.295 168.632 199.675  1.00  0.00    -0.005 C 
ATOM     10  C   UNL     1     162.780 168.891 198.460  1.00  0.00     0.009 C 
ENDBRANCH   7   9
ENDBRANCH   1   7
TORSDOF 4
ENDMDL
MODEL 3
REMARK VINA RESULT:    -4.115      5.216      7.607
REMARK INTER + INTRA:          -5.460
REMARK INTER:                  -4.766
REMARK INTRA:                  -0.695
REMARK UNBOUND:                -0.383
REMARK SMILES C=CC(=C)CCC=C(C)C
REMARK SMILES IDX 5 1 6 2 7 3 9 4 8 5 10 6 3 7 4 8 2 9 1 10
REMARK H PARENT
REMARK Flexibility Score: inf
ROOT
ATOM      1  C   UNL     1     168.475 163.437 202.021  1.00  0.00     0.039 C 
ENDROOT
BRANCH   1   2
ATOM      2  C   UNL     1     167.458 162.338 201.696  1.00  0.00     0.032 C 
BRANCH   2   3
ATOM      3  C   UNL     1     166.055 162.891 201.634  1.00  0.00    -0.028 C 
ATOM      4  C   UNL     1     163.865 163.331 200.606  1.00  0.00     0.039 C 
ATOM      5  C   UNL     1     165.249 162.737 200.562  1.00  0.00    -0.080 C 
ATOM      6  C   UNL     1     165.705 161.989 199.332  1.00  0.00     0.039 C 
ENDBRANCH   2   3
ENDBRANCH   1   2
BRANCH   1   7
ATOM      7  C   UNL     1     168.961 164.113 200.757  1.00  0.00    -0.055 C 
ATOM      8  C   UNL     1     168.733 165.421 200.590  1.00  0.00     0.012 C 
BRANCH   7   9
ATOM      9  C   UNL     1     169.725 163.384 199.712  1.00  0.00    -0.005 C 
ATOM     10  C   UNL     1     169.216 163.016 198.536  1.00  0.00     0.009 C 
ENDBRANCH   7   9
ENDBRANCH   1   7
TORSDOF 4
ENDMDL
MODEL 4
REMARK VINA RESULT:    -4.110      5.044      7.743
REMARK INTER + INTRA:          -5.455
REMARK INTER:                  -5.057
REMARK INTRA:                  -0.398
REMARK UNBOUND:                -0.383
REMARK SMILES C=CC(=C)CCC=C(C)C
REMARK SMILES IDX 5 1 6 2 7 3 9 4 8 5 10 6 3 7 4 8 2 9 1 10
REMARK H PARENT
REMARK Flexibility Score: inf
ROOT
ATOM      1  C   UNL     1     168.314 162.633 199.433  1.00  0.00     0.039 C 
ENDROOT
BRANCH   1   2
ATOM      2  C   UNL     1     167.172 161.872 200.115  1.00  0.00     0.032 C 
BRANCH   2   3
ATOM      3  C   UNL     1     165.942 161.833 199.242  1.00  0.00    -0.028 C 
ATOM      4  C   UNL     1     163.581 162.232 198.680  1.00  0.00     0.039 C 
ATOM      5  C   UNL     1     164.745 162.323 199.632  1.00  0.00    -0.080 C 
ATOM      6  C   UNL     1     164.555 162.953 200.991  1.00  0.00     0.039 C 
ENDBRANCH   2   3
ENDBRANCH   1   2
BRANCH   1   7
ATOM      7  C   UNL     1     168.800 163.770 200.305  1.00  0.00    -0.055 C 
ATOM      8  C   UNL     1     168.589 163.714 201.625  1.00  0.00     0.012 C 
BRANCH   7   9
ATOM      9  C   UNL     1     169.548 164.929 199.752  1.00  0.00    -0.005 C 
ATOM     10  C   UNL     1     169.516 166.155 200.275  1.00  0.00     0.009 C 
ENDBRANCH   7   9
ENDBRANCH   1   7
TORSDOF 4
ENDMDL
MODEL 5
REMARK VINA RESULT:    -4.109      0.943      4.726
REMARK INTER + INTRA:          -5.453
REMARK INTER:                  -4.986
REMARK INTRA:                  -0.467
REMARK UNBOUND:                -0.383
REMARK SMILES C=CC(=C)CCC=C(C)C
REMARK SMILES IDX 5 1 6 2 7 3 9 4 8 5 10 6 3 7 4 8 2 9 1 10
REMARK H PARENT
REMARK Flexibility Score: inf
ROOT
ATOM      1  C   UNL     1     163.711 169.355 199.163  1.00  0.00     0.039 C 
ENDROOT
BRANCH   1   2
ATOM      2  C   UNL     1     162.610 168.741 200.035  1.00  0.00     0.032 C 
BRANCH   2   3
ATOM      3  C   UNL     1     162.310 167.322 199.619  1.00  0.00    -0.028 C 
ATOM      4  C   UNL     1     162.268 164.876 199.869  1.00  0.00     0.039 C 
ATOM      5  C   UNL     1     162.613 166.250 200.382  1.00  0.00    -0.080 C 
ATOM      6  C   UNL     1     163.285 166.402 201.726  1.00  0.00     0.039 C 
ENDBRANCH   2   3
ENDBRANCH   1   2
BRANCH   1   7
ATOM      7  C   UNL     1     164.895 169.776 200.006  1.00  0.00    -0.055 C 
ATOM      8  C   UNL     1     164.765 169.816 201.338  1.00  0.00     0.012 C 
BRANCH   7   9
ATOM      9  C   UNL     1     166.216 170.101 199.410  1.00  0.00    -0.005 C 
ATOM     10  C   UNL     1     167.366 169.551 199.802  1.00  0.00     0.009 C 
ENDBRANCH   7   9
ENDBRANCH   1   7
TORSDOF 4
ENDMDL
MODEL 6
REMARK VINA RESULT:    -4.102      5.094      6.142
REMARK INTER + INTRA:          -5.445
REMARK INTER:                  -4.984
REMARK INTRA:                  -0.461
REMARK UNBOUND:                -0.383
REMARK SMILES C=CC(=C)CCC=C(C)C
REMARK SMILES IDX 5 1 6 2 7 3 9 4 8 5 10 6 3 7 4 8 2 9 1 10
REMARK H PARENT
REMARK Flexibility Score: inf
ROOT
ATOM      1  C   UNL     1     168.298 162.620 199.131  1.00  0.00     0.039 C 
ENDROOT
BRANCH   1   2
ATOM      2  C   UNL     1     169.351 163.276 200.031  1.00  0.00     0.032 C 
BRANCH   2   3
ATOM      3  C   UNL     1     169.640 164.692 199.595  1.00  0.00    -0.028 C 
ATOM      4  C   UNL     1     169.688 167.140 199.823  1.00  0.00     0.039 C 
ATOM      5  C   UNL     1     169.357 165.770 200.357  1.00  0.00    -0.080 C 
ATOM      6  C   UNL     1     168.722 165.630 201.719  1.00  0.00     0.039 C 
ENDBRANCH   2   3
ENDBRANCH   1   2
BRANCH   1   7
ATOM      7  C   UNL     1     167.077 162.222 199.931  1.00  0.00    -0.055 C 
ATOM      8  C   UNL     1     167.145 162.225 201.267  1.00  0.00     0.012 C 
BRANCH   7   9
ATOM      9  C   UNL     1     165.786 161.873 199.284  1.00  0.00    -0.005 C 
ATOM     10  C   UNL     1     164.610 162.390 199.641  1.00  0.00     0.009 C 
ENDBRANCH   7   9
ENDBRANCH   1   7
TORSDOF 4
ENDMDL
MODEL 7
REMARK VINA RESULT:    -4.025      5.614      6.640
REMARK INTER + INTRA:          -5.349
REMARK INTER:                  -4.733
REMARK INTRA:                  -0.616
REMARK UNBOUND:                -0.383
REMARK SMILES C=CC(=C)CCC=C(C)C
REMARK SMILES IDX 5 1 6 2 7 3 9 4 8 5 10 6 3 7 4 8 2 9 1 10
REMARK H PARENT
REMARK Flexibility Score: inf
ROOT
ATOM      1  C   UNL     1     165.304 162.587 200.262  1.00  0.00     0.039 C 
ENDROOT
BRANCH   1   2
ATOM      2  C   UNL     1     166.618 161.839 200.010  1.00  0.00     0.032 C 
BRANCH   2   3
ATOM      3  C   UNL     1     167.812 162.715 200.303  1.00  0.00    -0.028 C 
ATOM      4  C   UNL     1     169.730 164.146 199.739  1.00  0.00     0.039 C 
ATOM      5  C   UNL     1     168.558 163.290 199.335  1.00  0.00    -0.080 C 
ATOM      6  C   UNL     1     168.244 163.092 197.872  1.00  0.00     0.039 C 
ENDBRANCH   2   3
ENDBRANCH   1   2
BRANCH   1   7
ATOM      7  C   UNL     1     164.414 162.539 199.040  1.00  0.00    -0.055 C 
ATOM      8  C   UNL     1     163.394 163.399 198.944  1.00  0.00     0.012 C 
BRANCH   7   9
ATOM      9  C   UNL     1     164.661 161.599 197.916  1.00  0.00    -0.005 C 
ATOM     10  C   UNL     1     164.950 161.984 196.672  1.00  0.00     0.009 C 
ENDBRANCH   7   9
ENDBRANCH   1   7
TORSDOF 4
ENDMDL
MODEL 8
REMARK VINA RESULT:    -4.020      5.591      6.320
REMARK INTER + INTRA:          -5.343
REMARK INTER:                  -5.022
REMARK INTRA:                  -0.322
REMARK UNBOUND:                -0.383
REMARK SMILES C=CC(=C)CCC=C(C)C
REMARK SMILES IDX 5 1 6 2 7 3 9 4 8 5 10 6 3 7 4 8 2 9 1 10
REMARK H PARENT
REMARK Flexibility Score: inf
ROOT
ATOM      1  C   UNL     1     165.424 161.843 198.832  1.00  0.00     0.039 C 
ENDROOT
BRANCH   1   2
ATOM      2  C   UNL     1     166.495 161.881 199.927  1.00  0.00     0.032 C 
BRANCH   2   3
ATOM      3  C   UNL     1     167.774 162.500 199.421  1.00  0.00    -0.028 C 
ATOM      4  C   UNL     1     169.865 163.783 199.600  1.00  0.00     0.039 C 
ATOM      5  C   UNL     1     168.613 163.207 200.209  1.00  0.00    -0.080 C 
ATOM      6  C   UNL     1     168.322 163.430 201.674  1.00  0.00     0.039 C 
ENDBRANCH   2   3
ENDBRANCH   1   2
BRANCH   1   7
ATOM      7  C   UNL     1     164.156 162.528 199.295  1.00  0.00    -0.055 C 
ATOM      8  C   UNL     1     164.053 162.914 200.572  1.00  0.00     0.012 C 
BRANCH   7   9
ATOM      9  C   UNL     1     163.036 162.830 198.367  1.00  0.00    -0.005 C 
ATOM     10  C   UNL     1     162.598 164.062 198.102  1.00  0.00     0.009 C 
ENDBRANCH   7   9
ENDBRANCH   1   7
TORSDOF 4
ENDMDL
MODEL 9
REMARK VINA RESULT:    -4.002      0.961      4.919
REMARK INTER + INTRA:          -5.321
REMARK INTER:                  -4.982
REMARK INTRA:                  -0.339
REMARK UNBOUND:                -0.383
REMARK SMILES C=CC(=C)CCC=C(C)C
REMARK SMILES IDX 5 1 6 2 7 3 9 4 8 5 10 6 3 7 4 8 2 9 1 10
REMARK H PARENT
REMARK Flexibility Score: inf
ROOT
ATOM      1  C   UNL     1     166.561 170.161 198.793  1.00  0.00     0.039 C 
ENDROOT
BRANCH   1   2
ATOM      2  C   UNL     1     165.475 170.154 199.874  1.00  0.00     0.032 C 
BRANCH   2   3
ATOM      3  C   UNL     1     164.224 169.464 199.390  1.00  0.00    -0.028 C 
ATOM      4  C   UNL     1     162.192 168.096 199.611  1.00  0.00     0.039 C 
ATOM      5  C   UNL     1     163.418 168.744 200.200  1.00  0.00    -0.080 C 
ATOM      6  C   UNL     1     163.722 168.576 201.670  1.00  0.00     0.039 C 
ENDBRANCH   2   3
ENDBRANCH   1   2
BRANCH   1   7
ATOM      7  C   UNL     1     167.826 169.500 199.294  1.00  0.00    -0.055 C 
ATOM      8  C   UNL     1     167.882 169.078 200.562  1.00  0.00     0.012 C 
BRANCH   7   9
ATOM      9  C   UNL     1     168.997 169.260 198.411  1.00  0.00    -0.005 C 
ATOM     10  C   UNL     1     169.491 168.051 198.141  1.00  0.00     0.009 C 
ENDBRANCH   7   9
ENDBRANCH   1   7
TORSDOF 4
ENDMDL
