MODEL 1
REMARK VINA RESULT:    -2.907      0.000      0.000
REMARK INTER + INTRA:          -2.907
REMARK INTER:                  -2.907
REMARK INTRA:                   0.000
REMARK UNBOUND:                 0.000
REMARK SMILES CC1=CC(=O)[C@H]2C[C@@H]1C2(C)C
REMARK SMILES IDX 1 1 2 2 3 3 4 4 5 5 6 6 7 7 8 8 9 9 10 10 11 11
REMARK H PARENT
REMARK Flexibility Score: inf
ROOT
ATOM      1  C   UNL     1     155.303 153.357 152.552  1.00  0.00     0.040 C 
ATOM      2  C   UNL     1     154.834 153.117 151.152  1.00  0.00    -0.066 C 
ATOM      3  C   UNL     1     155.687 152.682 150.184  1.00  0.00     0.047 C 
ATOM      4  C   UNL     1     155.102 152.508 148.815  1.00  0.00     0.159 C 
ATOM      5  O   UNL     1     155.796 152.150 147.828  1.00  0.00    -0.295 OA
ATOM      6  C   UNL     1     153.605 152.799 148.700  1.00  0.00     0.067 C 
ATOM      7  C   UNL     1     152.987 152.077 149.918  1.00  0.00     0.021 C 
ATOM      8  C   UNL     1     153.361 153.330 150.741  1.00  0.00     0.022 C 
ATOM      9  C   UNL     1     153.307 154.147 149.416  1.00  0.00    -0.019 C 
ATOM     10  C   UNL     1     154.313 155.319 149.234  1.00  0.00     0.012 C 
ATOM     11  C   UNL     1     151.883 154.675 149.108  1.00  0.00     0.012 C 
ENDROOT
TORSDOF 0
ENDMDL
MODEL 2
REMARK VINA RESULT:    -2.902     22.068     23.569
REMARK INTER + INTRA:          -2.902
REMARK INTER:                  -2.902
REMARK INTRA:                   0.000
REMARK UNBOUND:                 0.000
REMARK SMILES CC1=CC(=O)[C@H]2C[C@@H]1C2(C)C
REMARK SMILES IDX 1 1 2 2 3 3 4 4 5 5 6 6 7 7 8 8 9 9 10 10 11 11
REMARK H PARENT
REMARK Flexibility Score: inf
ROOT
ATOM      1  C   UNL     1     168.829 170.579 152.751  1.00  0.00     0.040 C 
ATOM      2  C   UNL     1     169.229 170.838 151.333  1.00  0.00    -0.066 C 
ATOM      3  C   UNL     1     168.332 171.302 150.419  1.00  0.00     0.047 C 
ATOM      4  C   UNL     1     168.847 171.494 149.024  1.00  0.00     0.159 C 
ATOM      5  O   UNL     1     168.108 171.878 148.082  1.00  0.00    -0.295 OA
ATOM      6  C   UNL     1     170.332 171.186 148.827  1.00  0.00     0.067 C 
ATOM      7  C   UNL     1     171.023 171.877 150.023  1.00  0.00     0.021 C 
ATOM      8  C   UNL     1     170.674 170.614 150.842  1.00  0.00     0.022 C 
ATOM      9  C   UNL     1     170.649 169.821 149.502  1.00  0.00    -0.019 C 
ATOM     10  C   UNL     1     169.619 168.666 149.352  1.00  0.00     0.012 C 
ATOM     11  C   UNL     1     172.047 169.280 149.111  1.00  0.00     0.012 C 
ENDROOT
TORSDOF 0
ENDMDL
MODEL 3
REMARK VINA RESULT:    -2.837     21.926     23.477
REMARK INTER + INTRA:          -2.837
REMARK INTER:                  -2.837
REMARK INTRA:                   0.000
REMARK UNBOUND:                 0.000
REMARK SMILES CC1=CC(=O)[C@H]2C[C@@H]1C2(C)C
REMARK SMILES IDX 1 1 2 2 3 3 4 4 5 5 6 6 7 7 8 8 9 9 10 10 11 11
REMARK H PARENT
REMARK Flexibility Score: inf
ROOT
ATOM      1  C   UNL     1     167.317 171.887 150.290  1.00  0.00     0.040 C 
ATOM      2  C   UNL     1     168.589 171.370 149.696  1.00  0.00    -0.066 C 
ATOM      3  C   UNL     1     168.725 171.199 148.352  1.00  0.00     0.047 C 
ATOM      4  C   UNL     1     170.037 170.646 147.883  1.00  0.00     0.159 C 
ATOM      5  O   UNL     1     170.269 170.405 146.671  1.00  0.00    -0.295 OA
ATOM      6  C   UNL     1     171.070 170.393 148.981  1.00  0.00     0.067 C 
ATOM      7  C   UNL     1     171.019 171.669 149.849  1.00  0.00     0.021 C 
ATOM      8  C   UNL     1     169.813 171.026 150.571  1.00  0.00     0.022 C 
ATOM      9  C   UNL     1     170.376 169.636 150.150  1.00  0.00    -0.019 C 
ATOM     10  C   UNL     1     169.363 168.509 149.801  1.00  0.00     0.012 C 
ATOM     11  C   UNL     1     171.393 169.076 151.176  1.00  0.00     0.012 C 
ENDROOT
TORSDOF 0
ENDMDL
MODEL 4
REMARK VINA RESULT:    -2.835      1.360      1.787
REMARK INTER + INTRA:          -2.835
REMARK INTER:                  -2.835
REMARK INTRA:                   0.000
REMARK UNBOUND:                 0.000
REMARK SMILES CC1=CC(=O)[C@H]2C[C@@H]1C2(C)C
REMARK SMILES IDX 1 1 2 2 3 3 4 4 5 5 6 6 7 7 8 8 9 9 10 10 11 11
REMARK H PARENT
REMARK Flexibility Score: inf
ROOT
ATOM      1  C   UNL     1     156.649 152.056 150.224  1.00  0.00     0.040 C 
ATOM      2  C   UNL     1     155.378 152.606 149.660  1.00  0.00    -0.066 C 
ATOM      3  C   UNL     1     155.227 152.811 148.322  1.00  0.00     0.047 C 
ATOM      4  C   UNL     1     153.918 153.395 147.884  1.00  0.00     0.159 C 
ATOM      5  O   UNL     1     153.673 153.668 146.681  1.00  0.00    -0.295 OA
ATOM      6  C   UNL     1     152.903 153.638 149.002  1.00  0.00     0.067 C 
ATOM      7  C   UNL     1     152.947 152.341 149.839  1.00  0.00     0.021 C 
ATOM      8  C   UNL     1     154.171 152.948 150.559  1.00  0.00     0.022 C 
ATOM      9  C   UNL     1     153.625 154.356 150.178  1.00  0.00    -0.019 C 
ATOM     10  C   UNL     1     154.650 155.475 149.843  1.00  0.00     0.012 C 
ATOM     11  C   UNL     1     152.631 154.907 151.231  1.00  0.00     0.012 C 
ENDROOT
TORSDOF 0
ENDMDL
MODEL 5
REMARK VINA RESULT:    -2.773      1.608      2.619
REMARK INTER + INTRA:          -2.773
REMARK INTER:                  -2.773
REMARK INTRA:                   0.000
REMARK UNBOUND:                 0.000
REMARK SMILES CC1=CC(=O)[C@H]2C[C@@H]1C2(C)C
REMARK SMILES IDX 1 1 2 2 3 3 4 4 5 5 6 6 7 7 8 8 9 9 10 10 11 11
REMARK H PARENT
REMARK Flexibility Score: inf
ROOT
ATOM      1  C   UNL     1     151.894 155.658 150.631  1.00  0.00     0.040 C 
ATOM      2  C   UNL     1     152.870 154.545 150.412  1.00  0.00    -0.066 C 
ATOM      3  C   UNL     1     153.864 154.288 151.307  1.00  0.00     0.047 C 
ATOM      4  C   UNL     1     154.795 153.166 150.959  1.00  0.00     0.159 C 
ATOM      5  O   UNL     1     155.776 152.858 151.684  1.00  0.00    -0.295 OA
ATOM      6  C   UNL     1     154.472 152.426 149.660  1.00  0.00     0.067 C 
ATOM      7  C   UNL     1     152.947 152.191 149.730  1.00  0.00     0.021 C 
ATOM      8  C   UNL     1     152.788 153.624 149.176  1.00  0.00     0.022 C 
ATOM      9  C   UNL     1     154.204 153.477 148.545  1.00  0.00    -0.019 C 
ATOM     10  C   UNL     1     155.114 154.736 148.482  1.00  0.00     0.012 C 
ATOM     11  C   UNL     1     154.157 152.839 147.134  1.00  0.00     0.012 C 
ENDROOT
TORSDOF 0
ENDMDL
MODEL 6
REMARK VINA RESULT:    -2.768     22.070     23.530
REMARK INTER + INTRA:          -2.768
REMARK INTER:                  -2.768
REMARK INTRA:                   0.000
REMARK UNBOUND:                 0.000
REMARK SMILES CC1=CC(=O)[C@H]2C[C@@H]1C2(C)C
REMARK SMILES IDX 1 1 2 2 3 3 4 4 5 5 6 6 7 7 8 8 9 9 10 10 11 11
REMARK H PARENT
REMARK Flexibility Score: inf
ROOT
ATOM      1  C   UNL     1     171.962 168.422 150.598  1.00  0.00     0.040 C 
ATOM      2  C   UNL     1     171.004 169.543 150.347  1.00  0.00    -0.066 C 
ATOM      3  C   UNL     1     170.004 169.830 151.226  1.00  0.00     0.047 C 
ATOM      4  C   UNL     1     169.091 170.957 150.846  1.00  0.00     0.159 C 
ATOM      5  O   UNL     1     168.107 171.292 151.555  1.00  0.00    -0.295 OA
ATOM      6  C   UNL     1     169.438 171.668 149.537  1.00  0.00     0.067 C 
ATOM      7  C   UNL     1     170.965 171.884 149.619  1.00  0.00     0.021 C 
ATOM      8  C   UNL     1     171.111 170.438 149.095  1.00  0.00     0.022 C 
ATOM      9  C   UNL     1     169.704 170.592 148.446  1.00  0.00    -0.019 C 
ATOM     10  C   UNL     1     168.778 169.344 148.397  1.00  0.00     0.012 C 
ATOM     11  C   UNL     1     169.774 171.201 147.023  1.00  0.00     0.012 C 
ENDROOT
TORSDOF 0
ENDMDL
MODEL 7
REMARK VINA RESULT:    -2.669     21.920     23.534
REMARK INTER + INTRA:          -2.669
REMARK INTER:                  -2.669
REMARK INTRA:                   0.000
REMARK UNBOUND:                 0.000
REMARK SMILES CC1=CC(=O)[C@H]2C[C@@H]1C2(C)C
REMARK SMILES IDX 1 1 2 2 3 3 4 4 5 5 6 6 7 7 8 8 9 9 10 10 11 11
REMARK H PARENT
REMARK Flexibility Score: inf
ROOT
ATOM      1  C   UNL     1     169.172 171.942 146.162  1.00  0.00     0.040 C 
ATOM      2  C   UNL     1     168.981 171.470 147.568  1.00  0.00    -0.066 C 
ATOM      3  C   UNL     1     168.153 172.125 148.429  1.00  0.00     0.047 C 
ATOM      4  C   UNL     1     168.070 171.571 149.819  1.00  0.00     0.159 C 
ATOM      5  O   UNL     1     167.372 172.110 150.716  1.00  0.00    -0.295 OA
ATOM      6  C   UNL     1     168.895 170.308 150.071  1.00  0.00     0.067 C 
ATOM      7  C   UNL     1     168.598 169.414 148.848  1.00  0.00     0.021 C 
ATOM      8  C   UNL     1     169.693 170.211 148.106  1.00  0.00     0.022 C 
ATOM      9  C   UNL     1     170.323 170.527 149.495  1.00  0.00    -0.019 C 
ATOM     10  C   UNL     1     170.997 171.913 149.698  1.00  0.00     0.012 C 
ATOM     11  C   UNL     1     171.318 169.430 149.954  1.00  0.00     0.012 C 
ENDROOT
TORSDOF 0
ENDMDL
MODEL 8
REMARK VINA RESULT:    -2.623      1.566      2.624
REMARK INTER + INTRA:          -2.623
REMARK INTER:                  -2.623
REMARK INTRA:                   0.000
REMARK UNBOUND:                 0.000
REMARK SMILES CC1=CC(=O)[C@H]2C[C@@H]1C2(C)C
REMARK SMILES IDX 1 1 2 2 3 3 4 4 5 5 6 6 7 7 8 8 9 9 10 10 11 11
REMARK H PARENT
REMARK Flexibility Score: inf
ROOT
ATOM      1  C   UNL     1     156.634 155.349 148.558  1.00  0.00     0.040 C 
ATOM      2  C   UNL     1     155.784 154.129 148.397  1.00  0.00    -0.066 C 
ATOM      3  C   UNL     1     155.487 153.630 147.165  1.00  0.00     0.047 C 
ATOM      4  C   UNL     1     154.602 152.421 147.135  1.00  0.00     0.159 C 
ATOM      5  O   UNL     1     154.224 151.891 146.059  1.00  0.00    -0.295 OA
ATOM      6  C   UNL     1     154.188 151.879 148.504  1.00  0.00     0.067 C 
ATOM      7  C   UNL     1     155.498 151.875 149.320  1.00  0.00     0.021 C 
ATOM      8  C   UNL     1     155.219 153.366 149.614  1.00  0.00     0.022 C 
ATOM      9  C   UNL     1     153.708 153.069 149.383  1.00  0.00    -0.019 C 
ATOM     10  C   UNL     1     152.836 154.173 148.721  1.00  0.00     0.012 C 
ATOM     11  C   UNL     1     152.996 152.597 150.676  1.00  0.00     0.012 C 
ENDROOT
TORSDOF 0
ENDMDL
