MODEL 1
REMARK VINA RESULT:    -3.726      0.000      0.000
REMARK INTER + INTRA:          -5.455
REMARK INTER:                  -5.033
REMARK INTRA:                  -0.422
REMARK UNBOUND:                -0.422
REMARK SMILES CCCCCCC=CC(=O)[O-]
REMARK SMILES IDX 5 1 6 2 7 3 8 4 9 5 10 6 11 7 4 8 3 9 2 10 1 11
REMARK H PARENT
REMARK Flexibility Score: inf
ROOT
ATOM      1  C   UNL     1      32.681 167.494 156.371  1.00  0.00     0.004 C 
ENDROOT
BRANCH   1   2
ATOM      2  C   UNL     1      31.912 166.945 155.160  1.00  0.00     0.027 C 
BRANCH   2   3
ATOM      3  C   UNL     1      30.653 167.726 154.916  1.00  0.00    -0.025 C 
ATOM      4  C   UNL     1      30.506 168.972 155.379  1.00  0.00     0.020 C 
BRANCH   4   5
ATOM      5  C   UNL     1      29.277 169.753 155.168  1.00  0.00     0.064 C 
ATOM      6  O   UNL     1      29.326 170.978 154.875  1.00  0.00    -0.545 OA
ATOM      7  O   UNL     1      28.042 169.130 155.294  1.00  0.00    -0.545 OA
ENDBRANCH   4   5
ENDBRANCH   2   3
ENDBRANCH   1   2
BRANCH   1   8
ATOM      8  C   UNL     1      33.464 166.392 157.116  1.00  0.00     0.000 C 
BRANCH   8   9
ATOM      9  C   UNL     1      32.849 166.008 158.475  1.00  0.00    -0.000 C 
BRANCH   9  10
ATOM     10  C   UNL     1      31.678 166.898 158.925  1.00  0.00    -0.003 C 
ATOM     11  C   UNL     1      30.949 166.346 160.149  1.00  0.00     0.004 C 
ENDBRANCH   9  10
ENDBRANCH   8   9
ENDBRANCH   1   8
TORSDOF 6
ENDMDL
MODEL 2
REMARK VINA RESULT:    -3.636      3.498      5.390
REMARK INTER + INTRA:          -5.334
REMARK INTER:                  -4.814
REMARK INTRA:                  -0.520
REMARK UNBOUND:                -0.422
REMARK SMILES CCCCCCC=CC(=O)[O-]
REMARK SMILES IDX 5 1 6 2 7 3 8 4 9 5 10 6 11 7 4 8 3 9 2 10 1 11
REMARK H PARENT
REMARK Flexibility Score: inf
ROOT
ATOM      1  C   UNL     1      33.746 166.077 157.973  1.00  0.00     0.004 C 
ENDROOT
BRANCH   1   2
ATOM      2  C   UNL     1      32.514 165.171 158.125  1.00  0.00     0.027 C 
BRANCH   2   3
ATOM      3  C   UNL     1      32.005 165.180 159.537  1.00  0.00    -0.025 C 
ATOM      4  C   UNL     1      31.342 166.231 160.032  1.00  0.00     0.020 C 
BRANCH   4   5
ATOM      5  C   UNL     1      30.846 166.271 161.417  1.00  0.00     0.064 C 
ATOM      6  O   UNL     1      29.695 166.711 161.683  1.00  0.00    -0.545 OA
ATOM      7  O   UNL     1      31.659 165.818 162.447  1.00  0.00    -0.545 OA
ENDBRANCH   4   5
ENDBRANCH   2   3
ENDBRANCH   1   2
BRANCH   1   8
ATOM      8  C   UNL     1      33.613 167.052 156.784  1.00  0.00     0.000 C 
BRANCH   8   9
ATOM      9  C   UNL     1      32.174 167.550 156.552  1.00  0.00    -0.000 C 
BRANCH   9  10
ATOM     10  C   UNL     1      31.656 167.373 155.115  1.00  0.00    -0.003 C 
ATOM     11  C   UNL     1      30.604 166.271 154.996  1.00  0.00     0.004 C 
ENDBRANCH   9  10
ENDBRANCH   8   9
ENDBRANCH   1   8
TORSDOF 6
ENDMDL
MODEL 3
REMARK VINA RESULT:    -3.613      2.920      5.010
REMARK INTER + INTRA:          -5.302
REMARK INTER:                  -4.856
REMARK INTRA:                  -0.447
REMARK UNBOUND:                -0.422
REMARK SMILES CCCCCCC=CC(=O)[O-]
REMARK SMILES IDX 5 1 6 2 7 3 8 4 9 5 10 6 11 7 4 8 3 9 2 10 1 11
REMARK H PARENT
REMARK Flexibility Score: inf
ROOT
ATOM      1  C   UNL     1      32.669 167.495 156.417  1.00  0.00     0.004 C 
ENDROOT
BRANCH   1   2
ATOM      2  C   UNL     1      33.528 166.525 157.243  1.00  0.00     0.027 C 
BRANCH   2   3
ATOM      3  C   UNL     1      32.764 165.990 158.418  1.00  0.00    -0.025 C 
ATOM      4  C   UNL     1      31.772 166.688 158.981  1.00  0.00     0.020 C 
BRANCH   4   5
ATOM      5  C   UNL     1      31.018 166.193 160.143  1.00  0.00     0.064 C 
ATOM      6  O   UNL     1      31.609 165.838 161.199  1.00  0.00    -0.545 OA
ATOM      7  O   UNL     1      29.633 166.114 160.077  1.00  0.00    -0.545 OA
ENDBRANCH   4   5
ENDBRANCH   2   3
ENDBRANCH   1   2
BRANCH   1   8
ATOM      8  C   UNL     1      31.933 166.785 155.260  1.00  0.00     0.000 C 
BRANCH   8   9
ATOM      9  C   UNL     1      30.599 167.452 154.875  1.00  0.00    -0.000 C 
BRANCH   9  10
ATOM     10  C   UNL     1      30.218 168.669 155.734  1.00  0.00    -0.003 C 
ATOM     11  C   UNL     1      29.759 169.864 154.899  1.00  0.00     0.004 C 
ENDBRANCH   9  10
ENDBRANCH   8   9
ENDBRANCH   1   8
TORSDOF 6
ENDMDL
MODEL 4
REMARK VINA RESULT:    -3.612      1.676      2.451
REMARK INTER + INTRA:          -5.301
REMARK INTER:                  -5.113
REMARK INTRA:                  -0.188
REMARK UNBOUND:                -0.422
REMARK SMILES CCCCCCC=CC(=O)[O-]
REMARK SMILES IDX 5 1 6 2 7 3 8 4 9 5 10 6 11 7 4 8 3 9 2 10 1 11
REMARK H PARENT
REMARK Flexibility Score: inf
ROOT
ATOM      1  C   UNL     1      30.900 167.444 154.945  1.00  0.00     0.004 C 
ENDROOT
BRANCH   1   2
ATOM      2  C   UNL     1      30.487 168.912 155.128  1.00  0.00     0.027 C 
BRANCH   2   3
ATOM      3  C   UNL     1      28.995 169.048 155.228  1.00  0.00    -0.025 C 
ATOM      4  C   UNL     1      28.373 170.178 154.875  1.00  0.00     0.020 C 
BRANCH   4   5
ATOM      5  C   UNL     1      26.915 170.342 154.979  1.00  0.00     0.064 C 
ATOM      6  O   UNL     1      26.395 171.484 155.100  1.00  0.00    -0.545 OA
ATOM      7  O   UNL     1      26.096 169.220 154.943  1.00  0.00    -0.545 OA
ENDBRANCH   4   5
ENDBRANCH   2   3
ENDBRANCH   1   2
BRANCH   1   8
ATOM      8  C   UNL     1      32.248 167.126 155.628  1.00  0.00     0.000 C 
BRANCH   8   9
ATOM      9  C   UNL     1      32.154 167.024 157.161  1.00  0.00    -0.000 C 
BRANCH   9  10
ATOM     10  C   UNL     1      33.480 166.689 157.865  1.00  0.00    -0.003 C 
ATOM     11  C   UNL     1      33.704 165.186 158.024  1.00  0.00     0.004 C 
ENDBRANCH   9  10
ENDBRANCH   8   9
ENDBRANCH   1   8
TORSDOF 6
ENDMDL
MODEL 5
REMARK VINA RESULT:    -3.429      2.885      4.771
REMARK INTER + INTRA:          -5.053
REMARK INTER:                  -4.650
REMARK INTRA:                  -0.403
REMARK UNBOUND:                -0.422
REMARK SMILES CCCCCCC=CC(=O)[O-]
REMARK SMILES IDX 5 1 6 2 7 3 8 4 9 5 10 6 11 7 4 8 3 9 2 10 1 11
REMARK H PARENT
REMARK Flexibility Score: inf
ROOT
ATOM      1  C   UNL     1      32.203 165.479 158.474  1.00  0.00     0.004 C 
ENDROOT
BRANCH   1   2
ATOM      2  C   UNL     1      31.846 165.909 159.906  1.00  0.00     0.027 C 
BRANCH   2   3
ATOM      3  C   UNL     1      30.769 166.954 159.907  1.00  0.00    -0.025 C 
ATOM      4  C   UNL     1      29.949 167.108 160.952  1.00  0.00     0.020 C 
BRANCH   4   5
ATOM      5  C   UNL     1      28.875 168.114 160.971  1.00  0.00     0.064 C 
ATOM      6  O   UNL     1      27.838 167.973 160.268  1.00  0.00    -0.545 OA
ATOM      7  O   UNL     1      29.005 169.238 161.777  1.00  0.00    -0.545 OA
ENDBRANCH   4   5
ENDBRANCH   2   3
ENDBRANCH   1   2
BRANCH   1   8
ATOM      8  C   UNL     1      33.606 165.965 158.050  1.00  0.00     0.000 C 
BRANCH   8   9
ATOM      9  C   UNL     1      33.583 167.000 156.911  1.00  0.00    -0.000 C 
BRANCH   9  10
ATOM     10  C   UNL     1      32.178 167.471 156.498  1.00  0.00    -0.003 C 
ATOM     11  C   UNL     1      31.767 166.970 155.115  1.00  0.00     0.004 C 
ENDBRANCH   9  10
ENDBRANCH   8   9
ENDBRANCH   1   8
TORSDOF 6
ENDMDL
MODEL 6
REMARK VINA RESULT:    -3.385      4.455      6.616
REMARK INTER + INTRA:          -4.994
REMARK INTER:                  -4.761
REMARK INTRA:                  -0.233
REMARK UNBOUND:                -0.422
REMARK SMILES CCCCCCC=CC(=O)[O-]
REMARK SMILES IDX 5 1 6 2 7 3 8 4 9 5 10 6 11 7 4 8 3 9 2 10 1 11
REMARK H PARENT
REMARK Flexibility Score: inf
ROOT
ATOM      1  C   UNL     1      32.062 166.363 158.873  1.00  0.00     0.004 C 
ENDROOT
BRANCH   1   2
ATOM      2  C   UNL     1      31.819 165.330 159.984  1.00  0.00     0.027 C 
BRANCH   2   3
ATOM      3  C   UNL     1      31.296 165.985 161.229  1.00  0.00    -0.025 C 
ATOM      4  C   UNL     1      31.590 165.507 162.443  1.00  0.00     0.020 C 
BRANCH   4   5
ATOM      5  C   UNL     1      31.076 166.121 163.679  1.00  0.00     0.064 C 
ATOM      6  O   UNL     1      29.848 166.368 163.821  1.00  0.00    -0.545 OA
ATOM      7  O   UNL     1      31.959 166.435 164.704  1.00  0.00    -0.545 OA
ENDBRANCH   4   5
ENDBRANCH   2   3
ENDBRANCH   1   2
BRANCH   1   8
ATOM      8  C   UNL     1      33.440 166.186 158.200  1.00  0.00     0.000 C 
BRANCH   8   9
ATOM      9  C   UNL     1      33.548 166.870 156.824  1.00  0.00    -0.000 C 
BRANCH   9  10
ATOM     10  C   UNL     1      32.279 167.612 156.374  1.00  0.00    -0.003 C 
ATOM     11  C   UNL     1      31.720 167.085 155.053  1.00  0.00     0.004 C 
ENDBRANCH   9  10
ENDBRANCH   8   9
ENDBRANCH   1   8
TORSDOF 6
ENDMDL
MODEL 7
REMARK VINA RESULT:    -3.300      3.491      4.620
REMARK INTER + INTRA:          -4.879
REMARK INTER:                  -4.142
REMARK INTRA:                  -0.736
REMARK UNBOUND:                -0.422
REMARK SMILES CCCCCCC=CC(=O)[O-]
REMARK SMILES IDX 5 1 6 2 7 3 8 4 9 5 10 6 11 7 4 8 3 9 2 10 1 11
REMARK H PARENT
REMARK Flexibility Score: inf
ROOT
ATOM      1  C   UNL     1      30.865 167.647 156.685  1.00  0.00     0.004 C 
ENDROOT
BRANCH   1   2
ATOM      2  C   UNL     1      29.596 166.918 157.152  1.00  0.00     0.027 C 
BRANCH   2   3
ATOM      3  C   UNL     1      29.717 166.478 158.582  1.00  0.00    -0.025 C 
ATOM      4  C   UNL     1      30.484 167.144 159.453  1.00  0.00     0.020 C 
BRANCH   4   5
ATOM      5  C   UNL     1      30.632 166.725 160.855  1.00  0.00     0.064 C 
ATOM      6  O   UNL     1      31.598 166.002 161.220  1.00  0.00    -0.545 OA
ATOM      7  O   UNL     1      29.692 167.131 161.793  1.00  0.00    -0.545 OA
ENDBRANCH   4   5
ENDBRANCH   2   3
ENDBRANCH   1   2
BRANCH   1   8
ATOM      8  C   UNL     1      31.970 166.668 156.235  1.00  0.00     0.000 C 
BRANCH   8   9
ATOM      9  C   UNL     1      33.367 167.019 156.781  1.00  0.00    -0.000 C 
BRANCH   9  10
ATOM     10  C   UNL     1      33.790 166.220 158.024  1.00  0.00    -0.003 C 
ATOM     11  C   UNL     1      33.073 164.875 158.138  1.00  0.00     0.004 C 
ENDBRANCH   9  10
ENDBRANCH   8   9
ENDBRANCH   1   8
TORSDOF 6
ENDMDL
MODEL 8
REMARK VINA RESULT:    -3.274      2.010      3.902
REMARK INTER + INTRA:          -4.845
REMARK INTER:                  -4.133
REMARK INTRA:                  -0.712
REMARK UNBOUND:                -0.422
REMARK SMILES CCCCCCC=CC(=O)[O-]
REMARK SMILES IDX 5 1 6 2 7 3 8 4 9 5 10 6 11 7 4 8 3 9 2 10 1 11
REMARK H PARENT
REMARK Flexibility Score: inf
ROOT
ATOM      1  C   UNL     1      32.494 165.532 158.147  1.00  0.00     0.004 C 
ENDROOT
BRANCH   1   2
ATOM      2  C   UNL     1      31.937 165.942 159.519  1.00  0.00     0.027 C 
BRANCH   2   3
ATOM      3  C   UNL     1      30.786 166.894 159.375  1.00  0.00    -0.025 C 
ATOM      4  C   UNL     1      29.618 166.502 158.853  1.00  0.00     0.020 C 
BRANCH   4   5
ATOM      5  C   UNL     1      28.480 167.419 158.687  1.00  0.00     0.064 C 
ATOM      6  O   UNL     1      27.843 167.854 159.684  1.00  0.00    -0.545 OA
ATOM      7  O   UNL     1      28.100 167.812 157.410  1.00  0.00    -0.545 OA
ENDBRANCH   4   5
ENDBRANCH   2   3
ENDBRANCH   1   2
BRANCH   1   8
ATOM      8  C   UNL     1      33.634 166.462 157.677  1.00  0.00     0.000 C 
BRANCH   8   9
ATOM      9  C   UNL     1      33.281 167.290 156.428  1.00  0.00    -0.000 C 
BRANCH   9  10
ATOM     10  C   UNL     1      31.966 166.887 155.740  1.00  0.00    -0.003 C 
ATOM     11  C   UNL     1      31.030 168.073 155.507  1.00  0.00     0.004 C 
ENDBRANCH   9  10
ENDBRANCH   8   9
ENDBRANCH   1   8
TORSDOF 6
ENDMDL
MODEL 9
REMARK VINA RESULT:    -3.264     22.565     23.942
REMARK INTER + INTRA:          -4.831
REMARK INTER:                  -4.109
REMARK INTRA:                  -0.722
REMARK UNBOUND:                -0.422
REMARK SMILES CCCCCCC=CC(=O)[O-]
REMARK SMILES IDX 5 1 6 2 7 3 8 4 9 5 10 6 11 7 4 8 3 9 2 10 1 11
REMARK H PARENT
REMARK Flexibility Score: inf
ROOT
ATOM      1  C   UNL     1      38.984 183.651 174.658  1.00  0.00     0.004 C 
ENDROOT
BRANCH   1   2
ATOM      2  C   UNL     1      40.289 183.237 173.961  1.00  0.00     0.027 C 
BRANCH   2   3
ATOM      3  C   UNL     1      40.643 181.812 174.273  1.00  0.00    -0.025 C 
ATOM      4  C   UNL     1      40.909 180.932 173.302  1.00  0.00     0.020 C 
BRANCH   4   5
ATOM      5  C   UNL     1      41.243 179.526 173.580  1.00  0.00     0.064 C 
ATOM      6  O   UNL     1      40.343 178.647 173.657  1.00  0.00    -0.545 OA
ATOM      7  O   UNL     1      42.571 179.162 173.762  1.00  0.00    -0.545 OA
ENDBRANCH   4   5
ENDBRANCH   2   3
ENDBRANCH   1   2
BRANCH   1   8
ATOM      8  C   UNL     1      38.128 182.433 175.068  1.00  0.00     0.000 C 
BRANCH   8   9
ATOM      9  C   UNL     1      36.906 182.203 174.160  1.00  0.00    -0.000 C 
BRANCH   9  10
ATOM     10  C   UNL     1      37.096 181.115 173.091  1.00  0.00    -0.003 C 
ATOM     11  C   UNL     1      37.595 181.672 171.759  1.00  0.00     0.004 C 
ENDBRANCH   9  10
ENDBRANCH   8   9
ENDBRANCH   1   8
TORSDOF 6
ENDMDL
