MODEL 1
REMARK VINA RESULT:    -3.754      0.000      0.000
REMARK INTER + INTRA:          -6.106
REMARK INTER:                  -5.729
REMARK INTRA:                  -0.377
REMARK UNBOUND:                -0.377
REMARK SMILES CCCCCCCCCCC(=O)[O-]
REMARK SMILES IDX 7 1 8 2 9 3 10 4 11 5 12 6 13 7 6 8 5 9 4 10 3 11 2 12 1 13
REMARK H PARENT
REMARK Flexibility Score: inf
ROOT
ATOM      1  C   UNL     1      36.638  73.139  74.043  1.00  0.00     0.000 C 
ENDROOT
BRANCH   1   2
ATOM      2  C   UNL     1      37.019  73.305  72.567  1.00  0.00     0.000 C 
BRANCH   2   3
ATOM      3  C   UNL     1      38.334  74.087  72.424  1.00  0.00     0.006 C 
BRANCH   3   4
ATOM      4  C   UNL     1      38.966  74.414  73.783  1.00  0.00     0.053 C 
BRANCH   4   5
ATOM      5  C   UNL     1      40.211  75.233  73.634  1.00  0.00     0.041 C 
ATOM      6  O   UNL     1      41.056  75.276  74.566  1.00  0.00    -0.550 OA
ATOM      7  O   UNL     1      40.454  75.922  72.452  1.00  0.00    -0.550 OA
ENDBRANCH   4   5
ENDBRANCH   3   4
ENDBRANCH   2   3
ENDBRANCH   1   2
BRANCH   1   8
ATOM      8  C   UNL     1      36.661  71.658  74.453  1.00  0.00     0.000 C 
BRANCH   8   9
ATOM      9  C   UNL     1      36.688  71.470  75.978  1.00  0.00    -0.000 C 
BRANCH   9  10
ATOM     10  C   UNL     1      37.224  70.087  76.393  1.00  0.00    -0.000 C 
BRANCH  10  11
ATOM     11  C   UNL     1      36.492  68.939  75.666  1.00  0.00    -0.000 C 
BRANCH  11  12
ATOM     12  C   UNL     1      37.230  67.592  75.744  1.00  0.00    -0.003 C 
ATOM     13  C   UNL     1      36.878  66.648  74.596  1.00  0.00     0.004 C 
ENDBRANCH  11  12
ENDBRANCH  10  11
ENDBRANCH   9  10
ENDBRANCH   8   9
ENDBRANCH   1   8
TORSDOF 9
ENDMDL
MODEL 2
REMARK VINA RESULT:    -3.545     17.617     19.896
REMARK INTER + INTRA:          -5.788
REMARK INTER:                  -5.261
REMARK INTRA:                  -0.527
REMARK UNBOUND:                -0.377
REMARK SMILES CCCCCCCCCCC(=O)[O-]
REMARK SMILES IDX 7 1 8 2 9 3 10 4 11 5 12 6 13 7 6 8 5 9 4 10 3 11 2 12 1 13
REMARK H PARENT
REMARK Flexibility Score: inf
ROOT
ATOM      1  C   UNL     1      30.615  57.798  85.977  1.00  0.00     0.000 C 
ENDROOT
BRANCH   1   2
ATOM      2  C   UNL     1      31.982  57.129  85.791  1.00  0.00     0.000 C 
BRANCH   2   3
ATOM      3  C   UNL     1      32.317  56.967  84.301  1.00  0.00     0.006 C 
BRANCH   3   4
ATOM      4  C   UNL     1      31.130  57.325  83.396  1.00  0.00     0.053 C 
BRANCH   4   5
ATOM      5  C   UNL     1      31.577  57.977  82.125  1.00  0.00     0.041 C 
ATOM      6  O   UNL     1      32.804  58.138  81.893  1.00  0.00    -0.550 OA
ATOM      7  O   UNL     1      30.639  58.379  81.181  1.00  0.00    -0.550 OA
ENDBRANCH   4   5
ENDBRANCH   3   4
ENDBRANCH   2   3
ENDBRANCH   1   2
BRANCH   1   8
ATOM      8  C   UNL     1      29.719  56.969  86.910  1.00  0.00     0.000 C 
BRANCH   8   9
ATOM      9  C   UNL     1      28.261  57.455  86.912  1.00  0.00    -0.000 C 
BRANCH   9  10
ATOM     10  C   UNL     1      27.938  58.351  88.122  1.00  0.00    -0.000 C 
BRANCH  10  11
ATOM     11  C   UNL     1      27.277  59.680  87.700  1.00  0.00    -0.000 C 
BRANCH  11  12
ATOM     12  C   UNL     1      28.275  60.722  87.168  1.00  0.00    -0.003 C 
ATOM     13  C   UNL     1      28.118  62.092  87.825  1.00  0.00     0.004 C 
ENDBRANCH  11  12
ENDBRANCH  10  11
ENDBRANCH   9  10
ENDBRANCH   8   9
ENDBRANCH   1   8
TORSDOF 9
ENDMDL
MODEL 3
REMARK VINA RESULT:    -3.492     14.143     16.124
REMARK INTER + INTRA:          -5.707
REMARK INTER:                  -5.238
REMARK INTRA:                  -0.469
REMARK UNBOUND:                -0.377
REMARK SMILES CCCCCCCCCCC(=O)[O-]
REMARK SMILES IDX 7 1 8 2 9 3 10 4 11 5 12 6 13 7 6 8 5 9 4 10 3 11 2 12 1 13
REMARK H PARENT
REMARK Flexibility Score: inf
ROOT
ATOM      1  C   UNL     1      25.987  62.532  76.203  1.00  0.00     0.000 C 
ENDROOT
BRANCH   1   2
ATOM      2  C   UNL     1      25.992  62.028  77.652  1.00  0.00     0.000 C 
BRANCH   2   3
ATOM      3  C   UNL     1      27.209  61.130  77.918  1.00  0.00     0.006 C 
BRANCH   3   4
ATOM      4  C   UNL     1      27.993  61.568  79.163  1.00  0.00     0.053 C 
BRANCH   4   5
ATOM      5  C   UNL     1      27.298  61.166  80.426  1.00  0.00     0.041 C 
ATOM      6  O   UNL     1      27.327  59.968  80.811  1.00  0.00    -0.550 OA
ATOM      7  O   UNL     1      26.647  62.122  81.197  1.00  0.00    -0.550 OA
ENDBRANCH   4   5
ENDBRANCH   3   4
ENDBRANCH   2   3
ENDBRANCH   1   2
BRANCH   1   8
ATOM      8  C   UNL     1      25.575  64.011  76.138  1.00  0.00     0.000 C 
BRANCH   8   9
ATOM      9  C   UNL     1      26.500  64.839  75.231  1.00  0.00    -0.000 C 
BRANCH   9  10
ATOM     10  C   UNL     1      25.878  66.189  74.831  1.00  0.00    -0.000 C 
BRANCH  10  11
ATOM     11  C   UNL     1      26.229  67.311  75.832  1.00  0.00    -0.000 C 
BRANCH  11  12
ATOM     12  C   UNL     1      25.006  68.106  76.317  1.00  0.00    -0.003 C 
ATOM     13  C   UNL     1      24.062  67.280  77.189  1.00  0.00     0.004 C 
ENDBRANCH  11  12
ENDBRANCH  10  11
ENDBRANCH   9  10
ENDBRANCH   8   9
ENDBRANCH   1   8
TORSDOF 9
ENDMDL
MODEL 4
REMARK VINA RESULT:    -3.465     13.864     15.949
REMARK INTER + INTRA:          -5.666
REMARK INTER:                  -4.798
REMARK INTRA:                  -0.867
REMARK UNBOUND:                -0.377
REMARK SMILES CCCCCCCCCCC(=O)[O-]
REMARK SMILES IDX 7 1 8 2 9 3 10 4 11 5 12 6 13 7 6 8 5 9 4 10 3 11 2 12 1 13
REMARK H PARENT
REMARK Flexibility Score: inf
ROOT
ATOM      1  C   UNL     1      25.394  62.569  74.568  1.00  0.00     0.000 C 
ENDROOT
BRANCH   1   2
ATOM      2  C   UNL     1      24.454  62.063  75.668  1.00  0.00     0.000 C 
BRANCH   2   3
ATOM      3  C   UNL     1      25.010  62.391  77.062  1.00  0.00     0.006 C 
BRANCH   3   4
ATOM      4  C   UNL     1      26.545  62.387  77.090  1.00  0.00     0.053 C 
BRANCH   4   5
ATOM      5  C   UNL     1      27.082  61.276  77.938  1.00  0.00     0.041 C 
ATOM      6  O   UNL     1      26.596  60.118  77.848  1.00  0.00    -0.550 OA
ATOM      7  O   UNL     1      28.142  61.512  78.805  1.00  0.00    -0.550 OA
ENDBRANCH   4   5
ENDBRANCH   3   4
ENDBRANCH   2   3
ENDBRANCH   1   2
BRANCH   1   8
ATOM      8  C   UNL     1      24.947  63.947  74.055  1.00  0.00     0.000 C 
BRANCH   8   9
ATOM      9  C   UNL     1      26.133  64.833  73.639  1.00  0.00    -0.000 C 
BRANCH   9  10
ATOM     10  C   UNL     1      26.827  65.493  74.844  1.00  0.00    -0.000 C 
BRANCH  10  11
ATOM     11  C   UNL     1      25.815  66.111  75.832  1.00  0.00    -0.000 C 
BRANCH  11  12
ATOM     12  C   UNL     1      25.955  67.634  75.984  1.00  0.00    -0.003 C 
ATOM     13  C   UNL     1      24.655  68.317  76.405  1.00  0.00     0.004 C 
ENDBRANCH  11  12
ENDBRANCH  10  11
ENDBRANCH   9  10
ENDBRANCH   8   9
ENDBRANCH   1   8
TORSDOF 9
ENDMDL
MODEL 5
REMARK VINA RESULT:    -3.446     14.026     16.439
REMARK INTER + INTRA:          -5.636
REMARK INTER:                  -5.151
REMARK INTRA:                  -0.485
REMARK UNBOUND:                -0.377
REMARK SMILES CCCCCCCCCCC(=O)[O-]
REMARK SMILES IDX 7 1 8 2 9 3 10 4 11 5 12 6 13 7 6 8 5 9 4 10 3 11 2 12 1 13
REMARK H PARENT
REMARK Flexibility Score: inf
ROOT
ATOM      1  C   UNL     1      24.469  63.057  78.403  1.00  0.00     0.000 C 
ENDROOT
BRANCH   1   2
ATOM      2  C   UNL     1      24.205  63.813  79.711  1.00  0.00     0.000 C 
BRANCH   2   3
ATOM      3  C   UNL     1      24.715  63.016  80.920  1.00  0.00     0.006 C 
BRANCH   3   4
ATOM      4  C   UNL     1      25.499  61.764  80.503  1.00  0.00     0.053 C 
BRANCH   4   5
ATOM      5  C   UNL     1      26.974  61.946  80.682  1.00  0.00     0.041 C 
ATOM      6  O   UNL     1      27.454  62.134  81.831  1.00  0.00    -0.550 OA
ATOM      7  O   UNL     1      27.823  61.876  79.584  1.00  0.00    -0.550 OA
ENDBRANCH   4   5
ENDBRANCH   3   4
ENDBRANCH   2   3
ENDBRANCH   1   2
BRANCH   1   8
ATOM      8  C   UNL     1      24.532  64.025  77.212  1.00  0.00     0.000 C 
BRANCH   8   9
ATOM      9  C   UNL     1      25.506  63.553  76.120  1.00  0.00    -0.000 C 
BRANCH   9  10
ATOM     10  C   UNL     1      26.299  64.714  75.494  1.00  0.00    -0.000 C 
BRANCH  10  11
ATOM     11  C   UNL     1      25.427  65.971  75.292  1.00  0.00    -0.000 C 
BRANCH  11  12
ATOM     12  C   UNL     1      26.053  67.252  75.867  1.00  0.00    -0.003 C 
ATOM     13  C   UNL     1      25.022  68.204  76.470  1.00  0.00     0.004 C 
ENDBRANCH  11  12
ENDBRANCH  10  11
ENDBRANCH   9  10
ENDBRANCH   8   9
ENDBRANCH   1   8
TORSDOF 9
ENDMDL
MODEL 6
REMARK VINA RESULT:    -3.374     13.466     14.762
REMARK INTER + INTRA:          -5.527
REMARK INTER:                  -5.061
REMARK INTRA:                  -0.465
REMARK UNBOUND:                -0.377
REMARK SMILES CCCCCCCCCCC(=O)[O-]
REMARK SMILES IDX 7 1 8 2 9 3 10 4 11 5 12 6 13 7 6 8 5 9 4 10 3 11 2 12 1 13
REMARK H PARENT
REMARK Flexibility Score: inf
ROOT
ATOM      1  C   UNL     1      24.894  64.438  76.266  1.00  0.00     0.000 C 
ENDROOT
BRANCH   1   2
ATOM      2  C   UNL     1      26.155  64.849  75.495  1.00  0.00     0.000 C 
BRANCH   2   3
ATOM      3  C   UNL     1      25.986  66.240  74.866  1.00  0.00     0.006 C 
BRANCH   3   4
ATOM      4  C   UNL     1      26.201  67.368  75.885  1.00  0.00     0.053 C 
BRANCH   4   5
ATOM      5  C   UNL     1      24.917  68.050  76.238  1.00  0.00     0.041 C 
ATOM      6  O   UNL     1      24.396  68.873  75.440  1.00  0.00    -0.550 OA
ATOM      7  O   UNL     1      24.277  67.753  77.436  1.00  0.00    -0.550 OA
ENDBRANCH   4   5
ENDBRANCH   3   4
ENDBRANCH   2   3
ENDBRANCH   1   2
BRANCH   1   8
ATOM      8  C   UNL     1      25.110  63.107  77.003  1.00  0.00     0.000 C 
BRANCH   8   9
ATOM      9  C   UNL     1      25.932  62.104  76.177  1.00  0.00    -0.000 C 
BRANCH   9  10
ATOM     10  C   UNL     1      26.464  60.936  77.027  1.00  0.00    -0.000 C 
BRANCH  10  11
ATOM     11  C   UNL     1      27.206  61.426  78.289  1.00  0.00    -0.000 C 
BRANCH  11  12
ATOM     12  C   UNL     1      28.694  61.037  78.317  1.00  0.00    -0.003 C 
ATOM     13  C   UNL     1      28.927  59.544  78.098  1.00  0.00     0.004 C 
ENDBRANCH  11  12
ENDBRANCH  10  11
ENDBRANCH   9  10
ENDBRANCH   8   9
ENDBRANCH   1   8
TORSDOF 9
ENDMDL
MODEL 7
REMARK VINA RESULT:    -3.356     14.388     16.716
REMARK INTER + INTRA:          -5.499
REMARK INTER:                  -5.008
REMARK INTRA:                  -0.491
REMARK UNBOUND:                -0.377
REMARK SMILES CCCCCCCCCCC(=O)[O-]
REMARK SMILES IDX 7 1 8 2 9 3 10 4 11 5 12 6 13 7 6 8 5 9 4 10 3 11 2 12 1 13
REMARK H PARENT
REMARK Flexibility Score: inf
ROOT
ATOM      1  C   UNL     1      26.686  61.777  78.500  1.00  0.00     0.000 C 
ENDROOT
BRANCH   1   2
ATOM      2  C   UNL     1      25.378  62.213  79.170  1.00  0.00     0.000 C 
BRANCH   2   3
ATOM      3  C   UNL     1      25.576  62.428  80.678  1.00  0.00     0.006 C 
BRANCH   3   4
ATOM      4  C   UNL     1      27.026  62.179  81.114  1.00  0.00     0.053 C 
BRANCH   4   5
ATOM      5  C   UNL     1      27.103  61.233  82.272  1.00  0.00     0.041 C 
ATOM      6  O   UNL     1      26.931  59.998  82.093  1.00  0.00    -0.550 OA
ATOM      7  O   UNL     1      27.398  61.710  83.543  1.00  0.00    -0.550 OA
ENDBRANCH   4   5
ENDBRANCH   3   4
ENDBRANCH   2   3
ENDBRANCH   1   2
BRANCH   1   8
ATOM      8  C   UNL     1      26.624  61.993  76.980  1.00  0.00     0.000 C 
BRANCH   8   9
ATOM      9  C   UNL     1      25.608  63.075  76.581  1.00  0.00    -0.000 C 
BRANCH   9  10
ATOM     10  C   UNL     1      25.868  63.637  75.171  1.00  0.00    -0.000 C 
BRANCH  10  11
ATOM     11  C   UNL     1      26.425  65.076  75.212  1.00  0.00    -0.000 C 
BRANCH  11  12
ATOM     12  C   UNL     1      25.516  66.066  75.960  1.00  0.00    -0.003 C 
ATOM     13  C   UNL     1      26.047  67.498  75.942  1.00  0.00     0.004 C 
ENDBRANCH  11  12
ENDBRANCH  10  11
ENDBRANCH   9  10
ENDBRANCH   8   9
ENDBRANCH   1   8
TORSDOF 9
ENDMDL
MODEL 8
REMARK VINA RESULT:    -3.350     17.818     20.019
REMARK INTER + INTRA:          -5.490
REMARK INTER:                  -4.738
REMARK INTRA:                  -0.751
REMARK UNBOUND:                -0.377
REMARK SMILES CCCCCCCCCCC(=O)[O-]
REMARK SMILES IDX 7 1 8 2 9 3 10 4 11 5 12 6 13 7 6 8 5 9 4 10 3 11 2 12 1 13
REMARK H PARENT
REMARK Flexibility Score: inf
ROOT
ATOM      1  C   UNL     1      30.820  57.755  85.839  1.00  0.00     0.000 C 
ENDROOT
BRANCH   1   2
ATOM      2  C   UNL     1      29.841  56.986  86.735  1.00  0.00     0.000 C 
BRANCH   2   3
ATOM      3  C   UNL     1      28.566  57.805  86.985  1.00  0.00     0.006 C 
BRANCH   3   4
ATOM      4  C   UNL     1      28.708  59.260  86.517  1.00  0.00     0.053 C 
BRANCH   4   5
ATOM      5  C   UNL     1      27.996  60.209  87.429  1.00  0.00     0.041 C 
ATOM      6  O   UNL     1      28.367  61.410  87.507  1.00  0.00    -0.550 OA
ATOM      7  O   UNL     1      26.901  59.777  88.168  1.00  0.00    -0.550 OA
ENDBRANCH   4   5
ENDBRANCH   3   4
ENDBRANCH   2   3
ENDBRANCH   1   2
BRANCH   1   8
ATOM      8  C   UNL     1      32.158  57.008  85.722  1.00  0.00     0.000 C 
BRANCH   8   9
ATOM      9  C   UNL     1      32.634  56.877  84.266  1.00  0.00    -0.000 C 
BRANCH   9  10
ATOM     10  C   UNL     1      31.477  56.975  83.256  1.00  0.00    -0.000 C 
BRANCH  10  11
ATOM     11  C   UNL     1      31.757  58.018  82.152  1.00  0.00    -0.000 C 
BRANCH  11  12
ATOM     12  C   UNL     1      30.484  58.662  81.578  1.00  0.00    -0.003 C 
ATOM     13  C   UNL     1      29.427  58.951  82.642  1.00  0.00     0.004 C 
ENDBRANCH  11  12
ENDBRANCH  10  11
ENDBRANCH   9  10
ENDBRANCH   8   9
ENDBRANCH   1   8
TORSDOF 9
ENDMDL
MODEL 9
REMARK VINA RESULT:    -3.338     17.060     18.982
REMARK INTER + INTRA:          -5.472
REMARK INTER:                  -4.621
REMARK INTRA:                  -0.851
REMARK UNBOUND:                -0.377
REMARK SMILES CCCCCCCCCCC(=O)[O-]
REMARK SMILES IDX 7 1 8 2 9 3 10 4 11 5 12 6 13 7 6 8 5 9 4 10 3 11 2 12 1 13
REMARK H PARENT
REMARK Flexibility Score: inf
ROOT
ATOM      1  C   UNL     1      29.575  58.865  86.248  1.00  0.00     0.000 C 
ENDROOT
BRANCH   1   2
ATOM      2  C   UNL     1      29.327  58.025  84.989  1.00  0.00     0.000 C 
BRANCH   2   3
ATOM      3  C   UNL     1      30.508  58.133  84.014  1.00  0.00     0.006 C 
BRANCH   3   4
ATOM      4  C   UNL     1      30.146  58.922  82.748  1.00  0.00     0.053 C 
BRANCH   4   5
ATOM      5  C   UNL     1      31.067  58.604  81.612  1.00  0.00     0.041 C 
ATOM      6  O   UNL     1      30.712  58.831  80.426  1.00  0.00    -0.550 OA
ATOM      7  O   UNL     1      32.332  58.087  81.865  1.00  0.00    -0.550 OA
ENDBRANCH   4   5
ENDBRANCH   3   4
ENDBRANCH   2   3
ENDBRANCH   1   2
BRANCH   1   8
ATOM      8  C   UNL     1      28.388  58.763  87.219  1.00  0.00     0.000 C 
BRANCH   8   9
ATOM      9  C   UNL     1      27.577  60.067  87.296  1.00  0.00    -0.000 C 
BRANCH   9  10
ATOM     10  C   UNL     1      26.534  60.181  86.169  1.00  0.00    -0.000 C 
BRANCH  10  11
ATOM     11  C   UNL     1      26.919  61.255  85.129  1.00  0.00    -0.000 C 
BRANCH  11  12
ATOM     12  C   UNL     1      26.995  60.717  83.690  1.00  0.00    -0.003 C 
ATOM     13  C   UNL     1      27.632  61.705  82.715  1.00  0.00     0.004 C 
ENDBRANCH  11  12
ENDBRANCH  10  11
ENDBRANCH   9  10
ENDBRANCH   8   9
ENDBRANCH   1   8
TORSDOF 9
ENDMDL
