MODEL 1
REMARK VINA RESULT:    -4.154      0.000      0.000
REMARK INTER + INTRA:          -6.616
REMARK INTER:                  -6.097
REMARK INTRA:                  -0.520
REMARK UNBOUND:                -0.520
REMARK SMILES O=C([O-])CCCCCCCC(=O)[O-]
REMARK SMILES IDX 7 1 6 2 5 3 4 4 2 5 1 6 3 7 8 8 9 9 10 10 11 11 12 12 13 13
REMARK H PARENT
REMARK Flexibility Score: inf
ROOT
ATOM      1  C   UNL     1     174.977 176.060 182.800  1.00  0.00     0.000 C 
ENDROOT
BRANCH   1   2
ATOM      2  C   UNL     1     173.864 177.114 182.682  1.00  0.00     0.000 C 
BRANCH   2   3
ATOM      3  C   UNL     1     172.917 176.844 181.499  1.00  0.00     0.006 C 
BRANCH   3   4
ATOM      4  C   UNL     1     171.511 177.409 181.743  1.00  0.00     0.053 C 
BRANCH   4   5
ATOM      5  C   UNL     1     170.813 177.739 180.460  1.00  0.00     0.041 C 
ATOM      6  O   UNL     1     169.555 177.767 180.410  1.00  0.00    -0.550 OA
ATOM      7  O   UNL     1     171.553 177.987 179.311  1.00  0.00    -0.550 OA
ENDBRANCH   4   5
ENDBRANCH   3   4
ENDBRANCH   2   3
ENDBRANCH   1   2
BRANCH   1   8
ATOM      8  C   UNL     1     176.337 176.672 183.164  1.00  0.00     0.000 C 
BRANCH   8   9
ATOM      9  C   UNL     1     177.009 177.292 181.930  1.00  0.00     0.006 C 
BRANCH   9  10
ATOM     10  C   UNL     1     177.009 176.338 180.727  1.00  0.00     0.053 C 
BRANCH  10  11
ATOM     11  C   UNL     1     176.597 177.033 179.466  1.00  0.00     0.041 C 
ATOM     12  O   UNL     1     175.641 177.854 179.478  1.00  0.00    -0.550 OA
ATOM     13  O   UNL     1     177.289 176.800 178.284  1.00  0.00    -0.550 OA
ENDBRANCH  10  11
ENDBRANCH   9  10
ENDBRANCH   8   9
ENDBRANCH   1   8
TORSDOF 8
ENDMDL
MODEL 2
REMARK VINA RESULT:    -4.085      0.859      5.025
REMARK INTER + INTRA:          -6.515
REMARK INTER:                  -5.991
REMARK INTRA:                  -0.523
REMARK UNBOUND:                -0.520
REMARK SMILES O=C([O-])CCCCCCCC(=O)[O-]
REMARK SMILES IDX 7 1 6 2 5 3 4 4 2 5 1 6 3 7 8 8 9 9 10 10 11 11 12 12 13 13
REMARK H PARENT
REMARK Flexibility Score: inf
ROOT
ATOM      1  C   UNL     1     174.808 175.233 182.400  1.00  0.00     0.000 C 
ENDROOT
BRANCH   1   2
ATOM      2  C   UNL     1     175.786 176.057 183.252  1.00  0.00     0.000 C 
BRANCH   2   3
ATOM      3  C   UNL     1     176.810 176.828 182.399  1.00  0.00     0.006 C 
BRANCH   3   4
ATOM      4  C   UNL     1     176.992 176.202 181.011  1.00  0.00     0.053 C 
BRANCH   4   5
ATOM      5  C   UNL     1     176.759 177.197 179.916  1.00  0.00     0.041 C 
ATOM      6  O   UNL     1     177.722 177.615 179.221  1.00  0.00    -0.550 OA
ATOM      7  O   UNL     1     175.479 177.685 179.683  1.00  0.00    -0.550 OA
ENDBRANCH   4   5
ENDBRANCH   3   4
ENDBRANCH   2   3
ENDBRANCH   1   2
BRANCH   1   8
ATOM      8  C   UNL     1     173.354 175.711 182.535  1.00  0.00     0.000 C 
BRANCH   8   9
ATOM      9  C   UNL     1     173.280 177.245 182.542  1.00  0.00     0.006 C 
BRANCH   9  10
ATOM     10  C   UNL     1     171.833 177.758 182.531  1.00  0.00     0.053 C 
BRANCH  10  11
ATOM     11  C   UNL     1     171.233 177.701 181.160  1.00  0.00     0.041 C 
ATOM     12  O   UNL     1     169.981 177.654 181.018  1.00  0.00    -0.550 OA
ATOM     13  O   UNL     1     172.051 177.736 180.039  1.00  0.00    -0.550 OA
ENDBRANCH  10  11
ENDBRANCH   9  10
ENDBRANCH   8   9
ENDBRANCH   1   8
TORSDOF 8
ENDMDL
MODEL 3
REMARK VINA RESULT:    -3.967      1.324      4.483
REMARK INTER + INTRA:          -6.342
REMARK INTER:                  -5.724
REMARK INTRA:                  -0.619
REMARK UNBOUND:                -0.520
REMARK SMILES O=C([O-])CCCCCCCC(=O)[O-]
REMARK SMILES IDX 7 1 6 2 5 3 4 4 2 5 1 6 3 7 8 8 9 9 10 10 11 11 12 12 13 13
REMARK H PARENT
REMARK Flexibility Score: inf
ROOT
ATOM      1  C   UNL     1     175.940 176.618 183.331  1.00  0.00     0.000 C 
ENDROOT
BRANCH   1   2
ATOM      2  C   UNL     1     176.999 177.223 182.395  1.00  0.00     0.000 C 
BRANCH   2   3
ATOM      3  C   UNL     1     176.884 176.696 180.953  1.00  0.00     0.006 C 
BRANCH   3   4
ATOM      4  C   UNL     1     176.443 177.790 179.972  1.00  0.00     0.053 C 
BRANCH   4   5
ATOM      5  C   UNL     1     175.444 177.277 178.980  1.00  0.00     0.041 C 
ATOM      6  O   UNL     1     174.275 177.745 178.957  1.00  0.00    -0.550 OA
ATOM      7  O   UNL     1     175.796 176.263 178.100  1.00  0.00    -0.550 OA
ENDBRANCH   4   5
ENDBRANCH   3   4
ENDBRANCH   2   3
ENDBRANCH   1   2
BRANCH   1   8
ATOM      8  C   UNL     1     175.205 175.424 182.703  1.00  0.00     0.000 C 
BRANCH   8   9
ATOM      9  C   UNL     1     173.717 175.742 182.496  1.00  0.00     0.006 C 
BRANCH   9  10
ATOM     10  C   UNL     1     173.442 177.252 182.477  1.00  0.00     0.053 C 
BRANCH  10  11
ATOM     11  C   UNL     1     172.009 177.553 182.161  1.00  0.00     0.041 C 
ATOM     12  O   UNL     1     171.110 177.324 183.014  1.00  0.00    -0.550 OA
ATOM     13  O   UNL     1     171.669 178.118 180.938  1.00  0.00    -0.550 OA
ENDBRANCH  10  11
ENDBRANCH   9  10
ENDBRANCH   8   9
ENDBRANCH   1   8
TORSDOF 8
ENDMDL
MODEL 4
REMARK VINA RESULT:    -3.947      1.143      1.800
REMARK INTER + INTRA:          -6.312
REMARK INTER:                  -5.823
REMARK INTRA:                  -0.489
REMARK UNBOUND:                -0.520
REMARK SMILES O=C([O-])CCCCCCCC(=O)[O-]
REMARK SMILES IDX 7 1 6 2 5 3 4 4 2 5 1 6 3 7 8 8 9 9 10 10 11 11 12 12 13 13
REMARK H PARENT
REMARK Flexibility Score: inf
ROOT
ATOM      1  C   UNL     1     175.085 176.053 182.866  1.00  0.00     0.000 C 
ENDROOT
BRANCH   1   2
ATOM      2  C   UNL     1     173.939 177.046 182.615  1.00  0.00     0.000 C 
BRANCH   2   3
ATOM      3  C   UNL     1     172.821 176.451 181.741  1.00  0.00     0.006 C 
BRANCH   3   4
ATOM      4  C   UNL     1     171.594 176.046 182.568  1.00  0.00     0.053 C 
BRANCH   4   5
ATOM      5  C   UNL     1     170.520 177.089 182.518  1.00  0.00     0.041 C 
ATOM      6  O   UNL     1     170.340 177.766 181.471  1.00  0.00    -0.550 OA
ATOM      7  O   UNL     1     169.736 177.333 183.638  1.00  0.00    -0.550 OA
ENDBRANCH   4   5
ENDBRANCH   3   4
ENDBRANCH   2   3
ENDBRANCH   1   2
BRANCH   1   8
ATOM      8  C   UNL     1     176.413 176.751 183.198  1.00  0.00     0.000 C 
BRANCH   8   9
ATOM      9  C   UNL     1     177.060 177.332 181.931  1.00  0.00     0.006 C 
BRANCH   9  10
ATOM     10  C   UNL     1     177.019 176.348 180.754  1.00  0.00     0.053 C 
BRANCH  10  11
ATOM     11  C   UNL     1     176.657 177.031 179.471  1.00  0.00     0.041 C 
ATOM     12  O   UNL     1     177.413 176.935 178.466  1.00  0.00    -0.550 OA
ATOM     13  O   UNL     1     175.470 177.745 179.372  1.00  0.00    -0.550 OA
ENDBRANCH  10  11
ENDBRANCH   9  10
ENDBRANCH   8   9
ENDBRANCH   1   8
TORSDOF 8
ENDMDL
MODEL 5
REMARK VINA RESULT:    -3.927      1.413      2.065
REMARK INTER + INTRA:          -6.283
REMARK INTER:                  -5.686
REMARK INTRA:                  -0.598
REMARK UNBOUND:                -0.520
REMARK SMILES O=C([O-])CCCCCCCC(=O)[O-]
REMARK SMILES IDX 7 1 6 2 5 3 4 4 2 5 1 6 3 7 8 8 9 9 10 10 11 11 12 12 13 13
REMARK H PARENT
REMARK Flexibility Score: inf
ROOT
ATOM      1  C   UNL     1     176.791 176.342 182.367  1.00  0.00     0.000 C 
ENDROOT
BRANCH   1   2
ATOM      2  C   UNL     1     175.555 176.200 183.271  1.00  0.00     0.000 C 
BRANCH   2   3
ATOM      3  C   UNL     1     174.245 176.099 182.470  1.00  0.00     0.006 C 
BRANCH   3   4
ATOM      4  C   UNL     1     173.344 177.323 182.679  1.00  0.00     0.053 C 
BRANCH   4   5
ATOM      5  C   UNL     1     172.325 177.456 181.589  1.00  0.00     0.041 C 
ATOM      6  O   UNL     1     172.690 177.585 180.391  1.00  0.00    -0.550 OA
ATOM      7  O   UNL     1     170.971 177.467 181.901  1.00  0.00    -0.550 OA
ENDBRANCH   4   5
ENDBRANCH   3   4
ENDBRANCH   2   3
ENDBRANCH   1   2
BRANCH   1   8
ATOM      8  C   UNL     1     177.039 177.792 181.925  1.00  0.00     0.000 C 
BRANCH   8   9
ATOM      9  C   UNL     1     177.319 177.867 180.417  1.00  0.00     0.006 C 
BRANCH   9  10
ATOM     10  C   UNL     1     176.130 177.375 179.580  1.00  0.00     0.053 C 
BRANCH  10  11
ATOM     11  C   UNL     1     176.489 176.180 178.751  1.00  0.00     0.041 C 
ATOM     12  O   UNL     1     176.117 175.029 179.104  1.00  0.00    -0.550 OA
ATOM     13  O   UNL     1     177.205 176.340 177.571  1.00  0.00    -0.550 OA
ENDBRANCH  10  11
ENDBRANCH   9  10
ENDBRANCH   8   9
ENDBRANCH   1   8
TORSDOF 8
ENDMDL
MODEL 6
REMARK VINA RESULT:    -3.920      3.167      4.614
REMARK INTER + INTRA:          -6.273
REMARK INTER:                  -5.583
REMARK INTRA:                  -0.690
REMARK UNBOUND:                -0.520
REMARK SMILES O=C([O-])CCCCCCCC(=O)[O-]
REMARK SMILES IDX 7 1 6 2 5 3 4 4 2 5 1 6 3 7 8 8 9 9 10 10 11 11 12 12 13 13
REMARK H PARENT
REMARK Flexibility Score: inf
ROOT
ATOM      1  C   UNL     1     175.719 176.639 182.735  1.00  0.00     0.000 C 
ENDROOT
BRANCH   1   2
ATOM      2  C   UNL     1     176.984 177.446 182.403  1.00  0.00     0.000 C 
BRANCH   2   3
ATOM      3  C   UNL     1     177.215 177.588 180.888  1.00  0.00     0.006 C 
BRANCH   3   4
ATOM      4  C   UNL     1     175.928 177.361 180.084  1.00  0.00     0.053 C 
BRANCH   4   5
ATOM      5  C   UNL     1     176.128 176.365 178.983  1.00  0.00     0.041 C 
ATOM      6  O   UNL     1     175.263 175.477 178.765  1.00  0.00    -0.550 OA
ATOM      7  O   UNL     1     177.285 176.401 178.216  1.00  0.00    -0.550 OA
ENDBRANCH   4   5
ENDBRANCH   3   4
ENDBRANCH   2   3
ENDBRANCH   1   2
BRANCH   1   8
ATOM      8  C   UNL     1     176.033 175.212 183.209  1.00  0.00     0.000 C 
BRANCH   8   9
ATOM      9  C   UNL     1     175.817 174.198 182.076  1.00  0.00     0.006 C 
BRANCH   9  10
ATOM     10  C   UNL     1     177.106 173.450 181.711  1.00  0.00     0.053 C 
BRANCH  10  11
ATOM     11  C   UNL     1     176.846 172.331 180.749  1.00  0.00     0.041 C 
ATOM     12  O   UNL     1     176.113 172.519 179.741  1.00  0.00    -0.550 OA
ATOM     13  O   UNL     1     177.440 171.090 180.945  1.00  0.00    -0.550 OA
ENDBRANCH  10  11
ENDBRANCH   9  10
ENDBRANCH   8   9
ENDBRANCH   1   8
TORSDOF 8
ENDMDL
MODEL 7
REMARK VINA RESULT:    -3.773      1.866      5.900
REMARK INTER + INTRA:          -6.057
REMARK INTER:                  -5.571
REMARK INTRA:                  -0.486
REMARK UNBOUND:                -0.520
REMARK SMILES O=C([O-])CCCCCCCC(=O)[O-]
REMARK SMILES IDX 7 1 6 2 5 3 4 4 2 5 1 6 3 7 8 8 9 9 10 10 11 11 12 12 13 13
REMARK H PARENT
REMARK Flexibility Score: inf
ROOT
ATOM      1  C   UNL     1     173.309 175.387 182.559  1.00  0.00     0.000 C 
ENDROOT
BRANCH   1   2
ATOM      2  C   UNL     1     174.523 174.504 182.890  1.00  0.00     0.000 C 
BRANCH   2   3
ATOM      3  C   UNL     1     175.772 175.327 183.251  1.00  0.00     0.006 C 
BRANCH   3   4
ATOM      4  C   UNL     1     176.937 175.063 182.288  1.00  0.00     0.053 C 
BRANCH   4   5
ATOM      5  C   UNL     1     177.076 176.153 181.271  1.00  0.00     0.041 C 
ATOM      6  O   UNL     1     177.118 177.358 181.633  1.00  0.00    -0.550 OA
ATOM      7  O   UNL     1     177.133 175.839 179.919  1.00  0.00    -0.550 OA
ENDBRANCH   4   5
ENDBRANCH   3   4
ENDBRANCH   2   3
ENDBRANCH   1   2
BRANCH   1   8
ATOM      8  C   UNL     1     173.645 176.885 182.565  1.00  0.00     0.000 C 
BRANCH   8   9
ATOM      9  C   UNL     1     172.367 177.735 182.629  1.00  0.00     0.006 C 
BRANCH   9  10
ATOM     10  C   UNL     1     171.223 177.128 181.806  1.00  0.00     0.053 C 
BRANCH  10  11
ATOM     11  C   UNL     1     169.981 176.951 182.625  1.00  0.00     0.041 C 
ATOM     12  O   UNL     1     168.898 177.480 182.256  1.00  0.00    -0.550 OA
ATOM     13  O   UNL     1     170.010 176.176 183.777  1.00  0.00    -0.550 OA
ENDBRANCH  10  11
ENDBRANCH   9  10
ENDBRANCH   8   9
ENDBRANCH   1   8
TORSDOF 8
ENDMDL
MODEL 8
REMARK VINA RESULT:    -3.720      2.664      4.471
REMARK INTER + INTRA:          -5.980
REMARK INTER:                  -5.370
REMARK INTRA:                  -0.610
REMARK UNBOUND:                -0.520
REMARK SMILES O=C([O-])CCCCCCCC(=O)[O-]
REMARK SMILES IDX 7 1 6 2 5 3 4 4 2 5 1 6 3 7 8 8 9 9 10 10 11 11 12 12 13 13
REMARK H PARENT
REMARK Flexibility Score: inf
ROOT
ATOM      1  C   UNL     1     174.623 176.231 182.650  1.00  0.00     0.000 C 
ENDROOT
BRANCH   1   2
ATOM      2  C   UNL     1     174.245 174.757 182.862  1.00  0.00     0.000 C 
BRANCH   2   3
ATOM      3  C   UNL     1     174.315 173.935 181.563  1.00  0.00     0.006 C 
BRANCH   3   4
ATOM      4  C   UNL     1     175.213 172.700 181.707  1.00  0.00     0.053 C 
BRANCH   4   5
ATOM      5  C   UNL     1     176.437 172.798 180.850  1.00  0.00     0.041 C 
ATOM      6  O   UNL     1     177.442 172.079 181.093  1.00  0.00    -0.550 OA
ATOM      7  O   UNL     1     176.478 173.705 179.799  1.00  0.00    -0.550 OA
ENDBRANCH   4   5
ENDBRANCH   3   4
ENDBRANCH   2   3
ENDBRANCH   1   2
BRANCH   1   8
ATOM      8  C   UNL     1     176.036 176.561 183.155  1.00  0.00     0.000 C 
BRANCH   8   9
ATOM      9  C   UNL     1     177.063 176.452 182.018  1.00  0.00     0.006 C 
BRANCH   9  10
ATOM     10  C   UNL     1     177.129 177.730 181.170  1.00  0.00     0.053 C 
BRANCH  10  11
ATOM     11  C   UNL     1     176.664 177.490 179.766  1.00  0.00     0.041 C 
ATOM     12  O   UNL     1     177.444 176.977 178.919  1.00  0.00    -0.550 OA
ATOM     13  O   UNL     1     175.361 177.800 179.401  1.00  0.00    -0.550 OA
ENDBRANCH  10  11
ENDBRANCH   9  10
ENDBRANCH   8   9
ENDBRANCH   1   8
TORSDOF 8
ENDMDL
MODEL 9
REMARK VINA RESULT:    -3.707      2.566      3.792
REMARK INTER + INTRA:          -5.960
REMARK INTER:                  -5.146
REMARK INTRA:                  -0.813
REMARK UNBOUND:                -0.520
REMARK SMILES O=C([O-])CCCCCCCC(=O)[O-]
REMARK SMILES IDX 7 1 6 2 5 3 4 4 2 5 1 6 3 7 8 8 9 9 10 10 11 11 12 12 13 13
REMARK H PARENT
REMARK Flexibility Score: inf
ROOT
ATOM      1  C   UNL     1     176.744 177.384 182.405  1.00  0.00     0.000 C 
ENDROOT
BRANCH   1   2
ATOM      2  C   UNL     1     177.152 176.636 181.126  1.00  0.00     0.000 C 
BRANCH   2   3
ATOM      3  C   UNL     1     176.749 177.390 179.845  1.00  0.00     0.006 C 
BRANCH   3   4
ATOM      4  C   UNL     1     175.609 176.688 179.097  1.00  0.00     0.053 C 
BRANCH   4   5
ATOM      5  C   UNL     1     174.292 177.364 179.328  1.00  0.00     0.041 C 
ATOM      6  O   UNL     1     173.694 177.930 178.376  1.00  0.00    -0.550 OA
ATOM      7  O   UNL     1     173.740 177.392 180.602  1.00  0.00    -0.550 OA
ENDBRANCH   4   5
ENDBRANCH   3   4
ENDBRANCH   2   3
ENDBRANCH   1   2
BRANCH   1   8
ATOM      8  C   UNL     1     176.257 176.440 183.515  1.00  0.00     0.000 C 
BRANCH   8   9
ATOM      9  C   UNL     1     176.020 175.025 182.967  1.00  0.00     0.006 C 
BRANCH   9  10
ATOM     10  C   UNL     1     174.528 174.718 182.775  1.00  0.00     0.053 C 
BRANCH  10  11
ATOM     11  C   UNL     1     174.269 173.997 181.488  1.00  0.00     0.041 C 
ATOM     12  O   UNL     1     173.086 173.799 181.099  1.00  0.00    -0.550 OA
ATOM     13  O   UNL     1     175.332 173.573 180.701  1.00  0.00    -0.550 OA
ENDBRANCH  10  11
ENDBRANCH   9  10
ENDBRANCH   8   9
ENDBRANCH   1   8
TORSDOF 8
ENDMDL
