MODEL 1
REMARK VINA RESULT:    -4.203      0.000      0.000
REMARK INTER + INTRA:          -4.901
REMARK INTER:                  -4.695
REMARK INTRA:                  -0.207
REMARK UNBOUND:                -0.207
REMARK SMILES O=C([O-])c1ccccc1C(=O)[O-]
REMARK SMILES IDX 4 1 9 2 5 3 8 4 6 5 7 6 2 7 1 8 3 9 10 10 11 11 12 12
REMARK H PARENT
REMARK Flexibility Score: inf
ROOT
ATOM      1  C   UNL     1     -16.988  34.077 -17.041  1.00  0.00     0.006 A 
ATOM      2  C   UNL     1     -17.173  32.961 -17.904  1.00  0.00     0.006 A 
ATOM      3  C   UNL     1     -17.928  35.125 -17.067  1.00  0.00     0.010 A 
ATOM      4  C   UNL     1     -18.253  32.965 -18.806  1.00  0.00     0.010 A 
ATOM      5  C   UNL     1     -19.005  35.096 -17.954  1.00  0.00     0.001 A 
ATOM      6  C   UNL     1     -19.161  34.024 -18.829  1.00  0.00     0.001 A 
ENDROOT
BRANCH   1   7
ATOM      7  C   UNL     1     -15.805  34.222 -16.161  1.00  0.00     0.072 C 
ATOM      8  O   UNL     1     -15.811  33.725 -15.004  1.00  0.00    -0.545 OA
ATOM      9  O   UNL     1     -14.702  34.960 -16.574  1.00  0.00    -0.545 OA
ENDBRANCH   1   7
BRANCH   2  10
ATOM     10  C   UNL     1     -16.317  31.753 -17.853  1.00  0.00     0.072 C 
ATOM     11  O   UNL     1     -15.387  31.587 -18.684  1.00  0.00    -0.545 OA
ATOM     12  O   UNL     1     -16.492  30.818 -16.839  1.00  0.00    -0.545 OA
ENDBRANCH   2  10
TORSDOF 2
ENDMDL
MODEL 2
REMARK VINA RESULT:    -4.165      0.099      3.025
REMARK INTER + INTRA:          -4.858
REMARK INTER:                  -4.643
REMARK INTRA:                  -0.215
REMARK UNBOUND:                -0.207
REMARK SMILES O=C([O-])c1ccccc1C(=O)[O-]
REMARK SMILES IDX 4 1 9 2 5 3 8 4 6 5 7 6 2 7 1 8 3 9 10 10 11 11 12 12
REMARK H PARENT
REMARK Flexibility Score: inf
ROOT
ATOM      1  C   UNL     1     -17.168  32.928 -17.888  1.00  0.00     0.006 A 
ATOM      2  C   UNL     1     -16.989  34.065 -17.052  1.00  0.00     0.006 A 
ATOM      3  C   UNL     1     -18.225  32.922 -18.818  1.00  0.00     0.010 A 
ATOM      4  C   UNL     1     -17.912  35.125 -17.132  1.00  0.00     0.010 A 
ATOM      5  C   UNL     1     -19.114  33.994 -18.896  1.00  0.00     0.001 A 
ATOM      6  C   UNL     1     -18.964  35.088 -18.047  1.00  0.00     0.001 A 
ENDROOT
BRANCH   1   7
ATOM      7  C   UNL     1     -16.330  31.711 -17.774  1.00  0.00     0.072 C 
ATOM      8  O   UNL     1     -15.432  31.478 -18.625  1.00  0.00    -0.545 OA
ATOM      9  O   UNL     1     -16.566  30.780 -16.769  1.00  0.00    -0.545 OA
ENDBRANCH   1   7
BRANCH   2  10
ATOM     10  C   UNL     1     -15.831  34.222 -16.142  1.00  0.00     0.072 C 
ATOM     11  O   UNL     1     -14.827  34.899 -16.487  1.00  0.00    -0.545 OA
ATOM     12  O   UNL     1     -15.870  33.675 -14.864  1.00  0.00    -0.545 OA
ENDBRANCH   2  10
TORSDOF 2
ENDMDL
MODEL 3
REMARK VINA RESULT:    -3.752      8.260     10.047
REMARK INTER + INTRA:          -4.397
REMARK INTER:                  -4.167
REMARK INTRA:                  -0.230
REMARK UNBOUND:                -0.207
REMARK SMILES O=C([O-])c1ccccc1C(=O)[O-]
REMARK SMILES IDX 4 1 9 2 5 3 8 4 6 5 7 6 2 7 1 8 3 9 10 10 11 11 12 12
REMARK H PARENT
REMARK Flexibility Score: inf
ROOT
ATOM      1  C   UNL     1     -17.796  24.919 -13.715  1.00  0.00     0.006 A 
ATOM      2  C   UNL     1     -17.155  24.775 -12.452  1.00  0.00     0.006 A 
ATOM      3  C   UNL     1     -18.935  24.141 -13.997  1.00  0.00     0.010 A 
ATOM      4  C   UNL     1     -17.639  23.813 -11.546  1.00  0.00     0.010 A 
ATOM      5  C   UNL     1     -19.410  23.209 -13.074  1.00  0.00     0.001 A 
ATOM      6  C   UNL     1     -18.756  23.037 -11.856  1.00  0.00     0.001 A 
ENDROOT
BRANCH   1   7
ATOM      7  C   UNL     1     -17.273  25.805 -14.781  1.00  0.00     0.072 C 
ATOM      8  O   UNL     1     -16.422  25.373 -15.603  1.00  0.00    -0.545 OA
ATOM      9  O   UNL     1     -17.663  27.138 -14.849  1.00  0.00    -0.545 OA
ENDBRANCH   1   7
BRANCH   2  10
ATOM     10  C   UNL     1     -16.039  25.642 -12.012  1.00  0.00     0.072 C 
ATOM     11  O   UNL     1     -14.844  25.322 -12.245  1.00  0.00    -0.545 OA
ATOM     12  O   UNL     1     -16.304  26.859 -11.393  1.00  0.00    -0.545 OA
ENDBRANCH   2  10
TORSDOF 2
ENDMDL
MODEL 4
REMARK VINA RESULT:    -3.733     13.756     15.346
REMARK INTER + INTRA:          -4.377
REMARK INTER:                  -4.157
REMARK INTRA:                  -0.220
REMARK UNBOUND:                -0.207
REMARK SMILES O=C([O-])c1ccccc1C(=O)[O-]
REMARK SMILES IDX 4 1 9 2 5 3 8 4 6 5 7 6 2 7 1 8 3 9 10 10 11 11 12 12
REMARK H PARENT
REMARK Flexibility Score: inf
ROOT
ATOM      1  C   UNL     1      -5.297  25.127 -11.144  1.00  0.00     0.006 A 
ATOM      2  C   UNL     1      -5.915  26.284 -11.696  1.00  0.00     0.006 A 
ATOM      3  C   UNL     1      -4.265  24.494 -11.863  1.00  0.00     0.010 A 
ATOM      4  C   UNL     1      -5.523  26.725 -12.974  1.00  0.00     0.010 A 
ATOM      5  C   UNL     1      -3.877  24.962 -13.118  1.00  0.00     0.001 A 
ATOM      6  C   UNL     1      -4.513  26.069 -13.677  1.00  0.00     0.001 A 
ENDROOT
BRANCH   1   7
ATOM      7  C   UNL     1      -5.741  24.512  -9.872  1.00  0.00     0.072 C 
ATOM      8  O   UNL     1      -6.589  23.581  -9.880  1.00  0.00    -0.545 OA
ATOM      9  O   UNL     1      -5.282  24.996  -8.652  1.00  0.00    -0.545 OA
ENDBRANCH   1   7
BRANCH   2  10
ATOM     10  C   UNL     1      -6.910  27.095 -10.958  1.00  0.00     0.072 C 
ATOM     11  O   UNL     1      -8.142  26.959 -11.177  1.00  0.00    -0.545 OA
ATOM     12  O   UNL     1      -6.493  27.973  -9.963  1.00  0.00    -0.545 OA
ENDBRANCH   2  10
TORSDOF 2
ENDMDL
MODEL 5
REMARK VINA RESULT:    -3.730      1.396      2.142
REMARK INTER + INTRA:          -4.373
REMARK INTER:                  -4.166
REMARK INTRA:                  -0.207
REMARK UNBOUND:                -0.207
REMARK SMILES O=C([O-])c1ccccc1C(=O)[O-]
REMARK SMILES IDX 4 1 9 2 5 3 8 4 6 5 7 6 2 7 1 8 3 9 10 10 11 11 12 12
REMARK H PARENT
REMARK Flexibility Score: inf
ROOT
ATOM      1  C   UNL     1     -17.236  33.092 -18.246  1.00  0.00     0.006 A 
ATOM      2  C   UNL     1     -17.367  31.675 -18.230  1.00  0.00     0.006 A 
ATOM      3  C   UNL     1     -18.161  33.856 -18.984  1.00  0.00     0.010 A 
ATOM      4  C   UNL     1     -18.376  31.073 -19.004  1.00  0.00     0.010 A 
ATOM      5  C   UNL     1     -19.168  33.238 -19.726  1.00  0.00     0.001 A 
ATOM      6  C   UNL     1     -19.268  31.849 -19.745  1.00  0.00     0.001 A 
ENDROOT
BRANCH   1   7
ATOM      7  C   UNL     1     -16.121  33.801 -17.575  1.00  0.00     0.072 C 
ATOM      8  O   UNL     1     -15.085  34.106 -18.222  1.00  0.00    -0.545 OA
ATOM      9  O   UNL     1     -16.176  34.079 -16.214  1.00  0.00    -0.545 OA
ENDBRANCH   1   7
BRANCH   2  10
ATOM     10  C   UNL     1     -16.531  30.799 -17.378  1.00  0.00     0.072 C 
ATOM     11  O   UNL     1     -16.804  30.632 -16.161  1.00  0.00    -0.545 OA
ATOM     12  O   UNL     1     -15.469  30.094 -17.935  1.00  0.00    -0.545 OA
ENDBRANCH   2  10
TORSDOF 2
ENDMDL
MODEL 6
REMARK VINA RESULT:    -3.724     12.352     14.309
REMARK INTER + INTRA:          -4.366
REMARK INTER:                  -4.163
REMARK INTRA:                  -0.203
REMARK UNBOUND:                -0.207
REMARK SMILES O=C([O-])c1ccccc1C(=O)[O-]
REMARK SMILES IDX 4 1 9 2 5 3 8 4 6 5 7 6 2 7 1 8 3 9 10 10 11 11 12 12
REMARK H PARENT
REMARK Flexibility Score: inf
ROOT
ATOM      1  C   UNL     1      -7.007  30.258  -8.564  1.00  0.00     0.006 A 
ATOM      2  C   UNL     1      -7.348  30.906  -7.344  1.00  0.00     0.006 A 
ATOM      3  C   UNL     1      -5.661  30.248  -8.980  1.00  0.00     0.010 A 
ATOM      4  C   UNL     1      -6.344  31.575  -6.620  1.00  0.00     0.010 A 
ATOM      5  C   UNL     1      -4.678  30.898  -8.234  1.00  0.00     0.001 A 
ATOM      6  C   UNL     1      -5.021  31.570  -7.062  1.00  0.00     0.001 A 
ENDROOT
BRANCH   1   7
ATOM      7  C   UNL     1      -8.019  29.651  -9.459  1.00  0.00     0.072 C 
ATOM      8  O   UNL     1      -8.066  28.401  -9.607  1.00  0.00    -0.545 OA
ATOM      9  O   UNL     1      -8.885  30.452 -10.195  1.00  0.00    -0.545 OA
ENDBRANCH   1   7
BRANCH   2  10
ATOM     10  C   UNL     1      -8.707  30.853  -6.757  1.00  0.00     0.072 C 
ATOM     11  O   UNL     1      -9.507  31.814  -6.897  1.00  0.00    -0.545 OA
ATOM     12  O   UNL     1      -9.137  29.706  -6.098  1.00  0.00    -0.545 OA
ENDBRANCH   2  10
TORSDOF 2
ENDMDL
MODEL 7
REMARK VINA RESULT:    -3.714      8.449      9.972
REMARK INTER + INTRA:          -4.355
REMARK INTER:                  -4.162
REMARK INTRA:                  -0.193
REMARK UNBOUND:                -0.207
REMARK SMILES O=C([O-])c1ccccc1C(=O)[O-]
REMARK SMILES IDX 4 1 9 2 5 3 8 4 6 5 7 6 2 7 1 8 3 9 10 10 11 11 12 12
REMARK H PARENT
REMARK Flexibility Score: inf
ROOT
ATOM      1  C   UNL     1     -13.968  27.642 -10.833  1.00  0.00     0.006 A 
ATOM      2  C   UNL     1     -13.160  26.555 -11.269  1.00  0.00     0.006 A 
ATOM      3  C   UNL     1     -13.661  28.277  -9.614  1.00  0.00     0.010 A 
ATOM      4  C   UNL     1     -12.117  26.102 -10.440  1.00  0.00     0.010 A 
ATOM      5  C   UNL     1     -12.607  27.825  -8.819  1.00  0.00     0.001 A 
ATOM      6  C   UNL     1     -11.844  26.733  -9.226  1.00  0.00     0.001 A 
ENDROOT
BRANCH   1   7
ATOM      7  C   UNL     1     -15.169  28.094 -11.573  1.00  0.00     0.072 C 
ATOM      8  O   UNL     1     -16.272  27.511 -11.406  1.00  0.00    -0.545 OA
ATOM      9  O   UNL     1     -15.081  29.121 -12.506  1.00  0.00    -0.545 OA
ENDBRANCH   1   7
BRANCH   2  10
ATOM     10  C   UNL     1     -13.319  25.915 -12.595  1.00  0.00     0.072 C 
ATOM     11  O   UNL     1     -12.500  26.143 -13.523  1.00  0.00    -0.545 OA
ATOM     12  O   UNL     1     -14.343  24.999 -12.808  1.00  0.00    -0.545 OA
ENDBRANCH   2  10
TORSDOF 2
ENDMDL
MODEL 8
REMARK VINA RESULT:    -3.702      8.483     10.352
REMARK INTER + INTRA:          -4.341
REMARK INTER:                  -4.166
REMARK INTRA:                  -0.175
REMARK UNBOUND:                -0.207
REMARK SMILES O=C([O-])c1ccccc1C(=O)[O-]
REMARK SMILES IDX 4 1 9 2 5 3 8 4 6 5 7 6 2 7 1 8 3 9 10 10 11 11 12 12
REMARK H PARENT
REMARK Flexibility Score: inf
ROOT
ATOM      1  C   UNL     1     -13.117  26.534 -11.216  1.00  0.00     0.006 A 
ATOM      2  C   UNL     1     -13.934  27.632 -10.822  1.00  0.00     0.006 A 
ATOM      3  C   UNL     1     -12.087  26.106 -10.357  1.00  0.00     0.010 A 
ATOM      4  C   UNL     1     -13.648  28.299  -9.616  1.00  0.00     0.010 A 
ATOM      5  C   UNL     1     -11.836  26.769  -9.156  1.00  0.00     0.001 A 
ATOM      6  C   UNL     1     -12.607  27.870  -8.792  1.00  0.00     0.001 A 
ENDROOT
BRANCH   1   7
ATOM      7  C   UNL     1     -13.257  25.863 -12.529  1.00  0.00     0.072 C 
ATOM      8  O   UNL     1     -12.448  26.117 -13.459  1.00  0.00    -0.545 OA
ATOM      9  O   UNL     1     -14.318  24.999 -12.773  1.00  0.00    -0.545 OA
ENDBRANCH   1   7
BRANCH   2  10
ATOM     10  C   UNL     1     -15.123  28.067 -11.589  1.00  0.00     0.072 C 
ATOM     11  O   UNL     1     -16.241  27.516 -11.413  1.00  0.00    -0.545 OA
ATOM     12  O   UNL     1     -15.030  29.139 -12.469  1.00  0.00    -0.545 OA
ENDBRANCH   2  10
TORSDOF 2
ENDMDL
MODEL 9
REMARK VINA RESULT:    -3.673     12.423     14.150
REMARK INTER + INTRA:          -4.309
REMARK INTER:                  -4.114
REMARK INTRA:                  -0.195
REMARK UNBOUND:                -0.207
REMARK SMILES O=C([O-])c1ccccc1C(=O)[O-]
REMARK SMILES IDX 4 1 9 2 5 3 8 4 6 5 7 6 2 7 1 8 3 9 10 10 11 11 12 12
REMARK H PARENT
REMARK Flexibility Score: inf
ROOT
ATOM      1  C   UNL     1      -7.354  30.925  -7.323  1.00  0.00     0.006 A 
ATOM      2  C   UNL     1      -6.955  30.288  -8.532  1.00  0.00     0.006 A 
ATOM      3  C   UNL     1      -6.392  31.623  -6.569  1.00  0.00     0.010 A 
ATOM      4  C   UNL     1      -5.598  30.317  -8.906  1.00  0.00     0.010 A 
ATOM      5  C   UNL     1      -5.056  31.658  -6.970  1.00  0.00     0.001 A 
ATOM      6  C   UNL     1      -4.659  30.998  -8.130  1.00  0.00     0.001 A 
ENDROOT
BRANCH   1   7
ATOM      7  C   UNL     1      -8.730  30.826  -6.783  1.00  0.00     0.072 C 
ATOM      8  O   UNL     1      -9.538  31.781  -6.929  1.00  0.00    -0.545 OA
ATOM      9  O   UNL     1      -9.125  29.711  -6.053  1.00  0.00    -0.545 OA
ENDBRANCH   1   7
BRANCH   2  10
ATOM     10  C   UNL     1      -7.915  29.648  -9.460  1.00  0.00     0.072 C 
ATOM     11  O   UNL     1      -7.977  28.395  -9.561  1.00  0.00    -0.545 OA
ATOM     12  O   UNL     1      -8.809  30.429 -10.185  1.00  0.00    -0.545 OA
ENDBRANCH   2  10
TORSDOF 2
ENDMDL
