MODEL 1
REMARK VINA RESULT:    -3.590      0.000      0.000
REMARK INTER + INTRA:          -5.592
REMARK INTER:                  -5.479
REMARK INTRA:                  -0.113
REMARK UNBOUND:                -0.113
REMARK SMILES CC1=CCC[C@H](C)C(=O)C[C@@H](C(C)C)C(=O)C1
REMARK SMILES IDX 8 1 9 2 6 3 7 4 5 5 4 6 3 7 2 8 1 9 10 11 11 12 15 13 16 14
REMARK SMILES IDX 17 15 12 17 13 18 14 19
REMARK H PARENT
REMARK Flexibility Score: 70.00
ROOT
ATOM      1  C   UNL     1     -18.157  10.814 -29.643  1.00  0.00     0.136 C 
ATOM      2  O   UNL     1     -19.028  10.136 -29.114  1.00  0.00    -0.299 OA
ENDROOT
BRANCH   1   3
ATOM      3  C   UNL     1     -18.483  12.207 -30.167  1.00  0.00     0.053 C 
ATOM      4  C   UNL     1     -18.189  13.303 -29.129  1.00  0.00     0.016 C 
BRANCH   3   5
ATOM      5  C   UNL     1     -17.776  12.509 -31.506  1.00  0.00     0.015 C 
BRANCH   5   6
ATOM      6  C   UNL     1     -16.768  13.672 -31.416  1.00  0.00     0.028 C 
BRANCH   6   7
ATOM      7  C   UNL     1     -15.476  13.385 -32.140  1.00  0.00    -0.028 C 
ATOM      8  C   UNL     1     -14.296  13.051 -31.560  1.00  0.00    -0.070 CG0
ATOM      9  C   UNL     1     -13.096  12.916 -32.466  1.00  0.00     0.039 C 
ATOM     10  G   UNL     1     -14.121  12.744 -30.075  1.00  0.00     0.000 G0
ENDBRANCH   6   7
ENDBRANCH   5   6
ENDBRANCH   3   5
ENDBRANCH   1   3
BRANCH   1  11
ATOM     11  C   UNL     1     -16.773  10.229 -29.796  1.00  0.00     0.087 C 
BRANCH  11  12
ATOM     12  C   UNL     1     -15.713  10.947 -28.913  1.00  0.00     0.066 C 
BRANCH  12  13
ATOM     13  C   UNL     1     -14.442  11.329 -29.664  1.00  0.00     0.140 C 
ATOM     14  O   UNL     1     -13.707  10.435 -30.058  1.00  0.00    -0.299 OA
BRANCH  13  15
ATOM     15  C   UNL     1     -14.130  12.750 -30.070  1.00  0.00     0.106 CG0
ATOM     16  G   UNL     1     -14.307  13.031 -31.560  1.00  0.00     0.000 G0
ENDBRANCH  13  15
ENDBRANCH  12  13
BRANCH  12  17
ATOM     17  C   UNL     1     -15.381  10.185 -27.588  1.00  0.00    -0.006 C 
ATOM     18  C   UNL     1     -16.568  10.057 -26.616  1.00  0.00     0.008 C 
ATOM     19  C   UNL     1     -14.185  10.819 -26.858  1.00  0.00     0.008 C 
ENDBRANCH  12  17
ENDBRANCH  11  12
ENDBRANCH   1  11
TORSDOF 1
ENDMDL
MODEL 2
REMARK VINA RESULT:    -3.527      1.798      4.154
REMARK INTER + INTRA:          -5.496
REMARK INTER:                  -5.558
REMARK INTRA:                   0.062
REMARK UNBOUND:                -0.113
REMARK SMILES CC1=CCC[C@H](C)C(=O)C[C@@H](C(C)C)C(=O)C1
REMARK SMILES IDX 8 1 9 2 6 3 7 4 5 5 4 6 3 7 2 8 1 9 10 11 11 12 15 13 16 14
REMARK SMILES IDX 17 15 12 17 13 18 14 19
REMARK H PARENT
REMARK Flexibility Score: 70.00
ROOT
ATOM      1  C   UNL     1     -16.932  13.020 -31.116  1.00  0.00     0.136 C 
ATOM      2  O   UNL     1     -17.172  13.086 -32.314  1.00  0.00    -0.299 OA
ENDROOT
BRANCH   1   3
ATOM      3  C   UNL     1     -18.043  12.682 -30.130  1.00  0.00     0.053 C 
ATOM      4  C   UNL     1     -18.796  11.397 -30.518  1.00  0.00     0.016 C 
BRANCH   3   5
ATOM      5  C   UNL     1     -17.532  12.604 -28.675  1.00  0.00     0.015 C 
BRANCH   5   6
ATOM      6  C   UNL     1     -17.374  11.161 -28.158  1.00  0.00     0.028 C 
BRANCH   6   7
ATOM      7  C   UNL     1     -15.960  10.839 -27.743  1.00  0.00    -0.028 C 
ATOM      8  C   UNL     1     -14.970  10.400 -28.560  1.00  0.00    -0.070 CG0
ATOM      9  C   UNL     1     -13.656  10.029 -27.915  1.00  0.00     0.039 C 
ATOM     10  G   UNL     1     -15.080  10.318 -30.081  1.00  0.00     0.000 G0
ENDBRANCH   6   7
ENDBRANCH   5   6
ENDBRANCH   3   5
ENDBRANCH   1   3
BRANCH   1  11
ATOM     11  C   UNL     1     -15.530  13.315 -30.638  1.00  0.00     0.087 C 
BRANCH  11  12
ATOM     12  C   UNL     1     -14.444  12.544 -31.442  1.00  0.00     0.066 C 
BRANCH  12  13
ATOM     13  C   UNL     1     -14.062  11.200 -30.830  1.00  0.00     0.140 C 
ATOM     14  O   UNL     1     -12.883  10.876 -30.826  1.00  0.00    -0.299 OA
BRANCH  13  15
ATOM     15  C   UNL     1     -15.053  10.327 -30.098  1.00  0.00     0.106 CG0
ATOM     16  G   UNL     1     -14.971  10.421 -28.576  1.00  0.00     0.000 G0
ENDBRANCH  13  15
ENDBRANCH  12  13
BRANCH  12  17
ATOM     17  C   UNL     1     -13.175  13.401 -31.763  1.00  0.00    -0.006 C 
ATOM     18  C   UNL     1     -13.327  14.900 -31.446  1.00  0.00     0.008 C 
ATOM     19  C   UNL     1     -12.732  13.227 -33.225  1.00  0.00     0.008 C 
ENDBRANCH  12  17
ENDBRANCH  11  12
ENDBRANCH   1  11
TORSDOF 1
ENDMDL
MODEL 3
REMARK VINA RESULT:    -3.098      2.179      5.031
REMARK INTER + INTRA:          -4.841
REMARK INTER:                  -4.574
REMARK INTRA:                  -0.268
REMARK UNBOUND:                -0.113
REMARK SMILES CC1=CCC[C@H](C)C(=O)C[C@@H](C(C)C)C(=O)C1
REMARK SMILES IDX 8 1 9 2 6 3 7 4 5 5 4 6 3 7 2 8 1 9 10 11 11 12 15 13 16 14
REMARK SMILES IDX 17 15 12 17 13 18 14 19
REMARK H PARENT
REMARK Flexibility Score: 70.00
ROOT
ATOM      1  C   UNL     1     -14.898  11.493 -29.171  1.00  0.00     0.136 C 
ATOM      2  O   UNL     1     -14.421  12.510 -28.686  1.00  0.00    -0.299 OA
ENDROOT
BRANCH   1   3
ATOM      3  C   UNL     1     -15.228  10.302 -28.281  1.00  0.00     0.053 C 
ATOM      4  C   UNL     1     -14.175  10.087 -27.181  1.00  0.00     0.016 C 
BRANCH   3   5
ATOM      5  C   UNL     1     -16.647  10.398 -27.676  1.00  0.00     0.015 C 
BRANCH   5   6
ATOM      6  C   UNL     1     -17.749   9.875 -28.617  1.00  0.00     0.028 C 
BRANCH   6   7
ATOM      7  C   UNL     1     -18.799  10.914 -28.924  1.00  0.00    -0.028 C 
ATOM      8  C   UNL     1     -18.896  11.633 -30.070  1.00  0.00    -0.070 CG0
ATOM      9  C   UNL     1     -19.960  12.703 -30.125  1.00  0.00     0.039 C 
ATOM     10  G   UNL     1     -18.049  11.388 -31.316  1.00  0.00     0.000 G0
ENDBRANCH   6   7
ENDBRANCH   5   6
ENDBRANCH   3   5
ENDBRANCH   1   3
BRANCH   1  11
ATOM     11  C   UNL     1     -15.115  11.433 -30.665  1.00  0.00     0.087 C 
BRANCH  11  12
ATOM     12  C   UNL     1     -15.735  12.739 -31.237  1.00  0.00     0.066 C 
BRANCH  12  13
ATOM     13  C   UNL     1     -17.179  12.583 -31.703  1.00  0.00     0.140 C 
ATOM     14  O   UNL     1     -17.619  13.382 -32.517  1.00  0.00    -0.299 OA
BRANCH  13  15
ATOM     15  C   UNL     1     -18.037  11.401 -31.317  1.00  0.00     0.106 CG0
ATOM     16  G   UNL     1     -18.912  11.634 -30.088  1.00  0.00     0.000 G0
ENDBRANCH  13  15
ENDBRANCH  12  13
BRANCH  12  17
ATOM     17  C   UNL     1     -14.856  13.421 -32.338  1.00  0.00    -0.006 C 
ATOM     18  C   UNL     1     -14.487  12.498 -33.514  1.00  0.00     0.008 C 
ATOM     19  C   UNL     1     -13.577  14.029 -31.741  1.00  0.00     0.008 C 
ENDBRANCH  12  17
ENDBRANCH  11  12
ENDBRANCH   1  11
TORSDOF 1
ENDMDL
MODEL 4
REMARK VINA RESULT:    -2.884      1.936      4.402
REMARK INTER + INTRA:          -4.514
REMARK INTER:                  -4.823
REMARK INTRA:                   0.309
REMARK UNBOUND:                -0.113
REMARK SMILES CC1=CCC[C@H](C)C(=O)C[C@@H](C(C)C)C(=O)C1
REMARK SMILES IDX 8 1 9 2 6 3 7 4 5 5 4 6 3 7 2 8 1 9 10 11 11 12 15 13 16 14
REMARK SMILES IDX 17 15 12 17 13 18 14 19
REMARK H PARENT
REMARK Flexibility Score: 70.00
ROOT
ATOM      1  C   UNL     1     -16.722  12.886 -32.027  1.00  0.00     0.136 C 
ATOM      2  O   UNL     1     -17.114  13.960 -32.461  1.00  0.00    -0.299 OA
ENDROOT
BRANCH   1   3
ATOM      3  C   UNL     1     -15.254  12.498 -32.153  1.00  0.00     0.053 C 
ATOM      4  C   UNL     1     -14.312  13.640 -31.733  1.00  0.00     0.016 C 
BRANCH   3   5
ATOM      5  C   UNL     1     -14.923  11.199 -31.386  1.00  0.00     0.015 C 
BRANCH   5   6
ATOM      6  C   UNL     1     -13.762  11.358 -30.385  1.00  0.00     0.028 C 
BRANCH   6   7
ATOM      7  C   UNL     1     -14.029  10.679 -29.065  1.00  0.00    -0.028 C 
ATOM      8  C   UNL     1     -14.957  11.055 -28.149  1.00  0.00    -0.070 CG0
ATOM      9  C   UNL     1     -14.981  10.302 -26.841  1.00  0.00     0.039 C 
ATOM     10  G   UNL     1     -16.008  12.139 -28.381  1.00  0.00     0.000 G0
ENDBRANCH   6   7
ENDBRANCH   5   6
ENDBRANCH   3   5
ENDBRANCH   1   3
BRANCH   1  11
ATOM     11  C   UNL     1     -17.725  11.944 -31.402  1.00  0.00     0.087 C 
BRANCH  11  12
ATOM     12  C   UNL     1     -18.140  12.373 -29.966  1.00  0.00     0.066 C 
BRANCH  12  13
ATOM     13  C   UNL     1     -17.359  11.665 -28.863  1.00  0.00     0.140 C 
ATOM     14  O   UNL     1     -17.777  10.594 -28.448  1.00  0.00    -0.299 OA
BRANCH  13  15
ATOM     15  C   UNL     1     -16.019  12.156 -28.369  1.00  0.00     0.106 CG0
ATOM     16  G   UNL     1     -14.982  11.054 -28.164  1.00  0.00     0.000 G0
ENDBRANCH  13  15
ENDBRANCH  12  13
BRANCH  12  17
ATOM     17  C   UNL     1     -19.681  12.293 -29.709  1.00  0.00    -0.006 C 
ATOM     18  C   UNL     1     -20.410  11.231 -30.552  1.00  0.00     0.008 C 
ATOM     19  C   UNL     1     -20.357  13.660 -29.908  1.00  0.00     0.008 C 
ENDBRANCH  12  17
ENDBRANCH  11  12
ENDBRANCH   1  11
TORSDOF 1
ENDMDL
MODEL 5
REMARK VINA RESULT:    -2.778      8.839     11.276
REMARK INTER + INTRA:          -4.353
REMARK INTER:                  -6.097
REMARK INTRA:                   1.745
REMARK UNBOUND:                -0.113
REMARK SMILES CC1=CCC[C@H](C)C(=O)C[C@@H](C(C)C)C(=O)C1
REMARK SMILES IDX 8 1 9 2 6 3 7 4 5 5 4 6 3 7 2 8 1 9 10 11 11 12 15 13 16 14
REMARK SMILES IDX 17 15 12 17 13 18 14 19
REMARK H PARENT
REMARK Flexibility Score: 70.00
ROOT
ATOM      1  C   UNL     1     -28.502  12.468 -30.189  1.00  0.00     0.136 C 
ATOM      2  O   UNL     1     -29.100  13.170 -30.993  1.00  0.00    -0.299 OA
ENDROOT
BRANCH   1   3
ATOM      3  C   UNL     1     -29.016  11.073 -29.859  1.00  0.00     0.053 C 
ATOM      4  C   UNL     1     -29.890  10.493 -30.984  1.00  0.00     0.016 C 
BRANCH   3   5
ATOM      5  C   UNL     1     -27.875  10.100 -29.489  1.00  0.00     0.015 C 
BRANCH   5   6
ATOM      6  C   UNL     1     -27.573  10.056 -27.979  1.00  0.00     0.028 C 
BRANCH   6   7
ATOM      7  C   UNL     1     -26.099   9.953 -27.678  1.00  0.00    -0.028 C 
ATOM      8  C   UNL     1     -25.090  10.140 -28.565  1.00  0.00    -0.070 CG0
ATOM      9  C   UNL     1     -23.685   9.877 -28.078  1.00  0.00     0.039 C 
ATOM     10  G   UNL     1     -25.279  10.656 -29.990  1.00  0.00     0.000 G0
ENDBRANCH   6   7
ENDBRANCH   5   6
ENDBRANCH   3   5
ENDBRANCH   1   3
BRANCH   1  11
ATOM     11  C   UNL     1     -27.273  13.026 -29.509  1.00  0.00     0.087 C 
BRANCH  11  12
ATOM     12  C   UNL     1     -26.062  13.167 -30.475  1.00  0.00     0.066 C 
BRANCH  12  13
ATOM     13  C   UNL     1     -24.972  12.123 -30.251  1.00  0.00     0.140 C 
ATOM     14  O   UNL     1     -23.817  12.505 -30.124  1.00  0.00    -0.299 OA
BRANCH  13  15
ATOM     15  C   UNL     1     -25.277  10.661 -30.031  1.00  0.00     0.106 CG0
ATOM     16  G   UNL     1     -25.079  10.186 -28.594  1.00  0.00     0.000 G0
ENDBRANCH  13  15
ENDBRANCH  12  13
BRANCH  12  17
ATOM     17  C   UNL     1     -25.462  14.611 -30.522  1.00  0.00    -0.006 C 
ATOM     18  C   UNL     1     -26.489  15.713 -30.836  1.00  0.00     0.008 C 
ATOM     19  C   UNL     1     -24.290  14.702 -31.513  1.00  0.00     0.008 C 
ENDBRANCH  12  17
ENDBRANCH  11  12
ENDBRANCH   1  11
TORSDOF 1
ENDMDL
MODEL 6
REMARK VINA RESULT:    -2.250     11.975     14.219
REMARK INTER + INTRA:          -3.547
REMARK INTER:                  -3.644
REMARK INTRA:                   0.097
REMARK UNBOUND:                -0.113
REMARK SMILES CC1=CCC[C@H](C)C(=O)C[C@@H](C(C)C)C(=O)C1
REMARK SMILES IDX 8 1 9 2 6 3 7 4 5 5 4 6 3 7 2 8 1 9 10 11 11 12 15 13 16 14
REMARK SMILES IDX 17 15 12 17 13 18 14 19
REMARK H PARENT
REMARK Flexibility Score: 70.00
ROOT
ATOM      1  C   UNL     1     -25.372  17.752 -32.153  1.00  0.00     0.136 C 
ATOM      2  O   UNL     1     -24.719  16.751 -31.889  1.00  0.00    -0.299 OA
ENDROOT
BRANCH   1   3
ATOM      3  C   UNL     1     -24.682  18.994 -32.702  1.00  0.00     0.053 C 
ATOM      4  C   UNL     1     -23.377  19.315 -31.952  1.00  0.00     0.016 C 
BRANCH   3   5
ATOM      5  C   UNL     1     -24.436  18.903 -34.224  1.00  0.00     0.015 C 
BRANCH   5   6
ATOM      6  C   UNL     1     -25.510  19.624 -35.061  1.00  0.00     0.028 C 
BRANCH   6   7
ATOM      7  C   UNL     1     -26.088  20.829 -34.361  1.00  0.00    -0.028 C 
ATOM      8  C   UNL     1     -27.404  21.055 -34.120  1.00  0.00    -0.070 CG0
ATOM      9  C   UNL     1     -27.775  22.382 -33.503  1.00  0.00     0.039 C 
ATOM     10  G   UNL     1     -28.514  20.037 -34.372  1.00  0.00     0.000 G0
ENDBRANCH   6   7
ENDBRANCH   5   6
ENDBRANCH   3   5
ENDBRANCH   1   3
BRANCH   1  11
ATOM     11  C   UNL     1     -26.860  17.740 -31.890  1.00  0.00     0.087 C 
BRANCH  11  12
ATOM     12  C   UNL     1     -27.703  17.786 -33.196  1.00  0.00     0.066 C 
BRANCH  12  13
ATOM     13  C   UNL     1     -28.636  18.990 -33.284  1.00  0.00     0.140 C 
ATOM     14  O   UNL     1     -29.434  19.176 -32.378  1.00  0.00    -0.299 OA
BRANCH  13  15
ATOM     15  C   UNL     1     -28.512  20.040 -34.363  1.00  0.00     0.106 CG0
ATOM     16  G   UNL     1     -27.397  21.056 -34.127  1.00  0.00     0.000 G0
ENDBRANCH  13  15
ENDBRANCH  12  13
BRANCH  12  17
ATOM     17  C   UNL     1     -28.468  16.455 -33.495  1.00  0.00    -0.006 C 
ATOM     18  C   UNL     1     -29.918  16.652 -33.976  1.00  0.00     0.008 C 
ATOM     19  C   UNL     1     -28.453  15.511 -32.281  1.00  0.00     0.008 C 
ENDBRANCH  12  17
ENDBRANCH  11  12
ENDBRANCH   1  11
TORSDOF 1
ENDMDL
MODEL 7
REMARK VINA RESULT:    -2.189      9.425     11.750
REMARK INTER + INTRA:          -3.454
REMARK INTER:                  -3.793
REMARK INTRA:                   0.339
REMARK UNBOUND:                -0.113
REMARK SMILES CC1=CCC[C@H](C)C(=O)C[C@@H](C(C)C)C(=O)C1
REMARK SMILES IDX 8 1 9 2 6 3 7 4 5 5 4 6 3 7 2 8 1 9 10 11 11 12 15 13 16 14
REMARK SMILES IDX 17 15 12 17 13 18 14 19
REMARK H PARENT
REMARK Flexibility Score: 70.00
ROOT
ATOM      1  C   UNL     1     -25.307  13.608 -30.063  1.00  0.00     0.136 C 
ATOM      2  O   UNL     1     -24.180  13.788 -30.505  1.00  0.00    -0.299 OA
ENDROOT
BRANCH   1   3
ATOM      3  C   UNL     1     -26.454  14.510 -30.499  1.00  0.00     0.053 C 
ATOM      4  C   UNL     1     -25.982  15.937 -30.824  1.00  0.00     0.016 C 
BRANCH   3   5
ATOM      5  C   UNL     1     -27.256  13.912 -31.676  1.00  0.00     0.015 C 
BRANCH   5   6
ATOM      6  C   UNL     1     -28.780  14.078 -31.524  1.00  0.00     0.028 C 
BRANCH   6   7
ATOM      7  C   UNL     1     -29.303  13.532 -30.219  1.00  0.00    -0.028 C 
ATOM      8  C   UNL     1     -29.182  12.252 -29.785  1.00  0.00    -0.070 CG0
ATOM      9  C   UNL     1     -29.878  11.891 -28.495  1.00  0.00     0.039 C 
ATOM     10  G   UNL     1     -28.342  11.182 -30.480  1.00  0.00     0.000 G0
ENDBRANCH   6   7
ENDBRANCH   5   6
ENDBRANCH   3   5
ENDBRANCH   1   3
BRANCH   1  11
ATOM     11  C   UNL     1     -25.525  12.502 -29.056  1.00  0.00     0.087 C 
BRANCH  11  12
ATOM     12  C   UNL     1     -25.782  11.121 -29.724  1.00  0.00     0.066 C 
BRANCH  12  13
ATOM     13  C   UNL     1     -27.223  10.637 -29.602  1.00  0.00     0.140 C 
ATOM     14  O   UNL     1     -27.506   9.875 -28.688  1.00  0.00    -0.299 OA
BRANCH  13  15
ATOM     15  C   UNL     1     -28.339  11.173 -30.466  1.00  0.00     0.106 CG0
ATOM     16  G   UNL     1     -29.193  12.247 -29.796  1.00  0.00     0.000 G0
ENDBRANCH  13  15
ENDBRANCH  12  13
BRANCH  12  17
ATOM     17  C   UNL     1     -24.773  10.012 -29.279  1.00  0.00    -0.006 C 
ATOM     18  C   UNL     1     -24.290  10.142 -27.823  1.00  0.00     0.008 C 
ATOM     19  C   UNL     1     -23.557   9.945 -30.219  1.00  0.00     0.008 C 
ENDBRANCH  12  17
ENDBRANCH  11  12
ENDBRANCH   1  11
TORSDOF 1
ENDMDL
MODEL 8
REMARK VINA RESULT:    -2.148      9.022     11.398
REMARK INTER + INTRA:          -3.392
REMARK INTER:                  -4.689
REMARK INTRA:                   1.298
REMARK UNBOUND:                -0.113
REMARK SMILES CC1=CCC[C@H](C)C(=O)C[C@@H](C(C)C)C(=O)C1
REMARK SMILES IDX 8 1 9 2 6 3 7 4 5 5 4 6 3 7 2 8 1 9 10 11 11 12 15 13 16 14
REMARK SMILES IDX 17 15 12 17 13 18 14 19
REMARK H PARENT
REMARK Flexibility Score: 70.00
ROOT
ATOM      1  C   UNL     1     -27.581  13.464 -30.630  1.00  0.00     0.136 C 
ATOM      2  O   UNL     1     -27.599  14.173 -31.628  1.00  0.00    -0.299 OA
ENDROOT
BRANCH   1   3
ATOM      3  C   UNL     1     -28.816  12.662 -30.239  1.00  0.00     0.053 C 
ATOM      4  C   UNL     1     -30.114  13.469 -30.413  1.00  0.00     0.016 C 
BRANCH   3   5
ATOM      5  C   UNL     1     -28.899  11.313 -30.985  1.00  0.00     0.015 C 
BRANCH   5   6
ATOM      6  C   UNL     1     -29.179  10.116 -30.056  1.00  0.00     0.028 C 
BRANCH   6   7
ATOM      7  C   UNL     1     -28.294  10.103 -28.834  1.00  0.00    -0.028 C 
ATOM      8  C   UNL     1     -26.938  10.068 -28.834  1.00  0.00    -0.070 CG0
ATOM      9  C   UNL     1     -26.251   9.947 -27.495  1.00  0.00     0.039 C 
ATOM     10  G   UNL     1     -26.071  10.207 -30.083  1.00  0.00     0.000 G0
ENDBRANCH   6   7
ENDBRANCH   5   6
ENDBRANCH   3   5
ENDBRANCH   1   3
BRANCH   1  11
ATOM     11  C   UNL     1     -26.330  13.431 -29.784  1.00  0.00     0.087 C 
BRANCH  11  12
ATOM     12  C   UNL     1     -25.158  12.674 -30.470  1.00  0.00     0.066 C 
BRANCH  12  13
ATOM     13  C   UNL     1     -24.963  11.250 -29.959  1.00  0.00     0.140 C 
ATOM     14  O   UNL     1     -23.948  10.991 -29.328  1.00  0.00    -0.299 OA
BRANCH  13  15
ATOM     15  C   UNL     1     -26.033  10.190 -30.071  1.00  0.00     0.106 CG0
ATOM     16  G   UNL     1     -26.932  10.072 -28.843  1.00  0.00     0.000 G0
ENDBRANCH  13  15
ENDBRANCH  12  13
BRANCH  12  17
ATOM     17  C   UNL     1     -23.810  13.467 -30.463  1.00  0.00    -0.006 C 
ATOM     18  C   UNL     1     -23.799  14.707 -31.375  1.00  0.00     0.008 C 
ATOM     19  C   UNL     1     -22.620  12.559 -30.815  1.00  0.00     0.008 C 
ENDBRANCH  12  17
ENDBRANCH  11  12
ENDBRANCH   1  11
TORSDOF 1
ENDMDL
MODEL 9
REMARK VINA RESULT:    -2.071      9.170     11.787
REMARK INTER + INTRA:          -3.274
REMARK INTER:                  -4.762
REMARK INTRA:                   1.488
REMARK UNBOUND:                -0.113
REMARK SMILES CC1=CCC[C@H](C)C(=O)C[C@@H](C(C)C)C(=O)C1
REMARK SMILES IDX 8 1 9 2 6 3 7 4 5 5 4 6 3 7 2 8 1 9 10 11 11 12 15 13 16 14
REMARK SMILES IDX 17 15 12 17 13 18 14 19
REMARK H PARENT
REMARK Flexibility Score: 70.00
ROOT
ATOM      1  C   UNL     1     -25.304  10.588 -30.203  1.00  0.00     0.136 C 
ATOM      2  O   UNL     1     -25.929   9.944 -31.035  1.00  0.00    -0.299 OA
ENDROOT
BRANCH   1   3
ATOM      3  C   UNL     1     -25.087  10.027 -28.804  1.00  0.00     0.053 C 
ATOM      4  C   UNL     1     -23.617  10.119 -28.360  1.00  0.00     0.016 C 
BRANCH   3   5
ATOM      5  C   UNL     1     -26.021  10.679 -27.760  1.00  0.00     0.015 C 
BRANCH   5   6
ATOM      6  C   UNL     1     -27.312   9.875 -27.509  1.00  0.00     0.028 C 
BRANCH   6   7
ATOM      7  C   UNL     1     -28.329  10.039 -28.611  1.00  0.00    -0.028 C 
ATOM      8  C   UNL     1     -28.701  11.211 -29.184  1.00  0.00    -0.070 CG0
ATOM      9  C   UNL     1     -29.820  11.160 -30.196  1.00  0.00     0.039 C 
ATOM     10  G   UNL     1     -28.023  12.553 -28.920  1.00  0.00     0.000 G0
ENDBRANCH   6   7
ENDBRANCH   5   6
ENDBRANCH   3   5
ENDBRANCH   1   3
BRANCH   1  11
ATOM     11  C   UNL     1     -24.787  11.957 -30.582  1.00  0.00     0.087 C 
BRANCH  11  12
ATOM     12  C   UNL     1     -25.574  13.110 -29.895  1.00  0.00     0.066 C 
BRANCH  12  13
ATOM     13  C   UNL     1     -27.087  13.006 -30.062  1.00  0.00     0.140 C 
ATOM     14  O   UNL     1     -27.564  13.179 -31.175  1.00  0.00    -0.299 OA
BRANCH  13  15
ATOM     15  C   UNL     1     -28.001  12.555 -28.948  1.00  0.00     0.106 CG0
ATOM     16  G   UNL     1     -28.697  11.221 -29.207  1.00  0.00     0.000 G0
ENDBRANCH  13  15
ENDBRANCH  12  13
BRANCH  12  17
ATOM     17  C   UNL     1     -25.059  14.536 -30.278  1.00  0.00    -0.006 C 
ATOM     18  C   UNL     1     -26.167  15.518 -30.700  1.00  0.00     0.008 C 
ATOM     19  C   UNL     1     -23.985  14.471 -31.377  1.00  0.00     0.008 C 
ENDBRANCH  12  17
ENDBRANCH  11  12
ENDBRANCH   1  11
TORSDOF 1
ENDMDL
