MODEL 1
REMARK VINA RESULT:    -1.905      0.000      0.000
REMARK INTER + INTRA:         -11.796
REMARK INTER:                  -5.022
REMARK INTRA:                  -6.774
REMARK UNBOUND:                -6.774
REMARK SMILES CCCCCCCCCCCCCCCCCCCCCCCCCCCCCC(=O)[O-]
REMARK SMILES IDX 16 1 17 2 18 3 19 4 20 5 21 6 22 7 23 8 24 9 25 10 26 11
REMARK SMILES IDX 27 12 28 13 29 14 30 15 31 16 32 17 15 18 14 19 13 20 12 21
REMARK SMILES IDX 11 22 10 23 9 24 8 25 7 26 6 27 5 28 4 29 3 30 2 31 1 32
REMARK H PARENT
REMARK Flexibility Score: inf
ROOT
ATOM      1  C   UNL     1      -3.419  10.129 -10.195  1.00  0.00     0.000 C 
ENDROOT
BRANCH   1   2
ATOM      2  C   UNL     1      -2.648  11.370 -10.685  1.00  0.00     0.000 C 
BRANCH   2   3
ATOM      3  C   UNL     1      -1.657  11.960  -9.666  1.00  0.00     0.000 C 
BRANCH   3   4
ATOM      4  C   UNL     1      -1.114  13.333 -10.087  1.00  0.00     0.000 C 
BRANCH   4   5
ATOM      5  C   UNL     1      -1.352  13.582 -11.584  1.00  0.00     0.000 C 
BRANCH   5   6
ATOM      6  C   UNL     1      -0.121  14.168 -12.296  1.00  0.00     0.000 C 
BRANCH   6   7
ATOM      7  C   UNL     1       0.678  13.163 -13.148  1.00  0.00     0.000 C 
BRANCH   7   8
ATOM      8  C   UNL     1       0.026  11.766 -13.248  1.00  0.00     0.000 C 
BRANCH   8   9
ATOM      9  C   UNL     1       0.811  10.699 -12.465  1.00  0.00     0.000 C 
BRANCH   9  10
ATOM     10  C   UNL     1       2.151  11.222 -11.917  1.00  0.00     0.000 C 
BRANCH  10  11
ATOM     11  C   UNL     1       2.322  11.096 -10.390  1.00  0.00     0.000 C 
BRANCH  11  12
ATOM     12  C   UNL     1       2.455  12.430  -9.630  1.00  0.00     0.000 C 
BRANCH  12  13
ATOM     13  C   UNL     1       2.509  12.306  -8.094  1.00  0.00     0.006 C 
BRANCH  13  14
ATOM     14  C   UNL     1       1.170  11.928  -7.442  1.00  0.00     0.053 C 
BRANCH  14  15
ATOM     15  C   UNL     1       0.624  13.039  -6.600  1.00  0.00     0.041 C 
ATOM     16  O   UNL     1      -0.600  13.333  -6.652  1.00  0.00    -0.550 OA
ATOM     17  O   UNL     1       1.465  13.750  -5.755  1.00  0.00    -0.550 OA
ENDBRANCH  14  15
ENDBRANCH  13  14
ENDBRANCH  12  13
ENDBRANCH  11  12
ENDBRANCH  10  11
ENDBRANCH   9  10
ENDBRANCH   8   9
ENDBRANCH   7   8
ENDBRANCH   6   7
ENDBRANCH   5   6
ENDBRANCH   4   5
ENDBRANCH   3   4
ENDBRANCH   2   3
ENDBRANCH   1   2
BRANCH   1  18
ATOM     18  C   UNL     1      -3.577   9.007 -11.241  1.00  0.00     0.000 C 
BRANCH  18  19
ATOM     19  C   UNL     1      -2.522   9.005 -12.366  1.00  0.00     0.000 C 
BRANCH  19  20
ATOM     20  C   UNL     1      -1.516   7.841 -12.320  1.00  0.00     0.000 C 
BRANCH  20  21
ATOM     21  C   UNL     1      -1.738   6.899 -11.123  1.00  0.00     0.000 C 
BRANCH  21  22
ATOM     22  C   UNL     1      -0.525   6.854 -10.179  1.00  0.00     0.000 C 
BRANCH  22  23
ATOM     23  C   UNL     1      -0.062   8.251  -9.740  1.00  0.00     0.000 C 
BRANCH  23  24
ATOM     24  C   UNL     1      -0.590   8.594  -8.342  1.00  0.00    -0.000 C 
BRANCH  24  25
ATOM     25  C   UNL     1      -1.262   7.375  -7.693  1.00  0.00    -0.000 C 
BRANCH  25  26
ATOM     26  C   UNL     1      -0.401   6.741  -6.587  1.00  0.00    -0.000 C 
BRANCH  26  27
ATOM     27  C   UNL     1      -0.059   5.253  -6.800  1.00  0.00    -0.000 C 
BRANCH  27  28
ATOM     28  C   UNL     1       1.388   4.965  -7.258  1.00  0.00    -0.000 C 
BRANCH  28  29
ATOM     29  C   UNL     1       2.402   6.084  -6.956  1.00  0.00    -0.000 C 
BRANCH  29  30
ATOM     30  C   UNL     1       2.962   6.776  -8.221  1.00  0.00    -0.000 C 
BRANCH  30  31
ATOM     31  C   UNL     1       3.206   8.282  -8.035  1.00  0.00    -0.003 C 
ATOM     32  C   UNL     1       2.802   8.777  -6.648  1.00  0.00     0.004 C 
ENDBRANCH  30  31
ENDBRANCH  29  30
ENDBRANCH  28  29
ENDBRANCH  27  28
ENDBRANCH  26  27
ENDBRANCH  25  26
ENDBRANCH  24  25
ENDBRANCH  23  24
ENDBRANCH  22  23
ENDBRANCH  21  22
ENDBRANCH  20  21
ENDBRANCH  19  20
ENDBRANCH  18  19
ENDBRANCH   1  18
TORSDOF 28
ENDMDL
MODEL 2
REMARK VINA RESULT:    -1.832      2.669      7.108
REMARK INTER + INTRA:         -11.605
REMARK INTER:                  -5.571
REMARK INTRA:                  -6.033
REMARK UNBOUND:                -6.774
REMARK SMILES CCCCCCCCCCCCCCCCCCCCCCCCCCCCCC(=O)[O-]
REMARK SMILES IDX 16 1 17 2 18 3 19 4 20 5 21 6 22 7 23 8 24 9 25 10 26 11
REMARK SMILES IDX 27 12 28 13 29 14 30 15 31 16 32 17 15 18 14 19 13 20 12 21
REMARK SMILES IDX 11 22 10 23 9 24 8 25 7 26 6 27 5 28 4 29 3 30 2 31 1 32
REMARK H PARENT
REMARK Flexibility Score: inf
ROOT
ATOM      1  C   UNL     1      -1.632  10.861  -8.225  1.00  0.00     0.000 C 
ENDROOT
BRANCH   1   2
ATOM      2  C   UNL     1      -2.694   9.892  -8.781  1.00  0.00     0.000 C 
BRANCH   2   3
ATOM      3  C   UNL     1      -3.230  10.252 -10.178  1.00  0.00     0.000 C 
BRANCH   3   4
ATOM      4  C   UNL     1      -3.285   9.045 -11.125  1.00  0.00     0.000 C 
BRANCH   4   5
ATOM      5  C   UNL     1      -4.730   8.749 -11.556  1.00  0.00     0.000 C 
BRANCH   5   6
ATOM      6  C   UNL     1      -5.744   9.745 -10.969  1.00  0.00     0.000 C 
BRANCH   6   7
ATOM      7  C   UNL     1      -6.749   9.139  -9.972  1.00  0.00     0.000 C 
BRANCH   7   8
ATOM      8  C   UNL     1      -6.313   7.776  -9.389  1.00  0.00     0.000 C 
BRANCH   8   9
ATOM      9  C   UNL     1      -5.715   7.911  -7.978  1.00  0.00     0.000 C 
BRANCH   9  10
ATOM     10  C   UNL     1      -4.780   6.745  -7.608  1.00  0.00     0.000 C 
BRANCH  10  11
ATOM     11  C   UNL     1      -3.879   6.245  -8.755  1.00  0.00     0.000 C 
BRANCH  11  12
ATOM     12  C   UNL     1      -2.520   5.663  -8.318  1.00  0.00     0.000 C 
BRANCH  12  13
ATOM     13  C   UNL     1      -1.323   6.625  -8.455  1.00  0.00     0.006 C 
BRANCH  13  14
ATOM     14  C   UNL     1      -0.892   7.291  -7.139  1.00  0.00     0.053 C 
BRANCH  14  15
ATOM     15  C   UNL     1       0.400   6.734  -6.626  1.00  0.00     0.041 C 
ATOM     16  O   UNL     1       0.571   6.564  -5.390  1.00  0.00    -0.550 OA
ATOM     17  O   UNL     1       1.414   6.400  -7.512  1.00  0.00    -0.550 OA
ENDBRANCH  14  15
ENDBRANCH  13  14
ENDBRANCH  12  13
ENDBRANCH  11  12
ENDBRANCH  10  11
ENDBRANCH   9  10
ENDBRANCH   8   9
ENDBRANCH   7   8
ENDBRANCH   6   7
ENDBRANCH   5   6
ENDBRANCH   4   5
ENDBRANCH   3   4
ENDBRANCH   2   3
ENDBRANCH   1   2
BRANCH   1  18
ATOM     18  C   UNL     1      -1.309  12.063  -9.135  1.00  0.00     0.000 C 
BRANCH  18  19
ATOM     19  C   UNL     1       0.002  12.804  -8.805  1.00  0.00     0.000 C 
BRANCH  19  20
ATOM     20  C   UNL     1       0.680  12.382  -7.489  1.00  0.00     0.000 C 
BRANCH  20  21
ATOM     21  C   UNL     1       2.039  11.692  -7.705  1.00  0.00     0.000 C 
BRANCH  21  22
ATOM     22  C   UNL     1       1.924  10.159  -7.715  1.00  0.00     0.000 C 
BRANCH  22  23
ATOM     23  C   UNL     1       2.357   9.540  -9.053  1.00  0.00     0.000 C 
BRANCH  23  24
ATOM     24  C   UNL     1       1.141   9.194  -9.921  1.00  0.00    -0.000 C 
BRANCH  24  25
ATOM     25  C   UNL     1       1.092  10.079 -11.176  1.00  0.00    -0.000 C 
BRANCH  25  26
ATOM     26  C   UNL     1      -0.002   9.645 -12.166  1.00  0.00    -0.000 C 
BRANCH  26  27
ATOM     27  C   UNL     1      -0.399  10.712 -13.207  1.00  0.00    -0.000 C 
BRANCH  27  28
ATOM     28  C   UNL     1      -1.071  11.979 -12.634  1.00  0.00    -0.000 C 
BRANCH  28  29
ATOM     29  C   UNL     1      -1.379  13.078 -13.670  1.00  0.00    -0.000 C 
BRANCH  29  30
ATOM     30  C   UNL     1      -2.596  13.957 -13.301  1.00  0.00    -0.000 C 
BRANCH  30  31
ATOM     31  C   UNL     1      -3.394  13.422 -12.100  1.00  0.00    -0.003 C 
ATOM     32  C   UNL     1      -4.844  13.099 -12.454  1.00  0.00     0.004 C 
ENDBRANCH  30  31
ENDBRANCH  29  30
ENDBRANCH  28  29
ENDBRANCH  27  28
ENDBRANCH  26  27
ENDBRANCH  25  26
ENDBRANCH  24  25
ENDBRANCH  23  24
ENDBRANCH  22  23
ENDBRANCH  21  22
ENDBRANCH  20  21
ENDBRANCH  19  20
ENDBRANCH  18  19
ENDBRANCH   1  18
TORSDOF 28
ENDMDL
MODEL 3
REMARK VINA RESULT:    -1.826      2.092      4.807
REMARK INTER + INTRA:         -11.589
REMARK INTER:                  -5.464
REMARK INTRA:                  -6.125
REMARK UNBOUND:                -6.774
REMARK SMILES CCCCCCCCCCCCCCCCCCCCCCCCCCCCCC(=O)[O-]
REMARK SMILES IDX 16 1 17 2 18 3 19 4 20 5 21 6 22 7 23 8 24 9 25 10 26 11
REMARK SMILES IDX 27 12 28 13 29 14 30 15 31 16 32 17 15 18 14 19 13 20 12 21
REMARK SMILES IDX 11 22 10 23 9 24 8 25 7 26 6 27 5 28 4 29 3 30 2 31 1 32
REMARK H PARENT
REMARK Flexibility Score: inf
ROOT
ATOM      1  C   UNL     1      -2.011  13.275 -10.653  1.00  0.00     0.000 C 
ENDROOT
BRANCH   1   2
ATOM      2  C   UNL     1      -1.813  11.837 -10.136  1.00  0.00     0.000 C 
BRANCH   2   3
ATOM      3  C   UNL     1      -1.081  10.895 -11.108  1.00  0.00     0.000 C 
BRANCH   3   4
ATOM      4  C   UNL     1      -1.045   9.441 -10.616  1.00  0.00     0.000 C 
BRANCH   4   5
ATOM      5  C   UNL     1      -1.338   9.363  -9.110  1.00  0.00     0.000 C 
BRANCH   5   6
ATOM      6  C   UNL     1      -0.260   8.591  -8.331  1.00  0.00     0.000 C 
BRANCH   6   7
ATOM      7  C   UNL     1       0.816   7.917  -9.204  1.00  0.00     0.000 C 
BRANCH   7   8
ATOM      8  C   UNL     1       2.258   8.377  -8.893  1.00  0.00     0.000 C 
BRANCH   8   9
ATOM      9  C   UNL     1       2.951   8.990 -10.122  1.00  0.00     0.000 C 
BRANCH   9  10
ATOM     10  C   UNL     1       2.576  10.465 -10.349  1.00  0.00     0.000 C 
BRANCH  10  11
ATOM     11  C   UNL     1       2.761  11.380  -9.122  1.00  0.00     0.000 C 
BRANCH  11  12
ATOM     12  C   UNL     1       1.581  12.325  -8.821  1.00  0.00     0.000 C 
BRANCH  12  13
ATOM     13  C   UNL     1       0.788  11.995  -7.540  1.00  0.00     0.006 C 
BRANCH  13  14
ATOM     14  C   UNL     1      -0.128  13.129  -7.053  1.00  0.00     0.053 C 
BRANCH  14  15
ATOM     15  C   UNL     1       0.365  13.739  -5.777  1.00  0.00     0.041 C 
ATOM     16  O   UNL     1      -0.252  13.538  -4.698  1.00  0.00    -0.550 OA
ATOM     17  O   UNL     1       1.507  14.528  -5.779  1.00  0.00    -0.550 OA
ENDBRANCH  14  15
ENDBRANCH  13  14
ENDBRANCH  12  13
ENDBRANCH  11  12
ENDBRANCH  10  11
ENDBRANCH   9  10
ENDBRANCH   8   9
ENDBRANCH   7   8
ENDBRANCH   6   7
ENDBRANCH   5   6
ENDBRANCH   4   5
ENDBRANCH   3   4
ENDBRANCH   2   3
ENDBRANCH   1   2
BRANCH   1  18
ATOM     18  C   UNL     1      -3.314  13.509 -11.442  1.00  0.00     0.000 C 
BRANCH  18  19
ATOM     19  C   UNL     1      -3.243  13.167 -12.944  1.00  0.00     0.000 C 
BRANCH  19  20
ATOM     20  C   UNL     1      -3.997  11.892 -13.363  1.00  0.00     0.000 C 
BRANCH  20  21
ATOM     21  C   UNL     1      -5.238  11.613 -12.496  1.00  0.00     0.000 C 
BRANCH  21  22
ATOM     22  C   UNL     1      -5.352  10.132 -12.095  1.00  0.00     0.000 C 
BRANCH  22  23
ATOM     23  C   UNL     1      -4.685   9.830 -10.745  1.00  0.00     0.000 C 
BRANCH  23  24
ATOM     24  C   UNL     1      -5.654   9.108  -9.800  1.00  0.00    -0.000 C 
BRANCH  24  25
ATOM     25  C   UNL     1      -4.948   8.698  -8.498  1.00  0.00    -0.000 C 
BRANCH  25  26
ATOM     26  C   UNL     1      -5.622   7.498  -7.810  1.00  0.00    -0.000 C 
BRANCH  26  27
ATOM     27  C   UNL     1      -4.732   6.248  -7.664  1.00  0.00    -0.000 C 
BRANCH  27  28
ATOM     28  C   UNL     1      -3.232   6.463  -7.962  1.00  0.00    -0.000 C 
BRANCH  28  29
ATOM     29  C   UNL     1      -2.693   5.694  -9.183  1.00  0.00    -0.000 C 
BRANCH  29  30
ATOM     30  C   UNL     1      -3.086   6.325 -10.540  1.00  0.00    -0.000 C 
BRANCH  30  31
ATOM     31  C   UNL     1      -3.943   5.398 -11.418  1.00  0.00    -0.003 C 
ATOM     32  C   UNL     1      -5.293   6.013 -11.780  1.00  0.00     0.004 C 
ENDBRANCH  30  31
ENDBRANCH  29  30
ENDBRANCH  28  29
ENDBRANCH  27  28
ENDBRANCH  26  27
ENDBRANCH  25  26
ENDBRANCH  24  25
ENDBRANCH  23  24
ENDBRANCH  22  23
ENDBRANCH  21  22
ENDBRANCH  20  21
ENDBRANCH  19  20
ENDBRANCH  18  19
ENDBRANCH   1  18
TORSDOF 28
ENDMDL
MODEL 4
REMARK VINA RESULT:    -1.804      1.923      6.764
REMARK INTER + INTRA:         -11.531
REMARK INTER:                  -5.302
REMARK INTRA:                  -6.229
REMARK UNBOUND:                -6.774
REMARK SMILES CCCCCCCCCCCCCCCCCCCCCCCCCCCCCC(=O)[O-]
REMARK SMILES IDX 16 1 17 2 18 3 19 4 20 5 21 6 22 7 23 8 24 9 25 10 26 11
REMARK SMILES IDX 27 12 28 13 29 14 30 15 31 16 32 17 15 18 14 19 13 20 12 21
REMARK SMILES IDX 11 22 10 23 9 24 8 25 7 26 6 27 5 28 4 29 3 30 2 31 1 32
REMARK H PARENT
REMARK Flexibility Score: inf
ROOT
ATOM      1  C   UNL     1      -0.304  10.000  -8.561  1.00  0.00     0.000 C 
ENDROOT
BRANCH   1   2
ATOM      2  C   UNL     1       0.304   9.832  -9.967  1.00  0.00     0.000 C 
BRANCH   2   3
ATOM      3  C   UNL     1       0.013   8.479 -10.640  1.00  0.00     0.000 C 
BRANCH   3   4
ATOM      4  C   UNL     1      -1.229   7.782 -10.066  1.00  0.00     0.000 C 
BRANCH   4   5
ATOM      5  C   UNL     1      -1.097   6.254 -10.166  1.00  0.00     0.000 C 
BRANCH   5   6
ATOM      6  C   UNL     1      -1.315   5.546  -8.819  1.00  0.00     0.000 C 
BRANCH   6   7
ATOM      7  C   UNL     1      -1.838   6.450  -7.686  1.00  0.00     0.000 C 
BRANCH   7   8
ATOM      8  C   UNL     1      -0.820   6.683  -6.547  1.00  0.00     0.000 C 
BRANCH   8   9
ATOM      9  C   UNL     1       0.316   5.646  -6.561  1.00  0.00     0.000 C 
BRANCH   9  10
ATOM     10  C   UNL     1       1.712   6.287  -6.658  1.00  0.00     0.000 C 
BRANCH  10  11
ATOM     11  C   UNL     1       1.721   7.761  -7.111  1.00  0.00     0.000 C 
BRANCH  11  12
ATOM     12  C   UNL     1       3.090   8.299  -7.576  1.00  0.00     0.000 C 
BRANCH  12  13
ATOM     13  C   UNL     1       3.226   9.834  -7.570  1.00  0.00     0.006 C 
BRANCH  13  14
ATOM     14  C   UNL     1       4.359  10.365  -6.678  1.00  0.00     0.053 C 
BRANCH  14  15
ATOM     15  C   UNL     1       4.237   9.878  -5.267  1.00  0.00     0.041 C 
ATOM     16  O   UNL     1       3.255  10.225  -4.559  1.00  0.00    -0.550 OA
ATOM     17  O   UNL     1       5.206   9.039  -4.734  1.00  0.00    -0.550 OA
ENDBRANCH  14  15
ENDBRANCH  13  14
ENDBRANCH  12  13
ENDBRANCH  11  12
ENDBRANCH  10  11
ENDBRANCH   9  10
ENDBRANCH   8   9
ENDBRANCH   7   8
ENDBRANCH   6   7
ENDBRANCH   5   6
ENDBRANCH   4   5
ENDBRANCH   3   4
ENDBRANCH   2   3
ENDBRANCH   1   2
BRANCH   1  18
ATOM     18  C   UNL     1      -1.348  11.127  -8.435  1.00  0.00     0.000 C 
BRANCH  18  19
ATOM     19  C   UNL     1      -0.791  12.492  -7.982  1.00  0.00     0.000 C 
BRANCH  19  20
ATOM     20  C   UNL     1       0.607  12.449  -7.339  1.00  0.00     0.000 C 
BRANCH  20  21
ATOM     21  C   UNL     1       1.639  13.316  -8.082  1.00  0.00     0.000 C 
BRANCH  21  22
ATOM     22  C   UNL     1       1.087  13.887  -9.398  1.00  0.00     0.000 C 
BRANCH  22  23
ATOM     23  C   UNL     1       1.669  13.191 -10.638  1.00  0.00     0.000 C 
BRANCH  23  24
ATOM     24  C   UNL     1       0.616  13.066 -11.746  1.00  0.00    -0.000 C 
BRANCH  24  25
ATOM     25  C   UNL     1      -0.662  13.834 -11.379  1.00  0.00    -0.000 C 
BRANCH  25  26
ATOM     26  C   UNL     1      -1.937  12.994 -11.570  1.00  0.00    -0.000 C 
BRANCH  26  27
ATOM     27  C   UNL     1      -1.786  11.789 -12.521  1.00  0.00    -0.000 C 
BRANCH  27  28
ATOM     28  C   UNL     1      -2.648  10.557 -12.172  1.00  0.00    -0.000 C 
BRANCH  28  29
ATOM     29  C   UNL     1      -3.672  10.777 -11.042  1.00  0.00    -0.000 C 
BRANCH  29  30
ATOM     30  C   UNL     1      -4.887   9.822 -11.108  1.00  0.00    -0.000 C 
BRANCH  30  31
ATOM     31  C   UNL     1      -4.772   8.623 -10.153  1.00  0.00    -0.003 C 
ATOM     32  C   UNL     1      -4.390   9.035  -8.733  1.00  0.00     0.004 C 
ENDBRANCH  30  31
ENDBRANCH  29  30
ENDBRANCH  28  29
ENDBRANCH  27  28
ENDBRANCH  26  27
ENDBRANCH  25  26
ENDBRANCH  24  25
ENDBRANCH  23  24
ENDBRANCH  22  23
ENDBRANCH  21  22
ENDBRANCH  20  21
ENDBRANCH  19  20
ENDBRANCH  18  19
ENDBRANCH   1  18
TORSDOF 28
ENDMDL
MODEL 5
REMARK VINA RESULT:    -1.786      2.472      5.848
REMARK INTER + INTRA:         -11.483
REMARK INTER:                  -5.094
REMARK INTRA:                  -6.389
REMARK UNBOUND:                -6.774
REMARK SMILES CCCCCCCCCCCCCCCCCCCCCCCCCCCCCC(=O)[O-]
REMARK SMILES IDX 16 1 17 2 18 3 19 4 20 5 21 6 22 7 23 8 24 9 25 10 26 11
REMARK SMILES IDX 27 12 28 13 29 14 30 15 31 16 32 17 15 18 14 19 13 20 12 21
REMARK SMILES IDX 11 22 10 23 9 24 8 25 7 26 6 27 5 28 4 29 3 30 2 31 1 32
REMARK H PARENT
REMARK Flexibility Score: inf
ROOT
ATOM      1  C   UNL     1      -0.203   9.734 -11.635  1.00  0.00     0.000 C 
ENDROOT
BRANCH   1   2
ATOM      2  C   UNL     1      -0.185   9.290 -10.160  1.00  0.00     0.000 C 
BRANCH   2   3
ATOM      3  C   UNL     1      -0.732  10.330  -9.165  1.00  0.00     0.000 C 
BRANCH   3   4
ATOM      4  C   UNL     1      -1.857   9.774  -8.280  1.00  0.00     0.000 C 
BRANCH   4   5
ATOM      5  C   UNL     1      -3.222   9.923  -8.969  1.00  0.00     0.000 C 
BRANCH   5   6
ATOM      6  C   UNL     1      -4.005   8.601  -9.036  1.00  0.00     0.000 C 
BRANCH   6   7
ATOM      7  C   UNL     1      -3.924   7.865 -10.387  1.00  0.00     0.000 C 
BRANCH   7   8
ATOM      8  C   UNL     1      -2.880   6.727 -10.422  1.00  0.00     0.000 C 
BRANCH   8   9
ATOM      9  C   UNL     1      -2.740   6.024  -9.061  1.00  0.00     0.000 C 
BRANCH   9  10
ATOM     10  C   UNL     1      -1.323   6.136  -8.470  1.00  0.00     0.000 C 
BRANCH  10  11
ATOM     11  C   UNL     1      -1.270   6.329  -6.941  1.00  0.00     0.000 C 
BRANCH  11  12
ATOM     12  C   UNL     1       0.116   6.693  -6.372  1.00  0.00     0.000 C 
BRANCH  12  13
ATOM     13  C   UNL     1       1.075   7.375  -7.368  1.00  0.00     0.006 C 
BRANCH  13  14
ATOM     14  C   UNL     1       2.236   8.136  -6.709  1.00  0.00     0.053 C 
BRANCH  14  15
ATOM     15  C   UNL     1       3.114   7.229  -5.902  1.00  0.00     0.041 C 
ATOM     16  O   UNL     1       3.925   6.456  -6.476  1.00  0.00    -0.550 OA
ATOM     17  O   UNL     1       3.037   7.239  -4.517  1.00  0.00    -0.550 OA
ENDBRANCH  14  15
ENDBRANCH  13  14
ENDBRANCH  12  13
ENDBRANCH  11  12
ENDBRANCH  10  11
ENDBRANCH   9  10
ENDBRANCH   8   9
ENDBRANCH   7   8
ENDBRANCH   6   7
ENDBRANCH   5   6
ENDBRANCH   4   5
ENDBRANCH   3   4
ENDBRANCH   2   3
ENDBRANCH   1   2
BRANCH   1  18
ATOM     18  C   UNL     1      -1.598   9.759 -12.290  1.00  0.00     0.000 C 
BRANCH  18  19
ATOM     19  C   UNL     1      -1.757  10.747 -13.463  1.00  0.00     0.000 C 
BRANCH  19  20
ATOM     20  C   UNL     1      -3.127  11.444 -13.553  1.00  0.00     0.000 C 
BRANCH  20  21
ATOM     21  C   UNL     1      -3.730  11.767 -12.175  1.00  0.00     0.000 C 
BRANCH  21  22
ATOM     22  C   UNL     1      -3.447  13.212 -11.733  1.00  0.00     0.000 C 
BRANCH  22  23
ATOM     23  C   UNL     1      -2.324  13.305 -10.690  1.00  0.00     0.000 C 
BRANCH  23  24
ATOM     24  C   UNL     1      -0.992  13.688 -11.344  1.00  0.00    -0.000 C 
BRANCH  24  25
ATOM     25  C   UNL     1       0.156  13.638 -10.325  1.00  0.00    -0.000 C 
BRANCH  25  26
ATOM     26  C   UNL     1       1.411  12.939 -10.876  1.00  0.00    -0.000 C 
BRANCH  26  27
ATOM     27  C   UNL     1       2.622  12.926  -9.922  1.00  0.00    -0.000 C 
BRANCH  27  28
ATOM     28  C   UNL     1       2.566  11.873  -8.794  1.00  0.00    -0.000 C 
BRANCH  28  29
ATOM     29  C   UNL     1       3.638  10.770  -8.879  1.00  0.00    -0.000 C 
BRANCH  29  30
ATOM     30  C   UNL     1       3.694  10.060 -10.252  1.00  0.00    -0.000 C 
BRANCH  30  31
ATOM     31  C   UNL     1       3.436   8.546 -10.166  1.00  0.00    -0.003 C 
ATOM     32  C   UNL     1       3.091   7.930 -11.520  1.00  0.00     0.004 C 
ENDBRANCH  30  31
ENDBRANCH  29  30
ENDBRANCH  28  29
ENDBRANCH  27  28
ENDBRANCH  26  27
ENDBRANCH  25  26
ENDBRANCH  24  25
ENDBRANCH  23  24
ENDBRANCH  22  23
ENDBRANCH  21  22
ENDBRANCH  20  21
ENDBRANCH  19  20
ENDBRANCH  18  19
ENDBRANCH   1  18
TORSDOF 28
ENDMDL
MODEL 6
REMARK VINA RESULT:    -1.778      2.570      6.151
REMARK INTER + INTRA:         -11.462
REMARK INTER:                  -6.118
REMARK INTRA:                  -5.344
REMARK UNBOUND:                -6.774
REMARK SMILES CCCCCCCCCCCCCCCCCCCCCCCCCCCCCC(=O)[O-]
REMARK SMILES IDX 16 1 17 2 18 3 19 4 20 5 21 6 22 7 23 8 24 9 25 10 26 11
REMARK SMILES IDX 27 12 28 13 29 14 30 15 31 16 32 17 15 18 14 19 13 20 12 21
REMARK SMILES IDX 11 22 10 23 9 24 8 25 7 26 6 27 5 28 4 29 3 30 2 31 1 32
REMARK H PARENT
REMARK Flexibility Score: inf
ROOT
ATOM      1  C   UNL     1       0.624   5.039  -7.995  1.00  0.00     0.000 C 
ENDROOT
BRANCH   1   2
ATOM      2  C   UNL     1       2.075   4.574  -7.768  1.00  0.00     0.000 C 
BRANCH   2   3
ATOM      3  C   UNL     1       2.741   5.128  -6.496  1.00  0.00     0.000 C 
BRANCH   3   4
ATOM      4  C   UNL     1       3.604   6.369  -6.766  1.00  0.00     0.000 C 
BRANCH   4   5
ATOM      5  C   UNL     1       3.203   7.529  -5.842  1.00  0.00     0.000 C 
BRANCH   5   6
ATOM      6  C   UNL     1       2.500   8.674  -6.591  1.00  0.00     0.000 C 
BRANCH   6   7
ATOM      7  C   UNL     1       2.777   8.727  -8.106  1.00  0.00     0.000 C 
BRANCH   7   8
ATOM      8  C   UNL     1       1.954   9.796  -8.859  1.00  0.00     0.000 C 
BRANCH   8   9
ATOM      9  C   UNL     1       1.837  11.107  -8.064  1.00  0.00     0.000 C 
BRANCH   9  10
ATOM     10  C   UNL     1       0.395  11.642  -7.996  1.00  0.00     0.000 C 
BRANCH  10  11
ATOM     11  C   UNL     1       0.268  13.116  -7.564  1.00  0.00     0.000 C 
BRANCH  11  12
ATOM     12  C   UNL     1      -0.129  13.339  -6.090  1.00  0.00     0.000 C 
BRANCH  12  13
ATOM     13  C   UNL     1       0.834  14.230  -5.281  1.00  0.00     0.006 C 
BRANCH  13  14
ATOM     14  C   UNL     1       2.201  13.587  -4.995  1.00  0.00     0.053 C 
BRANCH  14  15
ATOM     15  C   UNL     1       2.093  12.448  -4.030  1.00  0.00     0.041 C 
ATOM     16  O   UNL     1       2.711  11.372  -4.246  1.00  0.00    -0.550 OA
ATOM     17  O   UNL     1       1.311  12.573  -2.890  1.00  0.00    -0.550 OA
ENDBRANCH  14  15
ENDBRANCH  13  14
ENDBRANCH  12  13
ENDBRANCH  11  12
ENDBRANCH  10  11
ENDBRANCH   9  10
ENDBRANCH   8   9
ENDBRANCH   7   8
ENDBRANCH   6   7
ENDBRANCH   5   6
ENDBRANCH   4   5
ENDBRANCH   3   4
ENDBRANCH   2   3
ENDBRANCH   1   2
BRANCH   1  18
ATOM     18  C   UNL     1      -0.088   5.583  -6.741  1.00  0.00     0.000 C 
BRANCH  18  19
ATOM     19  C   UNL     1      -0.668   7.005  -6.879  1.00  0.00     0.000 C 
BRANCH  19  20
ATOM     20  C   UNL     1      -0.830   7.511  -8.324  1.00  0.00     0.000 C 
BRANCH  20  21
ATOM     21  C   UNL     1      -1.739   8.748  -8.431  1.00  0.00     0.000 C 
BRANCH  21  22
ATOM     22  C   UNL     1      -1.734   9.358  -9.843  1.00  0.00     0.000 C 
BRANCH  22  23
ATOM     23  C   UNL     1      -3.074  10.015 -10.209  1.00  0.00     0.000 C 
BRANCH  23  24
ATOM     24  C   UNL     1      -4.191   9.554  -9.266  1.00  0.00    -0.000 C 
BRANCH  24  25
ATOM     25  C   UNL     1      -5.456   9.180 -10.054  1.00  0.00    -0.000 C 
BRANCH  25  26
ATOM     26  C   UNL     1      -6.534   8.527  -9.172  1.00  0.00    -0.000 C 
BRANCH  26  27
ATOM     27  C   UNL     1      -6.045   8.054  -7.789  1.00  0.00    -0.000 C 
BRANCH  27  28
ATOM     28  C   UNL     1      -5.763   6.540  -7.668  1.00  0.00    -0.000 C 
BRANCH  28  29
ATOM     29  C   UNL     1      -4.272   6.159  -7.601  1.00  0.00    -0.000 C 
BRANCH  29  30
ATOM     30  C   UNL     1      -3.814   5.231  -8.751  1.00  0.00    -0.000 C 
BRANCH  30  31
ATOM     31  C   UNL     1      -3.654   5.961 -10.095  1.00  0.00    -0.003 C 
ATOM     32  C   UNL     1      -4.737   5.582 -11.103  1.00  0.00     0.004 C 
ENDBRANCH  30  31
ENDBRANCH  29  30
ENDBRANCH  28  29
ENDBRANCH  27  28
ENDBRANCH  26  27
ENDBRANCH  25  26
ENDBRANCH  24  25
ENDBRANCH  23  24
ENDBRANCH  22  23
ENDBRANCH  21  22
ENDBRANCH  20  21
ENDBRANCH  19  20
ENDBRANCH  18  19
ENDBRANCH   1  18
TORSDOF 28
ENDMDL
MODEL 7
REMARK VINA RESULT:    -1.760      3.034      5.772
REMARK INTER + INTRA:         -11.416
REMARK INTER:                  -6.575
REMARK INTRA:                  -4.840
REMARK UNBOUND:                -6.774
REMARK SMILES CCCCCCCCCCCCCCCCCCCCCCCCCCCCCC(=O)[O-]
REMARK SMILES IDX 16 1 17 2 18 3 19 4 20 5 21 6 22 7 23 8 24 9 25 10 26 11
REMARK SMILES IDX 27 12 28 13 29 14 30 15 31 16 32 17 15 18 14 19 13 20 12 21
REMARK SMILES IDX 11 22 10 23 9 24 8 25 7 26 6 27 5 28 4 29 3 30 2 31 1 32
REMARK H PARENT
REMARK Flexibility Score: inf
ROOT
ATOM      1  C   UNL     1       0.832   7.953  -9.252  1.00  0.00     0.000 C 
ENDROOT
BRANCH   1   2
ATOM      2  C   UNL     1      -0.625   8.350  -9.560  1.00  0.00     0.000 C 
BRANCH   2   3
ATOM      3  C   UNL     1      -1.447   8.791  -8.336  1.00  0.00     0.000 C 
BRANCH   3   4
ATOM      4  C   UNL     1      -1.912  10.251  -8.423  1.00  0.00     0.000 C 
BRANCH   4   5
ATOM      5  C   UNL     1      -2.071  10.691  -9.887  1.00  0.00     0.000 C 
BRANCH   5   6
ATOM      6  C   UNL     1      -1.295  11.977 -10.212  1.00  0.00     0.000 C 
BRANCH   6   7
ATOM      7  C   UNL     1       0.235  11.873 -10.052  1.00  0.00     0.000 C 
BRANCH   7   8
ATOM      8  C   UNL     1       0.842  12.934  -9.107  1.00  0.00     0.000 C 
BRANCH   8   9
ATOM      9  C   UNL     1       0.923  12.439  -7.652  1.00  0.00     0.000 C 
BRANCH   9  10
ATOM     10  C   UNL     1      -0.175  13.035  -6.753  1.00  0.00     0.000 C 
BRANCH  10  11
ATOM     11  C   UNL     1       0.314  13.551  -5.385  1.00  0.00     0.000 C 
BRANCH  11  12
ATOM     12  C   UNL     1      -0.645  13.299  -4.205  1.00  0.00     0.000 C 
BRANCH  12  13
ATOM     13  C   UNL     1      -0.125  13.761  -2.829  1.00  0.00     0.006 C 
BRANCH  13  14
ATOM     14  C   UNL     1      -1.210  14.332  -1.901  1.00  0.00     0.053 C 
BRANCH  14  15
ATOM     15  C   UNL     1      -1.655  13.332  -0.879  1.00  0.00     0.041 C 
ATOM     16  O   UNL     1      -2.843  13.336  -0.463  1.00  0.00    -0.550 OA
ATOM     17  O   UNL     1      -0.758  12.395  -0.385  1.00  0.00    -0.550 OA
ENDBRANCH  14  15
ENDBRANCH  13  14
ENDBRANCH  12  13
ENDBRANCH  11  12
ENDBRANCH  10  11
ENDBRANCH   9  10
ENDBRANCH   8   9
ENDBRANCH   7   8
ENDBRANCH   6   7
ENDBRANCH   5   6
ENDBRANCH   4   5
ENDBRANCH   3   4
ENDBRANCH   2   3
ENDBRANCH   1   2
BRANCH   1  18
ATOM     18  C   UNL     1       1.281   8.202  -7.799  1.00  0.00     0.000 C 
BRANCH  18  19
ATOM     19  C   UNL     1       1.731   6.947  -7.026  1.00  0.00     0.000 C 
BRANCH  19  20
ATOM     20  C   UNL     1       0.749   6.451  -5.948  1.00  0.00     0.000 C 
BRANCH  20  21
ATOM     21  C   UNL     1      -0.497   5.768  -6.537  1.00  0.00     0.000 C 
BRANCH  21  22
ATOM     22  C   UNL     1      -0.144   4.739  -7.624  1.00  0.00     0.000 C 
BRANCH  22  23
ATOM     23  C   UNL     1      -1.224   4.627  -8.710  1.00  0.00     0.000 C 
BRANCH  23  24
ATOM     24  C   UNL     1      -2.513   5.339  -8.282  1.00  0.00    -0.000 C 
BRANCH  24  25
ATOM     25  C   UNL     1      -3.752   4.581  -8.782  1.00  0.00    -0.000 C 
BRANCH  25  26
ATOM     26  C   UNL     1      -5.023   4.929  -7.988  1.00  0.00    -0.000 C 
BRANCH  26  27
ATOM     27  C   UNL     1      -5.002   6.307  -7.298  1.00  0.00    -0.000 C 
BRANCH  27  28
ATOM     28  C   UNL     1      -5.903   7.384  -7.941  1.00  0.00    -0.000 C 
BRANCH  28  29
ATOM     29  C   UNL     1      -5.170   8.660  -8.396  1.00  0.00    -0.000 C 
BRANCH  29  30
ATOM     30  C   UNL     1      -5.508   9.091  -9.843  1.00  0.00    -0.000 C 
BRANCH  30  31
ATOM     31  C   UNL     1      -5.315   7.968 -10.874  1.00  0.00    -0.003 C 
ATOM     32  C   UNL     1      -3.851   7.563 -11.036  1.00  0.00     0.004 C 
ENDBRANCH  30  31
ENDBRANCH  29  30
ENDBRANCH  28  29
ENDBRANCH  27  28
ENDBRANCH  26  27
ENDBRANCH  25  26
ENDBRANCH  24  25
ENDBRANCH  23  24
ENDBRANCH  22  23
ENDBRANCH  21  22
ENDBRANCH  20  21
ENDBRANCH  19  20
ENDBRANCH  18  19
ENDBRANCH   1  18
TORSDOF 28
ENDMDL
MODEL 8
REMARK VINA RESULT:    -1.748      1.911      3.728
REMARK INTER + INTRA:         -11.383
REMARK INTER:                  -4.651
REMARK INTRA:                  -6.732
REMARK UNBOUND:                -6.774
REMARK SMILES CCCCCCCCCCCCCCCCCCCCCCCCCCCCCC(=O)[O-]
REMARK SMILES IDX 16 1 17 2 18 3 19 4 20 5 21 6 22 7 23 8 24 9 25 10 26 11
REMARK SMILES IDX 27 12 28 13 29 14 30 15 31 16 32 17 15 18 14 19 13 20 12 21
REMARK SMILES IDX 11 22 10 23 9 24 8 25 7 26 6 27 5 28 4 29 3 30 2 31 1 32
REMARK H PARENT
REMARK Flexibility Score: inf
ROOT
ATOM      1  C   UNL     1      -3.031  11.858 -11.470  1.00  0.00     0.000 C 
ENDROOT
BRANCH   1   2
ATOM      2  C   UNL     1      -3.625  10.440 -11.365  1.00  0.00     0.000 C 
BRANCH   2   3
ATOM      3  C   UNL     1      -3.859   9.941  -9.928  1.00  0.00     0.000 C 
BRANCH   3   4
ATOM      4  C   UNL     1      -2.733   9.027  -9.423  1.00  0.00     0.000 C 
BRANCH   4   5
ATOM      5  C   UNL     1      -1.999   9.666  -8.233  1.00  0.00     0.000 C 
BRANCH   5   6
ATOM      6  C   UNL     1      -0.827  10.563  -8.665  1.00  0.00     0.000 C 
BRANCH   6   7
ATOM      7  C   UNL     1      -1.029  12.068  -8.404  1.00  0.00     0.000 C 
BRANCH   7   8
ATOM      8  C   UNL     1      -0.144  12.634  -7.271  1.00  0.00     0.000 C 
BRANCH   8   9
ATOM      9  C   UNL     1       0.862  13.679  -7.784  1.00  0.00     0.000 C 
BRANCH   9  10
ATOM     10  C   UNL     1       1.697  13.174  -8.974  1.00  0.00     0.000 C 
BRANCH  10  11
ATOM     11  C   UNL     1       2.898  12.284  -8.595  1.00  0.00     0.000 C 
BRANCH  11  12
ATOM     12  C   UNL     1       3.009  10.959  -9.376  1.00  0.00     0.000 C 
BRANCH  12  13
ATOM     13  C   UNL     1       2.912   9.683  -8.517  1.00  0.00     0.006 C 
BRANCH  13  14
ATOM     14  C   UNL     1       2.466   9.929  -7.067  1.00  0.00     0.053 C 
BRANCH  14  15
ATOM     15  C   UNL     1       3.565   9.654  -6.088  1.00  0.00     0.041 C 
ATOM     16  O   UNL     1       3.329   9.657  -4.851  1.00  0.00    -0.550 OA
ATOM     17  O   UNL     1       4.850   9.391  -6.541  1.00  0.00    -0.550 OA
ENDBRANCH  14  15
ENDBRANCH  13  14
ENDBRANCH  12  13
ENDBRANCH  11  12
ENDBRANCH  10  11
ENDBRANCH   9  10
ENDBRANCH   8   9
ENDBRANCH   7   8
ENDBRANCH   6   7
ENDBRANCH   5   6
ENDBRANCH   4   5
ENDBRANCH   3   4
ENDBRANCH   2   3
ENDBRANCH   1   2
BRANCH   1  18
ATOM     18  C   UNL     1      -1.899  12.013 -12.504  1.00  0.00     0.000 C 
BRANCH  18  19
ATOM     19  C   UNL     1      -0.530  12.424 -11.924  1.00  0.00     0.000 C 
BRANCH  19  20
ATOM     20  C   UNL     1       0.587  11.375 -12.073  1.00  0.00     0.000 C 
BRANCH  20  21
ATOM     21  C   UNL     1       0.067  10.003 -12.539  1.00  0.00     0.000 C 
BRANCH  21  22
ATOM     22  C   UNL     1       0.234   8.916 -11.465  1.00  0.00     0.000 C 
BRANCH  22  23
ATOM     23  C   UNL     1       1.384   7.946 -11.775  1.00  0.00     0.000 C 
BRANCH  23  24
ATOM     24  C   UNL     1       1.579   6.939 -10.636  1.00  0.00    -0.000 C 
BRANCH  24  25
ATOM     25  C   UNL     1       0.512   7.126  -9.547  1.00  0.00    -0.000 C 
BRANCH  25  26
ATOM     26  C   UNL     1      -0.257   5.829  -9.239  1.00  0.00    -0.000 C 
BRANCH  26  27
ATOM     27  C   UNL     1      -1.257   5.927  -8.070  1.00  0.00    -0.000 C 
BRANCH  27  28
ATOM     28  C   UNL     1      -0.753   6.693  -6.828  1.00  0.00    -0.000 C 
BRANCH  28  29
ATOM     29  C   UNL     1       0.266   5.930  -5.961  1.00  0.00    -0.000 C 
BRANCH  29  30
ATOM     30  C   UNL     1       1.708   6.480  -6.063  1.00  0.00    -0.000 C 
BRANCH  30  31
ATOM     31  C   UNL     1       2.690   5.500  -6.726  1.00  0.00    -0.003 C 
ATOM     32  C   UNL     1       3.671   6.196  -7.667  1.00  0.00     0.004 C 
ENDBRANCH  30  31
ENDBRANCH  29  30
ENDBRANCH  28  29
ENDBRANCH  27  28
ENDBRANCH  26  27
ENDBRANCH  25  26
ENDBRANCH  24  25
ENDBRANCH  23  24
ENDBRANCH  22  23
ENDBRANCH  21  22
ENDBRANCH  20  21
ENDBRANCH  19  20
ENDBRANCH  18  19
ENDBRANCH   1  18
TORSDOF 28
ENDMDL
MODEL 9
REMARK VINA RESULT:    -1.742      2.461      5.274
REMARK INTER + INTRA:         -11.369
REMARK INTER:                  -5.589
REMARK INTRA:                  -5.780
REMARK UNBOUND:                -6.774
REMARK SMILES CCCCCCCCCCCCCCCCCCCCCCCCCCCCCC(=O)[O-]
REMARK SMILES IDX 16 1 17 2 18 3 19 4 20 5 21 6 22 7 23 8 24 9 25 10 26 11
REMARK SMILES IDX 27 12 28 13 29 14 30 15 31 16 32 17 15 18 14 19 13 20 12 21
REMARK SMILES IDX 11 22 10 23 9 24 8 25 7 26 6 27 5 28 4 29 3 30 2 31 1 32
REMARK H PARENT
REMARK Flexibility Score: inf
ROOT
ATOM      1  C   UNL     1      -1.045  13.650 -11.092  1.00  0.00     0.000 C 
ENDROOT
BRANCH   1   2
ATOM      2  C   UNL     1       0.103  12.743 -11.575  1.00  0.00     0.000 C 
BRANCH   2   3
ATOM      3  C   UNL     1      -0.124  11.237 -11.352  1.00  0.00     0.000 C 
BRANCH   3   4
ATOM      4  C   UNL     1       0.968  10.591 -10.488  1.00  0.00     0.000 C 
BRANCH   4   5
ATOM      5  C   UNL     1       1.242  11.430  -9.230  1.00  0.00     0.000 C 
BRANCH   5   6
ATOM      6  C   UNL     1       0.174  11.238  -8.140  1.00  0.00     0.000 C 
BRANCH   6   7
ATOM      7  C   UNL     1      -0.380  12.543  -7.535  1.00  0.00     0.000 C 
BRANCH   7   8
ATOM      8  C   UNL     1       0.694  13.624  -7.281  1.00  0.00     0.000 C 
BRANCH   8   9
ATOM      9  C   UNL     1       1.039  13.762  -5.788  1.00  0.00     0.000 C 
BRANCH   9  10
ATOM     10  C   UNL     1       2.529  13.519  -5.491  1.00  0.00     0.000 C 
BRANCH  10  11
ATOM     11  C   UNL     1       3.367  13.059  -6.701  1.00  0.00     0.000 C 
BRANCH  11  12
ATOM     12  C   UNL     1       3.955  11.638  -6.594  1.00  0.00     0.000 C 
BRANCH  12  13
ATOM     13  C   UNL     1       3.094  10.632  -5.805  1.00  0.00     0.006 C 
BRANCH  13  14
ATOM     14  C   UNL     1       2.850   9.300  -6.532  1.00  0.00     0.053 C 
BRANCH  14  15
ATOM     15  C   UNL     1       3.563   8.161  -5.871  1.00  0.00     0.041 C 
ATOM     16  O   UNL     1       4.483   7.552  -6.476  1.00  0.00    -0.550 OA
ATOM     17  O   UNL     1       3.212   7.775  -4.585  1.00  0.00    -0.550 OA
ENDBRANCH  14  15
ENDBRANCH  13  14
ENDBRANCH  12  13
ENDBRANCH  11  12
ENDBRANCH  10  11
ENDBRANCH   9  10
ENDBRANCH   8   9
ENDBRANCH   7   8
ENDBRANCH   6   7
ENDBRANCH   5   6
ENDBRANCH   4   5
ENDBRANCH   3   4
ENDBRANCH   2   3
ENDBRANCH   1   2
BRANCH   1  18
ATOM     18  C   UNL     1      -2.352  12.912 -10.738  1.00  0.00     0.000 C 
BRANCH  18  19
ATOM     19  C   UNL     1      -3.599  13.373 -11.520  1.00  0.00     0.000 C 
BRANCH  19  20
ATOM     20  C   UNL     1      -3.538  13.151 -13.042  1.00  0.00     0.000 C 
BRANCH  20  21
ATOM     21  C   UNL     1      -3.144  11.714 -13.427  1.00  0.00     0.000 C 
BRANCH  21  22
ATOM     22  C   UNL     1      -4.108  10.666 -12.846  1.00  0.00     0.000 C 
BRANCH  22  23
ATOM     23  C   UNL     1      -3.400   9.360 -12.458  1.00  0.00     0.000 C 
BRANCH  23  24
ATOM     24  C   UNL     1      -4.080   8.699 -11.253  1.00  0.00    -0.000 C 
BRANCH  24  25
ATOM     25  C   UNL     1      -4.217   9.690 -10.087  1.00  0.00    -0.000 C 
BRANCH  25  26
ATOM     26  C   UNL     1      -2.956   9.749  -9.207  1.00  0.00    -0.000 C 
BRANCH  26  27
ATOM     27  C   UNL     1      -1.974   8.576  -9.397  1.00  0.00    -0.000 C 
BRANCH  27  28
ATOM     28  C   UNL     1      -1.450   7.934  -8.094  1.00  0.00    -0.000 C 
BRANCH  28  29
ATOM     29  C   UNL     1      -2.039   6.547  -7.768  1.00  0.00    -0.000 C 
BRANCH  29  30
ATOM     30  C   UNL     1      -2.932   5.970  -8.892  1.00  0.00    -0.000 C 
BRANCH  30  31
ATOM     31  C   UNL     1      -4.358   5.636  -8.425  1.00  0.00    -0.003 C 
ATOM     32  C   UNL     1      -5.066   6.833  -7.794  1.00  0.00     0.004 C 
ENDBRANCH  30  31
ENDBRANCH  29  30
ENDBRANCH  28  29
ENDBRANCH  27  28
ENDBRANCH  26  27
ENDBRANCH  25  26
ENDBRANCH  24  25
ENDBRANCH  23  24
ENDBRANCH  22  23
ENDBRANCH  21  22
ENDBRANCH  20  21
ENDBRANCH  19  20
ENDBRANCH  18  19
ENDBRANCH   1  18
TORSDOF 28
ENDMDL
