MODEL 1
REMARK VINA RESULT:    -6.654      0.000      0.000
REMARK INTER + INTRA:          -7.600
REMARK INTER:                  -7.237
REMARK INTRA:                  -0.362
REMARK UNBOUND:                -0.362
REMARK SMILES C=C(C)[C@H]1CC[C@@]2(C)CC[C@@]3(C)[C@H](CC[C@@H]4[C@@]5(C)CC[C@@H](O)C(C)(C)[C@H]5CC[C@@]43C)[C@@H]12
REMARK SMILES IDX 4 1 5 2 6 3 7 4 31 5 13 6 14 7 15 8 16 9 17 10 19 11 20 12
REMARK SMILES IDX 21 13 23 14 26 15 27 16 28 17 29 18 11 19 10 20 9 21 12 22
REMARK SMILES IDX 30 23 24 24 25 25 18 26 8 27 2 28 3 29 1 30 22 31
REMARK H PARENT 22 32
REMARK Flexibility Score: inf
ROOT
ATOM      1  C   UNL     1      21.134 -14.408  45.918  1.00  0.00     0.018 C 
ATOM      2  C   UNL     1      22.440 -14.571  46.703  1.00  0.00     0.009 C 
ATOM      3  C   UNL     1      23.390 -13.503  46.177  1.00  0.00     0.008 C 
ATOM      4  C   UNL     1      22.524 -12.294  45.732  1.00  0.00    -0.029 C 
ATOM      5  C   UNL     1      21.080 -12.889  45.574  1.00  0.00     0.006 C 
ATOM      6  C   UNL     1      20.181 -12.393  44.368  1.00  0.00    -0.000 C 
ATOM      7  C   UNL     1      19.303 -11.240  44.884  1.00  0.00     0.005 C 
ATOM      8  C   UNL     1      18.335 -10.716  43.853  1.00  0.00     0.005 C 
ATOM      9  C   UNL     1      19.037 -10.149  42.580  1.00  0.00     0.002 C 
ATOM     10  C   UNL     1      17.988  -9.435  41.567  1.00  0.00    -0.026 C 
ATOM     11  C   UNL     1      18.644  -8.192  40.885  1.00  0.00     0.010 C 
ATOM     12  C   UNL     1      17.709  -7.397  39.942  1.00  0.00     0.033 C 
ATOM     13  C   UNL     1      16.575  -8.221  39.278  1.00  0.00     0.120 C 
ATOM     14  C   UNL     1      16.970  -9.710  39.058  1.00  0.00    -0.006 C 
ATOM     15  C   UNL     1      17.383 -10.410  40.451  1.00  0.00     0.003 C 
ATOM     16  C   UNL     1      18.125 -11.765  40.198  1.00  0.00     0.005 C 
ATOM     17  C   UNL     1      19.024 -12.314  41.307  1.00  0.00     0.008 C 
ATOM     18  C   UNL     1      19.973 -11.263  41.956  1.00  0.00    -0.024 C 
ATOM     19  C   UNL     1      20.952 -11.971  43.063  1.00  0.00    -0.024 C 
ATOM     20  C   UNL     1      22.110 -11.010  43.493  1.00  0.00     0.008 C 
ATOM     21  C   UNL     1      23.131 -11.635  44.453  1.00  0.00     0.007 C 
ATOM     22  C   UNL     1      21.589 -13.263  42.457  1.00  0.00     0.012 C 
ATOM     23  C   UNL     1      20.865 -10.626  40.840  1.00  0.00     0.012 C 
ATOM     24  C   UNL     1      18.075  -9.758  37.954  1.00  0.00     0.014 C 
ATOM     25  C   UNL     1      15.733 -10.451  38.484  1.00  0.00     0.014 C 
ATOM     26  C   UNL     1      16.815  -8.830  42.429  1.00  0.00     0.012 C 
ATOM     27  C   UNL     1      22.542 -11.233  46.869  1.00  0.00     0.011 C 
ENDROOT
BRANCH   1  28
ATOM     28  C   UNL     1      20.930 -15.417  44.782  1.00  0.00    -0.077 C 
ATOM     29  C   UNL     1      19.524 -15.737  44.333  1.00  0.00     0.039 C 
ATOM     30  C   UNL     1      21.933 -16.130  44.238  1.00  0.00     0.008 C 
ENDBRANCH   1  28
BRANCH  13  31
ATOM     31  O   UNL     1      16.211  -7.612  38.062  1.00  0.00    -0.393 OA
ATOM     32  H   UNL     1      17.051  -7.402  37.577  1.00  0.00     0.210 HD
ENDBRANCH  13  31
TORSDOF 2
ENDMDL
MODEL 2
REMARK VINA RESULT:    -6.516      1.562      3.450
REMARK INTER + INTRA:          -7.449
REMARK INTER:                  -7.088
REMARK INTRA:                  -0.361
REMARK UNBOUND:                -0.362
REMARK SMILES C=C(C)[C@H]1CC[C@@]2(C)CC[C@@]3(C)[C@H](CC[C@@H]4[C@@]5(C)CC[C@@H](O)C(C)(C)[C@H]5CC[C@@]43C)[C@@H]12
REMARK SMILES IDX 4 1 5 2 6 3 7 4 31 5 13 6 14 7 15 8 16 9 17 10 19 11 20 12
REMARK SMILES IDX 21 13 23 14 26 15 27 16 28 17 29 18 11 19 10 20 9 21 12 22
REMARK SMILES IDX 30 23 24 24 25 25 18 26 8 27 2 28 3 29 1 30 22 31
REMARK H PARENT 22 32
REMARK Flexibility Score: inf
ROOT
ATOM      1  C   UNL     1      23.463 -14.180  43.280  1.00  0.00     0.018 C 
ATOM      2  C   UNL     1      23.977 -15.086  44.404  1.00  0.00     0.009 C 
ATOM      3  C   UNL     1      22.909 -15.069  45.489  1.00  0.00     0.008 C 
ATOM      4  C   UNL     1      21.540 -14.868  44.786  1.00  0.00    -0.029 C 
ATOM      5  C   UNL     1      21.912 -14.301  43.369  1.00  0.00     0.006 C 
ATOM      6  C   UNL     1      21.002 -13.166  42.741  1.00  0.00    -0.000 C 
ATOM      7  C   UNL     1      19.960 -13.849  41.841  1.00  0.00     0.005 C 
ATOM      8  C   UNL     1      19.066 -12.875  41.114  1.00  0.00     0.005 C 
ATOM      9  C   UNL     1      18.237 -11.964  42.072  1.00  0.00     0.002 C 
ATOM     10  C   UNL     1      17.159 -11.051  41.272  1.00  0.00    -0.026 C 
ATOM     11  C   UNL     1      15.849 -10.891  42.107  1.00  0.00     0.010 C 
ATOM     12  C   UNL     1      14.726 -10.086  41.409  1.00  0.00     0.033 C 
ATOM     13  C   UNL     1      15.205  -9.027  40.382  1.00  0.00     0.120 C 
ATOM     14  C   UNL     1      16.603  -8.442  40.735  1.00  0.00    -0.006 C 
ATOM     15  C   UNL     1      17.709  -9.610  40.841  1.00  0.00     0.003 C 
ATOM     16  C   UNL     1      19.005  -9.093  41.548  1.00  0.00     0.005 C 
ATOM     17  C   UNL     1      19.937 -10.120  42.191  1.00  0.00     0.008 C 
ATOM     18  C   UNL     1      19.219 -11.202  43.052  1.00  0.00    -0.024 C 
ATOM     19  C   UNL     1      20.310 -12.194  43.766  1.00  0.00    -0.024 C 
ATOM     20  C   UNL     1      19.636 -13.077  44.869  1.00  0.00     0.008 C 
ATOM     21  C   UNL     1      20.612 -13.963  45.656  1.00  0.00     0.007 C 
ATOM     22  C   UNL     1      21.436 -11.345  44.441  1.00  0.00     0.012 C 
ATOM     23  C   UNL     1      18.387 -10.492  44.171  1.00  0.00     0.012 C 
ATOM     24  C   UNL     1      16.449  -7.574  42.026  1.00  0.00     0.014 C 
ATOM     25  C   UNL     1      17.017  -7.476  39.594  1.00  0.00     0.014 C 
ATOM     26  C   UNL     1      16.706 -11.847  39.989  1.00  0.00     0.012 C 
ATOM     27  C   UNL     1      20.853 -16.255  44.641  1.00  0.00     0.011 C 
ENDROOT
BRANCH   1  28
ATOM     28  C   UNL     1      24.081 -12.777  43.245  1.00  0.00    -0.077 C 
ATOM     29  C   UNL     1      24.059 -12.002  41.949  1.00  0.00     0.039 C 
ATOM     30  C   UNL     1      24.753 -12.239  44.279  1.00  0.00     0.008 C 
ENDBRANCH   1  28
BRANCH  13  31
ATOM     31  O   UNL     1      14.241  -8.005  40.286  1.00  0.00    -0.393 OA
ATOM     32  H   UNL     1      13.890  -7.848  41.202  1.00  0.00     0.210 HD
ENDBRANCH  13  31
TORSDOF 2
ENDMDL
MODEL 3
REMARK VINA RESULT:    -6.443      2.872      7.650
REMARK INTER + INTRA:          -7.370
REMARK INTER:                  -7.010
REMARK INTRA:                  -0.361
REMARK UNBOUND:                -0.362
REMARK SMILES C=C(C)[C@H]1CC[C@@]2(C)CC[C@@]3(C)[C@H](CC[C@@H]4[C@@]5(C)CC[C@@H](O)C(C)(C)[C@H]5CC[C@@]43C)[C@@H]12
REMARK SMILES IDX 4 1 5 2 6 3 7 4 31 5 13 6 14 7 15 8 16 9 17 10 19 11 20 12
REMARK SMILES IDX 21 13 23 14 26 15 27 16 28 17 29 18 11 19 10 20 9 21 12 22
REMARK SMILES IDX 30 23 24 24 25 25 18 26 8 27 2 28 3 29 1 30 22 31
REMARK H PARENT 22 32
REMARK Flexibility Score: inf
ROOT
ATOM      1  C   UNL     1      17.666 -10.373  39.213  1.00  0.00     0.018 C 
ATOM      2  C   UNL     1      16.328  -9.651  39.015  1.00  0.00     0.009 C 
ATOM      3  C   UNL     1      15.822  -9.303  40.408  1.00  0.00     0.008 C 
ATOM      4  C   UNL     1      17.066  -9.074  41.308  1.00  0.00    -0.029 C 
ATOM      5  C   UNL     1      18.241  -9.763  40.526  1.00  0.00     0.006 C 
ATOM      6  C   UNL     1      19.334 -10.564  41.346  1.00  0.00    -0.000 C 
ATOM      7  C   UNL     1      20.504  -9.606  41.622  1.00  0.00     0.005 C 
ATOM      8  C   UNL     1      21.659 -10.262  42.337  1.00  0.00     0.005 C 
ATOM      9  C   UNL     1      21.273 -10.839  43.734  1.00  0.00     0.002 C 
ATOM     10  C   UNL     1      22.565 -11.381  44.554  1.00  0.00    -0.026 C 
ATOM     11  C   UNL     1      22.404 -11.096  46.082  1.00  0.00     0.010 C 
ATOM     12  C   UNL     1      23.612 -11.518  46.954  1.00  0.00     0.033 C 
ATOM     13  C   UNL     1      24.452 -12.698  46.401  1.00  0.00     0.120 C 
ATOM     14  C   UNL     1      23.605 -13.689  45.552  1.00  0.00    -0.006 C 
ATOM     15  C   UNL     1      22.890 -12.931  44.321  1.00  0.00     0.003 C 
ATOM     16  C   UNL     1      21.762 -13.818  43.696  1.00  0.00     0.005 C 
ATOM     17  C   UNL     1      20.659 -13.125  42.896  1.00  0.00     0.008 C 
ATOM     18  C   UNL     1      20.067 -11.851  43.569  1.00  0.00    -0.024 C 
ATOM     19  C   UNL     1      18.836 -11.242  42.676  1.00  0.00    -0.024 C 
ATOM     20  C   UNL     1      18.033 -10.164  43.479  1.00  0.00     0.008 C 
ATOM     21  C   UNL     1      16.800  -9.616  42.748  1.00  0.00     0.007 C 
ATOM     22  C   UNL     1      17.851 -12.388  42.278  1.00  0.00     0.012 C 
ATOM     23  C   UNL     1      19.513 -12.233  44.982  1.00  0.00     0.012 C 
ATOM     24  C   UNL     1      22.625 -14.433  46.515  1.00  0.00     0.014 C 
ATOM     25  C   UNL     1      24.565 -14.763  44.975  1.00  0.00     0.014 C 
ATOM     26  C   UNL     1      23.810 -10.513  44.128  1.00  0.00     0.012 C 
ATOM     27  C   UNL     1      17.321  -7.544  41.414  1.00  0.00     0.011 C 
ENDROOT
BRANCH   1  28
ATOM     28  C   UNL     1      17.602 -11.900  39.088  1.00  0.00    -0.077 C 
ATOM     29  C   UNL     1      18.861 -12.656  38.732  1.00  0.00     0.039 C 
ATOM     30  C   UNL     1      16.456 -12.601  39.161  1.00  0.00     0.008 C 
ENDBRANCH   1  28
BRANCH  13  31
ATOM     31  O   UNL     1      25.080 -13.362  47.472  1.00  0.00    -0.393 OA
ATOM     32  H   UNL     1      24.453 -13.331  48.242  1.00  0.00     0.210 HD
ENDBRANCH  13  31
TORSDOF 2
ENDMDL
MODEL 4
REMARK VINA RESULT:    -6.435      1.508      2.071
REMARK INTER + INTRA:          -7.361
REMARK INTER:                  -7.195
REMARK INTRA:                  -0.167
REMARK UNBOUND:                -0.362
REMARK SMILES C=C(C)[C@H]1CC[C@@]2(C)CC[C@@]3(C)[C@H](CC[C@@H]4[C@@]5(C)CC[C@@H](O)C(C)(C)[C@H]5CC[C@@]43C)[C@@H]12
REMARK SMILES IDX 4 1 5 2 6 3 7 4 31 5 13 6 14 7 15 8 16 9 17 10 19 11 20 12
REMARK SMILES IDX 21 13 23 14 26 15 27 16 28 17 29 18 11 19 10 20 9 21 12 22
REMARK SMILES IDX 30 23 24 24 25 25 18 26 8 27 2 28 3 29 1 30 22 31
REMARK H PARENT 22 32
REMARK Flexibility Score: inf
ROOT
ATOM      1  C   UNL     1      22.857 -12.983  46.973  1.00  0.00     0.018 C 
ATOM      2  C   UNL     1      24.348 -12.844  47.301  1.00  0.00     0.009 C 
ATOM      3  C   UNL     1      25.007 -12.267  46.055  1.00  0.00     0.008 C 
ATOM      4  C   UNL     1      23.953 -11.372  45.348  1.00  0.00    -0.029 C 
ATOM      5  C   UNL     1      22.581 -11.840  45.951  1.00  0.00     0.006 C 
ATOM      6  C   UNL     1      21.323 -11.938  44.992  1.00  0.00    -0.000 C 
ATOM      7  C   UNL     1      20.553 -10.611  45.098  1.00  0.00     0.005 C 
ATOM      8  C   UNL     1      19.280 -10.591  44.288  1.00  0.00     0.005 C 
ATOM      9  C   UNL     1      19.518 -10.798  42.760  1.00  0.00     0.002 C 
ATOM     10  C   UNL     1      18.159 -10.598  41.895  1.00  0.00    -0.026 C 
ATOM     11  C   UNL     1      18.477  -9.922  40.523  1.00  0.00     0.010 C 
ATOM     12  C   UNL     1      17.240  -9.627  39.639  1.00  0.00     0.033 C 
ATOM     13  C   UNL     1      16.030 -10.573  39.852  1.00  0.00     0.120 C 
ATOM     14  C   UNL     1      16.458 -12.000  40.300  1.00  0.00    -0.006 C 
ATOM     15  C   UNL     1      17.326 -11.944  41.657  1.00  0.00     0.003 C 
ATOM     16  C   UNL     1      18.064 -13.302  41.907  1.00  0.00     0.005 C 
ATOM     17  C   UNL     1      19.295 -13.299  42.813  1.00  0.00     0.008 C 
ATOM     18  C   UNL     1      20.309 -12.150  42.530  1.00  0.00    -0.024 C 
ATOM     19  C   UNL     1      21.629 -12.292  43.490  1.00  0.00    -0.024 C 
ATOM     20  C   UNL     1      22.782 -11.347  43.011  1.00  0.00     0.008 C 
ATOM     21  C   UNL     1      24.091 -11.495  43.798  1.00  0.00     0.007 C 
ATOM     22  C   UNL     1      22.156 -13.763  43.453  1.00  0.00     0.012 C 
ATOM     23  C   UNL     1      20.769 -12.234  41.037  1.00  0.00     0.012 C 
ATOM     24  C   UNL     1      17.178 -12.687  39.095  1.00  0.00     0.014 C 
ATOM     25  C   UNL     1      15.169 -12.819  40.575  1.00  0.00     0.014 C 
ATOM     26  C   UNL     1      17.256  -9.545  42.644  1.00  0.00     0.012 C 
ATOM     27  C   UNL     1      24.227  -9.891  45.736  1.00  0.00     0.011 C 
ENDROOT
BRANCH   1  28
ATOM     28  C   UNL     1      22.402 -14.403  46.616  1.00  0.00    -0.077 C 
ATOM     29  C   UNL     1      20.926 -14.677  46.455  1.00  0.00     0.039 C 
ATOM     30  C   UNL     1      23.240 -15.455  46.555  1.00  0.00     0.008 C 
ENDBRANCH   1  28
BRANCH  13  31
ATOM     31  O   UNL     1      15.268 -10.623  38.669  1.00  0.00    -0.393 OA
ATOM     32  H   UNL     1      15.421  -9.769  38.186  1.00  0.00     0.210 HD
ENDBRANCH  13  31
TORSDOF 2
ENDMDL
MODEL 5
REMARK VINA RESULT:    -6.186      2.799      7.800
REMARK INTER + INTRA:          -7.091
REMARK INTER:                  -6.740
REMARK INTRA:                  -0.351
REMARK UNBOUND:                -0.362
REMARK SMILES C=C(C)[C@H]1CC[C@@]2(C)CC[C@@]3(C)[C@H](CC[C@@H]4[C@@]5(C)CC[C@@H](O)C(C)(C)[C@H]5CC[C@@]43C)[C@@H]12
REMARK SMILES IDX 4 1 5 2 6 3 7 4 31 5 13 6 14 7 15 8 16 9 17 10 19 11 20 12
REMARK SMILES IDX 21 13 23 14 26 15 27 16 28 17 29 18 11 19 10 20 9 21 12 22
REMARK SMILES IDX 30 23 24 24 25 25 18 26 8 27 2 28 3 29 1 30 22 31
REMARK H PARENT 22 32
REMARK Flexibility Score: inf
ROOT
ATOM      1  C   UNL     1      16.614  -8.104  40.990  1.00  0.00     0.018 C 
ATOM      2  C   UNL     1      15.291  -8.180  40.219  1.00  0.00     0.009 C 
ATOM      3  C   UNL     1      15.078  -9.648  39.878  1.00  0.00     0.008 C 
ATOM      4  C   UNL     1      15.735 -10.484  41.009  1.00  0.00    -0.029 C 
ATOM      5  C   UNL     1      16.714  -9.479  41.716  1.00  0.00     0.006 C 
ATOM      6  C   UNL     1      18.128 -10.007  42.198  1.00  0.00    -0.000 C 
ATOM      7  C   UNL     1      17.994 -10.415  43.674  1.00  0.00     0.005 C 
ATOM      8  C   UNL     1      19.293 -10.870  44.290  1.00  0.00     0.005 C 
ATOM      9  C   UNL     1      19.909 -12.116  43.581  1.00  0.00     0.002 C 
ATOM     10  C   UNL     1      21.209 -12.690  44.367  1.00  0.00    -0.026 C 
ATOM     11  C   UNL     1      21.257 -14.249  44.283  1.00  0.00     0.010 C 
ATOM     12  C   UNL     1      22.428 -14.907  45.053  1.00  0.00     0.033 C 
ATOM     13  C   UNL     1      23.698 -14.032  45.208  1.00  0.00     0.120 C 
ATOM     14  C   UNL     1      23.886 -13.037  44.028  1.00  0.00    -0.006 C 
ATOM     15  C   UNL     1      22.602 -12.075  43.872  1.00  0.00     0.003 C 
ATOM     16  C   UNL     1      22.615 -11.342  42.489  1.00  0.00     0.005 C 
ATOM     17  C   UNL     1      21.291 -10.809  41.942  1.00  0.00     0.008 C 
ATOM     18  C   UNL     1      20.097 -11.805  42.041  1.00  0.00    -0.024 C 
ATOM     19  C   UNL     1      18.754 -11.171  41.346  1.00  0.00    -0.024 C 
ATOM     20  C   UNL     1      17.647 -12.262  41.157  1.00  0.00     0.008 C 
ATOM     21  C   UNL     1      16.393 -11.771  40.420  1.00  0.00     0.007 C 
ATOM     22  C   UNL     1      19.110 -10.587  39.941  1.00  0.00     0.012 C 
ATOM     23  C   UNL     1      20.471 -13.124  41.287  1.00  0.00     0.012 C 
ATOM     24  C   UNL     1      24.236 -13.867  42.750  1.00  0.00     0.014 C 
ATOM     25  C   UNL     1      25.125 -12.156  44.340  1.00  0.00     0.014 C 
ATOM     26  C   UNL     1      21.019 -12.391  45.903  1.00  0.00     0.012 C 
ATOM     27  C   UNL     1      14.623 -10.929  42.001  1.00  0.00     0.011 C 
ENDROOT
BRANCH   1  28
ATOM     28  C   UNL     1      17.817  -7.628  40.166  1.00  0.00    -0.077 C 
ATOM     29  C   UNL     1      18.958  -6.937  40.874  1.00  0.00     0.039 C 
ATOM     30  C   UNL     1      17.861  -7.684  38.822  1.00  0.00     0.008 C 
ENDBRANCH   1  28
BRANCH  13  31
ATOM     31  O   UNL     1      24.823 -14.869  45.346  1.00  0.00    -0.393 OA
ATOM     32  H   UNL     1      24.883 -15.121  46.305  1.00  0.00     0.210 HD
ENDBRANCH  13  31
TORSDOF 2
ENDMDL
MODEL 6
REMARK VINA RESULT:    -5.806      2.877      7.803
REMARK INTER + INTRA:          -6.678
REMARK INTER:                  -6.323
REMARK INTRA:                  -0.355
REMARK UNBOUND:                -0.362
REMARK SMILES C=C(C)[C@H]1CC[C@@]2(C)CC[C@@]3(C)[C@H](CC[C@@H]4[C@@]5(C)CC[C@@H](O)C(C)(C)[C@H]5CC[C@@]43C)[C@@H]12
REMARK SMILES IDX 4 1 5 2 6 3 7 4 31 5 13 6 14 7 15 8 16 9 17 10 19 11 20 12
REMARK SMILES IDX 21 13 23 14 26 15 27 16 28 17 29 18 11 19 10 20 9 21 12 22
REMARK SMILES IDX 30 23 24 24 25 25 18 26 8 27 2 28 3 29 1 30 22 31
REMARK H PARENT 22 32
REMARK Flexibility Score: inf
ROOT
ATOM      1  C   UNL     1      17.057  -9.410  39.921  1.00  0.00     0.018 C 
ATOM      2  C   UNL     1      15.702  -9.634  39.240  1.00  0.00     0.009 C 
ATOM      3  C   UNL     1      15.286 -11.059  39.578  1.00  0.00     0.008 C 
ATOM      4  C   UNL     1      15.879 -11.395  40.972  1.00  0.00    -0.029 C 
ATOM      5  C   UNL     1      17.011 -10.326  41.180  1.00  0.00     0.006 C 
ATOM      6  C   UNL     1      18.365 -10.776  41.869  1.00  0.00    -0.000 C 
ATOM      7  C   UNL     1      18.245 -10.474  43.371  1.00  0.00     0.005 C 
ATOM      8  C   UNL     1      19.501 -10.785  44.146  1.00  0.00     0.005 C 
ATOM      9  C   UNL     1      19.918 -12.286  44.070  1.00  0.00     0.002 C 
ATOM     10  C   UNL     1      21.167 -12.628  45.050  1.00  0.00    -0.026 C 
ATOM     11  C   UNL     1      21.008 -14.057  45.661  1.00  0.00     0.010 C 
ATOM     12  C   UNL     1      22.117 -14.464  46.663  1.00  0.00     0.033 C 
ATOM     13  C   UNL     1      23.496 -13.792  46.438  1.00  0.00     0.120 C 
ATOM     14  C   UNL     1      23.758 -13.451  44.943  1.00  0.00    -0.006 C 
ATOM     15  C   UNL     1      22.604 -12.489  44.358  1.00  0.00     0.003 C 
ATOM     16  C   UNL     1      22.649 -12.446  42.794  1.00  0.00     0.005 C 
ATOM     17  C   UNL     1      21.382 -12.032  42.045  1.00  0.00     0.008 C 
ATOM     18  C   UNL     1      20.075 -12.711  42.553  1.00  0.00    -0.024 C 
ATOM     19  C   UNL     1      18.796 -12.270  41.628  1.00  0.00    -0.024 C 
ATOM     20  C   UNL     1      17.549 -13.170  41.920  1.00  0.00     0.008 C 
ATOM     21  C   UNL     1      16.338 -12.887  41.021  1.00  0.00     0.007 C 
ATOM     22  C   UNL     1      19.160 -12.415  40.115  1.00  0.00     0.012 C 
ATOM     23  C   UNL     1      20.240 -14.264  42.463  1.00  0.00     0.012 C 
ATOM     24  C   UNL     1      23.939 -14.796  44.167  1.00  0.00     0.014 C 
ATOM     25  C   UNL     1      25.113 -12.700  44.856  1.00  0.00     0.014 C 
ATOM     26  C   UNL     1      21.086 -11.664  46.294  1.00  0.00     0.012 C 
ATOM     27  C   UNL     1      14.764 -11.205  42.039  1.00  0.00     0.011 C 
ENDROOT
BRANCH   1  28
ATOM     28  C   UNL     1      18.273  -9.512  38.992  1.00  0.00    -0.077 C 
ATOM     29  C   UNL     1      19.569  -8.861  39.413  1.00  0.00     0.039 C 
ATOM     30  C   UNL     1      18.219 -10.050  37.760  1.00  0.00     0.008 C 
ENDBRANCH   1  28
BRANCH  13  31
ATOM     31  O   UNL     1      24.507 -14.628  46.949  1.00  0.00    -0.393 OA
ATOM     32  H   UNL     1      24.221 -15.565  46.787  1.00  0.00     0.210 HD
ENDBRANCH  13  31
TORSDOF 2
ENDMDL
MODEL 7
REMARK VINA RESULT:    -5.644     10.745     13.472
REMARK INTER + INTRA:          -6.501
REMARK INTER:                  -6.139
REMARK INTRA:                  -0.362
REMARK UNBOUND:                -0.362
REMARK SMILES C=C(C)[C@H]1CC[C@@]2(C)CC[C@@]3(C)[C@H](CC[C@@H]4[C@@]5(C)CC[C@@H](O)C(C)(C)[C@H]5CC[C@@]43C)[C@@H]12
REMARK SMILES IDX 4 1 5 2 6 3 7 4 31 5 13 6 14 7 15 8 16 9 17 10 19 11 20 12
REMARK SMILES IDX 21 13 23 14 26 15 27 16 28 17 29 18 11 19 10 20 9 21 12 22
REMARK SMILES IDX 30 23 24 24 25 25 18 26 8 27 2 28 3 29 1 30 22 31
REMARK H PARENT 22 32
REMARK Flexibility Score: inf
ROOT
ATOM      1  C   UNL     1      13.665  -4.654  32.775  1.00  0.00     0.018 C 
ATOM      2  C   UNL     1      14.126  -5.806  31.875  1.00  0.00     0.009 C 
ATOM      3  C   UNL     1      13.996  -7.075  32.705  1.00  0.00     0.008 C 
ATOM      4  C   UNL     1      12.817  -6.863  33.692  1.00  0.00    -0.029 C 
ATOM      5  C   UNL     1      12.614  -5.306  33.723  1.00  0.00     0.006 C 
ATOM      6  C   UNL     1      12.271  -4.611  35.105  1.00  0.00    -0.000 C 
ATOM      7  C   UNL     1      10.741  -4.491  35.199  1.00  0.00     0.005 C 
ATOM      8  C   UNL     1      10.272  -3.775  36.441  1.00  0.00     0.005 C 
ATOM      9  C   UNL     1      10.703  -4.484  37.763  1.00  0.00     0.002 C 
ATOM     10  C   UNL     1      10.041  -3.793  39.074  1.00  0.00    -0.026 C 
ATOM     11  C   UNL     1       9.692  -4.875  40.146  1.00  0.00     0.010 C 
ATOM     12  C   UNL     1       8.996  -4.331  41.418  1.00  0.00     0.033 C 
ATOM     13  C   UNL     1       9.329  -2.861  41.782  1.00  0.00     0.120 C 
ATOM     14  C   UNL     1      10.755  -2.440  41.325  1.00  0.00    -0.006 C 
ATOM     15  C   UNL     1      10.936  -2.642  39.735  1.00  0.00     0.003 C 
ATOM     16  C   UNL     1      12.447  -2.582  39.331  1.00  0.00     0.005 C 
ATOM     17  C   UNL     1      12.869  -3.237  38.015  1.00  0.00     0.008 C 
ATOM     18  C   UNL     1      12.276  -4.658  37.776  1.00  0.00    -0.024 C 
ATOM     19  C   UNL     1      12.861  -5.304  36.388  1.00  0.00    -0.024 C 
ATOM     20  C   UNL     1      12.530  -6.831  36.290  1.00  0.00     0.008 C 
ATOM     21  C   UNL     1      13.132  -7.534  35.066  1.00  0.00     0.007 C 
ATOM     22  C   UNL     1      14.415  -5.137  36.339  1.00  0.00     0.012 C 
ATOM     23  C   UNL     1      12.685  -5.587  38.966  1.00  0.00     0.012 C 
ATOM     24  C   UNL     1      11.790  -3.218  42.200  1.00  0.00     0.014 C 
ATOM     25  C   UNL     1      10.936  -0.935  41.652  1.00  0.00     0.014 C 
ATOM     26  C   UNL     1       8.642  -3.197  38.656  1.00  0.00     0.012 C 
ATOM     27  C   UNL     1      11.554  -7.553  33.103  1.00  0.00     0.011 C 
ENDROOT
BRANCH   1  28
ATOM     28  C   UNL     1      14.795  -3.829  33.403  1.00  0.00    -0.077 C 
ATOM     29  C   UNL     1      14.515  -2.405  33.819  1.00  0.00     0.039 C 
ATOM     30  C   UNL     1      16.065  -4.265  33.495  1.00  0.00     0.008 C 
ENDBRANCH   1  28
BRANCH  13  31
ATOM     31  O   UNL     1       9.171  -2.680  43.169  1.00  0.00    -0.393 OA
ATOM     32  H   UNL     1      10.081  -2.604  43.559  1.00  0.00     0.210 HD
ENDBRANCH  13  31
TORSDOF 2
ENDMDL
MODEL 8
REMARK VINA RESULT:    -5.615      2.870      7.731
REMARK INTER + INTRA:          -6.469
REMARK INTER:                  -6.166
REMARK INTRA:                  -0.304
REMARK UNBOUND:                -0.362
REMARK SMILES C=C(C)[C@H]1CC[C@@]2(C)CC[C@@]3(C)[C@H](CC[C@@H]4[C@@]5(C)CC[C@@H](O)C(C)(C)[C@H]5CC[C@@]43C)[C@@H]12
REMARK SMILES IDX 4 1 5 2 6 3 7 4 31 5 13 6 14 7 15 8 16 9 17 10 19 11 20 12
REMARK SMILES IDX 21 13 23 14 26 15 27 16 28 17 29 18 11 19 10 20 9 21 12 22
REMARK SMILES IDX 30 23 24 24 25 25 18 26 8 27 2 28 3 29 1 30 22 31
REMARK H PARENT 22 32
REMARK Flexibility Score: inf
ROOT
ATOM      1  C   UNL     1      16.419 -11.254  39.879  1.00  0.00     0.018 C 
ATOM      2  C   UNL     1      15.854 -10.072  39.083  1.00  0.00     0.009 C 
ATOM      3  C   UNL     1      16.723  -8.870  39.429  1.00  0.00     0.008 C 
ATOM      4  C   UNL     1      18.148  -9.403  39.733  1.00  0.00    -0.029 C 
ATOM      5  C   UNL     1      17.937 -10.934  40.016  1.00  0.00     0.006 C 
ATOM      6  C   UNL     1      18.779 -11.617  41.172  1.00  0.00    -0.000 C 
ATOM      7  C   UNL     1      20.033 -12.235  40.532  1.00  0.00     0.005 C 
ATOM      8  C   UNL     1      20.896 -12.989  41.512  1.00  0.00     0.005 C 
ATOM      9  C   UNL     1      21.433 -12.098  42.675  1.00  0.00     0.002 C 
ATOM     10  C   UNL     1      22.496 -12.888  43.614  1.00  0.00    -0.026 C 
ATOM     11  C   UNL     1      23.623 -11.922  44.100  1.00  0.00     0.010 C 
ATOM     12  C   UNL     1      24.728 -12.587  44.956  1.00  0.00     0.033 C 
ATOM     13  C   UNL     1      24.285 -13.837  45.761  1.00  0.00     0.120 C 
ATOM     14  C   UNL     1      22.784 -13.784  46.167  1.00  0.00    -0.006 C 
ATOM     15  C   UNL     1      21.838 -13.632  44.870  1.00  0.00     0.003 C 
ATOM     16  C   UNL     1      20.388 -13.208  45.280  1.00  0.00     0.005 C 
ATOM     17  C   UNL     1      19.509 -12.531  44.228  1.00  0.00     0.008 C 
ATOM     18  C   UNL     1      20.216 -11.407  43.413  1.00  0.00    -0.024 C 
ATOM     19  C   UNL     1      19.163 -10.690  42.382  1.00  0.00    -0.024 C 
ATOM     20  C   UNL     1      19.762  -9.370  41.790  1.00  0.00     0.008 C 
ATOM     21  C   UNL     1      18.798  -8.583  40.892  1.00  0.00     0.007 C 
ATOM     22  C   UNL     1      17.843 -10.331  43.137  1.00  0.00     0.012 C 
ATOM     23  C   UNL     1      20.757 -10.324  44.404  1.00  0.00     0.012 C 
ATOM     24  C   UNL     1      22.613 -12.653  47.233  1.00  0.00     0.014 C 
ATOM     25  C   UNL     1      22.435 -15.120  46.875  1.00  0.00     0.014 C 
ATOM     26  C   UNL     1      23.250 -13.941  42.715  1.00  0.00     0.012 C 
ATOM     27  C   UNL     1      19.026  -9.212  38.464  1.00  0.00     0.011 C 
ENDROOT
BRANCH   1  28
ATOM     28  C   UNL     1      15.636 -11.614  41.147  1.00  0.00    -0.077 C 
ATOM     29  C   UNL     1      15.585 -13.057  41.589  1.00  0.00     0.039 C 
ATOM     30  C   UNL     1      14.885 -10.728  41.829  1.00  0.00     0.008 C 
ENDBRANCH   1  28
BRANCH  13  31
ATOM     31  O   UNL     1      25.109 -13.975  46.894  1.00  0.00    -0.393 OA
ATOM     32  H   UNL     1      25.632 -14.811  46.774  1.00  0.00     0.210 HD
ENDBRANCH  13  31
TORSDOF 2
ENDMDL
MODEL 9
REMARK VINA RESULT:    -5.575      1.533      2.030
REMARK INTER + INTRA:          -6.427
REMARK INTER:                  -6.272
REMARK INTRA:                  -0.155
REMARK UNBOUND:                -0.362
REMARK SMILES C=C(C)[C@H]1CC[C@@]2(C)CC[C@@]3(C)[C@H](CC[C@@H]4[C@@]5(C)CC[C@@H](O)C(C)(C)[C@H]5CC[C@@]43C)[C@@H]12
REMARK SMILES IDX 4 1 5 2 6 3 7 4 31 5 13 6 14 7 15 8 16 9 17 10 19 11 20 12
REMARK SMILES IDX 21 13 23 14 26 15 27 16 28 17 29 18 11 19 10 20 9 21 12 22
REMARK SMILES IDX 30 23 24 24 25 25 18 26 8 27 2 28 3 29 1 30 22 31
REMARK H PARENT 22 32
REMARK Flexibility Score: inf
ROOT
ATOM      1  C   UNL     1      21.613 -15.864  44.608  1.00  0.00     0.018 C 
ATOM      2  C   UNL     1      23.089 -16.267  44.686  1.00  0.00     0.009 C 
ATOM      3  C   UNL     1      23.851 -15.264  43.829  1.00  0.00     0.008 C 
ATOM      4  C   UNL     1      23.079 -13.919  43.897  1.00  0.00    -0.029 C 
ATOM      5  C   UNL     1      21.647 -14.320  44.403  1.00  0.00     0.006 C 
ATOM      6  C   UNL     1      20.388 -13.587  43.779  1.00  0.00    -0.000 C 
ATOM      7  C   UNL     1      20.033 -12.408  44.699  1.00  0.00     0.005 C 
ATOM      8  C   UNL     1      18.798 -11.659  44.264  1.00  0.00     0.005 C 
ATOM      9  C   UNL     1      18.924 -11.036  42.839  1.00  0.00     0.002 C 
ATOM     10  C   UNL     1      17.655 -10.092  42.467  1.00  0.00    -0.026 C 
ATOM     11  C   UNL     1      18.116  -8.864  41.619  1.00  0.00     0.010 C 
ATOM     12  C   UNL     1      16.991  -7.862  41.260  1.00  0.00     0.033 C 
ATOM     13  C   UNL     1      15.567  -8.468  41.161  1.00  0.00     0.120 C 
ATOM     14  C   UNL     1      15.580  -9.958  40.712  1.00  0.00    -0.006 C 
ATOM     15  C   UNL     1      16.465 -10.856  41.717  1.00  0.00     0.003 C 
ATOM     16  C   UNL     1      16.790 -12.250  41.083  1.00  0.00     0.005 C 
ATOM     17  C   UNL     1      17.996 -13.024  41.618  1.00  0.00     0.008 C 
ATOM     18  C   UNL     1      19.287 -12.172  41.799  1.00  0.00    -0.024 C 
ATOM     19  C   UNL     1      20.538 -13.112  42.287  1.00  0.00    -0.024 C 
ATOM     20  C   UNL     1      21.899 -12.347  42.174  1.00  0.00     0.008 C 
ATOM     21  C   UNL     1      23.133 -13.193  42.516  1.00  0.00     0.007 C 
ATOM     22  C   UNL     1      20.620 -14.391  41.393  1.00  0.00     0.012 C 
ATOM     23  C   UNL     1      19.663 -11.519  40.428  1.00  0.00     0.012 C 
ATOM     24  C   UNL     1      16.041 -10.006  39.219  1.00  0.00     0.014 C 
ATOM     25  C   UNL     1      14.119 -10.478  40.746  1.00  0.00     0.014 C 
ATOM     26  C   UNL     1      17.113  -9.458  43.804  1.00  0.00     0.012 C 
ATOM     27  C   UNL     1      23.776 -13.005  44.944  1.00  0.00     0.011 C 
ENDROOT
BRANCH   1  28
ATOM     28  C   UNL     1      20.760 -16.706  43.651  1.00  0.00    -0.077 C 
ATOM     29  C   UNL     1      21.447 -17.480  42.551  1.00  0.00     0.039 C 
ATOM     30  C   UNL     1      19.415 -16.699  43.659  1.00  0.00     0.008 C 
ENDBRANCH   1  28
BRANCH  13  31
ATOM     31  O   UNL     1      14.790  -7.685  40.286  1.00  0.00    -0.393 OA
ATOM     32  H   UNL     1      15.332  -6.887  40.049  1.00  0.00     0.210 HD
ENDBRANCH  13  31
TORSDOF 2
ENDMDL
