MODEL 1
REMARK VINA RESULT:    -5.459      0.000      0.000
REMARK INTER + INTRA:          -8.837
REMARK INTER:                  -8.332
REMARK INTRA:                  -0.505
REMARK UNBOUND:                -0.505
REMARK SMILES O=C([O-])CCCCCCCCC(=O)[O-]
REMARK SMILES IDX 7 1 6 2 5 3 4 4 2 5 1 6 3 7 8 8 9 9 10 10 11 11 12 12 13 13
REMARK SMILES IDX 14 14
REMARK H PARENT
REMARK Flexibility Score: inf
ROOT
ATOM      1  C   UNL     1       3.703   9.101  17.816  1.00  0.00     0.000 C 
ENDROOT
BRANCH   1   2
ATOM      2  C   UNL     1       3.912   8.891  16.303  1.00  0.00     0.000 C 
BRANCH   2   3
ATOM      3  C   UNL     1       4.483   7.517  15.912  1.00  0.00     0.006 C 
BRANCH   3   4
ATOM      4  C   UNL     1       5.845   7.615  15.215  1.00  0.00     0.053 C 
BRANCH   4   5
ATOM      5  C   UNL     1       5.667   7.723  13.734  1.00  0.00     0.041 C 
ATOM      6  O   UNL     1       5.788   8.838  13.161  1.00  0.00    -0.550 OA
ATOM      7  O   UNL     1       5.418   6.585  12.979  1.00  0.00    -0.550 OA
ENDBRANCH   4   5
ENDBRANCH   3   4
ENDBRANCH   2   3
ENDBRANCH   1   2
BRANCH   1   8
ATOM      8  C   UNL     1       2.285   8.788  18.334  1.00  0.00     0.000 C 
BRANCH   8   9
ATOM      9  C   UNL     1       2.192   7.585  19.289  1.00  0.00     0.000 C 
BRANCH   9  10
ATOM     10  C   UNL     1       2.170   6.236  18.550  1.00  0.00     0.006 C 
BRANCH  10  11
ATOM     11  C   UNL     1       2.513   5.062  19.477  1.00  0.00     0.053 C 
BRANCH  11  12
ATOM     12  C   UNL     1       2.923   3.846  18.704  1.00  0.00     0.041 C 
ATOM     13  O   UNL     1       3.293   2.805  19.309  1.00  0.00    -0.550 OA
ATOM     14  O   UNL     1       2.922   3.872  17.315  1.00  0.00    -0.550 OA
ENDBRANCH  11  12
ENDBRANCH  10  11
ENDBRANCH   9  10
ENDBRANCH   8   9
ENDBRANCH   1   8
TORSDOF 9
ENDMDL
MODEL 2
REMARK VINA RESULT:    -5.446      0.163      5.561
REMARK INTER + INTRA:          -8.817
REMARK INTER:                  -8.310
REMARK INTRA:                  -0.508
REMARK UNBOUND:                -0.505
REMARK SMILES O=C([O-])CCCCCCCCC(=O)[O-]
REMARK SMILES IDX 7 1 6 2 5 3 4 4 2 5 1 6 3 7 8 8 9 9 10 10 11 11 12 12 13 13
REMARK SMILES IDX 14 14
REMARK H PARENT
REMARK Flexibility Score: inf
ROOT
ATOM      1  C   UNL     1       2.235   8.793  18.423  1.00  0.00     0.000 C 
ENDROOT
BRANCH   1   2
ATOM      2  C   UNL     1       2.163   7.524  19.296  1.00  0.00     0.000 C 
BRANCH   2   3
ATOM      3  C   UNL     1       2.141   6.199  18.514  1.00  0.00     0.006 C 
BRANCH   3   4
ATOM      4  C   UNL     1       2.470   4.985  19.391  1.00  0.00     0.053 C 
BRANCH   4   5
ATOM      5  C   UNL     1       2.918   3.836  18.545  1.00  0.00     0.041 C 
ATOM      6  O   UNL     1       3.007   3.964  17.295  1.00  0.00    -0.550 OA
ATOM      7  O   UNL     1       3.285   2.636  19.140  1.00  0.00    -0.550 OA
ENDBRANCH   4   5
ENDBRANCH   3   4
ENDBRANCH   2   3
ENDBRANCH   1   2
BRANCH   1   8
ATOM      8  C   UNL     1       3.641   9.154  17.904  1.00  0.00     0.000 C 
BRANCH   8   9
ATOM      9  C   UNL     1       3.845   8.963  16.391  1.00  0.00     0.000 C 
BRANCH   9  10
ATOM     10  C   UNL     1       4.428   7.583  16.037  1.00  0.00     0.006 C 
BRANCH  10  11
ATOM     11  C   UNL     1       5.782   7.692  15.325  1.00  0.00     0.053 C 
BRANCH  11  12
ATOM     12  C   UNL     1       5.632   7.650  13.835  1.00  0.00     0.041 C 
ATOM     13  O   UNL     1       5.586   6.545  13.233  1.00  0.00    -0.550 OA
ATOM     14  O   UNL     1       5.570   8.833  13.108  1.00  0.00    -0.550 OA
ENDBRANCH  11  12
ENDBRANCH  10  11
ENDBRANCH   9  10
ENDBRANCH   8   9
ENDBRANCH   1   8
TORSDOF 9
ENDMDL
MODEL 3
REMARK VINA RESULT:    -5.252      3.542      5.387
REMARK INTER + INTRA:          -8.521
REMARK INTER:                  -8.215
REMARK INTRA:                  -0.305
REMARK UNBOUND:                -0.505
REMARK SMILES O=C([O-])CCCCCCCCC(=O)[O-]
REMARK SMILES IDX 7 1 6 2 5 3 4 4 2 5 1 6 3 7 8 8 9 9 10 10 11 11 12 12 13 13
REMARK SMILES IDX 14 14
REMARK H PARENT
REMARK Flexibility Score: inf
ROOT
ATOM      1  C   UNL     1       2.623   4.776  19.660  1.00  0.00     0.000 C 
ENDROOT
BRANCH   1   2
ATOM      2  C   UNL     1       1.791   5.725  18.774  1.00  0.00     0.000 C 
BRANCH   2   3
ATOM      3  C   UNL     1       2.452   7.083  18.480  1.00  0.00     0.006 C 
BRANCH   3   4
ATOM      4  C   UNL     1       2.124   8.145  19.536  1.00  0.00     0.053 C 
BRANCH   4   5
ATOM      5  C   UNL     1       2.447   9.512  19.020  1.00  0.00     0.041 C 
ATOM      6  O   UNL     1       1.624  10.125  18.290  1.00  0.00    -0.550 OA
ATOM      7  O   UNL     1       3.635  10.130  19.385  1.00  0.00    -0.550 OA
ENDBRANCH   4   5
ENDBRANCH   3   4
ENDBRANCH   2   3
ENDBRANCH   1   2
BRANCH   1   8
ATOM      8  C   UNL     1       3.009   3.435  19.003  1.00  0.00     0.000 C 
BRANCH   8   9
ATOM      9  C   UNL     1       3.026   3.445  17.465  1.00  0.00     0.000 C 
BRANCH   9  10
ATOM     10  C   UNL     1       3.729   2.214  16.868  1.00  0.00     0.006 C 
BRANCH  10  11
ATOM     11  C   UNL     1       3.009   1.682  15.622  1.00  0.00     0.053 C 
BRANCH  11  12
ATOM     12  C   UNL     1       3.831   1.867  14.383  1.00  0.00     0.041 C 
ATOM     13  O   UNL     1       4.412   2.963  14.165  1.00  0.00    -0.550 OA
ATOM     14  O   UNL     1       3.931   0.838  13.455  1.00  0.00    -0.550 OA
ENDBRANCH  11  12
ENDBRANCH  10  11
ENDBRANCH   9  10
ENDBRANCH   8   9
ENDBRANCH   1   8
TORSDOF 9
ENDMDL
MODEL 4
REMARK VINA RESULT:    -5.166      2.787      4.971
REMARK INTER + INTRA:          -8.390
REMARK INTER:                  -7.955
REMARK INTRA:                  -0.435
REMARK UNBOUND:                -0.505
REMARK SMILES O=C([O-])CCCCCCCCC(=O)[O-]
REMARK SMILES IDX 7 1 6 2 5 3 4 4 2 5 1 6 3 7 8 8 9 9 10 10 11 11 12 12 13 13
REMARK SMILES IDX 14 14
REMARK H PARENT
REMARK Flexibility Score: inf
ROOT
ATOM      1  C   UNL     1       5.654   7.603  15.103  1.00  0.00     0.000 C 
ENDROOT
BRANCH   1   2
ATOM      2  C   UNL     1       4.625   8.545  15.761  1.00  0.00     0.000 C 
BRANCH   2   3
ATOM      3  C   UNL     1       3.714   7.881  16.808  1.00  0.00     0.006 C 
BRANCH   3   4
ATOM      4  C   UNL     1       2.996   8.899  17.702  1.00  0.00     0.053 C 
BRANCH   4   5
ATOM      5  C   UNL     1       2.304   8.205  18.832  1.00  0.00     0.041 C 
ATOM      6  O   UNL     1       2.066   6.970  18.767  1.00  0.00    -0.550 OA
ATOM      7  O   UNL     1       1.965   8.911  19.978  1.00  0.00    -0.550 OA
ENDBRANCH   4   5
ENDBRANCH   3   4
ENDBRANCH   2   3
ENDBRANCH   1   2
BRANCH   1   8
ATOM      8  C   UNL     1       5.403   7.294  13.614  1.00  0.00     0.000 C 
BRANCH   8   9
ATOM      9  C   UNL     1       4.886   5.874  13.322  1.00  0.00     0.000 C 
BRANCH   9  10
ATOM     10  C   UNL     1       4.472   5.116  14.595  1.00  0.00     0.006 C 
BRANCH  10  11
ATOM     11  C   UNL     1       3.893   3.731  14.282  1.00  0.00     0.053 C 
BRANCH  11  12
ATOM     12  C   UNL     1       3.127   3.173  15.443  1.00  0.00     0.041 C 
ATOM     13  O   UNL     1       2.498   2.088  15.326  1.00  0.00    -0.550 OA
ATOM     14  O   UNL     1       3.086   3.866  16.646  1.00  0.00    -0.550 OA
ENDBRANCH  11  12
ENDBRANCH  10  11
ENDBRANCH   9  10
ENDBRANCH   8   9
ENDBRANCH   1   8
TORSDOF 9
ENDMDL
MODEL 5
REMARK VINA RESULT:    -5.155      1.278      2.206
REMARK INTER + INTRA:          -8.372
REMARK INTER:                  -7.920
REMARK INTRA:                  -0.452
REMARK UNBOUND:                -0.505
REMARK SMILES O=C([O-])CCCCCCCCC(=O)[O-]
REMARK SMILES IDX 7 1 6 2 5 3 4 4 2 5 1 6 3 7 8 8 9 9 10 10 11 11 12 12 13 13
REMARK SMILES IDX 14 14
REMARK H PARENT
REMARK Flexibility Score: inf
ROOT
ATOM      1  C   UNL     1       2.706   6.722  17.805  1.00  0.00     0.000 C 
ENDROOT
BRANCH   1   2
ATOM      2  C   UNL     1       3.046   8.225  17.799  1.00  0.00     0.000 C 
BRANCH   2   3
ATOM      3  C   UNL     1       3.853   8.703  16.578  1.00  0.00     0.006 C 
BRANCH   3   4
ATOM      4  C   UNL     1       4.547   7.554  15.838  1.00  0.00     0.053 C 
BRANCH   4   5
ATOM      5  C   UNL     1       5.343   8.081  14.686  1.00  0.00     0.041 C 
ATOM      6  O   UNL     1       4.965   9.114  14.073  1.00  0.00    -0.550 OA
ATOM      7  O   UNL     1       6.531   7.461  14.321  1.00  0.00    -0.550 OA
ENDBRANCH   4   5
ENDBRANCH   3   4
ENDBRANCH   2   3
ENDBRANCH   1   2
BRANCH   1   8
ATOM      8  C   UNL     1       1.990   6.215  19.072  1.00  0.00     0.000 C 
BRANCH   8   9
ATOM      9  C   UNL     1       2.660   5.015  19.763  1.00  0.00     0.000 C 
BRANCH   9  10
ATOM     10  C   UNL     1       2.176   3.662  19.213  1.00  0.00     0.006 C 
BRANCH  10  11
ATOM     11  C   UNL     1       3.340   2.768  18.766  1.00  0.00     0.053 C 
BRANCH  11  12
ATOM     12  C   UNL     1       3.370   2.599  17.277  1.00  0.00     0.041 C 
ATOM     13  O   UNL     1       2.915   3.502  16.527  1.00  0.00    -0.550 OA
ATOM     14  O   UNL     1       3.877   1.431  16.720  1.00  0.00    -0.550 OA
ENDBRANCH  11  12
ENDBRANCH  10  11
ENDBRANCH   9  10
ENDBRANCH   8   9
ENDBRANCH   1   8
TORSDOF 9
ENDMDL
MODEL 6
REMARK VINA RESULT:    -5.151      2.826      5.222
REMARK INTER + INTRA:          -8.366
REMARK INTER:                  -7.822
REMARK INTRA:                  -0.544
REMARK UNBOUND:                -0.505
REMARK SMILES O=C([O-])CCCCCCCCC(=O)[O-]
REMARK SMILES IDX 7 1 6 2 5 3 4 4 2 5 1 6 3 7 8 8 9 9 10 10 11 11 12 12 13 13
REMARK SMILES IDX 14 14
REMARK H PARENT
REMARK Flexibility Score: inf
ROOT
ATOM      1  C   UNL     1       5.253   6.573  13.232  1.00  0.00     0.000 C 
ENDROOT
BRANCH   1   2
ATOM      2  C   UNL     1       4.480   5.240  13.270  1.00  0.00     0.000 C 
BRANCH   2   3
ATOM      3  C   UNL     1       4.382   4.586  14.660  1.00  0.00     0.006 C 
BRANCH   3   4
ATOM      4  C   UNL     1       3.114   3.741  14.832  1.00  0.00     0.053 C 
BRANCH   4   5
ATOM      5  C   UNL     1       2.982   3.281  16.249  1.00  0.00     0.041 C 
ATOM      6  O   UNL     1       2.888   2.053  16.511  1.00  0.00    -0.550 OA
ATOM      7  O   UNL     1       3.010   4.206  17.285  1.00  0.00    -0.550 OA
ENDBRANCH   4   5
ENDBRANCH   3   4
ENDBRANCH   2   3
ENDBRANCH   1   2
BRANCH   1   8
ATOM      8  C   UNL     1       5.735   7.093  14.601  1.00  0.00     0.000 C 
BRANCH   8   9
ATOM      9  C   UNL     1       4.899   8.242  15.192  1.00  0.00     0.000 C 
BRANCH   9  10
ATOM     10  C   UNL     1       4.142   7.834  16.468  1.00  0.00     0.006 C 
BRANCH  10  11
ATOM     11  C   UNL     1       3.416   9.021  17.115  1.00  0.00     0.053 C 
BRANCH  11  12
ATOM     12  C   UNL     1       2.651   8.607  18.335  1.00  0.00     0.041 C 
ATOM     13  O   UNL     1       2.398   9.445  19.240  1.00  0.00    -0.550 OA
ATOM     14  O   UNL     1       2.242   7.287  18.484  1.00  0.00    -0.550 OA
ENDBRANCH  11  12
ENDBRANCH  10  11
ENDBRANCH   9  10
ENDBRANCH   8   9
ENDBRANCH   1   8
TORSDOF 9
ENDMDL
MODEL 7
REMARK VINA RESULT:    -5.148      3.009      5.395
REMARK INTER + INTRA:          -8.362
REMARK INTER:                  -7.939
REMARK INTRA:                  -0.423
REMARK UNBOUND:                -0.505
REMARK SMILES O=C([O-])CCCCCCCCC(=O)[O-]
REMARK SMILES IDX 7 1 6 2 5 3 4 4 2 5 1 6 3 7 8 8 9 9 10 10 11 11 12 12 13 13
REMARK SMILES IDX 14 14
REMARK H PARENT
REMARK Flexibility Score: inf
ROOT
ATOM      1  C   UNL     1       2.660   3.812  18.852  1.00  0.00     0.000 C 
ENDROOT
BRANCH   1   2
ATOM      2  C   UNL     1       2.434   5.171  19.544  1.00  0.00     0.000 C 
BRANCH   2   3
ATOM      3  C   UNL     1       2.225   6.359  18.588  1.00  0.00     0.006 C 
BRANCH   3   4
ATOM      4  C   UNL     1       2.203   7.709  19.314  1.00  0.00     0.053 C 
BRANCH   4   5
ATOM      5  C   UNL     1       2.411   8.828  18.342  1.00  0.00     0.041 C 
ATOM      6  O   UNL     1       3.204   8.687  17.374  1.00  0.00    -0.550 OA
ATOM      7  O   UNL     1       1.692  10.008  18.477  1.00  0.00    -0.550 OA
ENDBRANCH   4   5
ENDBRANCH   3   4
ENDBRANCH   2   3
ENDBRANCH   1   2
BRANCH   1   8
ATOM      8  C   UNL     1       2.994   3.887  17.349  1.00  0.00     0.000 C 
BRANCH   8   9
ATOM      9  C   UNL     1       3.368   2.545  16.697  1.00  0.00     0.000 C 
BRANCH   9  10
ATOM     10  C   UNL     1       3.160   2.542  15.173  1.00  0.00     0.006 C 
BRANCH  10  11
ATOM     11  C   UNL     1       2.902   3.950  14.621  1.00  0.00     0.053 C 
BRANCH  11  12
ATOM     12  C   UNL     1       4.101   4.498  13.910  1.00  0.00     0.041 C 
ATOM     13  O   UNL     1       4.539   3.930  12.875  1.00  0.00    -0.550 OA
ATOM     14  O   UNL     1       4.753   5.620  14.408  1.00  0.00    -0.550 OA
ENDBRANCH  11  12
ENDBRANCH  10  11
ENDBRANCH   9  10
ENDBRANCH   8   9
ENDBRANCH   1   8
TORSDOF 9
ENDMDL
MODEL 8
REMARK VINA RESULT:    -5.103      2.623      6.750
REMARK INTER + INTRA:          -8.293
REMARK INTER:                  -7.650
REMARK INTRA:                  -0.643
REMARK UNBOUND:                -0.505
REMARK SMILES O=C([O-])CCCCCCCCC(=O)[O-]
REMARK SMILES IDX 7 1 6 2 5 3 4 4 2 5 1 6 3 7 8 8 9 9 10 10 11 11 12 12 13 13
REMARK SMILES IDX 14 14
REMARK H PARENT
REMARK Flexibility Score: inf
ROOT
ATOM      1  C   UNL     1       4.082   2.653  14.217  1.00  0.00     0.000 C 
ENDROOT
BRANCH   1   2
ATOM      2  C   UNL     1       2.962   3.308  15.051  1.00  0.00     0.000 C 
BRANCH   2   3
ATOM      3  C   UNL     1       3.297   3.514  16.538  1.00  0.00     0.006 C 
BRANCH   3   4
ATOM      4  C   UNL     1       2.895   4.901  17.052  1.00  0.00     0.053 C 
BRANCH   4   5
ATOM      5  C   UNL     1       2.688   4.871  18.533  1.00  0.00     0.041 C 
ATOM      6  O   UNL     1       2.160   5.851  19.120  1.00  0.00    -0.550 OA
ATOM      7  O   UNL     1       3.033   3.738  19.259  1.00  0.00    -0.550 OA
ENDBRANCH   4   5
ENDBRANCH   3   4
ENDBRANCH   2   3
ENDBRANCH   1   2
BRANCH   1   8
ATOM      8  C   UNL     1       4.521   3.445  12.969  1.00  0.00     0.000 C 
BRANCH   8   9
ATOM      9  C   UNL     1       4.016   4.897  12.909  1.00  0.00     0.000 C 
BRANCH   9  10
ATOM     10  C   UNL     1       5.160   5.926  12.877  1.00  0.00     0.006 C 
BRANCH  10  11
ATOM     11  C   UNL     1       5.299   6.680  14.205  1.00  0.00     0.053 C 
BRANCH  11  12
ATOM     12  C   UNL     1       5.782   8.083  14.000  1.00  0.00     0.041 C 
ATOM     13  O   UNL     1       4.958   9.030  13.900  1.00  0.00    -0.550 OA
ATOM     14  O   UNL     1       7.143   8.341  13.891  1.00  0.00    -0.550 OA
ENDBRANCH  11  12
ENDBRANCH  10  11
ENDBRANCH   9  10
ENDBRANCH   8   9
ENDBRANCH   1   8
TORSDOF 9
ENDMDL
MODEL 9
REMARK VINA RESULT:    -5.066      2.338      3.527
REMARK INTER + INTRA:          -8.237
REMARK INTER:                  -7.839
REMARK INTRA:                  -0.398
REMARK UNBOUND:                -0.505
REMARK SMILES O=C([O-])CCCCCCCCC(=O)[O-]
REMARK SMILES IDX 7 1 6 2 5 3 4 4 2 5 1 6 3 7 8 8 9 9 10 10 11 11 12 12 13 13
REMARK SMILES IDX 14 14
REMARK H PARENT
REMARK Flexibility Score: inf
ROOT
ATOM      1  C   UNL     1       4.461   5.047  14.671  1.00  0.00     0.000 C 
ENDROOT
BRANCH   1   2
ATOM      2  C   UNL     1       4.831   5.862  13.416  1.00  0.00     0.000 C 
BRANCH   2   3
ATOM      3  C   UNL     1       5.920   6.929  13.632  1.00  0.00     0.006 C 
BRANCH   3   4
ATOM      4  C   UNL     1       5.882   7.539  15.038  1.00  0.00     0.053 C 
BRANCH   4   5
ATOM      5  C   UNL     1       4.858   8.628  15.107  1.00  0.00     0.041 C 
ATOM      6  O   UNL     1       4.721   9.432  14.148  1.00  0.00    -0.550 OA
ATOM      7  O   UNL     1       4.020   8.724  16.210  1.00  0.00    -0.550 OA
ENDBRANCH   4   5
ENDBRANCH   3   4
ENDBRANCH   2   3
ENDBRANCH   1   2
BRANCH   1   8
ATOM      8  C   UNL     1       3.427   3.927  14.445  1.00  0.00     0.000 C 
BRANCH   8   9
ATOM      9  C   UNL     1       3.020   3.152  15.711  1.00  0.00     0.000 C 
BRANCH   9  10
ATOM     10  C   UNL     1       2.989   4.037  16.969  1.00  0.00     0.006 C 
BRANCH  10  11
ATOM     11  C   UNL     1       3.039   3.210  18.260  1.00  0.00     0.053 C 
BRANCH  11  12
ATOM     12  C   UNL     1       2.347   3.906  19.392  1.00  0.00     0.041 C 
ATOM     13  O   UNL     1       1.546   3.275  20.131  1.00  0.00    -0.550 OA
ATOM     14  O   UNL     1       2.566   5.260  19.614  1.00  0.00    -0.550 OA
ENDBRANCH  11  12
ENDBRANCH  10  11
ENDBRANCH   9  10
ENDBRANCH   8   9
ENDBRANCH   1   8
TORSDOF 9
ENDMDL
