MODEL 1
REMARK VINA RESULT:    -4.387      0.000      0.000
REMARK INTER + INTRA:          -5.121
REMARK INTER:                  -5.284
REMARK INTRA:                   0.163
REMARK UNBOUND:                 0.163
REMARK SMILES NC(=O)C[C@H]([NH3+])C(=O)[O-]
REMARK SMILES IDX 4 1 5 2 6 3 7 7 8 8 9 9 2 10 3 11 1 12
REMARK H PARENT 6 4 6 5 6 6 1 13 1 14
REMARK Flexibility Score: inf
ROOT
ATOM      1  C   UNL     1      -1.287  27.124  17.949  1.00  0.00     0.171 C 
ENDROOT
BRANCH   1   2
ATOM      2  C   UNL     1      -2.441  26.663  17.035  1.00  0.00     0.237 C 
BRANCH   2   3
ATOM      3  N   UNL     1      -3.639  26.364  17.830  1.00  0.00    -0.350 N 
ATOM      4  H   UNL     1      -3.364  26.149  18.817  1.00  0.00     0.345 HD
ATOM      5  H   UNL     1      -4.151  25.543  17.433  1.00  0.00     0.345 HD
ATOM      6  H   UNL     1      -4.274  27.195  17.843  1.00  0.00     0.345 HD
ENDBRANCH   2   3
BRANCH   2   7
ATOM      7  C   UNL     1      -2.041  25.457  16.224  1.00  0.00     0.100 C 
ATOM      8  O   UNL     1      -2.278  24.294  16.646  1.00  0.00    -0.544 OA
ATOM      9  O   UNL     1      -1.389  25.624  15.009  1.00  0.00    -0.544 OA
ENDBRANCH   2   7
ENDBRANCH   1   2
BRANCH   1  10
ATOM     10  C   UNL     1      -1.212  26.300  19.202  1.00  0.00     0.223 C 
ATOM     11  O   UNL     1      -0.528  25.242  19.216  1.00  0.00    -0.275 OA
ATOM     12  N   UNL     1      -1.941  26.686  20.367  1.00  0.00    -0.369 N 
ATOM     13  H   UNL     1      -1.898  26.103  21.233  1.00  0.00     0.159 HD
ATOM     14  H   UNL     1      -2.529  27.549  20.368  1.00  0.00     0.159 HD
ENDBRANCH   1  10
TORSDOF 4
ENDMDL
MODEL 2
REMARK VINA RESULT:    -4.358      1.918      3.630
REMARK INTER + INTRA:          -5.087
REMARK INTER:                  -5.354
REMARK INTRA:                   0.267
REMARK UNBOUND:                 0.163
REMARK SMILES NC(=O)C[C@H]([NH3+])C(=O)[O-]
REMARK SMILES IDX 4 1 5 2 6 3 7 7 8 8 9 9 2 10 3 11 1 12
REMARK H PARENT 6 4 6 5 6 6 1 13 1 14
REMARK Flexibility Score: inf
ROOT
ATOM      1  C   UNL     1      -2.681  26.242  16.848  1.00  0.00     0.171 C 
ENDROOT
BRANCH   1   2
ATOM      2  C   UNL     1      -1.719  27.130  17.663  1.00  0.00     0.237 C 
BRANCH   2   3
ATOM      3  N   UNL     1      -0.600  27.579  16.825  1.00  0.00    -0.350 N 
ATOM      4  H   UNL     1      -0.403  28.590  17.010  1.00  0.00     0.345 HD
ATOM      5  H   UNL     1      -0.824  27.456  15.810  1.00  0.00     0.345 HD
ATOM      6  H   UNL     1       0.260  27.032  17.057  1.00  0.00     0.345 HD
ENDBRANCH   2   3
BRANCH   2   7
ATOM      7  C   UNL     1      -1.200  26.397  18.873  1.00  0.00     0.100 C 
ATOM      8  O   UNL     1      -0.178  25.666  18.789  1.00  0.00    -0.544 OA
ATOM      9  O   UNL     1      -1.862  26.511  20.089  1.00  0.00    -0.544 OA
ENDBRANCH   2   7
ENDBRANCH   1   2
BRANCH   1  10
ATOM     10  C   UNL     1      -1.936  25.243  16.010  1.00  0.00     0.223 C 
ATOM     11  O   UNL     1      -1.641  24.117  16.494  1.00  0.00    -0.275 OA
ATOM     12  N   UNL     1      -1.526  25.572  14.683  1.00  0.00    -0.369 N 
ATOM     13  H   UNL     1      -0.995  24.880  14.109  1.00  0.00     0.159 HD
ATOM     14  H   UNL     1      -1.744  26.507  14.273  1.00  0.00     0.159 HD
ENDBRANCH   1  10
TORSDOF 4
ENDMDL
MODEL 3
REMARK VINA RESULT:    -4.199      1.729      3.487
REMARK INTER + INTRA:          -4.895
REMARK INTER:                  -4.789
REMARK INTRA:                  -0.106
REMARK UNBOUND:                 0.163
REMARK SMILES NC(=O)C[C@H]([NH3+])C(=O)[O-]
REMARK SMILES IDX 4 1 5 2 6 3 7 7 8 8 9 9 2 10 3 11 1 12
REMARK H PARENT 6 4 6 5 6 6 1 13 1 14
REMARK Flexibility Score: inf
ROOT
ATOM      1  C   UNL     1      -2.078  26.455  16.640  1.00  0.00     0.171 C 
ENDROOT
BRANCH   1   2
ATOM      2  C   UNL     1      -2.630  25.987  18.002  1.00  0.00     0.237 C 
BRANCH   2   3
ATOM      3  N   UNL     1      -3.882  26.687  18.316  1.00  0.00    -0.350 N 
ATOM      4  H   UNL     1      -4.692  26.038  18.184  1.00  0.00     0.345 HD
ATOM      5  H   UNL     1      -4.007  27.520  17.696  1.00  0.00     0.345 HD
ATOM      6  H   UNL     1      -3.874  26.998  19.315  1.00  0.00     0.345 HD
ENDBRANCH   2   3
BRANCH   2   7
ATOM      7  C   UNL     1      -1.621  26.207  19.100  1.00  0.00     0.100 C 
ATOM      8  O   UNL     1      -1.985  26.637  20.227  1.00  0.00    -0.544 OA
ATOM      9  O   UNL     1      -0.275  25.954  18.867  1.00  0.00    -0.544 OA
ENDBRANCH   2   7
ENDBRANCH   1   2
BRANCH   1  10
ATOM     10  C   UNL     1      -1.668  25.294  15.781  1.00  0.00     0.223 C 
ATOM     11  O   UNL     1      -1.587  24.141  16.284  1.00  0.00    -0.275 OA
ATOM     12  N   UNL     1      -1.334  25.491  14.407  1.00  0.00    -0.369 N 
ATOM     13  H   UNL     1      -1.035  24.683  13.817  1.00  0.00     0.159 HD
ATOM     14  H   UNL     1      -1.377  26.442  13.978  1.00  0.00     0.159 HD
ENDBRANCH   1  10
TORSDOF 4
ENDMDL
MODEL 4
REMARK VINA RESULT:    -4.044      2.165      3.273
REMARK INTER + INTRA:          -4.708
REMARK INTER:                  -4.561
REMARK INTRA:                  -0.147
REMARK UNBOUND:                 0.163
REMARK SMILES NC(=O)C[C@H]([NH3+])C(=O)[O-]
REMARK SMILES IDX 4 1 5 2 6 3 7 7 8 8 9 9 2 10 3 11 1 12
REMARK H PARENT 6 4 6 5 6 6 1 13 1 14
REMARK Flexibility Score: inf
ROOT
ATOM      1  C   UNL     1      -0.644  25.270  17.795  1.00  0.00     0.171 C 
ENDROOT
BRANCH   1   2
ATOM      2  C   UNL     1      -0.941  26.661  18.393  1.00  0.00     0.237 C 
BRANCH   2   3
ATOM      3  N   UNL     1      -1.956  26.560  19.450  1.00  0.00    -0.350 N 
ATOM      4  H   UNL     1      -2.287  27.517  19.714  1.00  0.00     0.345 HD
ATOM      5  H   UNL     1      -1.562  26.090  20.297  1.00  0.00     0.345 HD
ATOM      6  H   UNL     1      -2.778  26.015  19.102  1.00  0.00     0.345 HD
ENDBRANCH   2   3
BRANCH   2   7
ATOM      7  C   UNL     1      -1.395  27.624  17.326  1.00  0.00     0.100 C 
ATOM      8  O   UNL     1      -0.553  28.245  16.625  1.00  0.00    -0.544 OA
ATOM      9  O   UNL     1      -2.751  27.845  17.123  1.00  0.00    -0.544 OA
ENDBRANCH   2   7
ENDBRANCH   1   2
BRANCH   1  10
ATOM     10  C   UNL     1      -1.691  24.862  16.799  1.00  0.00     0.223 C 
ATOM     11  O   UNL     1      -2.867  24.630  17.187  1.00  0.00    -0.275 OA
ATOM     12  N   UNL     1      -1.355  24.699  15.421  1.00  0.00    -0.369 N 
ATOM     13  H   UNL     1      -2.083  24.400  14.734  1.00  0.00     0.159 HD
ATOM     14  H   UNL     1      -0.381  24.868  15.085  1.00  0.00     0.159 HD
ENDBRANCH   1  10
TORSDOF 4
ENDMDL
MODEL 5
REMARK VINA RESULT:    -4.042      2.118      2.290
REMARK INTER + INTRA:          -4.706
REMARK INTER:                  -4.427
REMARK INTRA:                  -0.278
REMARK UNBOUND:                 0.163
REMARK SMILES NC(=O)C[C@H]([NH3+])C(=O)[O-]
REMARK SMILES IDX 4 1 5 2 6 3 7 7 8 8 9 9 2 10 3 11 1 12
REMARK H PARENT 6 4 6 5 6 6 1 13 1 14
REMARK Flexibility Score: inf
ROOT
ATOM      1  C   UNL     1      -1.655  24.839  17.758  1.00  0.00     0.171 C 
ENDROOT
BRANCH   1   2
ATOM      2  C   UNL     1      -2.358  25.582  16.604  1.00  0.00     0.237 C 
BRANCH   2   3
ATOM      3  N   UNL     1      -1.383  25.978  15.580  1.00  0.00    -0.350 N 
ATOM      4  H   UNL     1      -1.125  26.984  15.708  1.00  0.00     0.345 HD
ATOM      5  H   UNL     1      -1.780  25.848  14.620  1.00  0.00     0.345 HD
ATOM      6  H   UNL     1      -0.514  25.404  15.674  1.00  0.00     0.345 HD
ENDBRANCH   2   3
BRANCH   2   7
ATOM      7  C   UNL     1      -3.101  26.791  17.110  1.00  0.00     0.100 C 
ATOM      8  O   UNL     1      -4.227  26.666  17.661  1.00  0.00    -0.544 OA
ATOM      9  O   UNL     1      -2.553  28.058  16.955  1.00  0.00    -0.544 OA
ENDBRANCH   2   7
ENDBRANCH   1   2
BRANCH   1  10
ATOM     10  C   UNL     1      -0.876  25.782  18.629  1.00  0.00     0.223 C 
ATOM     11  O   UNL     1       0.086  26.433  18.141  1.00  0.00    -0.275 OA
ATOM     12  N   UNL     1      -1.191  25.917  20.015  1.00  0.00    -0.369 N 
ATOM     13  H   UNL     1      -0.637  26.563  20.620  1.00  0.00     0.159 HD
ATOM     14  H   UNL     1      -1.972  25.370  20.440  1.00  0.00     0.159 HD
ENDBRANCH   1  10
TORSDOF 4
ENDMDL
MODEL 6
REMARK VINA RESULT:    -3.832      2.349      3.103
REMARK INTER + INTRA:          -4.453
REMARK INTER:                  -4.327
REMARK INTRA:                  -0.126
REMARK UNBOUND:                 0.163
REMARK SMILES NC(=O)C[C@H]([NH3+])C(=O)[O-]
REMARK SMILES IDX 4 1 5 2 6 3 7 7 8 8 9 9 2 10 3 11 1 12
REMARK H PARENT 6 4 6 5 6 6 1 13 1 14
REMARK Flexibility Score: inf
ROOT
ATOM      1  C   UNL     1      -0.635  27.321  17.132  1.00  0.00     0.171 C 
ENDROOT
BRANCH   1   2
ATOM      2  C   UNL     1      -1.463  26.614  18.225  1.00  0.00     0.237 C 
BRANCH   2   3
ATOM      3  N   UNL     1      -0.620  25.686  18.989  1.00  0.00    -0.350 N 
ATOM      4  H   UNL     1      -1.163  24.823  19.221  1.00  0.00     0.345 HD
ATOM      5  H   UNL     1      -0.291  26.131  19.877  1.00  0.00     0.345 HD
ATOM      6  H   UNL     1       0.209  25.405  18.416  1.00  0.00     0.345 HD
ENDBRANCH   2   3
BRANCH   2   7
ATOM      7  C   UNL     1      -2.635  25.878  17.626  1.00  0.00     0.100 C 
ATOM      8  O   UNL     1      -2.460  24.802  16.995  1.00  0.00    -0.544 OA
ATOM      9  O   UNL     1      -3.917  26.398  17.752  1.00  0.00    -0.544 OA
ENDBRANCH   2   7
ENDBRANCH   1   2
BRANCH   1  10
ATOM     10  C   UNL     1      -1.109  28.727  16.904  1.00  0.00     0.223 C 
ATOM     11  O   UNL     1      -0.269  29.662  16.802  1.00  0.00    -0.275 OA
ATOM     12  N   UNL     1      -2.505  29.020  16.840  1.00  0.00    -0.369 N 
ATOM     13  H   UNL     1      -2.830  30.002  16.696  1.00  0.00     0.159 HD
ATOM     14  H   UNL     1      -3.215  28.262  16.943  1.00  0.00     0.159 HD
ENDBRANCH   1  10
TORSDOF 4
ENDMDL
MODEL 7
REMARK VINA RESULT:    -3.722      2.350      3.366
REMARK INTER + INTRA:          -4.321
REMARK INTER:                  -4.232
REMARK INTRA:                  -0.089
REMARK UNBOUND:                 0.163
REMARK SMILES NC(=O)C[C@H]([NH3+])C(=O)[O-]
REMARK SMILES IDX 4 1 5 2 6 3 7 7 8 8 9 9 2 10 3 11 1 12
REMARK H PARENT 6 4 6 5 6 6 1 13 1 14
REMARK Flexibility Score: inf
ROOT
ATOM      1  C   UNL     1      -3.365  26.028  17.550  1.00  0.00     0.171 C 
ENDROOT
BRANCH   1   2
ATOM      2  C   UNL     1      -2.089  25.900  16.694  1.00  0.00     0.237 C 
BRANCH   2   3
ATOM      3  N   UNL     1      -1.740  24.487  16.500  1.00  0.00    -0.350 N 
ATOM      4  H   UNL     1      -1.069  24.395  15.703  1.00  0.00     0.345 HD
ATOM      5  H   UNL     1      -2.594  23.919  16.296  1.00  0.00     0.345 HD
ATOM      6  H   UNL     1      -1.276  24.114  17.360  1.00  0.00     0.345 HD
ENDBRANCH   2   3
BRANCH   2   7
ATOM      7  C   UNL     1      -0.937  26.639  17.325  1.00  0.00     0.100 C 
ATOM      8  O   UNL     1      -0.356  26.171  18.340  1.00  0.00    -0.544 OA
ATOM      9  O   UNL     1      -0.521  27.855  16.799  1.00  0.00    -0.544 OA
ENDBRANCH   2   7
ENDBRANCH   1   2
BRANCH   1  10
ATOM     10  C   UNL     1      -4.163  27.243  17.175  1.00  0.00     0.223 C 
ATOM     11  O   UNL     1      -5.419  27.170  17.102  1.00  0.00    -0.275 OA
ATOM     12  N   UNL     1      -3.506  28.472  16.863  1.00  0.00    -0.369 N 
ATOM     13  H   UNL     1      -4.064  29.312  16.588  1.00  0.00     0.159 HD
ATOM     14  H   UNL     1      -2.466  28.546  16.899  1.00  0.00     0.159 HD
ENDBRANCH   1  10
TORSDOF 4
ENDMDL
MODEL 8
REMARK VINA RESULT:    -3.697      2.034      3.525
REMARK INTER + INTRA:          -4.290
REMARK INTER:                  -4.084
REMARK INTRA:                  -0.206
REMARK UNBOUND:                 0.163
REMARK SMILES NC(=O)C[C@H]([NH3+])C(=O)[O-]
REMARK SMILES IDX 4 1 5 2 6 3 7 7 8 8 9 9 2 10 3 11 1 12
REMARK H PARENT 6 4 6 5 6 6 1 13 1 14
REMARK Flexibility Score: inf
ROOT
ATOM      1  C   UNL     1      -2.695  26.360  16.733  1.00  0.00     0.171 C 
ENDROOT
BRANCH   1   2
ATOM      2  C   UNL     1      -1.571  27.113  17.474  1.00  0.00     0.237 C 
BRANCH   2   3
ATOM      3  N   UNL     1      -0.481  27.450  16.550  1.00  0.00    -0.350 N 
ATOM      4  H   UNL     1      -0.849  27.496  15.571  1.00  0.00     0.345 HD
ATOM      5  H   UNL     1       0.278  26.732  16.594  1.00  0.00     0.345 HD
ATOM      6  H   UNL     1      -0.085  28.387  16.793  1.00  0.00     0.345 HD
ENDBRANCH   2   3
BRANCH   2   7
ATOM      7  C   UNL     1      -1.042  26.298  18.627  1.00  0.00     0.100 C 
ATOM      8  O   UNL     1      -0.047  25.541  18.472  1.00  0.00    -0.544 OA
ATOM      9  O   UNL     1      -1.664  26.365  19.867  1.00  0.00    -0.544 OA
ENDBRANCH   2   7
ENDBRANCH   1   2
BRANCH   1  10
ATOM     10  C   UNL     1      -4.053  26.785  17.212  1.00  0.00     0.223 C 
ATOM     11  O   UNL     1      -4.915  27.179  16.382  1.00  0.00    -0.275 OA
ATOM     12  N   UNL     1      -4.363  26.783  18.606  1.00  0.00    -0.369 N 
ATOM     13  H   UNL     1      -5.304  27.093  18.936  1.00  0.00     0.159 HD
ATOM     14  H   UNL     1      -3.655  26.479  19.310  1.00  0.00     0.159 HD
ENDBRANCH   1  10
TORSDOF 4
ENDMDL
MODEL 9
REMARK VINA RESULT:    -3.639      2.125      3.263
REMARK INTER + INTRA:          -4.221
REMARK INTER:                  -3.873
REMARK INTRA:                  -0.348
REMARK UNBOUND:                 0.163
REMARK SMILES NC(=O)C[C@H]([NH3+])C(=O)[O-]
REMARK SMILES IDX 4 1 5 2 6 3 7 7 8 8 9 9 2 10 3 11 1 12
REMARK H PARENT 6 4 6 5 6 6 1 13 1 14
REMARK Flexibility Score: inf
ROOT
ATOM      1  C   UNL     1      -2.012  26.342  16.520  1.00  0.00     0.171 C 
ENDROOT
BRANCH   1   2
ATOM      2  C   UNL     1      -2.562  25.848  17.874  1.00  0.00     0.237 C 
BRANCH   2   3
ATOM      3  N   UNL     1      -3.822  26.529  18.196  1.00  0.00    -0.350 N 
ATOM      4  H   UNL     1      -3.694  27.565  18.120  1.00  0.00     0.345 HD
ATOM      5  H   UNL     1      -4.132  26.294  19.167  1.00  0.00     0.345 HD
ATOM      6  H   UNL     1      -4.565  26.242  17.518  1.00  0.00     0.345 HD
ENDBRANCH   2   3
BRANCH   2   7
ATOM      7  C   UNL     1      -1.558  26.061  18.977  1.00  0.00     0.100 C 
ATOM      8  O   UNL     1      -1.915  26.550  20.082  1.00  0.00    -0.544 OA
ATOM      9  O   UNL     1      -0.223  25.736  18.773  1.00  0.00    -0.544 OA
ENDBRANCH   2   7
ENDBRANCH   1   2
BRANCH   1  10
ATOM     10  C   UNL     1      -1.478  27.742  16.619  1.00  0.00     0.223 C 
ATOM     11  O   UNL     1      -2.255  28.690  16.910  1.00  0.00    -0.275 OA
ATOM     12  N   UNL     1      -0.103  28.013  16.347  1.00  0.00    -0.369 N 
ATOM     13  H   UNL     1       0.262  28.990  16.403  1.00  0.00     0.159 HD
ATOM     14  H   UNL     1       0.552  27.243  16.085  1.00  0.00     0.159 HD
ENDBRANCH   1  10
TORSDOF 4
ENDMDL
