MODEL 1
REMARK VINA RESULT:    -4.660      0.000      0.000
REMARK INTER + INTRA:         -10.581
REMARK INTER:                  -8.474
REMARK INTRA:                  -2.108
REMARK UNBOUND:                -2.108
REMARK SMILES CCCCCC=CCC=CCCCCCCCC(=O)[O-]
REMARK SMILES IDX 11 1 12 2 13 3 14 4 15 5 16 6 17 7 18 8 19 9 20 10 10 11
REMARK SMILES IDX 9 12 8 13 7 14 6 15 5 16 4 17 3 18 2 19 1 20
REMARK H PARENT
REMARK Flexibility Score: inf
ROOT
ATOM      1  C   UNL     1      -7.250  25.887  24.064  1.00  0.00     0.027 C 
ENDROOT
BRANCH   1   2
ATOM      2  C   UNL     1      -8.168  26.856  24.821  1.00  0.00     0.004 C 
BRANCH   2   3
ATOM      3  C   UNL     1      -9.312  26.125  25.545  1.00  0.00     0.000 C 
BRANCH   3   4
ATOM      4  C   UNL     1     -10.678  26.792  25.319  1.00  0.00     0.000 C 
BRANCH   4   5
ATOM      5  C   UNL     1     -10.742  28.214  25.903  1.00  0.00     0.000 C 
BRANCH   5   6
ATOM      6  C   UNL     1     -10.680  29.302  24.818  1.00  0.00     0.006 C 
BRANCH   6   7
ATOM      7  C   UNL     1     -11.118  28.793  23.439  1.00  0.00     0.053 C 
BRANCH   7   8
ATOM      8  C   UNL     1     -10.000  28.923  22.454  1.00  0.00     0.041 C 
ATOM      9  O   UNL     1     -10.101  28.408  21.309  1.00  0.00    -0.550 OA
ATOM     10  O   UNL     1      -8.867  29.658  22.781  1.00  0.00    -0.550 OA
ENDBRANCH   7   8
ENDBRANCH   6   7
ENDBRANCH   5   6
ENDBRANCH   4   5
ENDBRANCH   3   4
ENDBRANCH   2   3
ENDBRANCH   1   2
BRANCH   1  11
ATOM     11  C   UNL     1      -7.437  25.998  22.569  1.00  0.00    -0.031 C 
ATOM     12  C   UNL     1      -8.349  25.311  21.856  1.00  0.00    -0.027 C 
BRANCH  12  13
ATOM     13  C   UNL     1      -9.343  24.344  22.446  1.00  0.00     0.054 C 
BRANCH  13  14
ATOM     14  C   UNL     1      -8.800  22.937  22.445  1.00  0.00    -0.027 C 
ATOM     15  C   UNL     1      -9.406  21.902  21.835  1.00  0.00    -0.031 C 
BRANCH  15  16
ATOM     16  C   UNL     1     -10.724  21.993  21.102  1.00  0.00     0.027 C 
BRANCH  16  17
ATOM     17  C   UNL     1     -10.543  21.969  19.577  1.00  0.00     0.004 C 
BRANCH  17  18
ATOM     18  C   UNL     1     -11.106  23.233  18.906  1.00  0.00     0.000 C 
BRANCH  18  19
ATOM     19  C   UNL     1     -10.002  24.179  18.410  1.00  0.00    -0.003 C 
ATOM     20  C   UNL     1     -10.255  25.636  18.795  1.00  0.00     0.004 C 
ENDBRANCH  18  19
ENDBRANCH  17  18
ENDBRANCH  16  17
ENDBRANCH  15  16
ENDBRANCH  13  14
ENDBRANCH  12  13
ENDBRANCH   1  11
TORSDOF 14
ENDMDL
MODEL 2
REMARK VINA RESULT:    -4.440      1.035      2.572
REMARK INTER + INTRA:         -10.181
REMARK INTER:                  -8.152
REMARK INTRA:                  -2.029
REMARK UNBOUND:                -2.108
REMARK SMILES CCCCCC=CCC=CCCCCCCCC(=O)[O-]
REMARK SMILES IDX 11 1 12 2 13 3 14 4 15 5 16 6 17 7 18 8 19 9 20 10 10 11
REMARK SMILES IDX 9 12 8 13 7 14 6 15 5 16 4 17 3 18 2 19 1 20
REMARK H PARENT
REMARK Flexibility Score: inf
ROOT
ATOM      1  C   UNL     1      -8.221  26.157  22.324  1.00  0.00     0.027 C 
ENDROOT
BRANCH   1   2
ATOM      2  C   UNL     1      -7.608  26.278  23.725  1.00  0.00     0.004 C 
BRANCH   2   3
ATOM      3  C   UNL     1      -8.490  25.622  24.802  1.00  0.00     0.000 C 
BRANCH   3   4
ATOM      4  C   UNL     1      -8.900  26.605  25.911  1.00  0.00     0.000 C 
BRANCH   4   5
ATOM      5  C   UNL     1     -10.398  26.955  25.863  1.00  0.00     0.000 C 
BRANCH   5   6
ATOM      6  C   UNL     1     -10.648  28.453  25.621  1.00  0.00     0.006 C 
BRANCH   6   7
ATOM      7  C   UNL     1     -10.954  28.775  24.153  1.00  0.00     0.053 C 
BRANCH   7   8
ATOM      8  C   UNL     1      -9.756  29.377  23.489  1.00  0.00     0.041 C 
ATOM      9  O   UNL     1      -8.839  29.892  24.182  1.00  0.00    -0.550 OA
ATOM     10  O   UNL     1      -9.625  29.321  22.107  1.00  0.00    -0.550 OA
ENDBRANCH   7   8
ENDBRANCH   6   7
ENDBRANCH   5   6
ENDBRANCH   4   5
ENDBRANCH   3   4
ENDBRANCH   2   3
ENDBRANCH   1   2
BRANCH   1  11
ATOM     11  C   UNL     1      -9.672  25.742  22.387  1.00  0.00    -0.031 C 
ATOM     12  C   UNL     1     -10.549  25.857  21.372  1.00  0.00    -0.027 C 
BRANCH  12  13
ATOM     13  C   UNL     1     -10.208  26.395  20.006  1.00  0.00     0.054 C 
BRANCH  13  14
ATOM     14  C   UNL     1      -9.285  25.460  19.266  1.00  0.00    -0.027 C 
ATOM     15  C   UNL     1      -9.608  24.196  18.936  1.00  0.00    -0.031 C 
BRANCH  15  16
ATOM     16  C   UNL     1     -10.915  23.526  19.288  1.00  0.00     0.027 C 
BRANCH  16  17
ATOM     17  C   UNL     1     -10.846  22.000  19.130  1.00  0.00     0.004 C 
BRANCH  17  18
ATOM     18  C   UNL     1     -10.833  21.276  20.487  1.00  0.00     0.000 C 
BRANCH  18  19
ATOM     19  C   UNL     1     -10.549  22.227  21.659  1.00  0.00    -0.003 C 
ATOM     20  C   UNL     1      -9.094  22.175  22.124  1.00  0.00     0.004 C 
ENDBRANCH  18  19
ENDBRANCH  17  18
ENDBRANCH  16  17
ENDBRANCH  15  16
ENDBRANCH  13  14
ENDBRANCH  12  13
ENDBRANCH   1  11
TORSDOF 14
ENDMDL
MODEL 3
REMARK VINA RESULT:    -4.183      2.496      6.455
REMARK INTER + INTRA:          -9.714
REMARK INTER:                  -7.226
REMARK INTRA:                  -2.488
REMARK UNBOUND:                -2.108
REMARK SMILES CCCCCC=CCC=CCCCCCCCC(=O)[O-]
REMARK SMILES IDX 11 1 12 2 13 3 14 4 15 5 16 6 17 7 18 8 19 9 20 10 10 11
REMARK SMILES IDX 9 12 8 13 7 14 6 15 5 16 4 17 3 18 2 19 1 20
REMARK H PARENT
REMARK Flexibility Score: inf
ROOT
ATOM      1  C   UNL     1      -8.086  26.594  21.711  1.00  0.00     0.027 C 
ENDROOT
BRANCH   1   2
ATOM      2  C   UNL     1      -7.987  25.228  22.401  1.00  0.00     0.004 C 
BRANCH   2   3
ATOM      3  C   UNL     1      -9.140  24.994  23.393  1.00  0.00     0.000 C 
BRANCH   3   4
ATOM      4  C   UNL     1     -10.107  23.893  22.930  1.00  0.00     0.000 C 
BRANCH   4   5
ATOM      5  C   UNL     1      -9.375  22.692  22.305  1.00  0.00     0.000 C 
BRANCH   5   6
ATOM      6  C   UNL     1     -10.152  22.071  21.132  1.00  0.00     0.006 C 
BRANCH   6   7
ATOM      7  C   UNL     1     -10.974  23.103  20.350  1.00  0.00     0.053 C 
BRANCH   7   8
ATOM      8  C   UNL     1     -11.059  22.718  18.907  1.00  0.00     0.041 C 
ATOM      9  O   UNL     1     -11.121  21.503  18.578  1.00  0.00    -0.550 OA
ATOM     10  O   UNL     1     -11.124  23.701  17.927  1.00  0.00    -0.550 OA
ENDBRANCH   7   8
ENDBRANCH   6   7
ENDBRANCH   5   6
ENDBRANCH   4   5
ENDBRANCH   3   4
ENDBRANCH   2   3
ENDBRANCH   1   2
BRANCH   1  11
ATOM     11  C   UNL     1      -8.799  26.495  20.382  1.00  0.00    -0.031 C 
ATOM     12  C   UNL     1     -10.096  26.793  20.182  1.00  0.00    -0.027 C 
BRANCH  12  13
ATOM     13  C   UNL     1     -11.031  27.298  21.250  1.00  0.00     0.054 C 
BRANCH  13  14
ATOM     14  C   UNL     1     -10.820  28.769  21.510  1.00  0.00    -0.027 C 
ATOM     15  C   UNL     1     -10.614  29.290  22.732  1.00  0.00    -0.031 C 
BRANCH  15  16
ATOM     16  C   UNL     1     -10.602  28.491  24.014  1.00  0.00     0.027 C 
BRANCH  16  17
ATOM     17  C   UNL     1      -9.204  28.431  24.648  1.00  0.00     0.004 C 
BRANCH  17  18
ATOM     18  C   UNL     1      -9.161  27.498  25.870  1.00  0.00     0.000 C 
BRANCH  18  19
ATOM     19  C   UNL     1     -10.562  27.110  26.365  1.00  0.00    -0.003 C 
ATOM     20  C   UNL     1     -10.764  27.393  27.853  1.00  0.00     0.004 C 
ENDBRANCH  18  19
ENDBRANCH  17  18
ENDBRANCH  16  17
ENDBRANCH  15  16
ENDBRANCH  13  14
ENDBRANCH  12  13
ENDBRANCH   1  11
TORSDOF 14
ENDMDL
MODEL 4
REMARK VINA RESULT:    -3.853      2.505      5.344
REMARK INTER + INTRA:          -9.114
REMARK INTER:                  -6.928
REMARK INTRA:                  -2.187
REMARK UNBOUND:                -2.108
REMARK SMILES CCCCCC=CCC=CCCCCCCCC(=O)[O-]
REMARK SMILES IDX 11 1 12 2 13 3 14 4 15 5 16 6 17 7 18 8 19 9 20 10 10 11
REMARK SMILES IDX 9 12 8 13 7 14 6 15 5 16 4 17 3 18 2 19 1 20
REMARK H PARENT
REMARK Flexibility Score: inf
ROOT
ATOM      1  C   UNL     1      -7.510  26.369  24.442  1.00  0.00     0.027 C 
ENDROOT
BRANCH   1   2
ATOM      2  C   UNL     1      -8.586  25.516  25.126  1.00  0.00     0.004 C 
BRANCH   2   3
ATOM      3  C   UNL     1      -9.935  26.251  25.221  1.00  0.00     0.000 C 
BRANCH   3   4
ATOM      4  C   UNL     1     -10.948  25.767  24.172  1.00  0.00     0.000 C 
BRANCH   4   5
ATOM      5  C   UNL     1     -10.505  24.464  23.483  1.00  0.00     0.000 C 
BRANCH   5   6
ATOM      6  C   UNL     1     -10.930  24.401  22.007  1.00  0.00     0.006 C 
BRANCH   6   7
ATOM      7  C   UNL     1      -9.918  23.656  21.127  1.00  0.00     0.053 C 
BRANCH   7   8
ATOM      8  C   UNL     1     -10.626  22.821  20.108  1.00  0.00     0.041 C 
ATOM      9  O   UNL     1     -11.045  23.343  19.040  1.00  0.00    -0.550 OA
ATOM     10  O   UNL     1     -10.778  21.455  20.312  1.00  0.00    -0.550 OA
ENDBRANCH   7   8
ENDBRANCH   6   7
ENDBRANCH   5   6
ENDBRANCH   4   5
ENDBRANCH   3   4
ENDBRANCH   2   3
ENDBRANCH   1   2
BRANCH   1  11
ATOM     11  C   UNL     1      -7.002  25.713  23.179  1.00  0.00    -0.031 C 
ATOM     12  C   UNL     1      -7.381  26.050  21.932  1.00  0.00    -0.027 C 
BRANCH  12  13
ATOM     13  C   UNL     1      -8.354  27.153  21.604  1.00  0.00     0.054 C 
BRANCH  13  14
ATOM     14  C   UNL     1      -9.024  26.911  20.275  1.00  0.00    -0.027 C 
ATOM     15  C   UNL     1     -10.243  27.383  19.955  1.00  0.00    -0.031 C 
BRANCH  15  16
ATOM     16  C   UNL     1     -11.123  28.184  20.886  1.00  0.00     0.027 C 
BRANCH  16  17
ATOM     17  C   UNL     1     -10.306  29.069  21.839  1.00  0.00     0.004 C 
BRANCH  17  18
ATOM     18  C   UNL     1     -11.031  29.306  23.175  1.00  0.00     0.000 C 
BRANCH  18  19
ATOM     19  C   UNL     1     -10.122  29.947  24.234  1.00  0.00    -0.003 C 
ATOM     20  C   UNL     1      -8.642  29.644  24.004  1.00  0.00     0.004 C 
ENDBRANCH  18  19
ENDBRANCH  17  18
ENDBRANCH  16  17
ENDBRANCH  15  16
ENDBRANCH  13  14
ENDBRANCH  12  13
ENDBRANCH   1  11
TORSDOF 14
ENDMDL
MODEL 5
REMARK VINA RESULT:    -3.843      1.389      4.694
REMARK INTER + INTRA:          -9.095
REMARK INTER:                  -6.962
REMARK INTRA:                  -2.133
REMARK UNBOUND:                -2.108
REMARK SMILES CCCCCC=CCC=CCCCCCCCC(=O)[O-]
REMARK SMILES IDX 11 1 12 2 13 3 14 4 15 5 16 6 17 7 18 8 19 9 20 10 10 11
REMARK SMILES IDX 9 12 8 13 7 14 6 15 5 16 4 17 3 18 2 19 1 20
REMARK H PARENT
REMARK Flexibility Score: inf
ROOT
ATOM      1  C   UNL     1     -11.016  24.233  18.574  1.00  0.00     0.027 C 
ENDROOT
BRANCH   1   2
ATOM      2  C   UNL     1      -9.710  25.036  18.612  1.00  0.00     0.004 C 
BRANCH   2   3
ATOM      3  C   UNL     1      -9.625  25.946  19.851  1.00  0.00     0.000 C 
BRANCH   3   4
ATOM      4  C   UNL     1     -10.672  27.070  19.832  1.00  0.00     0.000 C 
BRANCH   4   5
ATOM      5  C   UNL     1     -11.125  27.477  21.246  1.00  0.00     0.000 C 
BRANCH   5   6
ATOM      6  C   UNL     1     -10.027  28.214  22.030  1.00  0.00     0.006 C 
BRANCH   6   7
ATOM      7  C   UNL     1     -10.537  29.489  22.713  1.00  0.00     0.053 C 
BRANCH   7   8
ATOM      8  C   UNL     1      -9.992  29.591  24.103  1.00  0.00     0.041 C 
ATOM      9  O   UNL     1     -10.771  29.565  25.093  1.00  0.00    -0.550 OA
ATOM     10  O   UNL     1      -8.620  29.661  24.308  1.00  0.00    -0.550 OA
ENDBRANCH   7   8
ENDBRANCH   6   7
ENDBRANCH   5   6
ENDBRANCH   4   5
ENDBRANCH   3   4
ENDBRANCH   2   3
ENDBRANCH   1   2
BRANCH   1  11
ATOM     11  C   UNL     1     -10.752  22.745  18.583  1.00  0.00    -0.031 C 
ATOM     12  C   UNL     1     -10.677  21.984  19.692  1.00  0.00    -0.027 C 
BRANCH  12  13
ATOM     13  C   UNL     1     -10.869  22.499  21.095  1.00  0.00     0.054 C 
BRANCH  13  14
ATOM     14  C   UNL     1      -9.822  21.943  22.028  1.00  0.00    -0.027 C 
ATOM     15  C   UNL     1      -8.784  22.658  22.497  1.00  0.00    -0.031 C 
BRANCH  15  16
ATOM     16  C   UNL     1      -8.498  24.095  22.131  1.00  0.00     0.027 C 
BRANCH  16  17
ATOM     17  C   UNL     1      -8.715  25.050  23.314  1.00  0.00     0.004 C 
BRANCH  17  18
ATOM     18  C   UNL     1     -10.185  25.087  23.766  1.00  0.00     0.000 C 
BRANCH  18  19
ATOM     19  C   UNL     1     -10.403  25.993  24.987  1.00  0.00    -0.003 C 
ATOM     20  C   UNL     1      -9.115  26.261  25.763  1.00  0.00     0.004 C 
ENDBRANCH  18  19
ENDBRANCH  17  18
ENDBRANCH  16  17
ENDBRANCH  15  16
ENDBRANCH  13  14
ENDBRANCH  12  13
ENDBRANCH   1  11
TORSDOF 14
ENDMDL
MODEL 6
REMARK VINA RESULT:    -3.542      2.306      6.439
REMARK INTER + INTRA:          -8.549
REMARK INTER:                  -7.129
REMARK INTRA:                  -1.420
REMARK UNBOUND:                -2.108
REMARK SMILES CCCCCC=CCC=CCCCCCCCC(=O)[O-]
REMARK SMILES IDX 11 1 12 2 13 3 14 4 15 5 16 6 17 7 18 8 19 9 20 10 10 11
REMARK SMILES IDX 9 12 8 13 7 14 6 15 5 16 4 17 3 18 2 19 1 20
REMARK H PARENT
REMARK Flexibility Score: inf
ROOT
ATOM      1  C   UNL     1     -10.262  29.417  21.934  1.00  0.00     0.027 C 
ENDROOT
BRANCH   1   2
ATOM      2  C   UNL     1     -10.610  27.953  21.636  1.00  0.00     0.004 C 
BRANCH   2   3
ATOM      3  C   UNL     1      -9.405  27.018  21.839  1.00  0.00     0.000 C 
BRANCH   3   4
ATOM      4  C   UNL     1      -9.050  26.225  20.571  1.00  0.00     0.000 C 
BRANCH   4   5
ATOM      5  C   UNL     1     -10.264  25.485  19.980  1.00  0.00     0.000 C 
BRANCH   5   6
ATOM      6  C   UNL     1      -9.899  24.097  19.429  1.00  0.00     0.006 C 
BRANCH   6   7
ATOM      7  C   UNL     1     -10.701  22.966  20.086  1.00  0.00     0.053 C 
BRANCH   7   8
ATOM      8  C   UNL     1     -10.263  22.770  21.503  1.00  0.00     0.041 C 
ATOM      9  O   UNL     1     -11.091  22.404  22.378  1.00  0.00    -0.550 OA
ATOM     10  O   UNL     1      -8.927  22.939  21.847  1.00  0.00    -0.550 OA
ENDBRANCH   7   8
ENDBRANCH   6   7
ENDBRANCH   5   6
ENDBRANCH   4   5
ENDBRANCH   3   4
ENDBRANCH   2   3
ENDBRANCH   1   2
BRANCH   1  11
ATOM     11  C   UNL     1      -9.270  29.532  23.068  1.00  0.00    -0.031 C 
ATOM     12  C   UNL     1      -9.593  29.800  24.347  1.00  0.00    -0.027 C 
BRANCH  12  13
ATOM     13  C   UNL     1     -10.999  30.002  24.849  1.00  0.00     0.054 C 
BRANCH  13  14
ATOM     14  C   UNL     1     -11.109  29.663  26.315  1.00  0.00    -0.027 C 
ATOM     15  C   UNL     1     -11.125  28.405  26.792  1.00  0.00    -0.031 C 
BRANCH  15  16
ATOM     16  C   UNL     1     -11.073  27.162  25.934  1.00  0.00     0.027 C 
BRANCH  16  17
ATOM     17  C   UNL     1     -10.182  26.071  26.546  1.00  0.00     0.004 C 
BRANCH  17  18
ATOM     18  C   UNL     1      -9.213  25.468  25.515  1.00  0.00     0.000 C 
BRANCH  18  19
ATOM     19  C   UNL     1      -8.443  26.541  24.731  1.00  0.00    -0.003 C 
ATOM     20  C   UNL     1      -7.014  26.118  24.394  1.00  0.00     0.004 C 
ENDBRANCH  18  19
ENDBRANCH  17  18
ENDBRANCH  16  17
ENDBRANCH  15  16
ENDBRANCH  13  14
ENDBRANCH  12  13
ENDBRANCH   1  11
TORSDOF 14
ENDMDL
MODEL 7
REMARK VINA RESULT:    -3.225     15.169     18.009
REMARK INTER + INTRA:          -7.973
REMARK INTER:                  -7.074
REMARK INTRA:                  -0.899
REMARK UNBOUND:                -2.108
REMARK SMILES CCCCCC=CCC=CCCCCCCCC(=O)[O-]
REMARK SMILES IDX 11 1 12 2 13 3 14 4 15 5 16 6 17 7 18 8 19 9 20 10 10 11
REMARK SMILES IDX 9 12 8 13 7 14 6 15 5 16 4 17 3 18 2 19 1 20
REMARK H PARENT
REMARK Flexibility Score: inf
ROOT
ATOM      1  C   UNL     1       8.149  25.592  29.753  1.00  0.00     0.027 C 
ENDROOT
BRANCH   1   2
ATOM      2  C   UNL     1       9.102  26.460  28.921  1.00  0.00     0.004 C 
BRANCH   2   3
ATOM      3  C   UNL     1       8.392  27.119  27.726  1.00  0.00     0.000 C 
BRANCH   3   4
ATOM      4  C   UNL     1       7.134  26.354  27.288  1.00  0.00     0.000 C 
BRANCH   4   5
ATOM      5  C   UNL     1       7.453  25.203  26.317  1.00  0.00     0.000 C 
BRANCH   5   6
ATOM      6  C   UNL     1       7.539  25.669  24.855  1.00  0.00     0.006 C 
BRANCH   6   7
ATOM      7  C   UNL     1       7.060  24.603  23.861  1.00  0.00     0.053 C 
BRANCH   7   8
ATOM      8  C   UNL     1       5.694  24.939  23.351  1.00  0.00     0.041 C 
ATOM      9  O   UNL     1       5.412  24.770  22.135  1.00  0.00    -0.550 OA
ATOM     10  O   UNL     1       4.716  25.389  24.229  1.00  0.00    -0.550 OA
ENDBRANCH   7   8
ENDBRANCH   6   7
ENDBRANCH   5   6
ENDBRANCH   4   5
ENDBRANCH   3   4
ENDBRANCH   2   3
ENDBRANCH   1   2
BRANCH   1  11
ATOM     11  C   UNL     1       8.883  24.468  30.446  1.00  0.00    -0.031 C 
ATOM     12  C   UNL     1       8.370  23.708  31.432  1.00  0.00    -0.027 C 
BRANCH  12  13
ATOM     13  C   UNL     1       6.972  23.846  31.977  1.00  0.00     0.054 C 
BRANCH  13  14
ATOM     14  C   UNL     1       6.774  22.979  33.196  1.00  0.00    -0.027 C 
ATOM     15  C   UNL     1       5.583  22.787  33.791  1.00  0.00    -0.031 C 
BRANCH  15  16
ATOM     16  C   UNL     1       4.291  23.435  33.351  1.00  0.00     0.027 C 
BRANCH  16  17
ATOM     17  C   UNL     1       3.076  22.526  33.591  1.00  0.00     0.004 C 
BRANCH  17  18
ATOM     18  C   UNL     1       2.157  22.451  32.360  1.00  0.00     0.000 C 
BRANCH  18  19
ATOM     19  C   UNL     1       2.741  23.182  31.142  1.00  0.00    -0.003 C 
ATOM     20  C   UNL     1       1.691  23.489  30.076  1.00  0.00     0.004 C 
ENDBRANCH  18  19
ENDBRANCH  17  18
ENDBRANCH  16  17
ENDBRANCH  15  16
ENDBRANCH  13  14
ENDBRANCH  12  13
ENDBRANCH   1  11
TORSDOF 14
ENDMDL
MODEL 8
REMARK VINA RESULT:    -3.211     15.749     18.192
REMARK INTER + INTRA:          -7.946
REMARK INTER:                  -6.749
REMARK INTRA:                  -1.197
REMARK UNBOUND:                -2.108
REMARK SMILES CCCCCC=CCC=CCCCCCCCC(=O)[O-]
REMARK SMILES IDX 11 1 12 2 13 3 14 4 15 5 16 6 17 7 18 8 19 9 20 10 10 11
REMARK SMILES IDX 9 12 8 13 7 14 6 15 5 16 4 17 3 18 2 19 1 20
REMARK H PARENT
REMARK Flexibility Score: inf
ROOT
ATOM      1  C   UNL     1       8.394  24.867  29.162  1.00  0.00     0.027 C 
ENDROOT
BRANCH   1   2
ATOM      2  C   UNL     1       8.446  24.231  30.557  1.00  0.00     0.004 C 
BRANCH   2   3
ATOM      3  C   UNL     1       7.169  24.507  31.369  1.00  0.00     0.000 C 
BRANCH   3   4
ATOM      4  C   UNL     1       7.441  24.637  32.876  1.00  0.00     0.000 C 
BRANCH   4   5
ATOM      5  C   UNL     1       6.289  24.083  33.733  1.00  0.00     0.000 C 
BRANCH   5   6
ATOM      6  C   UNL     1       5.078  23.654  32.889  1.00  0.00     0.006 C 
BRANCH   6   7
ATOM      7  C   UNL     1       4.241  22.558  33.562  1.00  0.00     0.053 C 
BRANCH   7   8
ATOM      8  C   UNL     1       2.847  22.557  33.019  1.00  0.00     0.041 C 
ATOM      9  O   UNL     1       2.538  21.789  32.070  1.00  0.00    -0.550 OA
ATOM     10  O   UNL     1       1.876  23.365  33.596  1.00  0.00    -0.550 OA
ENDBRANCH   7   8
ENDBRANCH   6   7
ENDBRANCH   5   6
ENDBRANCH   4   5
ENDBRANCH   3   4
ENDBRANCH   2   3
ENDBRANCH   1   2
BRANCH   1  11
ATOM     11  C   UNL     1       9.044  26.230  29.149  1.00  0.00    -0.031 C 
ATOM     12  C   UNL     1       8.814  27.182  28.225  1.00  0.00    -0.027 C 
BRANCH  12  13
ATOM     13  C   UNL     1       7.850  27.042  27.075  1.00  0.00     0.054 C 
BRANCH  13  14
ATOM     14  C   UNL     1       8.544  27.256  25.753  1.00  0.00    -0.027 C 
ATOM     15  C   UNL     1       8.983  26.256  24.968  1.00  0.00    -0.031 C 
BRANCH  15  16
ATOM     16  C   UNL     1       8.879  24.789  25.312  1.00  0.00     0.027 C 
BRANCH  16  17
ATOM     17  C   UNL     1       7.952  24.031  24.349  1.00  0.00     0.004 C 
BRANCH  17  18
ATOM     18  C   UNL     1       7.191  24.981  23.409  1.00  0.00     0.000 C 
BRANCH  18  19
ATOM     19  C   UNL     1       5.736  24.545  23.180  1.00  0.00    -0.003 C 
ATOM     20  C   UNL     1       4.731  25.429  23.917  1.00  0.00     0.004 C 
ENDBRANCH  18  19
ENDBRANCH  17  18
ENDBRANCH  16  17
ENDBRANCH  15  16
ENDBRANCH  13  14
ENDBRANCH  12  13
ENDBRANCH   1  11
TORSDOF 14
ENDMDL
MODEL 9
REMARK VINA RESULT:    -3.079      2.501      6.457
REMARK INTER + INTRA:          -7.708
REMARK INTER:                  -6.278
REMARK INTRA:                  -1.429
REMARK UNBOUND:                -2.108
REMARK SMILES CCCCCC=CCC=CCCCCCCCC(=O)[O-]
REMARK SMILES IDX 11 1 12 2 13 3 14 4 15 5 16 6 17 7 18 8 19 9 20 10 10 11
REMARK SMILES IDX 9 12 8 13 7 14 6 15 5 16 4 17 3 18 2 19 1 20
REMARK H PARENT
REMARK Flexibility Score: inf
ROOT
ATOM      1  C   UNL     1      -7.704  26.759  22.028  1.00  0.00     0.027 C 
ENDROOT
BRANCH   1   2
ATOM      2  C   UNL     1      -8.877  26.052  21.337  1.00  0.00     0.004 C 
BRANCH   2   3
ATOM      3  C   UNL     1      -8.440  24.759  20.627  1.00  0.00     0.000 C 
BRANCH   3   4
ATOM      4  C   UNL     1      -8.594  24.841  19.100  1.00  0.00     0.000 C 
BRANCH   4   5
ATOM      5  C   UNL     1      -9.975  25.372  18.676  1.00  0.00     0.000 C 
BRANCH   5   6
ATOM      6  C   UNL     1     -11.125  24.457  19.127  1.00  0.00     0.006 C 
BRANCH   6   7
ATOM      7  C   UNL     1     -10.994  23.026  18.589  1.00  0.00     0.053 C 
BRANCH   7   8
ATOM      8  C   UNL     1     -10.871  22.052  19.717  1.00  0.00     0.041 C 
ATOM      9  O   UNL     1     -10.653  20.834  19.482  1.00  0.00    -0.550 OA
ATOM     10  O   UNL     1     -10.945  22.497  21.031  1.00  0.00    -0.550 OA
ENDBRANCH   7   8
ENDBRANCH   6   7
ENDBRANCH   5   6
ENDBRANCH   4   5
ENDBRANCH   3   4
ENDBRANCH   2   3
ENDBRANCH   1   2
BRANCH   1  11
ATOM     11  C   UNL     1      -7.157  25.938  23.172  1.00  0.00    -0.031 C 
ATOM     12  C   UNL     1      -7.798  25.719  24.336  1.00  0.00    -0.027 C 
BRANCH  12  13
ATOM     13  C   UNL     1      -9.173  26.240  24.665  1.00  0.00     0.054 C 
BRANCH  13  14
ATOM     14  C   UNL     1      -9.317  26.502  26.143  1.00  0.00    -0.027 C 
ATOM     15  C   UNL     1     -10.193  27.381  26.664  1.00  0.00    -0.031 C 
BRANCH  15  16
ATOM     16  C   UNL     1     -11.122  28.250  25.850  1.00  0.00     0.027 C 
BRANCH  16  17
ATOM     17  C   UNL     1     -10.495  29.611  25.511  1.00  0.00     0.004 C 
BRANCH  17  18
ATOM     18  C   UNL     1     -10.858  30.079  24.091  1.00  0.00     0.000 C 
BRANCH  18  19
ATOM     19  C   UNL     1     -10.056  29.345  23.006  1.00  0.00    -0.003 C 
ATOM     20  C   UNL     1     -10.947  28.594  22.018  1.00  0.00     0.004 C 
ENDBRANCH  18  19
ENDBRANCH  17  18
ENDBRANCH  16  17
ENDBRANCH  15  16
ENDBRANCH  13  14
ENDBRANCH  12  13
ENDBRANCH   1  11
TORSDOF 14
ENDMDL
