MODEL 1
REMARK VINA RESULT:    -4.712      0.000      0.000
REMARK INTER + INTRA:          -4.850
REMARK INTER:                  -4.850
REMARK INTRA:                   0.000
REMARK UNBOUND:                 0.000
REMARK SMILES Nc1ncnc2nc[nH]c12
REMARK SMILES IDX 8 1 7 2 6 3 5 4 4 5 3 6 2 7 10 8 9 9 1 11
REMARK H PARENT 9 10 1 12 1 13
REMARK Flexibility Score: inf
ROOT
ATOM      1  C   UNL     1    -104.943 198.530  -3.102  1.00  0.00     0.199 A 
ATOM      2  N   UNL     1    -105.750 199.185  -2.224  1.00  0.00    -0.217 NA
ATOM      3  C   UNL     1    -105.409 198.624  -1.051  1.00  0.00     0.182 A 
ATOM      4  N   UNL     1    -105.924 198.921   0.167  1.00  0.00    -0.215 NA
ATOM      5  C   UNL     1    -105.447 198.239   1.252  1.00  0.00     0.226 A 
ATOM      6  N   UNL     1    -104.475 197.283   1.102  1.00  0.00    -0.217 NA
ATOM      7  C   UNL     1    -103.955 196.981  -0.125  1.00  0.00     0.152 A 
ATOM      8  C   UNL     1    -104.451 197.685  -1.220  1.00  0.00     0.127 A 
ATOM      9  N   UNL     1    -104.137 197.606  -2.519  1.00  0.00    -0.340 N 
ATOM     10  H   UNL     1    -103.439 196.986  -2.986  1.00  0.00     0.168 HD
ENDROOT
BRANCH   7  11
ATOM     11  N   UNL     1    -102.944 195.982  -0.257  1.00  0.00    -0.382 N 
ATOM     12  H   UNL     1    -103.168 195.025  -0.608  1.00  0.00     0.158 HD
ATOM     13  H   UNL     1    -101.956 196.201   0.001  1.00  0.00     0.158 HD
ENDBRANCH   7  11
TORSDOF 1
ENDMDL
MODEL 2
REMARK VINA RESULT:    -4.480      1.561      3.279
REMARK INTER + INTRA:          -4.611
REMARK INTER:                  -4.611
REMARK INTRA:                   0.000
REMARK UNBOUND:                 0.000
REMARK SMILES Nc1ncnc2nc[nH]c12
REMARK SMILES IDX 8 1 7 2 6 3 5 4 4 5 3 6 2 7 10 8 9 9 1 11
REMARK H PARENT 9 10 1 12 1 13
REMARK Flexibility Score: inf
ROOT
ATOM      1  C   UNL     1    -103.850 197.543   0.739  1.00  0.00     0.199 A 
ATOM      2  N   UNL     1    -105.115 197.047   0.681  1.00  0.00    -0.217 NA
ATOM      3  C   UNL     1    -105.460 197.294  -0.594  1.00  0.00     0.182 A 
ATOM      4  N   UNL     1    -106.642 196.993  -1.184  1.00  0.00    -0.215 NA
ATOM      5  C   UNL     1    -106.808 197.324  -2.501  1.00  0.00     0.226 A 
ATOM      6  N   UNL     1    -105.801 197.944  -3.195  1.00  0.00    -0.217 NA
ATOM      7  C   UNL     1    -104.609 198.249  -2.602  1.00  0.00     0.152 A 
ATOM      8  C   UNL     1    -104.455 197.905  -1.261  1.00  0.00     0.127 A 
ATOM      9  N   UNL     1    -103.417 198.075  -0.433  1.00  0.00    -0.340 N 
ATOM     10  H   UNL     1    -102.489 198.511  -0.629  1.00  0.00     0.168 HD
ENDROOT
BRANCH   7  11
ATOM     11  N   UNL     1    -103.575 198.895  -3.345  1.00  0.00    -0.382 N 
ATOM     12  H   UNL     1    -103.153 199.794  -3.023  1.00  0.00     0.158 HD
ATOM     13  H   UNL     1    -103.225 198.469  -4.232  1.00  0.00     0.158 HD
ENDBRANCH   7  11
TORSDOF 1
ENDMDL
MODEL 3
REMARK VINA RESULT:    -4.349     15.151     16.359
REMARK INTER + INTRA:          -4.476
REMARK INTER:                  -4.476
REMARK INTRA:                   0.000
REMARK UNBOUND:                 0.000
REMARK SMILES Nc1ncnc2nc[nH]c12
REMARK SMILES IDX 8 1 7 2 6 3 5 4 4 5 3 6 2 7 10 8 9 9 1 11
REMARK H PARENT 9 10 1 12 1 13
REMARK Flexibility Score: inf
ROOT
ATOM      1  C   UNL     1    -103.720 180.628  -5.871  1.00  0.00     0.199 A 
ATOM      2  N   UNL     1    -104.680 181.590  -5.819  1.00  0.00    -0.217 NA
ATOM      3  C   UNL     1    -104.482 182.123  -4.602  1.00  0.00     0.182 A 
ATOM      4  N   UNL     1    -105.184 183.138  -4.040  1.00  0.00    -0.215 NA
ATOM      5  C   UNL     1    -104.832 183.546  -2.783  1.00  0.00     0.226 A 
ATOM      6  N   UNL     1    -103.798 182.939  -2.117  1.00  0.00    -0.217 NA
ATOM      7  C   UNL     1    -103.090 181.916  -2.681  1.00  0.00     0.152 A 
ATOM      8  C   UNL     1    -103.460 181.512  -3.962  1.00  0.00     0.127 A 
ATOM      9  N   UNL     1    -102.957 180.555  -4.751  1.00  0.00    -0.340 N 
ATOM     10  H   UNL     1    -102.166 179.900  -4.562  1.00  0.00     0.168 HD
ENDROOT
BRANCH   7  11
ATOM     11  N   UNL     1    -102.017 181.299  -1.969  1.00  0.00    -0.382 N 
ATOM     12  H   UNL     1    -101.036 181.339  -2.322  1.00  0.00     0.158 HD
ATOM     13  H   UNL     1    -102.205 180.795  -1.074  1.00  0.00     0.158 HD
ENDBRANCH   7  11
TORSDOF 1
ENDMDL
MODEL 4
REMARK VINA RESULT:    -4.315      2.219      2.446
REMARK INTER + INTRA:          -4.441
REMARK INTER:                  -4.441
REMARK INTRA:                   0.000
REMARK UNBOUND:                 0.000
REMARK SMILES Nc1ncnc2nc[nH]c12
REMARK SMILES IDX 8 1 7 2 6 3 5 4 4 5 3 6 2 7 10 8 9 9 1 11
REMARK H PARENT 9 10 1 12 1 13
REMARK Flexibility Score: inf
ROOT
ATOM      1  C   UNL     1    -106.612 194.635  -1.635  1.00  0.00     0.199 A 
ATOM      2  N   UNL     1    -107.299 195.754  -1.276  1.00  0.00    -0.217 NA
ATOM      3  C   UNL     1    -106.326 196.539  -0.784  1.00  0.00     0.182 A 
ATOM      4  N   UNL     1    -106.473 197.789  -0.280  1.00  0.00    -0.215 NA
ATOM      5  C   UNL     1    -105.357 198.435   0.176  1.00  0.00     0.226 A 
ATOM      6  N   UNL     1    -104.129 197.828   0.122  1.00  0.00    -0.217 NA
ATOM      7  C   UNL     1    -103.978 196.567  -0.385  1.00  0.00     0.152 A 
ATOM      8  C   UNL     1    -105.123 195.923  -0.846  1.00  0.00     0.127 A 
ATOM      9  N   UNL     1    -105.280 194.708  -1.385  1.00  0.00    -0.340 N 
ATOM     10  H   UNL     1    -104.557 193.978  -1.574  1.00  0.00     0.168 HD
ENDROOT
BRANCH   7  11
ATOM     11  N   UNL     1    -102.689 195.955  -0.431  1.00  0.00    -0.382 N 
ATOM     12  H   UNL     1    -101.994 196.095   0.334  1.00  0.00     0.158 HD
ATOM     13  H   UNL     1    -102.426 195.353  -1.242  1.00  0.00     0.158 HD
ENDBRANCH   7  11
TORSDOF 1
ENDMDL
MODEL 5
REMARK VINA RESULT:    -4.187     14.519     15.813
REMARK INTER + INTRA:          -4.309
REMARK INTER:                  -4.309
REMARK INTRA:                   0.000
REMARK UNBOUND:                 0.000
REMARK SMILES Nc1ncnc2nc[nH]c12
REMARK SMILES IDX 8 1 7 2 6 3 5 4 4 5 3 6 2 7 10 8 9 9 1 11
REMARK H PARENT 9 10 1 12 1 13
REMARK Flexibility Score: inf
ROOT
ATOM      1  C   UNL     1    -102.993 180.697  -3.153  1.00  0.00     0.199 A 
ATOM      2  N   UNL     1    -104.165 180.563  -2.474  1.00  0.00    -0.217 NA
ATOM      3  C   UNL     1    -104.104 181.579  -1.598  1.00  0.00     0.182 A 
ATOM      4  N   UNL     1    -105.037 181.903  -0.669  1.00  0.00    -0.215 NA
ATOM      5  C   UNL     1    -104.796 182.980   0.139  1.00  0.00     0.226 A 
ATOM      6  N   UNL     1    -103.640 183.706   0.006  1.00  0.00    -0.217 NA
ATOM      7  C   UNL     1    -102.697 183.381  -0.929  1.00  0.00     0.152 A 
ATOM      8  C   UNL     1    -102.958 182.282  -1.745  1.00  0.00     0.127 A 
ATOM      9  N   UNL     1    -102.233 181.739  -2.730  1.00  0.00    -0.340 N 
ATOM     10  H   UNL     1    -101.302 182.037  -3.097  1.00  0.00     0.168 HD
ENDROOT
BRANCH   7  11
ATOM     11  N   UNL     1    -101.501 184.152  -1.049  1.00  0.00    -0.382 N 
ATOM     12  H   UNL     1    -101.444 184.969  -1.696  1.00  0.00     0.158 HD
ATOM     13  H   UNL     1    -100.660 183.902  -0.484  1.00  0.00     0.158 HD
ENDBRANCH   7  11
TORSDOF 1
ENDMDL
MODEL 6
REMARK VINA RESULT:    -4.172     15.242     16.605
REMARK INTER + INTRA:          -4.294
REMARK INTER:                  -4.294
REMARK INTRA:                   0.000
REMARK UNBOUND:                 0.000
REMARK SMILES Nc1ncnc2nc[nH]c12
REMARK SMILES IDX 8 1 7 2 6 3 5 4 4 5 3 6 2 7 10 8 9 9 1 11
REMARK H PARENT 9 10 1 12 1 13
REMARK Flexibility Score: inf
ROOT
ATOM      1  C   UNL     1     -98.661 196.892 -14.528  1.00  0.00     0.199 A 
ATOM      2  N   UNL     1     -97.383 196.940 -14.063  1.00  0.00    -0.217 NA
ATOM      3  C   UNL     1     -96.869 195.789 -14.529  1.00  0.00     0.182 A 
ATOM      4  N   UNL     1     -95.603 195.337 -14.347  1.00  0.00    -0.215 NA
ATOM      5  C   UNL     1     -95.263 194.134 -14.901  1.00  0.00     0.226 A 
ATOM      6  N   UNL     1     -96.182 193.412 -15.618  1.00  0.00    -0.217 NA
ATOM      7  C   UNL     1     -97.458 193.866 -15.802  1.00  0.00     0.152 A 
ATOM      8  C   UNL     1     -97.790 195.092 -15.232  1.00  0.00     0.127 A 
ATOM      9  N   UNL     1     -98.941 195.775 -15.246  1.00  0.00    -0.340 N 
ATOM     10  H   UNL     1     -99.846 195.520 -15.698  1.00  0.00     0.168 HD
ENDROOT
BRANCH   7  11
ATOM     11  N   UNL     1     -98.398 193.096 -16.553  1.00  0.00    -0.382 N 
ATOM     12  H   UNL     1     -98.286 192.065 -16.670  1.00  0.00     0.158 HD
ATOM     13  H   UNL     1     -99.218 193.563 -16.999  1.00  0.00     0.158 HD
ENDBRANCH   7  11
TORSDOF 1
ENDMDL
MODEL 7
REMARK VINA RESULT:    -4.169      0.803      2.890
REMARK INTER + INTRA:          -4.291
REMARK INTER:                  -4.291
REMARK INTRA:                   0.000
REMARK UNBOUND:                 0.000
REMARK SMILES Nc1ncnc2nc[nH]c12
REMARK SMILES IDX 8 1 7 2 6 3 5 4 4 5 3 6 2 7 10 8 9 9 1 11
REMARK H PARENT 9 10 1 12 1 13
REMARK Flexibility Score: inf
ROOT
ATOM      1  C   UNL     1    -105.812 198.424   1.946  1.00  0.00     0.199 A 
ATOM      2  N   UNL     1    -106.383 199.141   0.940  1.00  0.00    -0.217 NA
ATOM      3  C   UNL     1    -105.769 198.646  -0.147  1.00  0.00     0.182 A 
ATOM      4  N   UNL     1    -105.975 199.021  -1.433  1.00  0.00    -0.215 NA
ATOM      5  C   UNL     1    -105.250 198.398  -2.411  1.00  0.00     0.226 A 
ATOM      6  N   UNL     1    -104.342 197.421  -2.089  1.00  0.00    -0.217 NA
ATOM      7  C   UNL     1    -104.132 197.041  -0.793  1.00  0.00     0.152 A 
ATOM      8  C   UNL     1    -104.879 197.685   0.190  1.00  0.00     0.127 A 
ATOM      9  N   UNL     1    -104.888 197.525   1.519  1.00  0.00    -0.340 N 
ATOM     10  H   UNL     1    -104.323 196.869   2.102  1.00  0.00     0.168 HD
ENDROOT
BRANCH   7  11
ATOM     11  N   UNL     1    -103.182 196.022  -0.483  1.00  0.00    -0.382 N 
ATOM     12  H   UNL     1    -103.484 195.083  -0.142  1.00  0.00     0.158 HD
ATOM     13  H   UNL     1    -102.161 196.208  -0.596  1.00  0.00     0.158 HD
ENDBRANCH   7  11
TORSDOF 1
ENDMDL
MODEL 8
REMARK VINA RESULT:    -4.128     15.413     16.566
REMARK INTER + INTRA:          -4.249
REMARK INTER:                  -4.249
REMARK INTRA:                   0.000
REMARK UNBOUND:                 0.000
REMARK SMILES Nc1ncnc2nc[nH]c12
REMARK SMILES IDX 8 1 7 2 6 3 5 4 4 5 3 6 2 7 10 8 9 9 1 11
REMARK H PARENT 9 10 1 12 1 13
REMARK Flexibility Score: inf
ROOT
ATOM      1  C   UNL     1     -97.057 192.850 -15.967  1.00  0.00     0.199 A 
ATOM      2  N   UNL     1     -95.902 193.397 -15.501  1.00  0.00    -0.217 NA
ATOM      3  C   UNL     1     -96.322 194.577 -15.015  1.00  0.00     0.182 A 
ATOM      4  N   UNL     1     -95.556 195.528 -14.426  1.00  0.00    -0.215 NA
ATOM      5  C   UNL     1     -96.169 196.671 -13.992  1.00  0.00     0.226 A 
ATOM      6  N   UNL     1     -97.520 196.841 -14.152  1.00  0.00    -0.217 NA
ATOM      7  C   UNL     1     -98.294 195.884 -14.745  1.00  0.00     0.152 A 
ATOM      8  C   UNL     1     -97.656 194.726 -15.182  1.00  0.00     0.127 A 
ATOM      9  N   UNL     1     -98.147 193.637 -15.786  1.00  0.00    -0.340 N 
ATOM     10  H   UNL     1     -99.133 193.431 -16.060  1.00  0.00     0.168 HD
ENDROOT
BRANCH   7  11
ATOM     11  N   UNL     1     -99.700 196.084 -14.900  1.00  0.00    -0.382 N 
ATOM     12  H   UNL     1    -100.101 196.456 -15.789  1.00  0.00     0.158 HD
ATOM     13  H   UNL     1    -100.349 195.856 -14.116  1.00  0.00     0.158 HD
ENDBRANCH   7  11
TORSDOF 1
ENDMDL
MODEL 9
REMARK VINA RESULT:    -4.125     15.195     16.589
REMARK INTER + INTRA:          -4.246
REMARK INTER:                  -4.246
REMARK INTRA:                   0.000
REMARK UNBOUND:                 0.000
REMARK SMILES Nc1ncnc2nc[nH]c12
REMARK SMILES IDX 8 1 7 2 6 3 5 4 4 5 3 6 2 7 10 8 9 9 1 11
REMARK H PARENT 9 10 1 12 1 13
REMARK Flexibility Score: inf
ROOT
ATOM      1  C   UNL     1    -102.613 181.394  -2.035  1.00  0.00     0.199 A 
ATOM      2  N   UNL     1    -103.481 182.438  -1.950  1.00  0.00    -0.217 NA
ATOM      3  C   UNL     1    -104.000 182.478  -3.188  1.00  0.00     0.182 A 
ATOM      4  N   UNL     1    -104.931 183.350  -3.647  1.00  0.00    -0.215 NA
ATOM      5  C   UNL     1    -105.339 183.233  -4.947  1.00  0.00     0.226 A 
ATOM      6  N   UNL     1    -104.814 182.258  -5.757  1.00  0.00    -0.217 NA
ATOM      7  C   UNL     1    -103.875 181.378  -5.296  1.00  0.00     0.152 A 
ATOM      8  C   UNL     1    -103.471 181.510  -3.970  1.00  0.00     0.127 A 
ATOM      9  N   UNL     1    -102.584 180.805  -3.257  1.00  0.00    -0.340 N 
ATOM     10  H   UNL     1    -102.002 179.992  -3.558  1.00  0.00     0.168 HD
ENDROOT
BRANCH   7  11
ATOM     11  N   UNL     1    -103.344 180.370  -6.158  1.00  0.00    -0.382 N 
ATOM     12  H   UNL     1    -103.201 180.546  -7.176  1.00  0.00     0.158 HD
ATOM     13  H   UNL     1    -103.090 179.434  -5.772  1.00  0.00     0.158 HD
ENDBRANCH   7  11
TORSDOF 1
ENDMDL
