MODEL 1
REMARK VINA RESULT:    -4.612      0.000      0.000
REMARK INTER + INTRA:          -8.462
REMARK INTER:                  -7.038
REMARK INTRA:                  -1.424
REMARK UNBOUND:                -1.424
REMARK SMILES OC[C@H]1O[C@](CO)(O[C@@H]2O[C@H](CO)[C@@H](O)[C@@H](O)[C@H]2O)[C@H](O)[C@H]1O
REMARK SMILES IDX 8 1 9 2 11 3 14 4 10 5 16 6 18 7 12 8 13 9 15 11 17 13 19 15
REMARK SMILES IDX 5 17 20 18 4 19 22 20 3 21 6 22 7 23 21 25 23 27 2 29 1 30
REMARK H PARENT 13 10 15 12 17 14 19 16 7 24 21 26 23 28 1 31
REMARK Flexibility Score: inf
ROOT
ATOM      1  O   UNL     1     161.928 178.315 167.597  1.00  0.00    -0.313 OA
ENDROOT
BRANCH   1   2
ATOM      2  C   UNL     1     161.312 177.429 166.670  1.00  0.00     0.285 C 
ATOM      3  C   UNL     1     160.695 176.925 164.486  1.00  0.00     0.178 C 
ATOM      4  C   UNL     1     159.374 176.237 164.929  1.00  0.00     0.177 C 
ATOM      5  O   UNL     1     161.085 177.968 165.377  1.00  0.00    -0.341 OA
ATOM      6  C   UNL     1     159.455 175.758 166.404  1.00  0.00     0.179 C 
ATOM      7  C   UNL     1     159.974 176.916 167.254  1.00  0.00     0.202 C 
BRANCH   3   8
ATOM      8  C   UNL     1     160.573 177.522 163.074  1.00  0.00     0.191 C 
BRANCH   8   9
ATOM      9  O   UNL     1     160.870 176.533 162.111  1.00  0.00    -0.394 OA
ATOM     10  H   UNL     1     160.050 175.981 162.003  1.00  0.00     0.210 HD
ENDBRANCH   8   9
ENDBRANCH   3   8
BRANCH   4  11
ATOM     11  O   UNL     1     159.090 175.181 164.042  1.00  0.00    -0.387 OA
ATOM     12  H   UNL     1     159.874 174.987 163.463  1.00  0.00     0.211 HD
ENDBRANCH   4  11
BRANCH   6  13
ATOM     13  O   UNL     1     160.310 174.641 166.545  1.00  0.00    -0.387 OA
ATOM     14  H   UNL     1     159.733 173.836 166.706  1.00  0.00     0.211 HD
ENDBRANCH   6  13
BRANCH   7  15
ATOM     15  O   UNL     1     160.064 176.533 168.607  1.00  0.00    -0.385 OA
ATOM     16  H   UNL     1     159.514 177.162 169.148  1.00  0.00     0.211 HD
ENDBRANCH   7  15
ENDBRANCH   1   2
BRANCH   1  17
ATOM     17  C   UNL     1     163.333 178.251 167.840  1.00  0.00     0.224 C 
ATOM     18  C   UNL     1     164.182 179.443 167.276  1.00  0.00     0.208 C 
ATOM     19  O   UNL     1     163.784 177.069 167.185  1.00  0.00    -0.337 OA
ATOM     20  C   UNL     1     165.356 178.740 166.675  1.00  0.00     0.180 C 
ATOM     21  C   UNL     1     164.652 177.500 166.147  1.00  0.00     0.179 C 
BRANCH  17  22
ATOM     22  C   UNL     1     163.602 178.042 169.353  1.00  0.00     0.225 C 
BRANCH  22  23
ATOM     23  O   UNL     1     162.592 177.282 169.940  1.00  0.00    -0.391 OA
ATOM     24  H   UNL     1     161.757 177.839 169.923  1.00  0.00     0.210 HD
ENDBRANCH  22  23
ENDBRANCH  17  22
BRANCH  18  25
ATOM     25  O   UNL     1     163.486 180.102 166.237  1.00  0.00    -0.385 OA
ATOM     26  H   UNL     1     164.164 180.568 165.668  1.00  0.00     0.211 HD
ENDBRANCH  18  25
BRANCH  20  27
ATOM     27  O   UNL     1     166.298 178.374 167.663  1.00  0.00    -0.387 OA
ATOM     28  H   UNL     1     167.187 178.713 167.381  1.00  0.00     0.211 HD
ENDBRANCH  20  27
BRANCH  21  29
ATOM     29  C   UNL     1     165.560 176.360 165.653  1.00  0.00     0.191 C 
BRANCH  29  30
ATOM     30  O   UNL     1     165.972 175.507 166.700  1.00  0.00    -0.394 OA
ATOM     31  H   UNL     1     165.140 175.240 167.185  1.00  0.00     0.210 HD
ENDBRANCH  29  30
ENDBRANCH  21  29
ENDBRANCH   1  17
TORSDOF 13
ENDMDL
MODEL 2
REMARK VINA RESULT:    -4.440      2.794      5.878
REMARK INTER + INTRA:          -8.200
REMARK INTER:                  -6.867
REMARK INTRA:                  -1.334
REMARK UNBOUND:                -1.424
REMARK SMILES OC[C@H]1O[C@](CO)(O[C@@H]2O[C@H](CO)[C@@H](O)[C@@H](O)[C@H]2O)[C@H](O)[C@H]1O
REMARK SMILES IDX 8 1 9 2 11 3 14 4 10 5 16 6 18 7 12 8 13 9 15 11 17 13 19 15
REMARK SMILES IDX 5 17 20 18 4 19 22 20 3 21 6 22 7 23 21 25 23 27 2 29 1 30
REMARK H PARENT 13 10 15 12 17 14 19 16 7 24 21 26 23 28 1 31
REMARK Flexibility Score: inf
ROOT
ATOM      1  O   UNL     1     165.791 177.151 165.741  1.00  0.00    -0.313 OA
ENDROOT
BRANCH   1   2
ATOM      2  C   UNL     1     166.089 176.409 164.565  1.00  0.00     0.285 C 
ATOM      3  C   UNL     1     166.916 174.477 163.569  1.00  0.00     0.178 C 
ATOM      4  C   UNL     1     167.528 175.256 162.373  1.00  0.00     0.177 C 
ATOM      5  O   UNL     1     166.893 175.257 164.764  1.00  0.00    -0.341 OA
ATOM      6  C   UNL     1     166.827 176.627 162.173  1.00  0.00     0.179 C 
ATOM      7  C   UNL     1     166.767 177.334 163.527  1.00  0.00     0.202 C 
BRANCH   3   8
ATOM      8  C   UNL     1     167.695 173.183 163.857  1.00  0.00     0.191 C 
BRANCH   8   9
ATOM      9  O   UNL     1     166.792 172.144 164.170  1.00  0.00    -0.394 OA
ATOM     10  H   UNL     1     166.320 171.909 163.327  1.00  0.00     0.210 HD
ENDBRANCH   8   9
ENDBRANCH   3   8
BRANCH   4  11
ATOM     11  O   UNL     1     167.457 174.450 161.219  1.00  0.00    -0.387 OA
ATOM     12  H   UNL     1     166.682 174.712 160.655  1.00  0.00     0.211 HD
ENDBRANCH   4  11
BRANCH   6  13
ATOM     13  O   UNL     1     165.519 176.476 161.656  1.00  0.00    -0.387 OA
ATOM     14  H   UNL     1     165.159 177.394 161.472  1.00  0.00     0.211 HD
ENDBRANCH   6  13
BRANCH   7  15
ATOM     15  O   UNL     1     166.140 178.589 163.400  1.00  0.00    -0.385 OA
ATOM     16  H   UNL     1     165.210 178.511 163.745  1.00  0.00     0.211 HD
ENDBRANCH   7  15
ENDBRANCH   1   2
BRANCH   1  17
ATOM     17  C   UNL     1     164.440 177.457 166.085  1.00  0.00     0.224 C 
ATOM     18  C   UNL     1     164.034 178.969 165.990  1.00  0.00     0.208 C 
ATOM     19  O   UNL     1     164.293 177.069 167.449  1.00  0.00    -0.337 OA
ATOM     20  C   UNL     1     163.253 179.167 167.249  1.00  0.00     0.180 C 
ATOM     21  C   UNL     1     164.054 178.265 168.176  1.00  0.00     0.179 C 
BRANCH  17  22
ATOM     22  C   UNL     1     163.468 176.566 165.270  1.00  0.00     0.225 C 
BRANCH  22  23
ATOM     23  O   UNL     1     162.626 175.842 166.113  1.00  0.00    -0.391 OA
ATOM     24  H   UNL     1     162.220 175.107 165.563  1.00  0.00     0.210 HD
ENDBRANCH  22  23
ENDBRANCH  17  22
BRANCH  18  25
ATOM     25  O   UNL     1     165.178 179.797 166.047  1.00  0.00    -0.385 OA
ATOM     26  H   UNL     1     165.675 179.566 166.884  1.00  0.00     0.211 HD
ENDBRANCH  18  25
BRANCH  20  27
ATOM     27  O   UNL     1     161.935 178.675 167.122  1.00  0.00    -0.387 OA
ATOM     28  H   UNL     1     161.447 179.263 166.488  1.00  0.00     0.211 HD
ENDBRANCH  20  27
BRANCH  21  29
ATOM     29  C   UNL     1     163.432 177.980 169.554  1.00  0.00     0.191 C 
BRANCH  29  30
ATOM     30  O   UNL     1     162.207 177.283 169.459  1.00  0.00    -0.394 OA
ATOM     31  H   UNL     1     161.564 177.769 170.049  1.00  0.00     0.210 HD
ENDBRANCH  29  30
ENDBRANCH  21  29
ENDBRANCH   1  17
TORSDOF 13
ENDMDL
MODEL 3
REMARK VINA RESULT:    -4.268      2.467      4.648
REMARK INTER + INTRA:          -7.938
REMARK INTER:                  -6.524
REMARK INTRA:                  -1.414
REMARK UNBOUND:                -1.424
REMARK SMILES OC[C@H]1O[C@](CO)(O[C@@H]2O[C@H](CO)[C@@H](O)[C@@H](O)[C@H]2O)[C@H](O)[C@H]1O
REMARK SMILES IDX 8 1 9 2 11 3 14 4 10 5 16 6 18 7 12 8 13 9 15 11 17 13 19 15
REMARK SMILES IDX 5 17 20 18 4 19 22 20 3 21 6 22 7 23 21 25 23 27 2 29 1 30
REMARK H PARENT 13 10 15 12 17 14 19 16 7 24 21 26 23 28 1 31
REMARK Flexibility Score: inf
ROOT
ATOM      1  O   UNL     1     164.684 178.151 164.865  1.00  0.00    -0.313 OA
ENDROOT
BRANCH   1   2
ATOM      2  C   UNL     1     163.839 178.047 166.004  1.00  0.00     0.285 C 
ATOM      3  C   UNL     1     161.784 177.476 166.931  1.00  0.00     0.178 C 
ATOM      4  C   UNL     1     161.831 178.639 167.960  1.00  0.00     0.177 C 
ATOM      5  O   UNL     1     162.471 177.798 165.722  1.00  0.00    -0.341 OA
ATOM      6  C   UNL     1     163.289 179.111 168.213  1.00  0.00     0.179 C 
ATOM      7  C   UNL     1     163.961 179.331 166.858  1.00  0.00     0.202 C 
BRANCH   3   8
ATOM      8  C   UNL     1     160.337 177.098 166.573  1.00  0.00     0.191 C 
BRANCH   8   9
ATOM      9  O   UNL     1     159.867 176.113 167.469  1.00  0.00    -0.394 OA
ATOM     10  H   UNL     1     159.121 176.525 167.983  1.00  0.00     0.210 HD
ENDBRANCH   8   9
ENDBRANCH   3   8
BRANCH   4  11
ATOM     11  O   UNL     1     161.193 178.226 169.145  1.00  0.00    -0.387 OA
ATOM     12  H   UNL     1     160.227 178.461 169.125  1.00  0.00     0.211 HD
ENDBRANCH   4  11
BRANCH   6  13
ATOM     13  O   UNL     1     164.023 178.162 168.961  1.00  0.00    -0.387 OA
ATOM     14  H   UNL     1     163.587 178.085 169.862  1.00  0.00     0.211 HD
ENDBRANCH   6  13
BRANCH   7  15
ATOM     15  O   UNL     1     165.290 179.764 167.033  1.00  0.00    -0.385 OA
ATOM     16  H   UNL     1     165.885 179.180 166.489  1.00  0.00     0.211 HD
ENDBRANCH   7  15
ENDBRANCH   1   2
BRANCH   1  17
ATOM     17  C   UNL     1     165.634 177.129 164.567  1.00  0.00     0.224 C 
ATOM     18  C   UNL     1     166.814 177.543 163.620  1.00  0.00     0.208 C 
ATOM     19  O   UNL     1     164.901 176.104 163.901  1.00  0.00    -0.337 OA
ATOM     20  C   UNL     1     166.897 176.376 162.690  1.00  0.00     0.180 C 
ATOM     21  C   UNL     1     165.416 176.048 162.579  1.00  0.00     0.179 C 
BRANCH  17  22
ATOM     22  C   UNL     1     166.168 176.501 165.881  1.00  0.00     0.225 C 
BRANCH  22  23
ATOM     23  O   UNL     1     166.134 175.109 165.820  1.00  0.00    -0.391 OA
ATOM     24  H   UNL     1     167.033 174.779 166.121  1.00  0.00     0.210 HD
ENDBRANCH  22  23
ENDBRANCH  17  22
BRANCH  18  25
ATOM     25  O   UNL     1     166.467 178.684 162.863  1.00  0.00    -0.385 OA
ATOM     26  H   UNL     1     166.383 179.453 163.498  1.00  0.00     0.211 HD
ENDBRANCH  18  25
BRANCH  20  27
ATOM     27  O   UNL     1     167.586 175.293 163.281  1.00  0.00    -0.387 OA
ATOM     28  H   UNL     1     167.685 175.483 164.250  1.00  0.00     0.211 HD
ENDBRANCH  20  27
BRANCH  21  29
ATOM     29  C   UNL     1     165.062 174.719 161.886  1.00  0.00     0.191 C 
BRANCH  29  30
ATOM     30  O   UNL     1     165.415 173.595 162.664  1.00  0.00    -0.394 OA
ATOM     31  H   UNL     1     166.307 173.294 162.330  1.00  0.00     0.210 HD
ENDBRANCH  29  30
ENDBRANCH  21  29
ENDBRANCH   1  17
TORSDOF 13
ENDMDL
MODEL 4
REMARK VINA RESULT:    -4.148      2.161      4.512
REMARK INTER + INTRA:          -7.754
REMARK INTER:                  -6.652
REMARK INTRA:                  -1.102
REMARK UNBOUND:                -1.424
REMARK SMILES OC[C@H]1O[C@](CO)(O[C@@H]2O[C@H](CO)[C@@H](O)[C@@H](O)[C@H]2O)[C@H](O)[C@H]1O
REMARK SMILES IDX 8 1 9 2 11 3 14 4 10 5 16 6 18 7 12 8 13 9 15 11 17 13 19 15
REMARK SMILES IDX 5 17 20 18 4 19 22 20 3 21 6 22 7 23 21 25 23 27 2 29 1 30
REMARK H PARENT 13 10 15 12 17 14 19 16 7 24 21 26 23 28 1 31
REMARK Flexibility Score: inf
ROOT
ATOM      1  O   UNL     1     163.937 176.434 165.327  1.00  0.00    -0.313 OA
ENDROOT
BRANCH   1   2
ATOM      2  C   UNL     1     163.106 177.267 166.126  1.00  0.00     0.285 C 
ATOM      3  C   UNL     1     162.596 178.194 168.197  1.00  0.00     0.178 C 
ATOM      4  C   UNL     1     161.064 178.122 167.946  1.00  0.00     0.177 C 
ATOM      5  O   UNL     1     163.302 177.150 167.527  1.00  0.00    -0.341 OA
ATOM      6  C   UNL     1     160.744 178.068 166.427  1.00  0.00     0.179 C 
ATOM      7  C   UNL     1     161.621 176.990 165.792  1.00  0.00     0.202 C 
BRANCH   3   8
ATOM      8  C   UNL     1     162.926 178.109 169.696  1.00  0.00     0.191 C 
BRANCH   8   9
ATOM      9  O   UNL     1     162.006 177.252 170.338  1.00  0.00    -0.394 OA
ATOM     10  H   UNL     1     162.513 176.757 171.037  1.00  0.00     0.210 HD
ENDBRANCH   8   9
ENDBRANCH   3   8
BRANCH   4  11
ATOM     11  O   UNL     1     160.446 179.216 168.581  1.00  0.00    -0.387 OA
ATOM     12  H   UNL     1     160.883 180.069 168.317  1.00  0.00     0.211 HD
ENDBRANCH   4  11
BRANCH   6  13
ATOM     13  O   UNL     1     160.983 179.311 165.797  1.00  0.00    -0.387 OA
ATOM     14  H   UNL     1     161.696 179.783 166.322  1.00  0.00     0.211 HD
ENDBRANCH   6  13
BRANCH   7  15
ATOM     15  O   UNL     1     161.365 176.899 164.409  1.00  0.00    -0.385 OA
ATOM     16  H   UNL     1     161.638 175.994 164.099  1.00  0.00     0.211 HD
ENDBRANCH   7  15
ENDBRANCH   1   2
BRANCH   1  17
ATOM     17  C   UNL     1     165.145 176.941 164.760  1.00  0.00     0.224 C 
ATOM     18  C   UNL     1     165.037 177.494 163.297  1.00  0.00     0.208 C 
ATOM     19  O   UNL     1     166.047 175.838 164.727  1.00  0.00    -0.337 OA
ATOM     20  C   UNL     1     166.257 176.921 162.651  1.00  0.00     0.180 C 
ATOM     21  C   UNL     1     166.292 175.572 163.353  1.00  0.00     0.179 C 
BRANCH  17  22
ATOM     22  C   UNL     1     165.776 177.993 165.709  1.00  0.00     0.225 C 
BRANCH  22  23
ATOM     23  O   UNL     1     166.363 177.381 166.815  1.00  0.00    -0.391 OA
ATOM     24  H   UNL     1     166.628 176.455 166.533  1.00  0.00     0.210 HD
ENDBRANCH  22  23
ENDBRANCH  17  22
BRANCH  18  25
ATOM     25  O   UNL     1     163.903 176.960 162.645  1.00  0.00    -0.385 OA
ATOM     26  H   UNL     1     163.410 176.398 163.310  1.00  0.00     0.211 HD
ENDBRANCH  18  25
BRANCH  20  27
ATOM     27  O   UNL     1     167.413 177.664 162.980  1.00  0.00    -0.387 OA
ATOM     28  H   UNL     1     167.427 178.478 162.413  1.00  0.00     0.211 HD
ENDBRANCH  20  27
BRANCH  21  29
ATOM     29  C   UNL     1     167.568 174.734 163.155  1.00  0.00     0.191 C 
BRANCH  29  30
ATOM     30  O   UNL     1     167.942 174.037 164.325  1.00  0.00    -0.394 OA
ATOM     31  H   UNL     1     167.842 174.686 165.079  1.00  0.00     0.210 HD
ENDBRANCH  29  30
ENDBRANCH  21  29
ENDBRANCH   1  17
TORSDOF 13
ENDMDL
MODEL 5
REMARK VINA RESULT:    -4.089      1.901      4.073
REMARK INTER + INTRA:          -7.664
REMARK INTER:                  -6.321
REMARK INTRA:                  -1.343
REMARK UNBOUND:                -1.424
REMARK SMILES OC[C@H]1O[C@](CO)(O[C@@H]2O[C@H](CO)[C@@H](O)[C@@H](O)[C@H]2O)[C@H](O)[C@H]1O
REMARK SMILES IDX 8 1 9 2 11 3 14 4 10 5 16 6 18 7 12 8 13 9 15 11 17 13 19 15
REMARK SMILES IDX 5 17 20 18 4 19 22 20 3 21 6 22 7 23 21 25 23 27 2 29 1 30
REMARK H PARENT 13 10 15 12 17 14 19 16 7 24 21 26 23 28 1 31
REMARK Flexibility Score: inf
ROOT
ATOM      1  O   UNL     1     163.445 179.069 164.986  1.00  0.00    -0.313 OA
ENDROOT
BRANCH   1   2
ATOM      2  C   UNL     1     162.820 178.429 166.091  1.00  0.00     0.285 C 
ATOM      3  C   UNL     1     161.084 177.136 166.940  1.00  0.00     0.178 C 
ATOM      4  C   UNL     1     161.053 177.910 168.286  1.00  0.00     0.177 C 
ATOM      5  O   UNL     1     161.502 177.960 165.852  1.00  0.00    -0.341 OA
ATOM      6  C   UNL     1     162.409 178.615 168.563  1.00  0.00     0.179 C 
ATOM      7  C   UNL     1     162.812 179.386 167.307  1.00  0.00     0.202 C 
BRANCH   3   8
ATOM      8  C   UNL     1     159.704 176.551 166.594  1.00  0.00     0.191 C 
BRANCH   8   9
ATOM      9  O   UNL     1     159.559 175.284 167.199  1.00  0.00    -0.394 OA
ATOM     10  H   UNL     1     158.647 174.959 166.970  1.00  0.00     0.210 HD
ENDBRANCH   8   9
ENDBRANCH   3   8
BRANCH   4  11
ATOM     11  O   UNL     1     160.697 177.019 169.317  1.00  0.00    -0.387 OA
ATOM     12  H   UNL     1     161.498 176.749 169.840  1.00  0.00     0.211 HD
ENDBRANCH   4  11
BRANCH   6  13
ATOM     13  O   UNL     1     163.422 177.686 168.898  1.00  0.00    -0.387 OA
ATOM     14  H   UNL     1     163.215 176.828 168.422  1.00  0.00     0.211 HD
ENDBRANCH   6  13
BRANCH   7  15
ATOM     15  O   UNL     1     164.039 180.048 167.507  1.00  0.00    -0.385 OA
ATOM     16  H   UNL     1     163.878 181.029 167.458  1.00  0.00     0.211 HD
ENDBRANCH   7  15
ENDBRANCH   1   2
BRANCH   1  17
ATOM     17  C   UNL     1     164.680 178.580 164.465  1.00  0.00     0.224 C 
ATOM     18  C   UNL     1     164.569 177.583 163.258  1.00  0.00     0.208 C 
ATOM     19  O   UNL     1     165.297 177.872 165.537  1.00  0.00    -0.337 OA
ATOM     20  C   UNL     1     165.560 176.527 163.628  1.00  0.00     0.180 C 
ATOM     21  C   UNL     1     165.348 176.511 165.134  1.00  0.00     0.179 C 
BRANCH  17  22
ATOM     22  C   UNL     1     165.621 179.765 164.125  1.00  0.00     0.225 C 
BRANCH  22  23
ATOM     23  O   UNL     1     165.862 180.550 165.250  1.00  0.00    -0.391 OA
ATOM     24  H   UNL     1     166.329 179.968 165.922  1.00  0.00     0.210 HD
ENDBRANCH  22  23
ENDBRANCH  17  22
BRANCH  18  25
ATOM     25  O   UNL     1     163.288 176.989 163.219  1.00  0.00    -0.385 OA
ATOM     26  H   UNL     1     162.987 176.985 162.265  1.00  0.00     0.211 HD
ENDBRANCH  18  25
BRANCH  20  27
ATOM     27  O   UNL     1     166.881 176.933 163.333  1.00  0.00    -0.387 OA
ATOM     28  H   UNL     1     167.504 176.307 163.786  1.00  0.00     0.211 HD
ENDBRANCH  20  27
BRANCH  21  29
ATOM     29  C   UNL     1     166.373 175.711 165.958  1.00  0.00     0.191 C 
BRANCH  29  30
ATOM     30  O   UNL     1     166.893 174.608 165.247  1.00  0.00    -0.394 OA
ATOM     31  H   UNL     1     166.116 174.009 165.057  1.00  0.00     0.210 HD
ENDBRANCH  29  30
ENDBRANCH  21  29
ENDBRANCH   1  17
TORSDOF 13
ENDMDL
MODEL 6
REMARK VINA RESULT:    -4.088      8.591     12.352
REMARK INTER + INTRA:          -7.663
REMARK INTER:                  -6.348
REMARK INTRA:                  -1.316
REMARK UNBOUND:                -1.424
REMARK SMILES OC[C@H]1O[C@](CO)(O[C@@H]2O[C@H](CO)[C@@H](O)[C@@H](O)[C@H]2O)[C@H](O)[C@H]1O
REMARK SMILES IDX 8 1 9 2 11 3 14 4 10 5 16 6 18 7 12 8 13 9 15 11 17 13 19 15
REMARK SMILES IDX 5 17 20 18 4 19 22 20 3 21 6 22 7 23 21 25 23 27 2 29 1 30
REMARK H PARENT 13 10 15 12 17 14 19 16 7 24 21 26 23 28 1 31
REMARK Flexibility Score: inf
ROOT
ATOM      1  O   UNL     1     169.696 170.661 161.442  1.00  0.00    -0.313 OA
ENDROOT
BRANCH   1   2
ATOM      2  C   UNL     1     171.109 170.536 161.539  1.00  0.00     0.285 C 
ATOM      3  C   UNL     1     173.227 171.456 161.262  1.00  0.00     0.178 C 
ATOM      4  C   UNL     1     173.851 170.100 160.833  1.00  0.00     0.177 C 
ATOM      5  O   UNL     1     171.852 171.557 160.892  1.00  0.00    -0.341 OA
ATOM      6  C   UNL     1     173.008 168.902 161.348  1.00  0.00     0.179 C 
ATOM      7  C   UNL     1     171.546 169.157 160.988  1.00  0.00     0.202 C 
BRANCH   3   8
ATOM      8  C   UNL     1     173.978 172.645 160.641  1.00  0.00     0.191 C 
BRANCH   8   9
ATOM      9  O   UNL     1     174.975 173.096 161.533  1.00  0.00    -0.394 OA
ATOM     10  H   UNL     1     174.880 174.085 161.595  1.00  0.00     0.210 HD
ENDBRANCH   8   9
ENDBRANCH   3   8
BRANCH   4  11
ATOM     11  O   UNL     1     175.184 170.047 161.288  1.00  0.00    -0.387 OA
ATOM     12  H   UNL     1     175.641 169.235 160.943  1.00  0.00     0.211 HD
ENDBRANCH   4  11
BRANCH   6  13
ATOM     13  O   UNL     1     173.133 168.737 162.748  1.00  0.00    -0.387 OA
ATOM     14  H   UNL     1     173.306 169.642 163.144  1.00  0.00     0.211 HD
ENDBRANCH   6  13
BRANCH   7  15
ATOM     15  O   UNL     1     170.736 168.094 161.432  1.00  0.00    -0.385 OA
ATOM     16  H   UNL     1     170.929 167.296 160.870  1.00  0.00     0.211 HD
ENDBRANCH   7  15
ENDBRANCH   1   2
BRANCH   1  17
ATOM     17  C   UNL     1     168.901 170.856 162.612  1.00  0.00     0.224 C 
ATOM     18  C   UNL     1     167.372 170.542 162.463  1.00  0.00     0.208 C 
ATOM     19  O   UNL     1     169.016 172.241 162.929  1.00  0.00    -0.337 OA
ATOM     20  C   UNL     1     166.741 171.701 163.165  1.00  0.00     0.180 C 
ATOM     21  C   UNL     1     167.718 172.792 162.759  1.00  0.00     0.179 C 
BRANCH  17  22
ATOM     22  C   UNL     1     169.516 170.082 163.807  1.00  0.00     0.225 C 
BRANCH  22  23
ATOM     23  O   UNL     1     169.058 168.766 163.840  1.00  0.00    -0.391 OA
ATOM     24  H   UNL     1     169.752 168.202 163.383  1.00  0.00     0.210 HD
ENDBRANCH  22  23
ENDBRANCH  17  22
BRANCH  18  25
ATOM     25  O   UNL     1     166.984 170.587 161.105  1.00  0.00    -0.385 OA
ATOM     26  H   UNL     1     167.035 169.655 160.746  1.00  0.00     0.211 HD
ENDBRANCH  18  25
BRANCH  20  27
ATOM     27  O   UNL     1     166.767 171.531 164.568  1.00  0.00    -0.387 OA
ATOM     28  H   UNL     1     165.899 171.845 164.932  1.00  0.00     0.211 HD
ENDBRANCH  20  27
BRANCH  21  29
ATOM     29  C   UNL     1     167.574 174.142 163.485  1.00  0.00     0.191 C 
BRANCH  29  30
ATOM     30  O   UNL     1     167.919 174.058 164.852  1.00  0.00    -0.394 OA
ATOM     31  H   UNL     1     168.255 174.963 165.110  1.00  0.00     0.210 HD
ENDBRANCH  29  30
ENDBRANCH  21  29
ENDBRANCH   1  17
TORSDOF 13
ENDMDL
MODEL 7
REMARK VINA RESULT:    -4.040      3.155      6.054
REMARK INTER + INTRA:          -7.590
REMARK INTER:                  -6.230
REMARK INTRA:                  -1.361
REMARK UNBOUND:                -1.424
REMARK SMILES OC[C@H]1O[C@](CO)(O[C@@H]2O[C@H](CO)[C@@H](O)[C@@H](O)[C@H]2O)[C@H](O)[C@H]1O
REMARK SMILES IDX 8 1 9 2 11 3 14 4 10 5 16 6 18 7 12 8 13 9 15 11 17 13 19 15
REMARK SMILES IDX 5 17 20 18 4 19 22 20 3 21 6 22 7 23 21 25 23 27 2 29 1 30
REMARK H PARENT 13 10 15 12 17 14 19 16 7 24 21 26 23 28 1 31
REMARK Flexibility Score: inf
ROOT
ATOM      1  O   UNL     1     166.867 176.730 164.120  1.00  0.00    -0.313 OA
ENDROOT
BRANCH   1   2
ATOM      2  C   UNL     1     165.814 177.230 164.937  1.00  0.00     0.285 C 
ATOM      3  C   UNL     1     164.471 179.003 165.613  1.00  0.00     0.178 C 
ATOM      4  C   UNL     1     164.419 178.511 167.085  1.00  0.00     0.177 C 
ATOM      5  O   UNL     1     165.692 178.643 164.967  1.00  0.00    -0.341 OA
ATOM      6  C   UNL     1     164.716 176.991 167.183  1.00  0.00     0.179 C 
ATOM      7  C   UNL     1     165.982 176.698 166.380  1.00  0.00     0.202 C 
BRANCH   3   8
ATOM      8  C   UNL     1     164.314 180.530 165.522  1.00  0.00     0.191 C 
BRANCH   8   9
ATOM      9  O   UNL     1     164.702 181.122 166.744  1.00  0.00    -0.394 OA
ATOM     10  H   UNL     1     164.025 180.853 167.422  1.00  0.00     0.210 HD
ENDBRANCH   8   9
ENDBRANCH   3   8
BRANCH   4  11
ATOM     11  O   UNL     1     163.165 178.845 167.634  1.00  0.00    -0.387 OA
ATOM     12  H   UNL     1     162.481 178.938 166.917  1.00  0.00     0.211 HD
ENDBRANCH   4  11
BRANCH   6  13
ATOM     13  O   UNL     1     163.644 176.215 166.684  1.00  0.00    -0.387 OA
ATOM     14  H   UNL     1     163.249 176.710 165.905  1.00  0.00     0.211 HD
ENDBRANCH   6  13
BRANCH   7  15
ATOM     15  O   UNL     1     166.298 175.327 166.440  1.00  0.00    -0.385 OA
ATOM     16  H   UNL     1     165.582 174.819 165.970  1.00  0.00     0.211 HD
ENDBRANCH   7  15
ENDBRANCH   1   2
BRANCH   1  17
ATOM     17  C   UNL     1     166.600 175.772 163.096  1.00  0.00     0.224 C 
ATOM     18  C   UNL     1     166.702 176.298 161.622  1.00  0.00     0.208 C 
ATOM     19  O   UNL     1     165.253 175.355 163.300  1.00  0.00    -0.337 OA
ATOM     20  C   UNL     1     165.490 175.698 160.987  1.00  0.00     0.180 C 
ATOM     21  C   UNL     1     164.528 175.794 162.160  1.00  0.00     0.179 C 
BRANCH  17  22
ATOM     22  C   UNL     1     167.483 174.514 163.302  1.00  0.00     0.225 C 
BRANCH  22  23
ATOM     23  O   UNL     1     167.005 173.735 164.354  1.00  0.00    -0.391 OA
ATOM     24  H   UNL     1     166.559 174.357 165.003  1.00  0.00     0.210 HD
ENDBRANCH  22  23
ENDBRANCH  17  22
BRANCH  18  25
ATOM     25  O   UNL     1     166.567 177.704 161.584  1.00  0.00    -0.385 OA
ATOM     26  H   UNL     1     167.198 178.086 162.261  1.00  0.00     0.211 HD
ENDBRANCH  18  25
BRANCH  20  27
ATOM     27  O   UNL     1     165.702 174.341 160.651  1.00  0.00    -0.387 OA
ATOM     28  H   UNL     1     166.591 174.268 160.215  1.00  0.00     0.211 HD
ENDBRANCH  20  27
BRANCH  21  29
ATOM     29  C   UNL     1     163.192 175.043 162.011  1.00  0.00     0.191 C 
BRANCH  29  30
ATOM     30  O   UNL     1     163.325 173.657 162.241  1.00  0.00    -0.394 OA
ATOM     31  H   UNL     1     163.669 173.561 163.175  1.00  0.00     0.210 HD
ENDBRANCH  29  30
ENDBRANCH  21  29
ENDBRANCH   1  17
TORSDOF 13
ENDMDL
MODEL 8
REMARK VINA RESULT:    -4.022      3.706      6.556
REMARK INTER + INTRA:          -7.562
REMARK INTER:                  -6.052
REMARK INTRA:                  -1.510
REMARK UNBOUND:                -1.424
REMARK SMILES OC[C@H]1O[C@](CO)(O[C@@H]2O[C@H](CO)[C@@H](O)[C@@H](O)[C@H]2O)[C@H](O)[C@H]1O
REMARK SMILES IDX 8 1 9 2 11 3 14 4 10 5 16 6 18 7 12 8 13 9 15 11 17 13 19 15
REMARK SMILES IDX 5 17 20 18 4 19 22 20 3 21 6 22 7 23 21 25 23 27 2 29 1 30
REMARK H PARENT 13 10 15 12 17 14 19 16 7 24 21 26 23 28 1 31
REMARK Flexibility Score: inf
ROOT
ATOM      1  O   UNL     1     166.595 176.786 163.815  1.00  0.00    -0.313 OA
ENDROOT
BRANCH   1   2
ATOM      2  C   UNL     1     165.721 177.292 164.816  1.00  0.00     0.285 C 
ATOM      3  C   UNL     1     164.665 179.100 165.828  1.00  0.00     0.178 C 
ATOM      4  C   UNL     1     164.770 178.474 167.246  1.00  0.00     0.177 C 
ATOM      5  O   UNL     1     165.743 178.701 164.981  1.00  0.00    -0.341 OA
ATOM      6  C   UNL     1     164.928 176.932 167.172  1.00  0.00     0.179 C 
ATOM      7  C   UNL     1     166.035 176.612 166.169  1.00  0.00     0.202 C 
BRANCH   3   8
ATOM      8  C   UNL     1     164.648 180.636 165.889  1.00  0.00     0.191 C 
BRANCH   8   9
ATOM      9  O   UNL     1     165.381 181.076 167.012  1.00  0.00    -0.394 OA
ATOM     10  H   UNL     1     165.784 180.267 167.428  1.00  0.00     0.210 HD
ENDBRANCH   8   9
ENDBRANCH   3   8
BRANCH   4  11
ATOM     11  O   UNL     1     163.643 178.858 167.999  1.00  0.00    -0.387 OA
ATOM     12  H   UNL     1     163.493 179.839 167.932  1.00  0.00     0.211 HD
ENDBRANCH   4  11
BRANCH   6  13
ATOM     13  O   UNL     1     163.726 176.301 166.773  1.00  0.00    -0.387 OA
ATOM     14  H   UNL     1     163.551 176.560 165.819  1.00  0.00     0.211 HD
ENDBRANCH   6  13
BRANCH   7  15
ATOM     15  O   UNL     1     166.220 175.219 166.067  1.00  0.00    -0.385 OA
ATOM     16  H   UNL     1     166.425 174.862 166.973  1.00  0.00     0.211 HD
ENDBRANCH   7  15
ENDBRANCH   1   2
BRANCH   1  17
ATOM     17  C   UNL     1     166.099 175.946 162.773  1.00  0.00     0.224 C 
ATOM     18  C   UNL     1     166.620 174.467 162.778  1.00  0.00     0.208 C 
ATOM     19  O   UNL     1     166.540 176.542 161.555  1.00  0.00    -0.337 OA
ATOM     20  C   UNL     1     166.926 174.234 161.333  1.00  0.00     0.180 C 
ATOM     21  C   UNL     1     167.444 175.616 160.969  1.00  0.00     0.179 C 
BRANCH  17  22
ATOM     22  C   UNL     1     164.550 175.992 162.745  1.00  0.00     0.225 C 
BRANCH  22  23
ATOM     23  O   UNL     1     164.007 174.736 163.012  1.00  0.00    -0.391 OA
ATOM     24  H   UNL     1     164.581 174.061 162.540  1.00  0.00     0.210 HD
ENDBRANCH  22  23
ENDBRANCH  17  22
BRANCH  18  25
ATOM     25  O   UNL     1     167.828 174.366 163.504  1.00  0.00    -0.385 OA
ATOM     26  H   UNL     1     167.907 173.424 163.829  1.00  0.00     0.211 HD
ENDBRANCH  18  25
BRANCH  20  27
ATOM     27  O   UNL     1     165.754 173.951 160.597  1.00  0.00    -0.387 OA
ATOM     28  H   UNL     1     165.967 174.042 159.632  1.00  0.00     0.211 HD
ENDBRANCH  20  27
BRANCH  21  29
ATOM     29  C   UNL     1     167.650 175.894 159.469  1.00  0.00     0.191 C 
BRANCH  29  30
ATOM     30  O   UNL     1     167.904 174.717 158.733  1.00  0.00    -0.394 OA
ATOM     31  H   UNL     1     167.199 174.062 159.002  1.00  0.00     0.210 HD
ENDBRANCH  29  30
ENDBRANCH  21  29
ENDBRANCH   1  17
TORSDOF 13
ENDMDL
MODEL 9
REMARK VINA RESULT:    -3.875     11.000     13.111
REMARK INTER + INTRA:          -7.338
REMARK INTER:                  -5.707
REMARK INTRA:                  -1.631
REMARK UNBOUND:                -1.424
REMARK SMILES OC[C@H]1O[C@](CO)(O[C@@H]2O[C@H](CO)[C@@H](O)[C@@H](O)[C@H]2O)[C@H](O)[C@H]1O
REMARK SMILES IDX 8 1 9 2 11 3 14 4 10 5 16 6 18 7 12 8 13 9 15 11 17 13 19 15
REMARK SMILES IDX 5 17 20 18 4 19 22 20 3 21 6 22 7 23 21 25 23 27 2 29 1 30
REMARK H PARENT 13 10 15 12 17 14 19 16 7 24 21 26 23 28 1 31
REMARK Flexibility Score: inf
ROOT
ATOM      1  O   UNL     1     162.202 165.598 164.456  1.00  0.00    -0.313 OA
ENDROOT
BRANCH   1   2
ATOM      2  C   UNL     1     161.343 165.063 165.455  1.00  0.00     0.285 C 
ATOM      3  C   UNL     1     159.887 165.400 167.237  1.00  0.00     0.178 C 
ATOM      4  C   UNL     1     160.370 164.126 167.982  1.00  0.00     0.177 C 
ATOM      5  O   UNL     1     160.920 165.987 166.446  1.00  0.00    -0.341 OA
ATOM      6  C   UNL     1     161.016 163.110 167.001  1.00  0.00     0.179 C 
ATOM      7  C   UNL     1     162.032 163.858 166.139  1.00  0.00     0.202 C 
BRANCH   3   8
ATOM      8  C   UNL     1     159.372 166.466 168.218  1.00  0.00     0.191 C 
BRANCH   8   9
ATOM      9  O   UNL     1     159.853 166.190 169.516  1.00  0.00    -0.394 OA
ATOM     10  H   UNL     1     159.919 167.062 169.990  1.00  0.00     0.210 HD
ENDBRANCH   8   9
ENDBRANCH   3   8
BRANCH   4  11
ATOM     11  O   UNL     1     159.284 163.569 168.685  1.00  0.00    -0.387 OA
ATOM     12  H   UNL     1     159.497 162.646 168.988  1.00  0.00     0.211 HD
ENDBRANCH   4  11
BRANCH   6  13
ATOM     13  O   UNL     1     160.049 162.493 166.173  1.00  0.00    -0.387 OA
ATOM     14  H   UNL     1     159.319 162.146 166.768  1.00  0.00     0.211 HD
ENDBRANCH   6  13
BRANCH   7  15
ATOM     15  O   UNL     1     162.651 162.977 165.231  1.00  0.00    -0.385 OA
ATOM     16  H   UNL     1     163.611 163.226 165.157  1.00  0.00     0.211 HD
ENDBRANCH   7  15
ENDBRANCH   1   2
BRANCH   1  17
ATOM     17  C   UNL     1     161.803 165.609 163.085  1.00  0.00     0.224 C 
ATOM     18  C   UNL     1     162.509 164.561 162.156  1.00  0.00     0.208 C 
ATOM     19  O   UNL     1     162.147 166.902 162.595  1.00  0.00    -0.337 OA
ATOM     20  C   UNL     1     162.823 165.374 160.942  1.00  0.00     0.180 C 
ATOM     21  C   UNL     1     163.154 166.697 161.615  1.00  0.00     0.179 C 
BRANCH  17  22
ATOM     22  C   UNL     1     160.260 165.498 162.979  1.00  0.00     0.225 C 
BRANCH  22  23
ATOM     23  O   UNL     1     159.732 166.558 162.244  1.00  0.00    -0.391 OA
ATOM     24  H   UNL     1     158.732 166.478 162.288  1.00  0.00     0.210 HD
ENDBRANCH  22  23
ENDBRANCH  17  22
BRANCH  18  25
ATOM     25  O   UNL     1     163.730 164.134 162.726  1.00  0.00    -0.385 OA
ATOM     26  H   UNL     1     163.608 163.185 163.021  1.00  0.00     0.211 HD
ENDBRANCH  18  25
BRANCH  20  27
ATOM     27  O   UNL     1     161.687 165.527 160.116  1.00  0.00    -0.387 OA
ATOM     28  H   UNL     1     160.951 164.984 160.501  1.00  0.00     0.211 HD
ENDBRANCH  20  27
BRANCH  21  29
ATOM     29  C   UNL     1     163.302 167.916 160.686  1.00  0.00     0.191 C 
BRANCH  29  30
ATOM     30  O   UNL     1     162.060 168.510 160.374  1.00  0.00    -0.394 OA
ATOM     31  H   UNL     1     161.921 168.366 159.395  1.00  0.00     0.210 HD
ENDBRANCH  29  30
ENDBRANCH  21  29
ENDBRANCH   1  17
TORSDOF 13
ENDMDL
