MODEL 1
REMARK VINA RESULT:    -7.109      0.000      0.000
REMARK INTER + INTRA:         -12.089
REMARK INTER:                 -11.681
REMARK INTRA:                  -0.408
REMARK UNBOUND:                -0.408
REMARK SMILES C[C@@H]1O[C@@H](OC[C@H]2O[C@@H](Oc3c(-c4ccc(O)c(O)c4)oc4cc(O)cc(O)c4c3=O)[C@H](O)[C@H](O)[C@H]2O)[C@@H](O)[C@H](O)[C@@H]1O
REMARK SMILES IDX 7 1 36 2 34 3 32 4 9 5 8 6 6 7 5 8 4 9 1 10 2 11 42 12 3 13
REMARK SMILES IDX 40 14 38 15 43 16 41 18 39 20 37 22 35 24 10 26 11 27 12 28
REMARK SMILES IDX 30 29 21 30 29 31 31 32 22 33 27 34 23 35 26 36 24 37 13 38
REMARK SMILES IDX 20 39 14 40 18 41 15 42 16 43 19 44 17 46 28 48 25 50 33 52
REMARK H PARENT 43 17 41 19 39 21 37 23 35 25 19 45 17 47 28 49 25 51 33 53
REMARK Flexibility Score: inf
ROOT
ATOM      1  C   UNL     1      -2.477   5.012  16.284  1.00  0.00     0.180 C 
ATOM      2  C   UNL     1      -2.917   3.555  16.578  1.00  0.00     0.177 C 
ATOM      3  C   UNL     1      -4.422   3.381  16.265  1.00  0.00     0.180 C 
ATOM      4  C   UNL     1      -4.777   3.980  14.881  1.00  0.00     0.214 C 
ATOM      5  C   UNL     1      -4.173   5.388  14.736  1.00  0.00     0.339 C 
ATOM      6  O   UNL     1      -2.772   5.343  14.942  1.00  0.00    -0.332 OA
ENDROOT
BRANCH   1   7
ATOM      7  C   UNL     1      -0.970   5.224  16.530  1.00  0.00     0.198 C 
BRANCH   7   8
ATOM      8  O   UNL     1      -0.769   6.245  17.492  1.00  0.00    -0.347 OA
BRANCH   8   9
ATOM      9  C   UNL     1       0.511   6.116  18.098  1.00  0.00     0.281 C 
ATOM     10  C   UNL     1      -0.405   6.990  21.558  1.00  0.00     0.041 C 
ATOM     11  C   UNL     1      -0.163   7.209  20.063  1.00  0.00     0.150 C 
ATOM     12  C   UNL     1       0.762   8.421  19.818  1.00  0.00     0.174 C 
ATOM     13  O   UNL     1       0.402   6.030  19.514  1.00  0.00    -0.344 OA
ATOM     14  C   UNL     1       0.957   8.603  18.302  1.00  0.00     0.179 C 
ATOM     15  C   UNL     1       1.429   7.279  17.674  1.00  0.00     0.202 C 
BRANCH  12  16
ATOM     16  O   UNL     1       2.002   8.203  20.450  1.00  0.00    -0.388 OA
ATOM     17  H   UNL     1       1.939   8.612  21.354  1.00  0.00     0.211 HD
ENDBRANCH  12  16
BRANCH  14  18
ATOM     18  O   UNL     1       1.900   9.618  18.068  1.00  0.00    -0.387 OA
ATOM     19  H   UNL     1       1.429  10.485  18.189  1.00  0.00     0.211 HD
ENDBRANCH  14  18
BRANCH  15  20
ATOM     20  O   UNL     1       1.428   7.390  16.272  1.00  0.00    -0.385 OA
ATOM     21  H   UNL     1       2.177   7.992  16.026  1.00  0.00     0.211 HD
ENDBRANCH  15  20
ENDBRANCH   8   9
ENDBRANCH   7   8
ENDBRANCH   1   7
BRANCH   2  22
ATOM     22  O   UNL     1      -2.145   2.623  15.859  1.00  0.00    -0.387 OA
ATOM     23  H   UNL     1      -2.092   1.784  16.384  1.00  0.00     0.211 HD
ENDBRANCH   2  22
BRANCH   3  24
ATOM     24  O   UNL     1      -5.170   4.009  17.276  1.00  0.00    -0.387 OA
ATOM     25  H   UNL     1      -5.646   3.295  17.777  1.00  0.00     0.211 HD
ENDBRANCH   3  24
BRANCH   5  26
ATOM     26  O   UNL     1      -4.432   5.875  13.422  1.00  0.00    -0.454 OA
BRANCH  26  27
ATOM     27  C   UNL     1      -5.331   6.925  13.199  1.00  0.00     0.214 A 
ATOM     28  C   UNL     1      -4.881   8.228  12.907  1.00  0.00     0.180 A 
ATOM     29  C   UNL     1      -6.704   6.691  13.315  1.00  0.00     0.239 A 
ATOM     30  O   UNL     1      -5.761   9.221  12.802  1.00  0.00    -0.452 OA
ATOM     31  C   UNL     1      -7.608   7.765  13.189  1.00  0.00     0.111 A 
ATOM     32  O   UNL     1      -7.111   5.521  13.555  1.00  0.00    -0.285 OA
ATOM     33  C   UNL     1      -7.071   9.049  12.936  1.00  0.00     0.146 A 
ATOM     34  C   UNL     1      -9.010   7.615  13.322  1.00  0.00     0.134 A 
ATOM     35  C   UNL     1      -7.918  10.158  12.832  1.00  0.00     0.094 A 
ATOM     36  C   UNL     1      -9.840   8.740  13.215  1.00  0.00     0.093 A 
ATOM     37  C   UNL     1      -9.297  10.007  12.977  1.00  0.00     0.123 A 
BRANCH  28  38
ATOM     38  C   UNL     1      -3.446   8.549  12.751  1.00  0.00     0.025 A 
ATOM     39  C   UNL     1      -2.566   8.526  13.849  1.00  0.00     0.062 A 
ATOM     40  C   UNL     1      -2.953   8.909  11.487  1.00  0.00     0.016 A 
ATOM     41  C   UNL     1      -1.227   8.910  13.696  1.00  0.00     0.158 A 
ATOM     42  C   UNL     1      -1.618   9.291  11.333  1.00  0.00     0.051 A 
ATOM     43  C   UNL     1      -0.755   9.305  12.433  1.00  0.00     0.157 A 
BRANCH  41  44
ATOM     44  O   UNL     1      -0.366   8.905  14.793  1.00  0.00    -0.504 OA
ATOM     45  H   UNL     1      -0.720   8.871  15.740  1.00  0.00     0.293 HD
ENDBRANCH  41  44
BRANCH  43  46
ATOM     46  O   UNL     1       0.568   9.711  12.252  1.00  0.00    -0.504 OA
ATOM     47  H   UNL     1       1.327   9.045  12.165  1.00  0.00     0.293 HD
ENDBRANCH  43  46
ENDBRANCH  28  38
BRANCH  34  48
ATOM     48  O   UNL     1      -9.581   6.364  13.562  1.00  0.00    -0.507 OA
ATOM     49  H   UNL     1      -9.076   5.630  14.039  1.00  0.00     0.293 HD
ENDBRANCH  34  48
BRANCH  37  50
ATOM     50  O   UNL     1     -10.125  11.125  12.882  1.00  0.00    -0.508 OA
ATOM     51  H   UNL     1      -9.768  12.027  12.590  1.00  0.00     0.293 HD
ENDBRANCH  37  50
ENDBRANCH  26  27
ENDBRANCH   5  26
BRANCH   4  52
ATOM     52  O   UNL     1      -6.170   4.052  14.715  1.00  0.00    -0.384 OA
ATOM     53  H   UNL     1      -6.410   3.387  14.017  1.00  0.00     0.211 HD
ENDBRANCH   4  52
TORSDOF 16
ENDMDL
MODEL 2
REMARK VINA RESULT:    -6.637     13.117     17.883
REMARK INTER + INTRA:         -11.313
REMARK INTER:                 -11.031
REMARK INTRA:                  -0.283
REMARK UNBOUND:                -0.408
REMARK SMILES C[C@@H]1O[C@@H](OC[C@H]2O[C@@H](Oc3c(-c4ccc(O)c(O)c4)oc4cc(O)cc(O)c4c3=O)[C@H](O)[C@H](O)[C@H]2O)[C@@H](O)[C@H](O)[C@@H]1O
REMARK SMILES IDX 7 1 36 2 34 3 32 4 9 5 8 6 6 7 5 8 4 9 1 10 2 11 42 12 3 13
REMARK SMILES IDX 40 14 38 15 43 16 41 18 39 20 37 22 35 24 10 26 11 27 12 28
REMARK SMILES IDX 30 29 21 30 29 31 31 32 22 33 27 34 23 35 26 36 24 37 13 38
REMARK SMILES IDX 20 39 14 40 18 41 15 42 16 43 19 44 17 46 28 48 25 50 33 52
REMARK H PARENT 43 17 41 19 39 21 37 23 35 25 19 45 17 47 28 49 25 51 33 53
REMARK Flexibility Score: inf
ROOT
ATOM      1  C   UNL     1      -6.561  -5.914  21.436  1.00  0.00     0.180 C 
ATOM      2  C   UNL     1      -5.642  -5.992  20.190  1.00  0.00     0.177 C 
ATOM      3  C   UNL     1      -4.198  -6.344  20.618  1.00  0.00     0.180 C 
ATOM      4  C   UNL     1      -4.184  -7.538  21.606  1.00  0.00     0.214 C 
ATOM      5  C   UNL     1      -5.228  -7.327  22.715  1.00  0.00     0.339 C 
ATOM      6  O   UNL     1      -6.512  -7.133  22.149  1.00  0.00    -0.332 OA
ENDROOT
BRANCH   1   7
ATOM      7  C   UNL     1      -8.027  -5.617  21.058  1.00  0.00     0.198 C 
BRANCH   7   8
ATOM      8  O   UNL     1      -8.084  -4.573  20.101  1.00  0.00    -0.347 OA
BRANCH   8   9
ATOM      9  C   UNL     1      -7.304  -3.462  20.525  1.00  0.00     0.281 C 
ATOM     10  C   UNL     1      -9.924  -1.572  22.296  1.00  0.00     0.041 C 
ATOM     11  C   UNL     1      -9.191  -2.193  21.105  1.00  0.00     0.150 C 
ATOM     12  C   UNL     1      -8.946  -1.147  19.994  1.00  0.00     0.174 C 
ATOM     13  O   UNL     1      -7.963  -2.738  21.558  1.00  0.00    -0.344 OA
ATOM     14  C   UNL     1      -8.222  -1.828  18.819  1.00  0.00     0.179 C 
ATOM     15  C   UNL     1      -6.963  -2.552  19.329  1.00  0.00     0.202 C 
BRANCH  12  16
ATOM     16  O   UNL     1      -8.167  -0.091  20.505  1.00  0.00    -0.388 OA
ATOM     17  H   UNL     1      -7.250  -0.209  20.141  1.00  0.00     0.211 HD
ENDBRANCH  12  16
BRANCH  14  18
ATOM     18  O   UNL     1      -7.875  -0.864  17.858  1.00  0.00    -0.387 OA
ATOM     19  H   UNL     1      -8.506  -0.104  17.970  1.00  0.00     0.211 HD
ENDBRANCH  14  18
BRANCH  15  20
ATOM     20  O   UNL     1      -6.407  -3.327  18.295  1.00  0.00    -0.385 OA
ATOM     21  H   UNL     1      -5.481  -3.558  18.570  1.00  0.00     0.211 HD
ENDBRANCH  15  20
ENDBRANCH   8   9
ENDBRANCH   7   8
ENDBRANCH   1   7
BRANCH   2  22
ATOM     22  O   UNL     1      -6.124  -6.916  19.245  1.00  0.00    -0.387 OA
ATOM     23  H   UNL     1      -5.675  -6.746  18.378  1.00  0.00     0.211 HD
ENDBRANCH   2  22
BRANCH   3  24
ATOM     24  O   UNL     1      -3.612  -5.212  21.211  1.00  0.00    -0.387 OA
ATOM     25  H   UNL     1      -3.630  -5.352  22.194  1.00  0.00     0.211 HD
ENDBRANCH   3  24
BRANCH   5  26
ATOM     26  O   UNL     1      -5.262  -8.481  23.552  1.00  0.00    -0.454 OA
BRANCH  26  27
ATOM     27  C   UNL     1      -5.850  -8.443  24.821  1.00  0.00     0.214 A 
ATOM     28  C   UNL     1      -5.069  -8.393  25.994  1.00  0.00     0.180 A 
ATOM     29  C   UNL     1      -7.243  -8.506  24.936  1.00  0.00     0.239 A 
ATOM     30  O   UNL     1      -5.660  -8.462  27.183  1.00  0.00    -0.452 OA
ATOM     31  C   UNL     1      -7.835  -8.568  26.213  1.00  0.00     0.111 A 
ATOM     32  O   UNL     1      -7.946  -8.529  23.889  1.00  0.00    -0.285 OA
ATOM     33  C   UNL     1      -6.976  -8.554  27.338  1.00  0.00     0.146 A 
ATOM     34  C   UNL     1      -9.234  -8.662  26.413  1.00  0.00     0.134 A 
ATOM     35  C   UNL     1      -7.506  -8.644  28.629  1.00  0.00     0.094 A 
ATOM     36  C   UNL     1      -9.744  -8.753  27.716  1.00  0.00     0.093 A 
ATOM     37  C   UNL     1      -8.884  -8.750  28.820  1.00  0.00     0.123 A 
BRANCH  28  38
ATOM     38  C   UNL     1      -3.593  -8.307  25.951  1.00  0.00     0.025 A 
ATOM     39  C   UNL     1      -2.888  -7.404  26.767  1.00  0.00     0.062 A 
ATOM     40  C   UNL     1      -2.881  -9.124  25.060  1.00  0.00     0.016 A 
ATOM     41  C   UNL     1      -1.495  -7.281  26.654  1.00  0.00     0.158 A 
ATOM     42  C   UNL     1      -1.493  -9.004  24.947  1.00  0.00     0.051 A 
ATOM     43  C   UNL     1      -0.798  -8.077  25.732  1.00  0.00     0.157 A 
BRANCH  41  44
ATOM     44  O   UNL     1      -0.805  -6.368  27.452  1.00  0.00    -0.504 OA
ATOM     45  H   UNL     1       0.108  -6.023  27.188  1.00  0.00     0.293 HD
ENDBRANCH  41  44
BRANCH  43  46
ATOM     46  O   UNL     1       0.585  -7.966  25.583  1.00  0.00    -0.504 OA
ATOM     47  H   UNL     1       1.227  -8.201  26.332  1.00  0.00     0.293 HD
ENDBRANCH  43  46
ENDBRANCH  28  38
BRANCH  34  48
ATOM     48  O   UNL     1     -10.116  -8.670  25.331  1.00  0.00    -0.507 OA
ATOM     49  H   UNL     1     -10.270  -9.499  24.774  1.00  0.00     0.293 HD
ENDBRANCH  34  48
BRANCH  37  50
ATOM     50  O   UNL     1      -9.394  -8.851  30.114  1.00  0.00    -0.508 OA
ATOM     51  H   UNL     1      -9.267  -8.111  30.793  1.00  0.00     0.293 HD
ENDBRANCH  37  50
ENDBRANCH  26  27
ENDBRANCH   5  26
BRANCH   4  52
ATOM     52  O   UNL     1      -2.912  -7.688  22.185  1.00  0.00    -0.384 OA
ATOM     53  H   UNL     1      -2.673  -8.649  22.106  1.00  0.00     0.211 HD
ENDBRANCH   4  52
TORSDOF 16
ENDMDL
MODEL 3
REMARK VINA RESULT:    -6.547     12.765     18.284
REMARK INTER + INTRA:         -11.165
REMARK INTER:                  -9.551
REMARK INTRA:                  -1.614
REMARK UNBOUND:                -0.408
REMARK SMILES C[C@@H]1O[C@@H](OC[C@H]2O[C@@H](Oc3c(-c4ccc(O)c(O)c4)oc4cc(O)cc(O)c4c3=O)[C@H](O)[C@H](O)[C@H]2O)[C@@H](O)[C@H](O)[C@@H]1O
REMARK SMILES IDX 7 1 36 2 34 3 32 4 9 5 8 6 6 7 5 8 4 9 1 10 2 11 42 12 3 13
REMARK SMILES IDX 40 14 38 15 43 16 41 18 39 20 37 22 35 24 10 26 11 27 12 28
REMARK SMILES IDX 30 29 21 30 29 31 31 32 22 33 27 34 23 35 26 36 24 37 13 38
REMARK SMILES IDX 20 39 14 40 18 41 15 42 16 43 19 44 17 46 28 48 25 50 33 52
REMARK H PARENT 43 17 41 19 39 21 37 23 35 25 19 45 17 47 28 49 25 51 33 53
REMARK Flexibility Score: inf
ROOT
ATOM      1  C   UNL     1      -5.606  -5.790  22.091  1.00  0.00     0.180 C 
ATOM      2  C   UNL     1      -5.465  -6.323  20.643  1.00  0.00     0.177 C 
ATOM      3  C   UNL     1      -4.125  -7.081  20.485  1.00  0.00     0.180 C 
ATOM      4  C   UNL     1      -3.908  -8.079  21.650  1.00  0.00     0.214 C 
ATOM      5  C   UNL     1      -4.190  -7.396  22.999  1.00  0.00     0.339 C 
ATOM      6  O   UNL     1      -5.500  -6.857  23.011  1.00  0.00    -0.332 OA
ENDROOT
BRANCH   1   7
ATOM      7  C   UNL     1      -6.952  -5.071  22.316  1.00  0.00     0.198 C 
BRANCH   7   8
ATOM      8  O   UNL     1      -7.419  -4.514  21.099  1.00  0.00    -0.347 OA
BRANCH   8   9
ATOM      9  C   UNL     1      -6.896  -3.205  20.914  1.00  0.00     0.281 C 
ATOM     10  C   UNL     1     -10.049  -1.305  21.064  1.00  0.00     0.041 C 
ATOM     11  C   UNL     1      -9.011  -2.276  20.498  1.00  0.00     0.150 C 
ATOM     12  C   UNL     1      -8.679  -1.943  19.026  1.00  0.00     0.174 C 
ATOM     13  O   UNL     1      -7.843  -2.215  21.300  1.00  0.00    -0.344 OA
ATOM     14  C   UNL     1      -7.645  -2.958  18.506  1.00  0.00     0.179 C 
ATOM     15  C   UNL     1      -6.436  -3.006  19.457  1.00  0.00     0.202 C 
BRANCH  12  16
ATOM     16  O   UNL     1      -8.167  -0.634  18.943  1.00  0.00    -0.388 OA
ATOM     17  H   UNL     1      -8.804  -0.112  18.387  1.00  0.00     0.211 HD
ENDBRANCH  12  16
BRANCH  14  18
ATOM     18  O   UNL     1      -7.235  -2.590  17.214  1.00  0.00    -0.387 OA
ATOM     19  H   UNL     1      -6.594  -3.285  16.904  1.00  0.00     0.211 HD
ENDBRANCH  14  18
BRANCH  15  20
ATOM     20  O   UNL     1      -5.581  -4.061  19.088  1.00  0.00    -0.385 OA
ATOM     21  H   UNL     1      -6.066  -4.608  18.417  1.00  0.00     0.211 HD
ENDBRANCH  15  20
ENDBRANCH   8   9
ENDBRANCH   7   8
ENDBRANCH   1   7
BRANCH   2  22
ATOM     22  O   UNL     1      -6.549  -7.144  20.282  1.00  0.00    -0.387 OA
ATOM     23  H   UNL     1      -6.396  -7.488  19.365  1.00  0.00     0.211 HD
ENDBRANCH   2  22
BRANCH   3  24
ATOM     24  O   UNL     1      -3.078  -6.144  20.441  1.00  0.00    -0.387 OA
ATOM     25  H   UNL     1      -3.244  -5.552  19.661  1.00  0.00     0.211 HD
ENDBRANCH   3  24
BRANCH   5  26
ATOM     26  O   UNL     1      -4.076  -8.359  24.044  1.00  0.00    -0.454 OA
BRANCH  26  27
ATOM     27  C   UNL     1      -3.446  -8.049  25.255  1.00  0.00     0.214 A 
ATOM     28  C   UNL     1      -4.183  -7.638  26.384  1.00  0.00     0.180 A 
ATOM     29  C   UNL     1      -2.050  -8.100  25.336  1.00  0.00     0.239 A 
ATOM     30  O   UNL     1      -3.542  -7.254  27.485  1.00  0.00    -0.452 OA
ATOM     31  C   UNL     1      -1.406  -7.694  26.522  1.00  0.00     0.111 A 
ATOM     32  O   UNL     1      -1.389  -8.488  24.335  1.00  0.00    -0.285 OA
ATOM     33  C   UNL     1      -2.218  -7.256  27.595  1.00  0.00     0.146 A 
ATOM     34  C   UNL     1       0.002  -7.689  26.674  1.00  0.00     0.134 A 
ATOM     35  C   UNL     1      -1.633  -6.813  28.786  1.00  0.00     0.094 A 
ATOM     36  C   UNL     1       0.568  -7.239  27.875  1.00  0.00     0.093 A 
ATOM     37  C   UNL     1      -0.245  -6.797  28.925  1.00  0.00     0.123 A 
BRANCH  28  38
ATOM     38  C   UNL     1      -5.660  -7.577  26.379  1.00  0.00     0.025 A 
ATOM     39  C   UNL     1      -6.345  -6.433  25.931  1.00  0.00     0.062 A 
ATOM     40  C   UNL     1      -6.397  -8.673  26.855  1.00  0.00     0.016 A 
ATOM     41  C   UNL     1      -7.743  -6.363  26.009  1.00  0.00     0.158 A 
ATOM     42  C   UNL     1      -7.790  -8.606  26.932  1.00  0.00     0.051 A 
ATOM     43  C   UNL     1      -8.466  -7.452  26.523  1.00  0.00     0.157 A 
BRANCH  41  44
ATOM     44  O   UNL     1      -8.414  -5.217  25.582  1.00  0.00    -0.504 OA
ATOM     45  H   UNL     1      -8.384  -4.919  24.616  1.00  0.00     0.293 HD
ENDBRANCH  41  44
BRANCH  43  46
ATOM     46  O   UNL     1      -9.858  -7.407  26.630  1.00  0.00    -0.504 OA
ATOM     47  H   UNL     1     -10.403  -8.218  26.900  1.00  0.00     0.293 HD
ENDBRANCH  43  46
ENDBRANCH  28  38
BRANCH  34  48
ATOM     48  O   UNL     1       0.838  -8.122  25.644  1.00  0.00    -0.507 OA
ATOM     49  H   UNL     1       0.975  -7.578  24.803  1.00  0.00     0.293 HD
ENDBRANCH  34  48
BRANCH  37  50
ATOM     50  O   UNL     1       0.322  -6.341  30.114  1.00  0.00    -0.508 OA
ATOM     51  H   UNL     1       1.033  -5.620  30.121  1.00  0.00     0.293 HD
ENDBRANCH  37  50
ENDBRANCH  26  27
ENDBRANCH   5  26
BRANCH   4  52
ATOM     52  O   UNL     1      -2.591  -8.570  21.643  1.00  0.00    -0.384 OA
ATOM     53  H   UNL     1      -2.655  -9.561  21.670  1.00  0.00     0.211 HD
ENDBRANCH   4  52
TORSDOF 16
ENDMDL
MODEL 4
REMARK VINA RESULT:    -6.458     12.448     17.345
REMARK INTER + INTRA:         -11.018
REMARK INTER:                 -10.815
REMARK INTRA:                  -0.202
REMARK UNBOUND:                -0.408
REMARK SMILES C[C@@H]1O[C@@H](OC[C@H]2O[C@@H](Oc3c(-c4ccc(O)c(O)c4)oc4cc(O)cc(O)c4c3=O)[C@H](O)[C@H](O)[C@H]2O)[C@@H](O)[C@H](O)[C@@H]1O
REMARK SMILES IDX 7 1 36 2 34 3 32 4 9 5 8 6 6 7 5 8 4 9 1 10 2 11 42 12 3 13
REMARK SMILES IDX 40 14 38 15 43 16 41 18 39 20 37 22 35 24 10 26 11 27 12 28
REMARK SMILES IDX 30 29 21 30 29 31 31 32 22 33 27 34 23 35 26 36 24 37 13 38
REMARK SMILES IDX 20 39 14 40 18 41 15 42 16 43 19 44 17 46 28 48 25 50 33 52
REMARK H PARENT 43 17 41 19 39 21 37 23 35 25 19 45 17 47 28 49 25 51 33 53
REMARK Flexibility Score: inf
ROOT
ATOM      1  C   UNL     1      -4.903  -5.583  20.371  1.00  0.00     0.180 C 
ATOM      2  C   UNL     1      -5.264  -7.059  20.068  1.00  0.00     0.177 C 
ATOM      3  C   UNL     1      -4.387  -8.006  20.920  1.00  0.00     0.180 C 
ATOM      4  C   UNL     1      -4.358  -7.557  22.403  1.00  0.00     0.214 C 
ATOM      5  C   UNL     1      -4.083  -6.046  22.498  1.00  0.00     0.339 C 
ATOM      6  O   UNL     1      -5.048  -5.325  21.753  1.00  0.00    -0.332 OA
ENDROOT
BRANCH   1   7
ATOM      7  C   UNL     1      -5.788  -4.595  19.585  1.00  0.00     0.198 C 
BRANCH   7   8
ATOM      8  O   UNL     1      -6.746  -4.003  20.445  1.00  0.00    -0.347 OA
BRANCH   8   9
ATOM      9  C   UNL     1      -7.977  -3.806  19.762  1.00  0.00     0.281 C 
ATOM     10  C   UNL     1      -7.032  -0.890  17.717  1.00  0.00     0.041 C 
ATOM     11  C   UNL     1      -7.357  -1.678  18.987  1.00  0.00     0.150 C 
ATOM     12  C   UNL     1      -8.427  -0.955  19.834  1.00  0.00     0.174 C 
ATOM     13  O   UNL     1      -7.802  -2.974  18.620  1.00  0.00    -0.344 OA
ATOM     14  C   UNL     1      -8.703  -1.781  21.103  1.00  0.00     0.179 C 
ATOM     15  C   UNL     1      -9.041  -3.233  20.718  1.00  0.00     0.202 C 
BRANCH  12  16
ATOM     16  O   UNL     1      -9.606  -0.807  19.079  1.00  0.00    -0.388 OA
ATOM     17  H   UNL     1     -10.183  -0.165  19.570  1.00  0.00     0.211 HD
ENDBRANCH  12  16
BRANCH  14  18
ATOM     18  O   UNL     1      -9.766  -1.205  21.818  1.00  0.00    -0.387 OA
ATOM     19  H   UNL     1     -10.057  -1.874  22.493  1.00  0.00     0.211 HD
ENDBRANCH  14  18
BRANCH  15  20
ATOM     20  O   UNL     1      -9.108  -4.030  21.875  1.00  0.00    -0.385 OA
ATOM     21  H   UNL     1      -8.387  -3.723  22.483  1.00  0.00     0.211 HD
ENDBRANCH  15  20
ENDBRANCH   8   9
ENDBRANCH   7   8
ENDBRANCH   1   7
BRANCH   2  22
ATOM     22  O   UNL     1      -6.631  -7.315  20.282  1.00  0.00    -0.387 OA
ATOM     23  H   UNL     1      -7.123  -7.136  19.440  1.00  0.00     0.211 HD
ENDBRANCH   2  22
BRANCH   3  24
ATOM     24  O   UNL     1      -3.086  -8.020  20.387  1.00  0.00    -0.387 OA
ATOM     25  H   UNL     1      -2.661  -8.873  20.670  1.00  0.00     0.211 HD
ENDBRANCH   3  24
BRANCH   5  26
ATOM     26  O   UNL     1      -4.158  -5.643  23.864  1.00  0.00    -0.454 OA
BRANCH  26  27
ATOM     27  C   UNL     1      -5.060  -6.239  24.751  1.00  0.00     0.214 A 
ATOM     28  C   UNL     1      -4.618  -6.917  25.905  1.00  0.00     0.180 A 
ATOM     29  C   UNL     1      -6.429  -6.207  24.466  1.00  0.00     0.239 A 
ATOM     30  O   UNL     1      -5.497  -7.559  26.670  1.00  0.00    -0.452 OA
ATOM     31  C   UNL     1      -7.333  -6.891  25.304  1.00  0.00     0.111 A 
ATOM     32  O   UNL     1      -6.830  -5.583  23.446  1.00  0.00    -0.285 OA
ATOM     33  C   UNL     1      -6.802  -7.581  26.419  1.00  0.00     0.146 A 
ATOM     34  C   UNL     1      -8.728  -6.930  25.068  1.00  0.00     0.134 A 
ATOM     35  C   UNL     1      -7.647  -8.303  27.268  1.00  0.00     0.094 A 
ATOM     36  C   UNL     1      -9.557  -7.660  25.930  1.00  0.00     0.093 A 
ATOM     37  C   UNL     1      -9.020  -8.349  27.023  1.00  0.00     0.123 A 
BRANCH  28  38
ATOM     38  C   UNL     1      -3.189  -6.979  26.282  1.00  0.00     0.025 A 
ATOM     39  C   UNL     1      -2.332  -7.959  25.748  1.00  0.00     0.062 A 
ATOM     40  C   UNL     1      -2.681  -6.058  27.211  1.00  0.00     0.016 A 
ATOM     41  C   UNL     1      -1.001  -8.051  26.179  1.00  0.00     0.158 A 
ATOM     42  C   UNL     1      -1.355  -6.147  27.640  1.00  0.00     0.051 A 
ATOM     43  C   UNL     1      -0.515  -7.147  27.137  1.00  0.00     0.157 A 
BRANCH  41  44
ATOM     44  O   UNL     1      -0.163  -9.038  25.661  1.00  0.00    -0.504 OA
ATOM     45  H   UNL     1      -0.475  -9.995  25.564  1.00  0.00     0.293 HD
ENDBRANCH  41  44
BRANCH  43  46
ATOM     46  O   UNL     1       0.800  -7.223  27.599  1.00  0.00    -0.504 OA
ATOM     47  H   UNL     1       1.542  -6.656  27.205  1.00  0.00     0.293 HD
ENDBRANCH  43  46
ENDBRANCH  28  38
BRANCH  34  48
ATOM     48  O   UNL     1      -9.294  -6.255  23.984  1.00  0.00    -0.507 OA
ATOM     49  H   UNL     1      -9.086  -5.284  23.792  1.00  0.00     0.293 HD
ENDBRANCH  34  48
BRANCH  37  50
ATOM     50  O   UNL     1      -9.846  -9.083  27.873  1.00  0.00    -0.508 OA
ATOM     51  H   UNL     1     -10.612  -9.641  27.517  1.00  0.00     0.293 HD
ENDBRANCH  37  50
ENDBRANCH  26  27
ENDBRANCH   5  26
BRANCH   4  52
ATOM     52  O   UNL     1      -3.368  -8.256  23.113  1.00  0.00    -0.384 OA
ATOM     53  H   UNL     1      -3.689  -9.192  23.206  1.00  0.00     0.211 HD
ENDBRANCH   4  52
TORSDOF 16
ENDMDL
MODEL 5
REMARK VINA RESULT:    -6.145      1.285      2.054
REMARK INTER + INTRA:         -10.505
REMARK INTER:                 -11.415
REMARK INTRA:                   0.910
REMARK UNBOUND:                -0.408
REMARK SMILES C[C@@H]1O[C@@H](OC[C@H]2O[C@@H](Oc3c(-c4ccc(O)c(O)c4)oc4cc(O)cc(O)c4c3=O)[C@H](O)[C@H](O)[C@H]2O)[C@@H](O)[C@H](O)[C@@H]1O
REMARK SMILES IDX 7 1 36 2 34 3 32 4 9 5 8 6 6 7 5 8 4 9 1 10 2 11 42 12 3 13
REMARK SMILES IDX 40 14 38 15 43 16 41 18 39 20 37 22 35 24 10 26 11 27 12 28
REMARK SMILES IDX 30 29 21 30 29 31 31 32 22 33 27 34 23 35 26 36 24 37 13 38
REMARK SMILES IDX 20 39 14 40 18 41 15 42 16 43 19 44 17 46 28 48 25 50 33 52
REMARK H PARENT 43 17 41 19 39 21 37 23 35 25 19 45 17 47 28 49 25 51 33 53
REMARK Flexibility Score: inf
ROOT
ATOM      1  C   UNL     1      -1.436   5.275  16.943  1.00  0.00     0.180 C 
ATOM      2  C   UNL     1      -1.429   3.726  16.996  1.00  0.00     0.177 C 
ATOM      3  C   UNL     1      -2.782   3.172  16.491  1.00  0.00     0.180 C 
ATOM      4  C   UNL     1      -3.203   3.851  15.163  1.00  0.00     0.214 C 
ATOM      5  C   UNL     1      -3.049   5.377  15.270  1.00  0.00     0.339 C 
ATOM      6  O   UNL     1      -1.720   5.712  15.630  1.00  0.00    -0.332 OA
ENDROOT
BRANCH   1   7
ATOM      7  C   UNL     1      -0.087   5.876  17.387  1.00  0.00     0.198 C 
BRANCH   7   8
ATOM      8  O   UNL     1       0.003   5.887  18.802  1.00  0.00    -0.347 OA
BRANCH   8   9
ATOM      9  C   UNL     1      -0.385   7.154  19.317  1.00  0.00     0.281 C 
ATOM     10  C   UNL     1       2.106   9.255  17.598  1.00  0.00     0.041 C 
ATOM     11  C   UNL     1       1.580   8.204  18.577  1.00  0.00     0.150 C 
ATOM     12  C   UNL     1       2.088   8.472  20.011  1.00  0.00     0.174 C 
ATOM     13  O   UNL     1       0.162   8.213  18.540  1.00  0.00    -0.344 OA
ATOM     14  C   UNL     1       1.543   7.379  20.947  1.00  0.00     0.179 C 
ATOM     15  C   UNL     1       0.013   7.281  20.801  1.00  0.00     0.202 C 
BRANCH  12  16
ATOM     16  O   UNL     1       1.654   9.743  20.435  1.00  0.00    -0.388 OA
ATOM     17  H   UNL     1       0.740   9.871  20.068  1.00  0.00     0.211 HD
ENDBRANCH  12  16
BRANCH  14  18
ATOM     18  O   UNL     1       1.887   7.682  22.275  1.00  0.00    -0.387 OA
ATOM     19  H   UNL     1       1.543   6.940  22.840  1.00  0.00     0.211 HD
ENDBRANCH  14  18
BRANCH  15  20
ATOM     20  O   UNL     1      -0.463   6.163  21.510  1.00  0.00    -0.385 OA
ATOM     21  H   UNL     1      -1.259   6.461  22.022  1.00  0.00     0.211 HD
ENDBRANCH  15  20
ENDBRANCH   8   9
ENDBRANCH   7   8
ENDBRANCH   1   7
BRANCH   2  22
ATOM     22  O   UNL     1      -0.360   3.184  16.258  1.00  0.00    -0.387 OA
ATOM     23  H   UNL     1      -0.722   2.772  15.433  1.00  0.00     0.211 HD
ENDBRANCH   2  22
BRANCH   3  24
ATOM     24  O   UNL     1      -3.757   3.387  17.481  1.00  0.00    -0.387 OA
ATOM     25  H   UNL     1      -4.619   3.043  17.126  1.00  0.00     0.211 HD
ENDBRANCH   3  24
BRANCH   5  26
ATOM     26  O   UNL     1      -3.349   5.968  14.008  1.00  0.00    -0.454 OA
BRANCH  26  27
ATOM     27  C   UNL     1      -4.492   6.754  13.825  1.00  0.00     0.214 A 
ATOM     28  C   UNL     1      -4.413   8.050  13.276  1.00  0.00     0.180 A 
ATOM     29  C   UNL     1      -5.735   6.269  14.241  1.00  0.00     0.239 A 
ATOM     30  O   UNL     1      -5.505   8.807  13.212  1.00  0.00    -0.452 OA
ATOM     31  C   UNL     1      -6.873   7.095  14.151  1.00  0.00     0.111 A 
ATOM     32  O   UNL     1      -5.813   5.101  14.714  1.00  0.00    -0.285 OA
ATOM     33  C   UNL     1      -6.700   8.397  13.624  1.00  0.00     0.146 A 
ATOM     34  C   UNL     1      -8.161   6.687  14.576  1.00  0.00     0.134 A 
ATOM     35  C   UNL     1      -7.787   9.273  13.539  1.00  0.00     0.094 A 
ATOM     36  C   UNL     1      -9.237   7.581  14.483  1.00  0.00     0.093 A 
ATOM     37  C   UNL     1      -9.051   8.871  13.972  1.00  0.00     0.123 A 
BRANCH  28  38
ATOM     38  C   UNL     1      -3.137   8.625  12.798  1.00  0.00     0.025 A 
ATOM     39  C   UNL     1      -2.049   8.820  13.668  1.00  0.00     0.062 A 
ATOM     40  C   UNL     1      -3.014   9.008  11.453  1.00  0.00     0.016 A 
ATOM     41  C   UNL     1      -0.877   9.441  13.214  1.00  0.00     0.158 A 
ATOM     42  C   UNL     1      -1.846   9.625  10.999  1.00  0.00     0.051 A 
ATOM     43  C   UNL     1      -0.781   9.854  11.876  1.00  0.00     0.157 A 
BRANCH  41  44
ATOM     44  O   UNL     1       0.190   9.651  14.089  1.00  0.00    -0.504 OA
ATOM     45  H   UNL     1       0.221   9.206  14.997  1.00  0.00     0.293 HD
ENDBRANCH  41  44
BRANCH  43  46
ATOM     46  O   UNL     1       0.366  10.490  11.398  1.00  0.00    -0.504 OA
ATOM     47  H   UNL     1       0.341  11.119  10.603  1.00  0.00     0.293 HD
ENDBRANCH  43  46
ENDBRANCH  28  38
BRANCH  34  48
ATOM     48  O   UNL     1      -8.377   5.408  15.092  1.00  0.00    -0.507 OA
ATOM     49  H   UNL     1      -8.506   4.605  14.492  1.00  0.00     0.293 HD
ENDBRANCH  34  48
BRANCH  37  50
ATOM     50  O   UNL     1     -10.121   9.760  13.891  1.00  0.00    -0.508 OA
ATOM     51  H   UNL     1     -10.033  10.656  13.426  1.00  0.00     0.293 HD
ENDBRANCH  37  50
ENDBRANCH  26  27
ENDBRANCH   5  26
BRANCH   4  52
ATOM     52  O   UNL     1      -4.536   3.538  14.847  1.00  0.00    -0.384 OA
ATOM     53  H   UNL     1      -4.776   4.080  14.050  1.00  0.00     0.211 HD
ENDBRANCH   4  52
TORSDOF 16
ENDMDL
MODEL 6
REMARK VINA RESULT:    -5.375      2.021      4.860
REMARK INTER + INTRA:          -9.239
REMARK INTER:                  -7.986
REMARK INTRA:                  -1.254
REMARK UNBOUND:                -0.408
REMARK SMILES C[C@@H]1O[C@@H](OC[C@H]2O[C@@H](Oc3c(-c4ccc(O)c(O)c4)oc4cc(O)cc(O)c4c3=O)[C@H](O)[C@H](O)[C@H]2O)[C@@H](O)[C@H](O)[C@@H]1O
REMARK SMILES IDX 7 1 36 2 34 3 32 4 9 5 8 6 6 7 5 8 4 9 1 10 2 11 42 12 3 13
REMARK SMILES IDX 40 14 38 15 43 16 41 18 39 20 37 22 35 24 10 26 11 27 12 28
REMARK SMILES IDX 30 29 21 30 29 31 31 32 22 33 27 34 23 35 26 36 24 37 13 38
REMARK SMILES IDX 20 39 14 40 18 41 15 42 16 43 19 44 17 46 28 48 25 50 33 52
REMARK H PARENT 43 17 41 19 39 21 37 23 35 25 19 45 17 47 28 49 25 51 33 53
REMARK Flexibility Score: inf
ROOT
ATOM      1  C   UNL     1      -3.162   5.477  16.469  1.00  0.00     0.180 C 
ATOM      2  C   UNL     1      -3.679   4.048  16.163  1.00  0.00     0.177 C 
ATOM      3  C   UNL     1      -5.224   4.049  16.085  1.00  0.00     0.180 C 
ATOM      4  C   UNL     1      -5.737   5.212  15.198  1.00  0.00     0.214 C 
ATOM      5  C   UNL     1      -5.039   6.527  15.583  1.00  0.00     0.339 C 
ATOM      6  O   UNL     1      -3.633   6.380  15.490  1.00  0.00    -0.332 OA
ENDROOT
BRANCH   1   7
ATOM      7  C   UNL     1      -1.621   5.541  16.505  1.00  0.00     0.198 C 
BRANCH   7   8
ATOM      8  O   UNL     1      -1.193   6.490  17.467  1.00  0.00    -0.347 OA
BRANCH   8   9
ATOM      9  C   UNL     1       0.095   6.150  17.964  1.00  0.00     0.281 C 
ATOM     10  C   UNL     1      -0.519   6.702  21.555  1.00  0.00     0.041 C 
ATOM     11  C   UNL     1      -0.336   7.069  20.081  1.00  0.00     0.150 C 
ATOM     12  C   UNL     1       0.710   8.192  19.911  1.00  0.00     0.174 C 
ATOM     13  O   UNL     1       0.055   5.908  19.366  1.00  0.00    -0.344 OA
ATOM     14  C   UNL     1       0.841   8.530  18.415  1.00  0.00     0.179 C 
ATOM     15  C   UNL     1       1.119   7.247  17.611  1.00  0.00     0.202 C 
BRANCH  12  16
ATOM     16  O   UNL     1       1.948   7.765  20.428  1.00  0.00    -0.388 OA
ATOM     17  H   UNL     1       2.456   8.585  20.668  1.00  0.00     0.211 HD
ENDBRANCH  12  16
BRANCH  14  18
ATOM     18  O   UNL     1       1.882   9.455  18.231  1.00  0.00    -0.387 OA
ATOM     19  H   UNL     1       2.094   9.834  19.125  1.00  0.00     0.211 HD
ENDBRANCH  14  18
BRANCH  15  20
ATOM     20  O   UNL     1       1.052   7.522  16.234  1.00  0.00    -0.385 OA
ATOM     21  H   UNL     1       0.110   7.386  15.955  1.00  0.00     0.211 HD
ENDBRANCH  15  20
ENDBRANCH   8   9
ENDBRANCH   7   8
ENDBRANCH   1   7
BRANCH   2  22
ATOM     22  O   UNL     1      -3.118   3.533  14.980  1.00  0.00    -0.387 OA
ATOM     23  H   UNL     1      -2.442   4.176  14.644  1.00  0.00     0.211 HD
ENDBRANCH   2  22
BRANCH   3  24
ATOM     24  O   UNL     1      -5.744   4.161  17.386  1.00  0.00    -0.387 OA
ATOM     25  H   UNL     1      -5.091   3.735  18.002  1.00  0.00     0.211 HD
ENDBRANCH   3  24
BRANCH   5  26
ATOM     26  O   UNL     1      -5.456   7.557  14.690  1.00  0.00    -0.454 OA
BRANCH  26  27
ATOM     27  C   UNL     1      -4.559   8.159  13.801  1.00  0.00     0.214 A 
ATOM     28  C   UNL     1      -4.497   7.774  12.446  1.00  0.00     0.180 A 
ATOM     29  C   UNL     1      -3.668   9.128  14.273  1.00  0.00     0.239 A 
ATOM     30  O   UNL     1      -3.562   8.295  11.656  1.00  0.00    -0.452 OA
ATOM     31  C   UNL     1      -2.696   9.665  13.405  1.00  0.00     0.111 A 
ATOM     32  O   UNL     1      -3.735   9.491  15.480  1.00  0.00    -0.285 OA
ATOM     33  C   UNL     1      -2.676   9.194  12.070  1.00  0.00     0.146 A 
ATOM     34  C   UNL     1      -1.742  10.628  13.812  1.00  0.00     0.134 A 
ATOM     35  C   UNL     1      -1.715   9.668  11.171  1.00  0.00     0.094 A 
ATOM     36  C   UNL     1      -0.786  11.088  12.896  1.00  0.00     0.093 A 
ATOM     37  C   UNL     1      -0.768  10.607  11.582  1.00  0.00     0.123 A 
BRANCH  28  38
ATOM     38  C   UNL     1      -5.416   6.769  11.872  1.00  0.00     0.025 A 
ATOM     39  C   UNL     1      -6.526   7.150  11.095  1.00  0.00     0.062 A 
ATOM     40  C   UNL     1      -5.195   5.407  12.126  1.00  0.00     0.016 A 
ATOM     41  C   UNL     1      -7.432   6.188  10.627  1.00  0.00     0.158 A 
ATOM     42  C   UNL     1      -6.096   4.447  11.659  1.00  0.00     0.051 A 
ATOM     43  C   UNL     1      -7.220   4.831  10.921  1.00  0.00     0.157 A 
BRANCH  41  44
ATOM     44  O   UNL     1      -8.541   6.575   9.876  1.00  0.00    -0.504 OA
ATOM     45  H   UNL     1      -9.457   6.662  10.295  1.00  0.00     0.293 HD
ENDBRANCH  41  44
BRANCH  43  46
ATOM     46  O   UNL     1      -8.112   3.851  10.484  1.00  0.00    -0.504 OA
ATOM     47  H   UNL     1      -9.000   4.084  10.054  1.00  0.00     0.293 HD
ENDBRANCH  43  46
ENDBRANCH  28  38
BRANCH  34  48
ATOM     48  O   UNL     1      -1.734  11.125  15.117  1.00  0.00    -0.507 OA
ATOM     49  H   UNL     1      -1.549  12.098  15.316  1.00  0.00     0.293 HD
ENDBRANCH  34  48
BRANCH  37  50
ATOM     50  O   UNL     1       0.190  11.060  10.676  1.00  0.00    -0.508 OA
ATOM     51  H   UNL     1       0.171  10.784   9.702  1.00  0.00     0.293 HD
ENDBRANCH  37  50
ENDBRANCH  26  27
ENDBRANCH   5  26
BRANCH   4  52
ATOM     52  O   UNL     1      -7.127   5.364  15.336  1.00  0.00    -0.384 OA
ATOM     53  H   UNL     1      -7.518   4.451  15.325  1.00  0.00     0.211 HD
ENDBRANCH   4  52
TORSDOF 16
ENDMDL
MODEL 7
REMARK VINA RESULT:    -4.793      1.653      9.295
REMARK INTER + INTRA:          -8.283
REMARK INTER:                  -5.680
REMARK INTRA:                  -2.603
REMARK UNBOUND:                -0.408
REMARK SMILES C[C@@H]1O[C@@H](OC[C@H]2O[C@@H](Oc3c(-c4ccc(O)c(O)c4)oc4cc(O)cc(O)c4c3=O)[C@H](O)[C@H](O)[C@H]2O)[C@@H](O)[C@H](O)[C@@H]1O
REMARK SMILES IDX 7 1 36 2 34 3 32 4 9 5 8 6 6 7 5 8 4 9 1 10 2 11 42 12 3 13
REMARK SMILES IDX 40 14 38 15 43 16 41 18 39 20 37 22 35 24 10 26 11 27 12 28
REMARK SMILES IDX 30 29 21 30 29 31 31 32 22 33 27 34 23 35 26 36 24 37 13 38
REMARK SMILES IDX 20 39 14 40 18 41 15 42 16 43 19 44 17 46 28 48 25 50 33 52
REMARK H PARENT 43 17 41 19 39 21 37 23 35 25 19 45 17 47 28 49 25 51 33 53
REMARK Flexibility Score: inf
ROOT
ATOM      1  C   UNL     1      -3.038   8.332  13.684  1.00  0.00     0.180 C 
ATOM      2  C   UNL     1      -2.776   9.669  12.944  1.00  0.00     0.177 C 
ATOM      3  C   UNL     1      -1.941  10.616  13.838  1.00  0.00     0.180 C 
ATOM      4  C   UNL     1      -0.726   9.876  14.452  1.00  0.00     0.214 C 
ATOM      5  C   UNL     1      -1.165   8.529  15.050  1.00  0.00     0.339 C 
ATOM      6  O   UNL     1      -1.811   7.743  14.063  1.00  0.00    -0.332 OA
ENDROOT
BRANCH   1   7
ATOM      7  C   UNL     1      -3.823   7.331  12.812  1.00  0.00     0.198 C 
BRANCH   7   8
ATOM      8  O   UNL     1      -5.129   7.149  13.331  1.00  0.00    -0.347 OA
BRANCH   8   9
ATOM      9  C   UNL     1      -6.055   6.909  12.279  1.00  0.00     0.281 C 
ATOM     10  C   UNL     1      -8.871   8.932  13.527  1.00  0.00     0.041 C 
ATOM     11  C   UNL     1      -7.864   7.780  13.496  1.00  0.00     0.150 C 
ATOM     12  C   UNL     1      -8.576   6.413  13.597  1.00  0.00     0.174 C 
ATOM     13  O   UNL     1      -7.110   7.864  12.297  1.00  0.00    -0.344 OA
ATOM     14  C   UNL     1      -7.517   5.296  13.577  1.00  0.00     0.179 C 
ATOM     15  C   UNL     1      -6.598   5.468  12.354  1.00  0.00     0.202 C 
BRANCH  12  16
ATOM     16  O   UNL     1      -9.467   6.265  12.517  1.00  0.00    -0.388 OA
ATOM     17  H   UNL     1      -9.473   5.300  12.281  1.00  0.00     0.211 HD
ENDBRANCH  12  16
BRANCH  14  18
ATOM     18  O   UNL     1      -8.155   4.045  13.535  1.00  0.00    -0.387 OA
ATOM     19  H   UNL     1      -9.079   4.179  13.875  1.00  0.00     0.211 HD
ENDBRANCH  14  18
BRANCH  15  20
ATOM     20  O   UNL     1      -5.522   4.567  12.435  1.00  0.00    -0.385 OA
ATOM     21  H   UNL     1      -4.702   5.104  12.591  1.00  0.00     0.211 HD
ENDBRANCH  15  20
ENDBRANCH   8   9
ENDBRANCH   7   8
ENDBRANCH   1   7
BRANCH   2  22
ATOM     22  O   UNL     1      -2.142   9.462  11.705  1.00  0.00    -0.387 OA
ATOM     23  H   UNL     1      -2.777   9.695  10.981  1.00  0.00     0.211 HD
ENDBRANCH   2  22
BRANCH   3  24
ATOM     24  O   UNL     1      -2.768  11.125  14.854  1.00  0.00    -0.387 OA
ATOM     25  H   UNL     1      -2.292  10.993  15.716  1.00  0.00     0.211 HD
ENDBRANCH   3  24
BRANCH   5  26
ATOM     26  O   UNL     1      -0.016   7.828  15.520  1.00  0.00    -0.454 OA
BRANCH  26  27
ATOM     27  C   UNL     1       0.129   7.490  16.870  1.00  0.00     0.214 A 
ATOM     28  C   UNL     1      -0.649   6.473  17.461  1.00  0.00     0.180 A 
ATOM     29  C   UNL     1       1.027   8.207  17.667  1.00  0.00     0.239 A 
ATOM     30  O   UNL     1      -0.557   6.250  18.769  1.00  0.00    -0.452 OA
ATOM     31  C   UNL     1       1.105   7.937  19.048  1.00  0.00     0.111 A 
ATOM     32  O   UNL     1       1.741   9.103  17.136  1.00  0.00    -0.285 OA
ATOM     33  C   UNL     1       0.260   6.928  19.568  1.00  0.00     0.146 A 
ATOM     34  C   UNL     1       1.968   8.636  19.926  1.00  0.00     0.134 A 
ATOM     35  C   UNL     1       0.271   6.637  20.936  1.00  0.00     0.094 A 
ATOM     36  C   UNL     1       1.962   8.330  21.293  1.00  0.00     0.093 A 
ATOM     37  C   UNL     1       1.114   7.339  21.799  1.00  0.00     0.123 A 
BRANCH  28  38
ATOM     38  C   UNL     1      -1.606   5.662  16.680  1.00  0.00     0.025 A 
ATOM     39  C   UNL     1      -2.975   5.986  16.633  1.00  0.00     0.062 A 
ATOM     40  C   UNL     1      -1.148   4.529  15.990  1.00  0.00     0.016 A 
ATOM     41  C   UNL     1      -3.879   5.158  15.953  1.00  0.00     0.158 A 
ATOM     42  C   UNL     1      -2.048   3.704  15.311  1.00  0.00     0.051 A 
ATOM     43  C   UNL     1      -3.413   4.006  15.299  1.00  0.00     0.157 A 
BRANCH  41  44
ATOM     44  O   UNL     1      -5.238   5.474  15.929  1.00  0.00    -0.504 OA
ATOM     45  H   UNL     1      -5.772   5.437  15.072  1.00  0.00     0.293 HD
ENDBRANCH  41  44
BRANCH  43  46
ATOM     46  O   UNL     1      -4.291   3.153  14.628  1.00  0.00    -0.504 OA
ATOM     47  H   UNL     1      -4.064   2.182  14.447  1.00  0.00     0.293 HD
ENDBRANCH  43  46
ENDBRANCH  28  38
BRANCH  34  48
ATOM     48  O   UNL     1       2.824   9.632  19.451  1.00  0.00    -0.507 OA
ATOM     49  H   UNL     1       2.572  10.225  18.672  1.00  0.00     0.293 HD
ENDBRANCH  34  48
BRANCH  37  50
ATOM     50  O   UNL     1       1.103   7.044  23.161  1.00  0.00    -0.508 OA
ATOM     51  H   UNL     1       0.242   7.023  23.694  1.00  0.00     0.293 HD
ENDBRANCH  37  50
ENDBRANCH  26  27
ENDBRANCH   5  26
BRANCH   4  52
ATOM     52  O   UNL     1      -0.125  10.657  15.454  1.00  0.00    -0.384 OA
ATOM     53  H   UNL     1      -0.294  11.607  15.217  1.00  0.00     0.211 HD
ENDBRANCH   4  52
TORSDOF 16
ENDMDL
MODEL 8
REMARK VINA RESULT:    -4.746      2.007      3.902
REMARK INTER + INTRA:          -8.205
REMARK INTER:                  -8.614
REMARK INTRA:                   0.409
REMARK UNBOUND:                -0.408
REMARK SMILES C[C@@H]1O[C@@H](OC[C@H]2O[C@@H](Oc3c(-c4ccc(O)c(O)c4)oc4cc(O)cc(O)c4c3=O)[C@H](O)[C@H](O)[C@H]2O)[C@@H](O)[C@H](O)[C@@H]1O
REMARK SMILES IDX 7 1 36 2 34 3 32 4 9 5 8 6 6 7 5 8 4 9 1 10 2 11 42 12 3 13
REMARK SMILES IDX 40 14 38 15 43 16 41 18 39 20 37 22 35 24 10 26 11 27 12 28
REMARK SMILES IDX 30 29 21 30 29 31 31 32 22 33 27 34 23 35 26 36 24 37 13 38
REMARK SMILES IDX 20 39 14 40 18 41 15 42 16 43 19 44 17 46 28 48 25 50 33 52
REMARK H PARENT 43 17 41 19 39 21 37 23 35 25 19 45 17 47 28 49 25 51 33 53
REMARK Flexibility Score: inf
ROOT
ATOM      1  C   UNL     1      -2.573   4.942  16.376  1.00  0.00     0.180 C 
ATOM      2  C   UNL     1      -2.551   3.755  15.380  1.00  0.00     0.177 C 
ATOM      3  C   UNL     1      -3.674   3.922  14.330  1.00  0.00     0.180 C 
ATOM      4  C   UNL     1      -3.685   5.358  13.747  1.00  0.00     0.214 C 
ATOM      5  C   UNL     1      -3.603   6.395  14.880  1.00  0.00     0.339 C 
ATOM      6  O   UNL     1      -2.453   6.163  15.675  1.00  0.00    -0.332 OA
ENDROOT
BRANCH   1   7
ATOM      7  C   UNL     1      -1.437   4.850  17.415  1.00  0.00     0.198 C 
BRANCH   7   8
ATOM      8  O   UNL     1      -0.944   6.144  17.718  1.00  0.00    -0.347 OA
BRANCH   8   9
ATOM      9  C   UNL     1       0.373   6.066  18.248  1.00  0.00     0.281 C 
ATOM     10  C   UNL     1      -0.359   7.015  21.732  1.00  0.00     0.041 C 
ATOM     11  C   UNL     1      -0.213   7.197  20.220  1.00  0.00     0.150 C 
ATOM     12  C   UNL     1       0.662   8.425  19.887  1.00  0.00     0.174 C 
ATOM     13  O   UNL     1       0.351   6.017  19.670  1.00  0.00    -0.344 OA
ATOM     14  C   UNL     1       0.762   8.568  18.358  1.00  0.00     0.179 C 
ATOM     15  C   UNL     1       1.232   7.240  17.738  1.00  0.00     0.202 C 
BRANCH  12  16
ATOM     16  O   UNL     1       1.943   8.258  20.449  1.00  0.00    -0.388 OA
ATOM     17  H   UNL     1       2.045   8.960  21.144  1.00  0.00     0.211 HD
ENDBRANCH  12  16
BRANCH  14  18
ATOM     18  O   UNL     1       1.661   9.600  18.039  1.00  0.00    -0.387 OA
ATOM     19  H   UNL     1       1.116  10.381  17.754  1.00  0.00     0.211 HD
ENDBRANCH  14  18
BRANCH  15  20
ATOM     20  O   UNL     1       1.143   7.310  16.336  1.00  0.00    -0.385 OA
ATOM     21  H   UNL     1       1.745   6.610  15.971  1.00  0.00     0.211 HD
ENDBRANCH  15  20
ENDBRANCH   8   9
ENDBRANCH   7   8
ENDBRANCH   1   7
BRANCH   2  22
ATOM     22  O   UNL     1      -1.297   3.624  14.755  1.00  0.00    -0.387 OA
ATOM     23  H   UNL     1      -0.596   3.941  15.381  1.00  0.00     0.211 HD
ENDBRANCH   2  22
BRANCH   3  24
ATOM     24  O   UNL     1      -4.908   3.631  14.937  1.00  0.00    -0.387 OA
ATOM     25  H   UNL     1      -5.574   3.513  14.210  1.00  0.00     0.211 HD
ENDBRANCH   3  24
BRANCH   5  26
ATOM     26  O   UNL     1      -3.517   7.701  14.313  1.00  0.00    -0.454 OA
BRANCH  26  27
ATOM     27  C   UNL     1      -4.641   8.337  13.776  1.00  0.00     0.214 A 
ATOM     28  C   UNL     1      -5.873   8.356  14.462  1.00  0.00     0.180 A 
ATOM     29  C   UNL     1      -4.561   8.924  12.509  1.00  0.00     0.239 A 
ATOM     30  O   UNL     1      -6.946   8.881  13.874  1.00  0.00    -0.452 OA
ATOM     31  C   UNL     1      -5.715   9.478  11.922  1.00  0.00     0.111 A 
ATOM     32  O   UNL     1      -3.454   8.927  11.902  1.00  0.00    -0.285 OA
ATOM     33  C   UNL     1      -6.921   9.420  12.661  1.00  0.00     0.146 A 
ATOM     34  C   UNL     1      -5.722  10.065  10.633  1.00  0.00     0.134 A 
ATOM     35  C   UNL     1      -8.106   9.926  12.116  1.00  0.00     0.094 A 
ATOM     36  C   UNL     1      -6.921  10.564  10.105  1.00  0.00     0.093 A 
ATOM     37  C   UNL     1      -8.109  10.491  10.840  1.00  0.00     0.123 A 
BRANCH  28  38
ATOM     38  C   UNL     1      -6.031   7.772  15.810  1.00  0.00     0.025 A 
ATOM     39  C   UNL     1      -5.892   6.390  16.032  1.00  0.00     0.062 A 
ATOM     40  C   UNL     1      -6.352   8.609  16.891  1.00  0.00     0.016 A 
ATOM     41  C   UNL     1      -6.125   5.845  17.303  1.00  0.00     0.158 A 
ATOM     42  C   UNL     1      -6.583   8.068  18.158  1.00  0.00     0.051 A 
ATOM     43  C   UNL     1      -6.483   6.688  18.367  1.00  0.00     0.157 A 
BRANCH  41  44
ATOM     44  O   UNL     1      -6.007   4.471  17.509  1.00  0.00    -0.504 OA
ATOM     45  H   UNL     1      -6.666   3.818  17.106  1.00  0.00     0.293 HD
ENDBRANCH  41  44
BRANCH  43  46
ATOM     46  O   UNL     1      -6.739   6.175  19.639  1.00  0.00    -0.504 OA
ATOM     47  H   UNL     1      -6.889   6.776  20.442  1.00  0.00     0.293 HD
ENDBRANCH  43  46
ENDBRANCH  28  38
BRANCH  34  48
ATOM     48  O   UNL     1      -4.553  10.150   9.875  1.00  0.00    -0.507 OA
ATOM     49  H   UNL     1      -4.567  10.113   8.865  1.00  0.00     0.293 HD
ENDBRANCH  34  48
BRANCH  37  50
ATOM     50  O   UNL     1      -9.301  10.980  10.308  1.00  0.00    -0.508 OA
ATOM     51  H   UNL     1      -9.314  11.760   9.661  1.00  0.00     0.293 HD
ENDBRANCH  37  50
ENDBRANCH  26  27
ENDBRANCH   5  26
BRANCH   4  52
ATOM     52  O   UNL     1      -4.851   5.579  12.996  1.00  0.00    -0.384 OA
ATOM     53  H   UNL     1      -5.451   4.805  13.164  1.00  0.00     0.211 HD
ENDBRANCH   4  52
TORSDOF 16
ENDMDL
