MODEL 1
REMARK VINA RESULT:    -6.260      0.000      0.000
REMARK INTER + INTRA:          -9.491
REMARK INTER:                  -8.456
REMARK INTRA:                  -1.035
REMARK UNBOUND:                -1.035
REMARK SMILES O=c1c(-c2ccc(O)cc2)coc2c([C@@H]3O[C@@H](CO)[C@@H](O)[C@H](O)[C@@H]3O)c(O)ccc12
REMARK SMILES IDX 3 1 11 2 12 3 13 4 30 5 2 6 1 7 29 8 28 9 26 10 14 11 4 12
REMARK SMILES IDX 5 13 6 14 7 15 10 16 9 17 8 18 15 20 24 21 16 22 22 23 17 24
REMARK SMILES IDX 20 25 25 26 23 28 18 30 19 31 21 33 27 35
REMARK H PARENT 8 19 25 27 23 29 19 32 21 34 27 36
REMARK Flexibility Score: inf
ROOT
ATOM      1  C   UNL     1       6.804  20.630  24.040  1.00  0.00     0.065 A 
ATOM      2  C   UNL     1       7.252  19.652  24.954  1.00  0.00     0.208 A 
ATOM      3  O   UNL     1       8.537  19.504  25.213  1.00  0.00    -0.463 OA
ATOM      4  C   UNL     1       9.452  20.177  24.511  1.00  0.00     0.147 A 
ATOM      5  C   UNL     1       9.064  21.072  23.498  1.00  0.00     0.066 A 
ATOM      6  C   UNL     1       7.740  21.484  23.509  1.00  0.00     0.200 A 
ATOM      7  O   UNL     1       7.441  22.710  23.297  1.00  0.00    -0.288 OA
ATOM      8  C   UNL     1       9.874  21.198  22.340  1.00  0.00     0.020 A 
ATOM      9  C   UNL     1      10.932  20.310  22.218  1.00  0.00     0.047 A 
ATOM     10  C   UNL     1      11.281  19.481  23.309  1.00  0.00     0.125 A 
ATOM     11  C   UNL     1      10.842  19.832  24.593  1.00  0.00     0.069 A 
ENDROOT
BRANCH   1  12
ATOM     12  C   UNL     1       5.605  20.385  23.219  1.00  0.00    -0.011 A 
ATOM     13  C   UNL     1       5.718  19.413  22.248  1.00  0.00     0.013 A 
ATOM     14  C   UNL     1       4.671  19.151  21.368  1.00  0.00     0.047 A 
ATOM     15  C   UNL     1       3.503  19.978  21.417  1.00  0.00     0.115 A 
ATOM     16  C   UNL     1       4.403  21.109  23.359  1.00  0.00     0.013 A 
ATOM     17  C   UNL     1       3.387  20.968  22.432  1.00  0.00     0.047 A 
BRANCH  15  18
ATOM     18  O   UNL     1       2.452  19.799  20.478  1.00  0.00    -0.508 OA
ATOM     19  H   UNL     1       2.687  19.667  19.483  1.00  0.00     0.293 HD
ENDBRANCH  15  18
ENDBRANCH   1  12
BRANCH  11  20
ATOM     20  C   UNL     1      11.840  20.826  25.271  1.00  0.00     0.188 C 
ATOM     21  C   UNL     1      11.408  21.620  26.535  1.00  0.00     0.179 C 
ATOM     22  O   UNL     1      13.192  20.344  25.261  1.00  0.00    -0.362 OA
ATOM     23  C   UNL     1      11.656  20.848  27.849  1.00  0.00     0.177 C 
ATOM     24  C   UNL     1      13.695  19.963  26.536  1.00  0.00     0.176 C 
ATOM     25  C   UNL     1      12.600  19.635  27.599  1.00  0.00     0.177 C 
BRANCH  21  26
ATOM     26  O   UNL     1      10.085  22.110  26.476  1.00  0.00    -0.387 OA
ATOM     27  H   UNL     1       9.727  21.930  27.366  1.00  0.00     0.211 HD
ENDBRANCH  21  26
BRANCH  23  28
ATOM     28  O   UNL     1      10.465  20.462  28.527  1.00  0.00    -0.387 OA
ATOM     29  H   UNL     1      10.004  19.801  27.920  1.00  0.00     0.211 HD
ENDBRANCH  23  28
BRANCH  24  30
ATOM     30  C   UNL     1      14.787  20.967  26.953  1.00  0.00     0.191 C 
BRANCH  30  31
ATOM     31  O   UNL     1      15.766  20.335  27.710  1.00  0.00    -0.394 OA
ATOM     32  H   UNL     1      15.394  20.182  28.673  1.00  0.00     0.210 HD
ENDBRANCH  30  31
ENDBRANCH  24  30
BRANCH  25  33
ATOM     33  O   UNL     1      13.153  19.171  28.807  1.00  0.00    -0.388 OA
ATOM     34  H   UNL     1      13.338  18.172  28.759  1.00  0.00     0.211 HD
ENDBRANCH  25  33
ENDBRANCH  11  20
BRANCH  10  35
ATOM     35  O   UNL     1      12.062  18.327  23.115  1.00  0.00    -0.507 OA
ATOM     36  H   UNL     1      12.953  18.169  23.611  1.00  0.00     0.293 HD
ENDBRANCH  10  35
TORSDOF 9
ENDMDL
MODEL 2
REMARK VINA RESULT:    -5.884      2.023      2.646
REMARK INTER + INTRA:          -8.983
REMARK INTER:                  -7.658
REMARK INTRA:                  -1.325
REMARK UNBOUND:                -1.035
REMARK SMILES O=c1c(-c2ccc(O)cc2)coc2c([C@@H]3O[C@@H](CO)[C@@H](O)[C@H](O)[C@@H]3O)c(O)ccc12
REMARK SMILES IDX 3 1 11 2 12 3 13 4 30 5 2 6 1 7 29 8 28 9 26 10 14 11 4 12
REMARK SMILES IDX 5 13 6 14 7 15 10 16 9 17 8 18 15 20 24 21 16 22 22 23 17 24
REMARK SMILES IDX 20 25 25 26 23 28 18 30 19 31 21 33 27 35
REMARK H PARENT 8 19 25 27 23 29 19 32 21 34 27 36
REMARK Flexibility Score: inf
ROOT
ATOM      1  C   UNL     1       7.245  20.812  24.834  1.00  0.00     0.065 A 
ATOM      2  C   UNL     1       7.023  20.594  26.211  1.00  0.00     0.208 A 
ATOM      3  O   UNL     1       8.024  20.606  27.069  1.00  0.00    -0.463 OA
ATOM      4  C   UNL     1       9.285  20.682  26.639  1.00  0.00     0.147 A 
ATOM      5  C   UNL     1       9.570  20.772  25.264  1.00  0.00     0.066 A 
ATOM      6  C   UNL     1       8.519  21.135  24.436  1.00  0.00     0.200 A 
ATOM      7  O   UNL     1       8.701  21.977  23.490  1.00  0.00    -0.288 OA
ATOM      8  C   UNL     1      10.735  20.139  24.757  1.00  0.00     0.020 A 
ATOM      9  C   UNL     1      11.446  19.339  25.640  1.00  0.00     0.047 A 
ATOM     10  C   UNL     1      11.118  19.350  27.016  1.00  0.00     0.125 A 
ATOM     11  C   UNL     1      10.383  20.428  27.527  1.00  0.00     0.069 A 
ENDROOT
BRANCH   1  12
ATOM     12  C   UNL     1       6.399  20.141  23.831  1.00  0.00    -0.011 A 
ATOM     13  C   UNL     1       6.840  18.915  23.381  1.00  0.00     0.013 A 
ATOM     14  C   UNL     1       6.158  18.228  22.380  1.00  0.00     0.047 A 
ATOM     15  C   UNL     1       5.040  18.861  21.746  1.00  0.00     0.115 A 
ATOM     16  C   UNL     1       5.219  20.705  23.305  1.00  0.00     0.013 A 
ATOM     17  C   UNL     1       4.580  20.118  22.227  1.00  0.00     0.047 A 
BRANCH  15  18
ATOM     18  O   UNL     1       4.373  18.230  20.662  1.00  0.00    -0.508 OA
ATOM     19  H   UNL     1       3.349  18.121  20.699  1.00  0.00     0.293 HD
ENDBRANCH  15  18
ENDBRANCH   1  12
BRANCH  11  20
ATOM     20  C   UNL     1      11.328  21.605  27.935  1.00  0.00     0.188 C 
ATOM     21  C   UNL     1      10.858  22.651  28.984  1.00  0.00     0.179 C 
ATOM     22  O   UNL     1      12.705  21.205  28.015  1.00  0.00    -0.362 OA
ATOM     23  C   UNL     1      11.154  22.225  30.438  1.00  0.00     0.177 C 
ATOM     24  C   UNL     1      13.233  21.163  29.335  1.00  0.00     0.176 C 
ATOM     25  C   UNL     1      12.163  21.038  30.464  1.00  0.00     0.177 C 
BRANCH  21  26
ATOM     26  O   UNL     1       9.510  23.043  28.834  1.00  0.00    -0.387 OA
ATOM     27  H   UNL     1       9.556  23.829  28.257  1.00  0.00     0.211 HD
ENDBRANCH  21  26
BRANCH  23  28
ATOM     28  O   UNL     1       9.989  21.948  31.208  1.00  0.00    -0.387 OA
ATOM     29  H   UNL     1       9.623  21.079  30.850  1.00  0.00     0.211 HD
ENDBRANCH  23  28
BRANCH  24  30
ATOM     30  C   UNL     1      14.270  22.294  29.485  1.00  0.00     0.191 C 
BRANCH  30  31
ATOM     31  O   UNL     1      14.909  22.207  30.716  1.00  0.00    -0.394 OA
ATOM     32  H   UNL     1      15.041  23.172  31.090  1.00  0.00     0.210 HD
ENDBRANCH  30  31
ENDBRANCH  24  30
BRANCH  25  33
ATOM     33  O   UNL     1      12.746  20.903  31.738  1.00  0.00    -0.388 OA
ATOM     34  H   UNL     1      13.297  20.049  31.792  1.00  0.00     0.211 HD
ENDBRANCH  25  33
ENDBRANCH  11  20
BRANCH  10  35
ATOM     35  O   UNL     1      11.529  18.304  27.861  1.00  0.00    -0.507 OA
ATOM     36  H   UNL     1      12.452  17.849  27.775  1.00  0.00     0.293 HD
ENDBRANCH  10  35
TORSDOF 9
ENDMDL
MODEL 3
REMARK VINA RESULT:    -5.834      2.903      4.740
REMARK INTER + INTRA:          -8.915
REMARK INTER:                  -8.260
REMARK INTRA:                  -0.655
REMARK UNBOUND:                -1.035
REMARK SMILES O=c1c(-c2ccc(O)cc2)coc2c([C@@H]3O[C@@H](CO)[C@@H](O)[C@H](O)[C@@H]3O)c(O)ccc12
REMARK SMILES IDX 3 1 11 2 12 3 13 4 30 5 2 6 1 7 29 8 28 9 26 10 14 11 4 12
REMARK SMILES IDX 5 13 6 14 7 15 10 16 9 17 8 18 15 20 24 21 16 22 22 23 17 24
REMARK SMILES IDX 20 25 25 26 23 28 18 30 19 31 21 33 27 35
REMARK H PARENT 8 19 25 27 23 29 19 32 21 34 27 36
REMARK Flexibility Score: inf
ROOT
ATOM      1  C   UNL     1      10.608  20.163  24.800  1.00  0.00     0.065 A 
ATOM      2  C   UNL     1      11.329  19.408  25.751  1.00  0.00     0.208 A 
ATOM      3  O   UNL     1      12.635  19.538  25.870  1.00  0.00    -0.463 OA
ATOM      4  C   UNL     1      13.326  20.279  25.000  1.00  0.00     0.147 A 
ATOM      5  C   UNL     1      12.671  20.953  23.953  1.00  0.00     0.066 A 
ATOM      6  C   UNL     1      11.298  21.105  24.077  1.00  0.00     0.200 A 
ATOM      7  O   UNL     1      10.741  22.217  23.777  1.00  0.00    -0.288 OA
ATOM      8  C   UNL     1      13.325  21.085  22.701  1.00  0.00     0.020 A 
ATOM      9  C   UNL     1      14.523  20.404  22.547  1.00  0.00     0.047 A 
ATOM     10  C   UNL     1      15.134  19.797  23.670  1.00  0.00     0.125 A 
ATOM     11  C   UNL     1      14.758  20.216  24.953  1.00  0.00     0.069 A 
ENDROOT
BRANCH   1  12
ATOM     12  C   UNL     1       9.411  19.596  24.156  1.00  0.00    -0.011 A 
ATOM     13  C   UNL     1       9.591  19.054  22.901  1.00  0.00     0.013 A 
ATOM     14  C   UNL     1       8.514  18.558  22.171  1.00  0.00     0.047 A 
ATOM     15  C   UNL     1       7.191  18.709  22.700  1.00  0.00     0.115 A 
ATOM     16  C   UNL     1       8.126  19.621  24.738  1.00  0.00     0.013 A 
ATOM     17  C   UNL     1       7.015  19.254  24.002  1.00  0.00     0.047 A 
BRANCH  15  18
ATOM     18  O   UNL     1       6.060  18.295  21.945  1.00  0.00    -0.508 OA
ATOM     19  H   UNL     1       5.216  17.977  22.443  1.00  0.00     0.293 HD
ENDBRANCH  15  18
ENDBRANCH   1  12
BRANCH  11  20
ATOM     20  C   UNL     1      15.596  21.456  25.403  1.00  0.00     0.188 C 
ATOM     21  C   UNL     1      16.474  21.379  26.683  1.00  0.00     0.179 C 
ATOM     22  O   UNL     1      16.159  22.175  24.295  1.00  0.00    -0.362 OA
ATOM     23  C   UNL     1      17.888  20.821  26.414  1.00  0.00     0.177 C 
ATOM     24  C   UNL     1      17.571  22.062  24.172  1.00  0.00     0.176 C 
ATOM     25  C   UNL     1      18.192  20.820  24.886  1.00  0.00     0.177 C 
BRANCH  21  26
ATOM     26  O   UNL     1      15.857  20.701  27.757  1.00  0.00    -0.387 OA
ATOM     27  H   UNL     1      14.941  20.558  27.451  1.00  0.00     0.211 HD
ENDBRANCH  21  26
BRANCH  23  28
ATOM     28  O   UNL     1      18.129  19.547  27.002  1.00  0.00    -0.387 OA
ATOM     29  H   UNL     1      18.573  18.992  26.287  1.00  0.00     0.211 HD
ENDBRANCH  23  28
BRANCH  24  30
ATOM     30  C   UNL     1      18.203  23.432  24.489  1.00  0.00     0.191 C 
BRANCH  30  31
ATOM     31  O   UNL     1      19.508  23.487  24.014  1.00  0.00    -0.394 OA
ATOM     32  H   UNL     1      19.720  24.470  23.739  1.00  0.00     0.210 HD
ENDBRANCH  30  31
ENDBRANCH  24  30
BRANCH  25  33
ATOM     33  O   UNL     1      19.575  20.707  24.650  1.00  0.00    -0.388 OA
ATOM     34  H   UNL     1      19.868  19.733  24.689  1.00  0.00     0.211 HD
ENDBRANCH  25  33
ENDBRANCH  11  20
BRANCH  10  35
ATOM     35  O   UNL     1      16.109  18.796  23.505  1.00  0.00    -0.507 OA
ATOM     36  H   UNL     1      17.053  18.866  23.918  1.00  0.00     0.293 HD
ENDBRANCH  10  35
TORSDOF 9
ENDMDL
MODEL 4
REMARK VINA RESULT:    -5.694      2.503      3.942
REMARK INTER + INTRA:          -8.726
REMARK INTER:                  -7.470
REMARK INTRA:                  -1.256
REMARK UNBOUND:                -1.035
REMARK SMILES O=c1c(-c2ccc(O)cc2)coc2c([C@@H]3O[C@@H](CO)[C@@H](O)[C@H](O)[C@@H]3O)c(O)ccc12
REMARK SMILES IDX 3 1 11 2 12 3 13 4 30 5 2 6 1 7 29 8 28 9 26 10 14 11 4 12
REMARK SMILES IDX 5 13 6 14 7 15 10 16 9 17 8 18 15 20 24 21 16 22 22 23 17 24
REMARK SMILES IDX 20 25 25 26 23 28 18 30 19 31 21 33 27 35
REMARK H PARENT 8 19 25 27 23 29 19 32 21 34 27 36
REMARK Flexibility Score: inf
ROOT
ATOM      1  C   UNL     1      10.445  20.259  24.687  1.00  0.00     0.065 A 
ATOM      2  C   UNL     1      11.148  19.596  25.715  1.00  0.00     0.208 A 
ATOM      3  O   UNL     1      12.450  19.752  25.856  1.00  0.00    -0.463 OA
ATOM      4  C   UNL     1      13.155  20.425  24.944  1.00  0.00     0.147 A 
ATOM      5  C   UNL     1      12.520  21.001  23.828  1.00  0.00     0.066 A 
ATOM      6  C   UNL     1      11.144  21.146  23.904  1.00  0.00     0.200 A 
ATOM      7  O   UNL     1      10.583  22.222  23.498  1.00  0.00    -0.288 OA
ATOM      8  C   UNL     1      13.206  21.035  22.586  1.00  0.00     0.020 A 
ATOM      9  C   UNL     1      14.415  20.359  22.520  1.00  0.00     0.047 A 
ATOM     10  C   UNL     1      15.002  19.856  23.704  1.00  0.00     0.125 A 
ATOM     11  C   UNL     1      14.588  20.376  24.938  1.00  0.00     0.069 A 
ENDROOT
BRANCH   1  12
ATOM     12  C   UNL     1       9.270  19.626  24.062  1.00  0.00    -0.011 A 
ATOM     13  C   UNL     1       9.481  19.011  22.846  1.00  0.00     0.013 A 
ATOM     14  C   UNL     1       8.427  18.446  22.134  1.00  0.00     0.047 A 
ATOM     15  C   UNL     1       7.093  18.599  22.634  1.00  0.00     0.115 A 
ATOM     16  C   UNL     1       7.977  19.657  24.624  1.00  0.00     0.013 A 
ATOM     17  C   UNL     1       6.885  19.219  23.897  1.00  0.00     0.047 A 
BRANCH  15  18
ATOM     18  O   UNL     1       5.984  18.113  21.891  1.00  0.00    -0.508 OA
ATOM     19  H   UNL     1       5.139  17.806  22.396  1.00  0.00     0.293 HD
ENDBRANCH  15  18
ENDBRANCH   1  12
BRANCH  11  20
ATOM     20  C   UNL     1      15.402  21.660  25.303  1.00  0.00     0.188 C 
ATOM     21  C   UNL     1      15.041  22.472  26.578  1.00  0.00     0.179 C 
ATOM     22  O   UNL     1      16.802  21.527  25.014  1.00  0.00    -0.362 OA
ATOM     23  C   UNL     1      15.749  21.952  27.847  1.00  0.00     0.177 C 
ATOM     24  C   UNL     1      17.638  21.441  26.162  1.00  0.00     0.176 C 
ATOM     25  C   UNL     1      16.911  20.987  27.467  1.00  0.00     0.177 C 
BRANCH  21  26
ATOM     26  O   UNL     1      13.653  22.611  26.792  1.00  0.00    -0.387 OA
ATOM     27  H   UNL     1      13.252  22.254  25.976  1.00  0.00     0.211 HD
ENDBRANCH  21  26
BRANCH  23  28
ATOM     28  O   UNL     1      14.869  21.371  28.804  1.00  0.00    -0.387 OA
ATOM     29  H   UNL     1      15.309  20.512  29.097  1.00  0.00     0.211 HD
ENDBRANCH  23  28
BRANCH  24  30
ATOM     30  C   UNL     1      18.484  22.727  26.252  1.00  0.00     0.191 C 
BRANCH  30  31
ATOM     31  O   UNL     1      19.552  22.546  27.122  1.00  0.00    -0.394 OA
ATOM     32  H   UNL     1      20.352  23.127  26.790  1.00  0.00     0.210 HD
ENDBRANCH  30  31
ENDBRANCH  24  30
BRANCH  25  33
ATOM     33  O   UNL     1      17.803  20.825  28.544  1.00  0.00    -0.388 OA
ATOM     34  H   UNL     1      17.625  21.521  29.265  1.00  0.00     0.211 HD
ENDBRANCH  25  33
ENDBRANCH  11  20
BRANCH  10  35
ATOM     35  O   UNL     1      15.991  18.857  23.648  1.00  0.00    -0.507 OA
ATOM     36  H   UNL     1      16.923  18.972  24.077  1.00  0.00     0.293 HD
ENDBRANCH  10  35
TORSDOF 9
ENDMDL
MODEL 5
REMARK VINA RESULT:    -5.672      1.757      8.271
REMARK INTER + INTRA:          -8.696
REMARK INTER:                  -7.405
REMARK INTRA:                  -1.291
REMARK UNBOUND:                -1.035
REMARK SMILES O=c1c(-c2ccc(O)cc2)coc2c([C@@H]3O[C@@H](CO)[C@@H](O)[C@H](O)[C@@H]3O)c(O)ccc12
REMARK SMILES IDX 3 1 11 2 12 3 13 4 30 5 2 6 1 7 29 8 28 9 26 10 14 11 4 12
REMARK SMILES IDX 5 13 6 14 7 15 10 16 9 17 8 18 15 20 24 21 16 22 22 23 17 24
REMARK SMILES IDX 20 25 25 26 23 28 18 30 19 31 21 33 27 35
REMARK H PARENT 8 19 25 27 23 29 19 32 21 34 27 36
REMARK Flexibility Score: inf
ROOT
ATOM      1  C   UNL     1      11.796  21.108  27.261  1.00  0.00     0.065 A 
ATOM      2  C   UNL     1      10.988  22.156  26.769  1.00  0.00     0.208 A 
ATOM      3  O   UNL     1      10.068  21.929  25.852  1.00  0.00    -0.463 OA
ATOM      4  C   UNL     1       9.978  20.734  25.263  1.00  0.00     0.147 A 
ATOM      5  C   UNL     1      10.846  19.688  25.625  1.00  0.00     0.066 A 
ATOM      6  C   UNL     1      11.525  19.834  26.825  1.00  0.00     0.200 A 
ATOM      7  O   UNL     1      11.643  18.844  27.627  1.00  0.00    -0.288 OA
ATOM      8  C   UNL     1      11.279  18.774  24.630  1.00  0.00     0.020 A 
ATOM      9  C   UNL     1      10.928  19.064  23.320  1.00  0.00     0.047 A 
ATOM     10  C   UNL     1      10.008  20.105  23.055  1.00  0.00     0.125 A 
ATOM     11  C   UNL     1       9.174  20.551  24.089  1.00  0.00     0.069 A 
ENDROOT
BRANCH   1  12
ATOM     12  C   UNL     1      13.186  21.374  27.673  1.00  0.00    -0.011 A 
ATOM     13  C   UNL     1      14.171  20.951  26.807  1.00  0.00     0.013 A 
ATOM     14  C   UNL     1      15.519  21.085  27.131  1.00  0.00     0.047 A 
ATOM     15  C   UNL     1      15.874  21.579  28.428  1.00  0.00     0.115 A 
ATOM     16  C   UNL     1      13.533  21.988  28.894  1.00  0.00     0.013 A 
ATOM     17  C   UNL     1      14.851  22.029  29.309  1.00  0.00     0.047 A 
BRANCH  15  18
ATOM     18  O   UNL     1      17.235  21.647  28.827  1.00  0.00    -0.508 OA
ATOM     19  H   UNL     1      17.508  22.318  29.559  1.00  0.00     0.293 HD
ENDBRANCH  15  18
ENDBRANCH   1  12
BRANCH  11  20
ATOM     20  C   UNL     1       7.878  19.682  24.175  1.00  0.00     0.188 C 
ATOM     21  C   UNL     1       6.592  20.265  24.823  1.00  0.00     0.179 C 
ATOM     22  O   UNL     1       7.682  18.865  23.010  1.00  0.00    -0.362 OA
ATOM     23  C   UNL     1       5.713  21.049  23.825  1.00  0.00     0.177 C 
ATOM     24  C   UNL     1       6.597  19.265  22.182  1.00  0.00     0.176 C 
ATOM     25  C   UNL     1       6.152  20.750  22.360  1.00  0.00     0.177 C 
BRANCH  21  26
ATOM     26  O   UNL     1       6.835  21.023  25.989  1.00  0.00    -0.387 OA
ATOM     27  H   UNL     1       5.943  21.267  26.302  1.00  0.00     0.211 HD
ENDBRANCH  21  26
BRANCH  23  28
ATOM     28  O   UNL     1       5.651  22.448  24.083  1.00  0.00    -0.387 OA
ATOM     29  H   UNL     1       4.786  22.766  23.673  1.00  0.00     0.211 HD
ENDBRANCH  23  28
BRANCH  24  30
ATOM     30  C   UNL     1       5.492  18.194  22.270  1.00  0.00     0.191 C 
BRANCH  30  31
ATOM     31  O   UNL     1       4.691  18.227  21.134  1.00  0.00    -0.394 OA
ATOM     32  H   UNL     1       4.978  19.042  20.550  1.00  0.00     0.210 HD
ENDBRANCH  30  31
ENDBRANCH  24  30
BRANCH  25  33
ATOM     33  O   UNL     1       5.143  21.116  21.449  1.00  0.00    -0.388 OA
ATOM     34  H   UNL     1       4.335  21.494  21.940  1.00  0.00     0.211 HD
ENDBRANCH  25  33
ENDBRANCH  11  20
BRANCH  10  35
ATOM     35  O   UNL     1       9.922  20.680  21.773  1.00  0.00    -0.507 OA
ATOM     36  H   UNL     1      10.487  21.497  21.492  1.00  0.00     0.293 HD
ENDBRANCH  10  35
TORSDOF 9
ENDMDL
MODEL 6
REMARK VINA RESULT:    -5.531      1.351      1.989
REMARK INTER + INTRA:          -8.506
REMARK INTER:                  -7.433
REMARK INTRA:                  -1.073
REMARK UNBOUND:                -1.035
REMARK SMILES O=c1c(-c2ccc(O)cc2)coc2c([C@@H]3O[C@@H](CO)[C@@H](O)[C@H](O)[C@@H]3O)c(O)ccc12
REMARK SMILES IDX 3 1 11 2 12 3 13 4 30 5 2 6 1 7 29 8 28 9 26 10 14 11 4 12
REMARK SMILES IDX 5 13 6 14 7 15 10 16 9 17 8 18 15 20 24 21 16 22 22 23 17 24
REMARK SMILES IDX 20 25 25 26 23 28 18 30 19 31 21 33 27 35
REMARK H PARENT 8 19 25 27 23 29 19 32 21 34 27 36
REMARK Flexibility Score: inf
ROOT
ATOM      1  C   UNL     1       7.351  20.715  24.170  1.00  0.00     0.065 A 
ATOM      2  C   UNL     1       7.964  19.809  25.063  1.00  0.00     0.208 A 
ATOM      3  O   UNL     1       9.269  19.823  25.252  1.00  0.00    -0.463 OA
ATOM      4  C   UNL     1      10.056  20.594  24.500  1.00  0.00     0.147 A 
ATOM      5  C   UNL     1       9.507  21.425  23.505  1.00  0.00     0.066 A 
ATOM      6  C   UNL     1       8.145  21.671  23.585  1.00  0.00     0.200 A 
ATOM      7  O   UNL     1       7.688  22.849  23.385  1.00  0.00    -0.288 OA
ATOM      8  C   UNL     1      10.233  21.636  22.304  1.00  0.00     0.020 A 
ATOM      9  C   UNL     1      11.385  20.883  22.129  1.00  0.00     0.047 A 
ATOM     10  C   UNL     1      11.890  20.115  23.204  1.00  0.00     0.125 A 
ATOM     11  C   UNL     1      11.480  20.423  24.508  1.00  0.00     0.069 A 
ENDROOT
BRANCH   1  12
ATOM     12  C   UNL     1       6.150  20.316  23.416  1.00  0.00    -0.011 A 
ATOM     13  C   UNL     1       4.988  20.994  23.714  1.00  0.00     0.013 A 
ATOM     14  C   UNL     1       3.779  20.648  23.114  1.00  0.00     0.047 A 
ATOM     15  C   UNL     1       3.737  19.505  22.252  1.00  0.00     0.115 A 
ATOM     16  C   UNL     1       6.138  19.277  22.462  1.00  0.00     0.013 A 
ATOM     17  C   UNL     1       4.944  18.821  21.935  1.00  0.00     0.047 A 
BRANCH  15  18
ATOM     18  O   UNL     1       2.507  19.068  21.692  1.00  0.00    -0.508 OA
ATOM     19  H   UNL     1       2.465  18.147  21.231  1.00  0.00     0.293 HD
ENDBRANCH  15  18
ENDBRANCH   1  12
BRANCH  11  20
ATOM     20  C   UNL     1      12.383  21.539  25.127  1.00  0.00     0.188 C 
ATOM     21  C   UNL     1      12.735  21.504  26.641  1.00  0.00     0.179 C 
ATOM     22  O   UNL     1      13.437  21.951  24.243  1.00  0.00    -0.362 OA
ATOM     23  C   UNL     1      13.985  20.653  26.951  1.00  0.00     0.177 C 
ATOM     24  C   UNL     1      14.741  21.554  24.652  1.00  0.00     0.176 C 
ATOM     25  C   UNL     1      14.777  20.349  25.644  1.00  0.00     0.177 C 
BRANCH  21  26
ATOM     26  O   UNL     1      11.652  21.137  27.469  1.00  0.00    -0.387 OA
ATOM     27  H   UNL     1      11.356  20.280  27.105  1.00  0.00     0.211 HD
ENDBRANCH  21  26
BRANCH  23  28
ATOM     28  O   UNL     1      13.709  19.468  27.691  1.00  0.00    -0.387 OA
ATOM     29  H   UNL     1      14.321  18.760  27.314  1.00  0.00     0.211 HD
ENDBRANCH  23  28
BRANCH  24  30
ATOM     30  C   UNL     1      15.531  22.813  25.062  1.00  0.00     0.191 C 
BRANCH  30  31
ATOM     31  O   UNL     1      16.894  22.546  25.085  1.00  0.00    -0.394 OA
ATOM     32  H   UNL     1      17.299  22.957  25.954  1.00  0.00     0.210 HD
ENDBRANCH  30  31
ENDBRANCH  24  30
BRANCH  25  33
ATOM     33  O   UNL     1      16.091  19.940  25.937  1.00  0.00    -0.388 OA
ATOM     34  H   UNL     1      16.099  18.990  26.302  1.00  0.00     0.211 HD
ENDBRANCH  25  33
ENDBRANCH  11  20
BRANCH  10  35
ATOM     35  O   UNL     1      12.796  19.063  22.973  1.00  0.00    -0.507 OA
ATOM     36  H   UNL     1      12.758  18.172  23.493  1.00  0.00     0.293 HD
ENDBRANCH  10  35
TORSDOF 9
ENDMDL
MODEL 7
REMARK VINA RESULT:    -5.521      2.069      3.718
REMARK INTER + INTRA:          -8.492
REMARK INTER:                  -7.181
REMARK INTRA:                  -1.311
REMARK UNBOUND:                -1.035
REMARK SMILES O=c1c(-c2ccc(O)cc2)coc2c([C@@H]3O[C@@H](CO)[C@@H](O)[C@H](O)[C@@H]3O)c(O)ccc12
REMARK SMILES IDX 3 1 11 2 12 3 13 4 30 5 2 6 1 7 29 8 28 9 26 10 14 11 4 12
REMARK SMILES IDX 5 13 6 14 7 15 10 16 9 17 8 18 15 20 24 21 16 22 22 23 17 24
REMARK SMILES IDX 20 25 25 26 23 28 18 30 19 31 21 33 27 35
REMARK H PARENT 8 19 25 27 23 29 19 32 21 34 27 36
REMARK Flexibility Score: inf
ROOT
ATOM      1  C   UNL     1       8.310  19.427  24.965  1.00  0.00     0.065 A 
ATOM      2  C   UNL     1       9.613  19.712  24.503  1.00  0.00     0.208 A 
ATOM      3  O   UNL     1      10.482  20.340  25.270  1.00  0.00    -0.463 OA
ATOM      4  C   UNL     1      10.107  20.848  26.446  1.00  0.00     0.147 A 
ATOM      5  C   UNL     1       8.783  20.703  26.900  1.00  0.00     0.066 A 
ATOM      6  C   UNL     1       8.014  19.736  26.271  1.00  0.00     0.200 A 
ATOM      7  O   UNL     1       7.254  18.968  26.955  1.00  0.00    -0.288 OA
ATOM      8  C   UNL     1       8.192  21.752  27.652  1.00  0.00     0.020 A 
ATOM      9  C   UNL     1       8.921  22.926  27.767  1.00  0.00     0.047 A 
ATOM     10  C   UNL     1      10.265  22.963  27.326  1.00  0.00     0.125 A 
ATOM     11  C   UNL     1      10.956  21.756  27.162  1.00  0.00     0.069 A 
ENDROOT
BRANCH   1  12
ATOM     12  C   UNL     1       7.175  19.413  24.026  1.00  0.00    -0.011 A 
ATOM     13  C   UNL     1       7.101  18.333  23.174  1.00  0.00     0.013 A 
ATOM     14  C   UNL     1       6.112  18.255  22.196  1.00  0.00     0.047 A 
ATOM     15  C   UNL     1       5.226  19.367  22.018  1.00  0.00     0.115 A 
ATOM     16  C   UNL     1       6.220  20.447  23.944  1.00  0.00     0.013 A 
ATOM     17  C   UNL     1       5.298  20.471  22.913  1.00  0.00     0.047 A 
BRANCH  15  18
ATOM     18  O   UNL     1       4.262  19.361  20.975  1.00  0.00    -0.508 OA
ATOM     19  H   UNL     1       4.584  19.341  19.996  1.00  0.00     0.293 HD
ENDBRANCH  15  18
ENDBRANCH   1  12
BRANCH  11  20
ATOM     20  C   UNL     1      11.607  21.298  28.507  1.00  0.00     0.188 C 
ATOM     21  C   UNL     1      12.513  20.036  28.543  1.00  0.00     0.179 C 
ATOM     22  O   UNL     1      12.033  22.404  29.319  1.00  0.00    -0.362 OA
ATOM     23  C   UNL     1      13.989  20.340  28.209  1.00  0.00     0.177 C 
ATOM     24  C   UNL     1      13.444  22.554  29.422  1.00  0.00     0.176 C 
ATOM     25  C   UNL     1      14.259  21.873  28.277  1.00  0.00     0.177 C 
BRANCH  21  26
ATOM     26  O   UNL     1      12.027  18.963  27.765  1.00  0.00    -0.387 OA
ATOM     27  H   UNL     1      11.123  19.240  27.519  1.00  0.00     0.211 HD
ENDBRANCH  21  26
BRANCH  23  28
ATOM     28  O   UNL     1      14.431  19.779  26.977  1.00  0.00    -0.387 OA
ATOM     29  H   UNL     1      15.194  19.163  27.213  1.00  0.00     0.211 HD
ENDBRANCH  23  28
BRANCH  24  30
ATOM     30  C   UNL     1      13.869  22.223  30.866  1.00  0.00     0.191 C 
BRANCH  30  31
ATOM     31  O   UNL     1      15.150  22.699  31.117  1.00  0.00    -0.394 OA
ATOM     32  H   UNL     1      15.771  22.411  30.330  1.00  0.00     0.210 HD
ENDBRANCH  30  31
ENDBRANCH  24  30
BRANCH  25  33
ATOM     33  O   UNL     1      15.638  22.136  28.377  1.00  0.00    -0.388 OA
ATOM     34  H   UNL     1      16.179  21.380  27.962  1.00  0.00     0.211 HD
ENDBRANCH  25  33
ENDBRANCH  11  20
BRANCH  10  35
ATOM     35  O   UNL     1      10.902  24.190  27.064  1.00  0.00    -0.507 OA
ATOM     36  H   UNL     1      11.924  24.271  26.939  1.00  0.00     0.293 HD
ENDBRANCH  10  35
TORSDOF 9
ENDMDL
MODEL 8
REMARK VINA RESULT:    -5.487      1.996      8.514
REMARK INTER + INTRA:          -8.447
REMARK INTER:                  -7.860
REMARK INTRA:                  -0.587
REMARK UNBOUND:                -1.035
REMARK SMILES O=c1c(-c2ccc(O)cc2)coc2c([C@@H]3O[C@@H](CO)[C@@H](O)[C@H](O)[C@@H]3O)c(O)ccc12
REMARK SMILES IDX 3 1 11 2 12 3 13 4 30 5 2 6 1 7 29 8 28 9 26 10 14 11 4 12
REMARK SMILES IDX 5 13 6 14 7 15 10 16 9 17 8 18 15 20 24 21 16 22 22 23 17 24
REMARK SMILES IDX 20 25 25 26 23 28 18 30 19 31 21 33 27 35
REMARK H PARENT 8 19 25 27 23 29 19 32 21 34 27 36
REMARK Flexibility Score: inf
ROOT
ATOM      1  C   UNL     1       9.232  19.620  24.610  1.00  0.00     0.065 A 
ATOM      2  C   UNL     1       8.017  19.226  25.212  1.00  0.00     0.208 A 
ATOM      3  O   UNL     1       6.878  19.800  24.879  1.00  0.00    -0.463 OA
ATOM      4  C   UNL     1       6.864  20.863  24.072  1.00  0.00     0.147 A 
ATOM      5  C   UNL     1       8.062  21.378  23.544  1.00  0.00     0.066 A 
ATOM      6  C   UNL     1       9.172  20.548  23.599  1.00  0.00     0.200 A 
ATOM      7  O   UNL     1       9.962  20.456  22.597  1.00  0.00    -0.288 OA
ATOM      8  C   UNL     1       8.189  22.779  23.357  1.00  0.00     0.020 A 
ATOM      9  C   UNL     1       7.162  23.571  23.851  1.00  0.00     0.047 A 
ATOM     10  C   UNL     1       5.972  22.965  24.317  1.00  0.00     0.125 A 
ATOM     11  C   UNL     1       5.678  21.654  23.916  1.00  0.00     0.069 A 
ENDROOT
BRANCH   1  12
ATOM     12  C   UNL     1      10.490  19.573  25.376  1.00  0.00    -0.011 A 
ATOM     13  C   UNL     1      10.425  18.986  26.622  1.00  0.00     0.013 A 
ATOM     14  C   UNL     1      11.537  18.954  27.460  1.00  0.00     0.047 A 
ATOM     15  C   UNL     1      12.731  19.632  27.052  1.00  0.00     0.115 A 
ATOM     16  C   UNL     1      11.704  20.120  24.914  1.00  0.00     0.013 A 
ATOM     17  C   UNL     1      12.796  20.220  25.757  1.00  0.00     0.047 A 
BRANCH  15  18
ATOM     18  O   UNL     1      13.856  19.696  27.916  1.00  0.00    -0.508 OA
ATOM     19  H   UNL     1      14.797  19.800  27.507  1.00  0.00     0.293 HD
ENDBRANCH  15  18
ENDBRANCH   1  12
BRANCH  11  20
ATOM     20  C   UNL     1       4.924  21.645  22.547  1.00  0.00     0.188 C 
ATOM     21  C   UNL     1       4.694  20.305  21.795  1.00  0.00     0.179 C 
ATOM     22  O   UNL     1       3.839  22.586  22.507  1.00  0.00    -0.362 OA
ATOM     23  C   UNL     1       3.406  19.577  22.237  1.00  0.00     0.177 C 
ATOM     24  C   UNL     1       2.545  21.997  22.503  1.00  0.00     0.176 C 
ATOM     25  C   UNL     1       2.489  20.537  23.053  1.00  0.00     0.177 C 
BRANCH  21  26
ATOM     26  O   UNL     1       5.805  19.435  21.826  1.00  0.00    -0.387 OA
ATOM     27  H   UNL     1       6.183  19.503  20.929  1.00  0.00     0.211 HD
ENDBRANCH  21  26
BRANCH  23  28
ATOM     28  O   UNL     1       3.641  18.354  22.929  1.00  0.00    -0.387 OA
ATOM     29  H   UNL     1       4.641  18.221  22.920  1.00  0.00     0.211 HD
ENDBRANCH  23  28
BRANCH  24  30
ATOM     30  C   UNL     1       1.898  22.243  21.126  1.00  0.00     0.191 C 
BRANCH  30  31
ATOM     31  O   UNL     1       2.519  23.305  20.480  1.00  0.00    -0.394 OA
ATOM     32  H   UNL     1       3.449  22.985  20.133  1.00  0.00     0.210 HD
ENDBRANCH  30  31
ENDBRANCH  24  30
BRANCH  25  33
ATOM     33  O   UNL     1       1.173  20.041  23.115  1.00  0.00    -0.388 OA
ATOM     34  H   UNL     1       1.098  19.157  22.618  1.00  0.00     0.211 HD
ENDBRANCH  25  33
ENDBRANCH  11  20
BRANCH  10  35
ATOM     35  O   UNL     1       5.091  23.665  25.162  1.00  0.00    -0.507 OA
ATOM     36  H   UNL     1       5.406  24.137  26.025  1.00  0.00     0.293 HD
ENDBRANCH  10  35
TORSDOF 9
ENDMDL
MODEL 9
REMARK VINA RESULT:    -5.442      1.627      3.234
REMARK INTER + INTRA:          -8.385
REMARK INTER:                  -7.291
REMARK INTRA:                  -1.094
REMARK UNBOUND:                -1.035
REMARK SMILES O=c1c(-c2ccc(O)cc2)coc2c([C@@H]3O[C@@H](CO)[C@@H](O)[C@H](O)[C@@H]3O)c(O)ccc12
REMARK SMILES IDX 3 1 11 2 12 3 13 4 30 5 2 6 1 7 29 8 28 9 26 10 14 11 4 12
REMARK SMILES IDX 5 13 6 14 7 15 10 16 9 17 8 18 15 20 24 21 16 22 22 23 17 24
REMARK SMILES IDX 20 25 25 26 23 28 18 30 19 31 21 33 27 35
REMARK H PARENT 8 19 25 27 23 29 19 32 21 34 27 36
REMARK Flexibility Score: inf
ROOT
ATOM      1  C   UNL     1       6.614  20.355  22.869  1.00  0.00     0.065 A 
ATOM      2  C   UNL     1       7.307  21.578  23.002  1.00  0.00     0.208 A 
ATOM      3  O   UNL     1       8.300  21.705  23.859  1.00  0.00    -0.463 OA
ATOM      4  C   UNL     1       8.581  20.726  24.722  1.00  0.00     0.147 A 
ATOM      5  C   UNL     1       7.837  19.532  24.719  1.00  0.00     0.066 A 
ATOM      6  C   UNL     1       7.074  19.280  23.589  1.00  0.00     0.200 A 
ATOM      7  O   UNL     1       7.040  18.106  23.081  1.00  0.00    -0.288 OA
ATOM      8  C   UNL     1       7.586  18.872  25.950  1.00  0.00     0.020 A 
ATOM      9  C   UNL     1       7.973  19.535  27.105  1.00  0.00     0.047 A 
ATOM     10  C   UNL     1       8.763  20.705  27.011  1.00  0.00     0.125 A 
ATOM     11  C   UNL     1       9.469  20.950  25.826  1.00  0.00     0.069 A 
ENDROOT
BRANCH   1  12
ATOM     12  C   UNL     1       5.180  20.347  22.532  1.00  0.00    -0.011 A 
ATOM     13  C   UNL     1       4.330  20.911  23.459  1.00  0.00     0.013 A 
ATOM     14  C   UNL     1       2.950  20.891  23.276  1.00  0.00     0.047 A 
ATOM     15  C   UNL     1       2.411  20.184  22.152  1.00  0.00     0.115 A 
ATOM     16  C   UNL     1       4.660  19.770  21.355  1.00  0.00     0.013 A 
ATOM     17  C   UNL     1       3.295  19.619  21.191  1.00  0.00     0.047 A 
BRANCH  15  18
ATOM     18  O   UNL     1       1.006  20.066  21.980  1.00  0.00    -0.508 OA
ATOM     19  H   UNL     1       0.605  20.196  21.039  1.00  0.00     0.293 HD
ENDBRANCH  15  18
ENDBRANCH   1  12
BRANCH  11  20
ATOM     20  C   UNL     1      10.860  20.238  25.847  1.00  0.00     0.188 C 
ATOM     21  C   UNL     1      11.906  20.540  24.737  1.00  0.00     0.179 C 
ATOM     22  O   UNL     1      11.379  20.079  27.177  1.00  0.00    -0.362 OA
ATOM     23  C   UNL     1      12.793  21.761  25.059  1.00  0.00     0.177 C 
ATOM     24  C   UNL     1      12.504  20.897  27.475  1.00  0.00     0.176 C 
ATOM     25  C   UNL     1      12.659  22.153  26.561  1.00  0.00     0.177 C 
BRANCH  21  26
ATOM     26  O   UNL     1      11.350  20.642  23.444  1.00  0.00    -0.387 OA
ATOM     27  H   UNL     1      10.402  20.451  23.578  1.00  0.00     0.211 HD
ENDBRANCH  21  26
BRANCH  23  28
ATOM     28  O   UNL     1      12.577  22.876  24.200  1.00  0.00    -0.387 OA
ATOM     29  H   UNL     1      12.037  22.525  23.423  1.00  0.00     0.211 HD
ENDBRANCH  23  28
BRANCH  24  30
ATOM     30  C   UNL     1      13.743  19.993  27.627  1.00  0.00     0.191 C 
BRANCH  30  31
ATOM     31  O   UNL     1      13.443  18.885  28.409  1.00  0.00    -0.394 OA
ATOM     32  H   UNL     1      14.273  18.661  29.000  1.00  0.00     0.210 HD
ENDBRANCH  30  31
ENDBRANCH  24  30
BRANCH  25  33
ATOM     33  O   UNL     1      13.729  22.975  26.963  1.00  0.00    -0.388 OA
ATOM     34  H   UNL     1      14.158  22.617  27.813  1.00  0.00     0.211 HD
ENDBRANCH  25  33
ENDBRANCH  11  20
BRANCH  10  35
ATOM     35  O   UNL     1       8.848  21.604  28.090  1.00  0.00    -0.507 OA
ATOM     36  H   UNL     1       9.035  22.611  27.961  1.00  0.00     0.293 HD
ENDBRANCH  10  35
TORSDOF 9
ENDMDL
