MODEL 1
REMARK VINA RESULT:    -5.386      0.000      0.000
REMARK INTER + INTRA:          -8.230
REMARK INTER:                  -7.275
REMARK INTRA:                  -0.955
REMARK UNBOUND:                -0.955
REMARK SMILES CC(=O)CCC=C(C)CCC=C(C)C
REMARK SMILES IDX 7 1 6 2 8 3 9 4 10 5 11 6 13 7 12 8 14 9 5 10 4 11 2 12 3 13
REMARK SMILES IDX 1 14
REMARK H PARENT
REMARK Flexibility Score: inf
ROOT
ATOM      1  C   UNL     1     119.633 178.538 126.113  1.00  0.00    -0.077 C 
ATOM      2  C   UNL     1     120.083 178.042 127.289  1.00  0.00    -0.028 C 
ATOM      3  C   UNL     1     119.905 179.962 125.689  1.00  0.00     0.039 C 
ENDROOT
BRANCH   1   4
ATOM      4  C   UNL     1     118.769 177.667 125.224  1.00  0.00     0.034 C 
BRANCH   4   5
ATOM      5  C   UNL     1     117.810 178.505 124.366  1.00  0.00     0.032 C 
BRANCH   5   6
ATOM      6  C   UNL     1     116.391 178.441 124.879  1.00  0.00    -0.028 C 
ATOM      7  C   UNL     1     116.280 180.893 125.375  1.00  0.00     0.039 C 
ATOM      8  C   UNL     1     115.682 179.507 125.307  1.00  0.00    -0.080 C 
ATOM      9  C   UNL     1     114.255 179.292 125.744  1.00  0.00     0.039 C 
ENDBRANCH   5   6
ENDBRANCH   4   5
ENDBRANCH   1   4
BRANCH   2  10
ATOM     10  C   UNL     1     120.954 178.801 128.258  1.00  0.00     0.035 C 
BRANCH  10  11
ATOM     11  C   UNL     1     122.379 178.232 128.269  1.00  0.00     0.079 C 
BRANCH  11  12
ATOM     12  C   UNL     1     123.252 178.798 127.174  1.00  0.00     0.130 C 
ATOM     13  O   UNL     1     123.764 179.903 127.285  1.00  0.00    -0.300 OA
ATOM     14  C   UNL     1     123.508 177.999 125.933  1.00  0.00     0.087 C 
ENDBRANCH  11  12
ENDBRANCH  10  11
ENDBRANCH   2  10
TORSDOF 6
ENDMDL
MODEL 2
REMARK VINA RESULT:    -5.356      2.676      6.162
REMARK INTER + INTRA:          -8.190
REMARK INTER:                  -7.133
REMARK INTRA:                  -1.057
REMARK UNBOUND:                -0.955
REMARK SMILES CC(=O)CCC=C(C)CCC=C(C)C
REMARK SMILES IDX 7 1 6 2 8 3 9 4 10 5 11 6 13 7 12 8 14 9 5 10 4 11 2 12 3 13
REMARK SMILES IDX 1 14
REMARK H PARENT
REMARK Flexibility Score: inf
ROOT
ATOM      1  C   UNL     1     121.278 179.073 126.804  1.00  0.00    -0.077 C 
ATOM      2  C   UNL     1     120.719 179.662 125.722  1.00  0.00    -0.028 C 
ATOM      3  C   UNL     1     120.442 178.510 127.928  1.00  0.00     0.039 C 
ENDROOT
BRANCH   1   4
ATOM      4  C   UNL     1     122.787 179.038 126.932  1.00  0.00     0.034 C 
BRANCH   4   5
ATOM      5  C   UNL     1     123.365 177.690 126.479  1.00  0.00     0.032 C 
BRANCH   5   6
ATOM      6  C   UNL     1     123.727 177.695 125.013  1.00  0.00    -0.028 C 
ATOM      7  C   UNL     1     121.778 176.270 124.352  1.00  0.00     0.039 C 
ATOM      8  C   UNL     1     123.009 177.088 124.044  1.00  0.00    -0.080 C 
ATOM      9  C   UNL     1     123.472 177.224 122.616  1.00  0.00     0.039 C 
ENDBRANCH   5   6
ENDBRANCH   4   5
ENDBRANCH   1   4
BRANCH   2  10
ATOM     10  C   UNL     1     119.235 179.756 125.472  1.00  0.00     0.035 C 
BRANCH  10  11
ATOM     11  C   UNL     1     118.721 178.494 124.765  1.00  0.00     0.079 C 
BRANCH  11  12
ATOM     12  C   UNL     1     117.235 178.284 124.936  1.00  0.00     0.130 C 
ATOM     13  O   UNL     1     116.452 178.568 124.040  1.00  0.00    -0.300 OA
ATOM     14  C   UNL     1     116.702 177.711 126.212  1.00  0.00     0.087 C 
ENDBRANCH  11  12
ENDBRANCH  10  11
ENDBRANCH   2  10
TORSDOF 6
ENDMDL
MODEL 3
REMARK VINA RESULT:    -5.352      3.210      6.071
REMARK INTER + INTRA:          -8.185
REMARK INTER:                  -7.042
REMARK INTRA:                  -1.143
REMARK UNBOUND:                -0.955
REMARK SMILES CC(=O)CCC=C(C)CCC=C(C)C
REMARK SMILES IDX 7 1 6 2 8 3 9 4 10 5 11 6 13 7 12 8 14 9 5 10 4 11 2 12 3 13
REMARK SMILES IDX 1 14
REMARK H PARENT
REMARK Flexibility Score: inf
ROOT
ATOM      1  C   UNL     1     119.588 178.815 124.746  1.00  0.00    -0.077 C 
ATOM      2  C   UNL     1     118.489 178.027 124.795  1.00  0.00    -0.028 C 
ATOM      3  C   UNL     1     119.808 179.941 125.728  1.00  0.00     0.039 C 
ENDROOT
BRANCH   1   4
ATOM      4  C   UNL     1     120.596 178.612 123.634  1.00  0.00     0.034 C 
BRANCH   4   5
ATOM      5  C   UNL     1     121.849 177.877 124.129  1.00  0.00     0.032 C 
BRANCH   5   6
ATOM      6  C   UNL     1     121.654 176.380 124.152  1.00  0.00    -0.028 C 
ATOM      7  C   UNL     1     121.499 176.266 126.648  1.00  0.00     0.039 C 
ATOM      8  C   UNL     1     121.466 175.648 125.271  1.00  0.00    -0.080 C 
ATOM      9  C   UNL     1     121.235 174.165 125.128  1.00  0.00     0.039 C 
ENDBRANCH   5   6
ENDBRANCH   4   5
ENDBRANCH   1   4
BRANCH   2  10
ATOM     10  C   UNL     1     117.417 178.122 125.852  1.00  0.00     0.035 C 
BRANCH  10  11
ATOM     11  C   UNL     1     116.040 178.347 125.211  1.00  0.00     0.079 C 
BRANCH  11  12
ATOM     12  C   UNL     1     115.881 179.728 124.620  1.00  0.00     0.130 C 
ATOM     13  O   UNL     1     115.477 179.881 123.476  1.00  0.00    -0.300 OA
ATOM     14  C   UNL     1     116.211 180.936 125.442  1.00  0.00     0.087 C 
ENDBRANCH  11  12
ENDBRANCH  10  11
ENDBRANCH   2  10
TORSDOF 6
ENDMDL
MODEL 4
REMARK VINA RESULT:    -5.261      2.767      6.332
REMARK INTER + INTRA:          -8.061
REMARK INTER:                  -7.192
REMARK INTRA:                  -0.870
REMARK UNBOUND:                -0.955
REMARK SMILES CC(=O)CCC=C(C)CCC=C(C)C
REMARK SMILES IDX 7 1 6 2 8 3 9 4 10 5 11 6 13 7 12 8 14 9 5 10 4 11 2 12 3 13
REMARK SMILES IDX 1 14
REMARK H PARENT
REMARK Flexibility Score: inf
ROOT
ATOM      1  C   UNL     1     120.294 177.748 124.316  1.00  0.00    -0.077 C 
ATOM      2  C   UNL     1     119.098 177.638 124.939  1.00  0.00    -0.028 C 
ATOM      3  C   UNL     1     120.660 178.963 123.498  1.00  0.00     0.039 C 
ENDROOT
BRANCH   1   4
ATOM      4  C   UNL     1     121.271 176.592 124.379  1.00  0.00     0.034 C 
BRANCH   4   5
ATOM      5  C   UNL     1     121.875 176.433 125.781  1.00  0.00     0.032 C 
BRANCH   5   6
ATOM      6  C   UNL     1     122.785 177.584 126.138  1.00  0.00    -0.028 C 
ATOM      7  C   UNL     1     121.220 178.512 127.857  1.00  0.00     0.039 C 
ATOM      8  C   UNL     1     122.519 178.506 127.087  1.00  0.00    -0.080 C 
ATOM      9  C   UNL     1     123.550 179.570 127.364  1.00  0.00     0.039 C 
ENDBRANCH   5   6
ENDBRANCH   4   5
ENDBRANCH   1   4
BRANCH   2  10
ATOM     10  C   UNL     1     118.043 178.716 124.958  1.00  0.00     0.035 C 
BRANCH  10  11
ATOM     11  C   UNL     1     116.647 178.107 125.152  1.00  0.00     0.079 C 
BRANCH  11  12
ATOM     12  C   UNL     1     115.533 179.031 124.719  1.00  0.00     0.130 C 
ATOM     13  O   UNL     1     115.572 179.598 123.636  1.00  0.00    -0.300 OA
ATOM     14  C   UNL     1     114.355 179.256 125.616  1.00  0.00     0.087 C 
ENDBRANCH  11  12
ENDBRANCH  10  11
ENDBRANCH   2  10
TORSDOF 6
ENDMDL
MODEL 5
REMARK VINA RESULT:    -5.234      2.516      6.231
REMARK INTER + INTRA:          -8.025
REMARK INTER:                  -7.004
REMARK INTRA:                  -1.021
REMARK UNBOUND:                -0.955
REMARK SMILES CC(=O)CCC=C(C)CCC=C(C)C
REMARK SMILES IDX 7 1 6 2 8 3 9 4 10 5 11 6 13 7 12 8 14 9 5 10 4 11 2 12 3 13
REMARK SMILES IDX 1 14
REMARK H PARENT
REMARK Flexibility Score: inf
ROOT
ATOM      1  C   UNL     1     119.987 178.814 126.290  1.00  0.00    -0.077 C 
ATOM      2  C   UNL     1     119.057 177.834 126.231  1.00  0.00    -0.028 C 
ATOM      3  C   UNL     1     119.951 180.006 125.364  1.00  0.00     0.039 C 
ENDROOT
BRANCH   1   4
ATOM      4  C   UNL     1     121.141 178.683 127.262  1.00  0.00     0.034 C 
BRANCH   4   5
ATOM      5  C   UNL     1     122.023 177.469 126.939  1.00  0.00     0.032 C 
BRANCH   5   6
ATOM      6  C   UNL     1     122.787 177.653 125.650  1.00  0.00    -0.028 C 
ATOM      7  C   UNL     1     121.561 175.822 124.462  1.00  0.00     0.039 C 
ATOM      8  C   UNL     1     122.571 176.943 124.522  1.00  0.00    -0.080 C 
ATOM      9  C   UNL     1     123.383 177.277 123.297  1.00  0.00     0.039 C 
ENDBRANCH   5   6
ENDBRANCH   4   5
ENDBRANCH   1   4
BRANCH   2  10
ATOM     10  C   UNL     1     117.859 177.847 125.315  1.00  0.00     0.035 C 
BRANCH  10  11
ATOM     11  C   UNL     1     116.564 178.050 126.115  1.00  0.00     0.079 C 
BRANCH  11  12
ATOM     12  C   UNL     1     115.803 179.288 125.705  1.00  0.00     0.130 C 
ATOM     13  O   UNL     1     116.392 180.301 125.354  1.00  0.00    -0.300 OA
ATOM     14  C   UNL     1     114.305 179.284 125.716  1.00  0.00     0.087 C 
ENDBRANCH  11  12
ENDBRANCH  10  11
ENDBRANCH   2  10
TORSDOF 6
ENDMDL
MODEL 6
REMARK VINA RESULT:    -5.212      2.807      6.562
REMARK INTER + INTRA:          -7.995
REMARK INTER:                  -7.178
REMARK INTRA:                  -0.817
REMARK UNBOUND:                -0.955
REMARK SMILES CC(=O)CCC=C(C)CCC=C(C)C
REMARK SMILES IDX 7 1 6 2 8 3 9 4 10 5 11 6 13 7 12 8 14 9 5 10 4 11 2 12 3 13
REMARK SMILES IDX 1 14
REMARK H PARENT
REMARK Flexibility Score: inf
ROOT
ATOM      1  C   UNL     1     120.012 178.620 124.805  1.00  0.00    -0.077 C 
ATOM      2  C   UNL     1     119.089 177.676 125.100  1.00  0.00    -0.028 C 
ATOM      3  C   UNL     1     119.992 179.986 125.449  1.00  0.00     0.039 C 
ENDROOT
BRANCH   1   4
ATOM      4  C   UNL     1     121.057 178.330 123.748  1.00  0.00     0.034 C 
BRANCH   4   5
ATOM      5  C   UNL     1     121.735 176.971 123.974  1.00  0.00     0.032 C 
BRANCH   5   6
ATOM      6  C   UNL     1     123.224 177.034 123.730  1.00  0.00    -0.028 C 
ATOM      7  C   UNL     1     123.727 177.984 125.992  1.00  0.00     0.039 C 
ATOM      8  C   UNL     1     124.132 177.457 124.635  1.00  0.00    -0.080 C 
ATOM      9  C   UNL     1     125.592 177.415 124.261  1.00  0.00     0.039 C 
ENDBRANCH   5   6
ENDBRANCH   4   5
ENDBRANCH   1   4
BRANCH   2  10
ATOM     10  C   UNL     1     118.004 177.837 126.134  1.00  0.00     0.035 C 
BRANCH  10  11
ATOM     11  C   UNL     1     116.616 177.738 125.486  1.00  0.00     0.079 C 
BRANCH  11  12
ATOM     12  C   UNL     1     116.310 178.895 124.564  1.00  0.00     0.130 C 
ATOM     13  O   UNL     1     116.223 178.730 123.356  1.00  0.00    -0.300 OA
ATOM     14  C   UNL     1     116.098 180.266 125.128  1.00  0.00     0.087 C 
ENDBRANCH  11  12
ENDBRANCH  10  11
ENDBRANCH   2  10
TORSDOF 6
ENDMDL
MODEL 7
REMARK VINA RESULT:    -5.177      3.236      5.027
REMARK INTER + INTRA:          -7.948
REMARK INTER:                  -6.918
REMARK INTRA:                  -1.030
REMARK UNBOUND:                -0.955
REMARK SMILES CC(=O)CCC=C(C)CCC=C(C)C
REMARK SMILES IDX 7 1 6 2 8 3 9 4 10 5 11 6 13 7 12 8 14 9 5 10 4 11 2 12 3 13
REMARK SMILES IDX 1 14
REMARK H PARENT
REMARK Flexibility Score: inf
ROOT
ATOM      1  C   UNL     1     121.497 177.148 124.083  1.00  0.00    -0.077 C 
ATOM      2  C   UNL     1     122.587 177.707 123.509  1.00  0.00    -0.028 C 
ATOM      3  C   UNL     1     121.483 175.707 124.535  1.00  0.00     0.039 C 
ENDROOT
BRANCH   1   4
ATOM      4  C   UNL     1     120.228 177.964 124.215  1.00  0.00     0.034 C 
BRANCH   4   5
ATOM      5  C   UNL     1     120.444 179.219 125.072  1.00  0.00     0.032 C 
BRANCH   5   6
ATOM      6  C   UNL     1     120.323 178.923 126.548  1.00  0.00    -0.028 C 
ATOM      7  C   UNL     1     122.785 179.106 126.962  1.00  0.00     0.039 C 
ATOM      8  C   UNL     1     121.359 178.898 127.413  1.00  0.00    -0.080 C 
ATOM      9  C   UNL     1     121.071 178.636 128.870  1.00  0.00     0.039 C 
ENDBRANCH   5   6
ENDBRANCH   4   5
ENDBRANCH   1   4
BRANCH   2  10
ATOM     10  C   UNL     1     123.910 177.007 123.325  1.00  0.00     0.035 C 
BRANCH  10  11
ATOM     11  C   UNL     1     124.871 177.351 124.472  1.00  0.00     0.079 C 
BRANCH  11  12
ATOM     12  C   UNL     1     126.325 177.224 124.083  1.00  0.00     0.130 C 
ATOM     13  O   UNL     1     126.984 176.251 124.422  1.00  0.00    -0.300 OA
ATOM     14  C   UNL     1     126.977 178.294 123.262  1.00  0.00     0.087 C 
ENDBRANCH  11  12
ENDBRANCH  10  11
ENDBRANCH   2  10
TORSDOF 6
ENDMDL
MODEL 8
REMARK VINA RESULT:    -5.119      2.613      6.051
REMARK INTER + INTRA:          -7.870
REMARK INTER:                  -6.965
REMARK INTRA:                  -0.905
REMARK UNBOUND:                -0.955
REMARK SMILES CC(=O)CCC=C(C)CCC=C(C)C
REMARK SMILES IDX 7 1 6 2 8 3 9 4 10 5 11 6 13 7 12 8 14 9 5 10 4 11 2 12 3 13
REMARK SMILES IDX 1 14
REMARK H PARENT
REMARK Flexibility Score: inf
ROOT
ATOM      1  C   UNL     1     118.843 176.386 126.494  1.00  0.00    -0.077 C 
ATOM      2  C   UNL     1     117.918 177.100 125.811  1.00  0.00    -0.028 C 
ATOM      3  C   UNL     1     118.792 176.240 127.996  1.00  0.00     0.039 C 
ENDROOT
BRANCH   1   4
ATOM      4  C   UNL     1     120.007 175.773 125.743  1.00  0.00     0.034 C 
BRANCH   4   5
ATOM      5  C   UNL     1     120.791 176.827 124.949  1.00  0.00     0.032 C 
BRANCH   5   6
ATOM      6  C   UNL     1     121.895 177.448 125.771  1.00  0.00    -0.028 C 
ATOM      7  C   UNL     1     120.659 179.597 126.121  1.00  0.00     0.039 C 
ATOM      8  C   UNL     1     121.839 178.677 126.328  1.00  0.00    -0.080 C 
ATOM      9  C   UNL     1     123.003 179.139 127.166  1.00  0.00     0.039 C 
ENDBRANCH   5   6
ENDBRANCH   4   5
ENDBRANCH   1   4
BRANCH   2  10
ATOM     10  C   UNL     1     116.711 177.753 126.438  1.00  0.00     0.035 C 
BRANCH  10  11
ATOM     11  C   UNL     1     115.870 178.474 125.375  1.00  0.00     0.079 C 
BRANCH  11  12
ATOM     12  C   UNL     1     115.473 179.873 125.785  1.00  0.00     0.130 C 
ATOM     13  O   UNL     1     116.103 180.846 125.394  1.00  0.00    -0.300 OA
ATOM     14  C   UNL     1     114.286 180.084 126.674  1.00  0.00     0.087 C 
ENDBRANCH  11  12
ENDBRANCH  10  11
ENDBRANCH   2  10
TORSDOF 6
ENDMDL
MODEL 9
REMARK VINA RESULT:    -5.111      3.679      5.907
REMARK INTER + INTRA:          -7.859
REMARK INTER:                  -6.340
REMARK INTRA:                  -1.519
REMARK UNBOUND:                -0.955
REMARK SMILES CC(=O)CCC=C(C)CCC=C(C)C
REMARK SMILES IDX 7 1 6 2 8 3 9 4 10 5 11 6 13 7 12 8 14 9 5 10 4 11 2 12 3 13
REMARK SMILES IDX 1 14
REMARK H PARENT
REMARK Flexibility Score: inf
ROOT
ATOM      1  C   UNL     1     121.406 177.335 128.424  1.00  0.00    -0.077 C 
ATOM      2  C   UNL     1     120.181 177.620 127.926  1.00  0.00    -0.028 C 
ATOM      3  C   UNL     1     121.773 175.951 128.902  1.00  0.00     0.039 C 
ENDROOT
BRANCH   1   4
ATOM      4  C   UNL     1     122.421 178.449 128.574  1.00  0.00     0.034 C 
BRANCH   4   5
ATOM      5  C   UNL     1     122.760 179.097 127.225  1.00  0.00     0.032 C 
BRANCH   5   6
ATOM      6  C   UNL     1     123.497 178.147 126.311  1.00  0.00    -0.028 C 
ATOM      7  C   UNL     1     121.695 178.151 124.572  1.00  0.00     0.039 C 
ATOM      8  C   UNL     1     123.046 177.738 125.106  1.00  0.00    -0.080 C 
ATOM      9  C   UNL     1     123.920 176.824 124.285  1.00  0.00     0.039 C 
ENDBRANCH   5   6
ENDBRANCH   4   5
ENDBRANCH   1   4
BRANCH   2  10
ATOM     10  C   UNL     1     119.086 176.603 127.719  1.00  0.00     0.035 C 
BRANCH  10  11
ATOM     11  C   UNL     1     118.975 176.217 126.238  1.00  0.00     0.079 C 
BRANCH  11  12
ATOM     12  C   UNL     1     119.499 174.830 125.947  1.00  0.00     0.130 C 
ATOM     13  O   UNL     1     118.790 173.846 126.095  1.00  0.00    -0.300 OA
ATOM     14  C   UNL     1     120.904 174.648 125.460  1.00  0.00     0.087 C 
ENDBRANCH  11  12
ENDBRANCH  10  11
ENDBRANCH   2  10
TORSDOF 6
ENDMDL
