MODEL 1
REMARK VINA RESULT:    -4.579      0.000      0.000
REMARK INTER + INTRA:          -4.579
REMARK INTER:                  -4.579
REMARK INTRA:                   0.000
REMARK UNBOUND:                 0.000
REMARK SMILES O=c1ccc2ccccc2o1
REMARK SMILES IDX 7 1 8 2 9 3 10 4 5 5 6 6 4 7 3 8 2 9 1 10 11 11
REMARK H PARENT
REMARK Flexibility Score: inf
ROOT
ATOM      1  C   UNL     1      28.821  53.092  38.234  1.00  0.00     0.001 A 
ATOM      2  C   UNL     1      27.582  52.939  38.866  1.00  0.00     0.004 A 
ATOM      3  C   UNL     1      27.370  51.877  39.751  1.00  0.00     0.048 A 
ATOM      4  C   UNL     1      28.398  50.964  40.009  1.00  0.00     0.138 A 
ATOM      5  C   UNL     1      29.650  51.118  39.372  1.00  0.00     0.018 A 
ATOM      6  C   UNL     1      29.856  52.185  38.485  1.00  0.00     0.012 A 
ATOM      7  C   UNL     1      30.658  50.191  39.650  1.00  0.00     0.019 A 
ATOM      8  C   UNL     1      30.403  49.149  40.541  1.00  0.00     0.094 A 
ATOM      9  C   UNL     1      29.139  49.058  41.134  1.00  0.00     0.336 A 
ATOM     10  O   UNL     1      28.890  48.124  41.940  1.00  0.00    -0.246 OA
ATOM     11  O   UNL     1      28.196  49.954  40.853  1.00  0.00    -0.423 OA
ENDROOT
TORSDOF 0
ENDMDL
MODEL 2
REMARK VINA RESULT:    -4.298      1.138      2.099
REMARK INTER + INTRA:          -4.298
REMARK INTER:                  -4.298
REMARK INTRA:                   0.000
REMARK UNBOUND:                 0.000
REMARK SMILES O=c1ccc2ccccc2o1
REMARK SMILES IDX 7 1 8 2 9 3 10 4 5 5 6 6 4 7 3 8 2 9 1 10 11 11
REMARK H PARENT
REMARK Flexibility Score: inf
ROOT
ATOM      1  C   UNL     1      27.909  52.997  39.024  1.00  0.00     0.001 A 
ATOM      2  C   UNL     1      29.116  52.849  38.332  1.00  0.00     0.004 A 
ATOM      3  C   UNL     1      29.950  51.759  38.598  1.00  0.00     0.048 A 
ATOM      4  C   UNL     1      29.581  50.811  39.559  1.00  0.00     0.138 A 
ATOM      5  C   UNL     1      28.361  50.961  40.258  1.00  0.00     0.018 A 
ATOM      6  C   UNL     1      27.529  52.056  39.986  1.00  0.00     0.012 A 
ATOM      7  C   UNL     1      28.018  49.998  41.212  1.00  0.00     0.019 A 
ATOM      8  C   UNL     1      28.881  48.927  41.444  1.00  0.00     0.094 A 
ATOM      9  C   UNL     1      30.072  48.844  40.714  1.00  0.00     0.336 A 
ATOM     10  O   UNL     1      30.863  47.885  40.911  1.00  0.00    -0.246 OA
ATOM     11  O   UNL     1      30.375  49.774  39.812  1.00  0.00    -0.423 OA
ENDROOT
TORSDOF 0
ENDMDL
MODEL 3
REMARK VINA RESULT:    -4.037     16.589     16.726
REMARK INTER + INTRA:          -4.037
REMARK INTER:                  -4.037
REMARK INTRA:                   0.000
REMARK UNBOUND:                 0.000
REMARK SMILES O=c1ccc2ccccc2o1
REMARK SMILES IDX 7 1 8 2 9 3 10 4 5 5 6 6 4 7 3 8 2 9 1 10 11 11
REMARK H PARENT
REMARK Flexibility Score: inf
ROOT
ATOM      1  C   UNL     1      26.396  42.494  24.716  1.00  0.00     0.001 A 
ATOM      2  C   UNL     1      26.906  43.142  25.846  1.00  0.00     0.004 A 
ATOM      3  C   UNL     1      26.802  42.545  27.107  1.00  0.00     0.048 A 
ATOM      4  C   UNL     1      26.188  41.295  27.242  1.00  0.00     0.138 A 
ATOM      5  C   UNL     1      25.673  40.639  26.100  1.00  0.00     0.018 A 
ATOM      6  C   UNL     1      25.780  41.244  24.839  1.00  0.00     0.012 A 
ATOM      7  C   UNL     1      25.066  39.391  26.265  1.00  0.00     0.019 A 
ATOM      8  C   UNL     1      24.986  38.833  27.541  1.00  0.00     0.094 A 
ATOM      9  C   UNL     1      25.517  39.540  28.626  1.00  0.00     0.336 A 
ATOM     10  O   UNL     1      25.453  39.052  29.784  1.00  0.00    -0.246 OA
ATOM     11  O   UNL     1      26.090  40.726  28.441  1.00  0.00    -0.423 OA
ENDROOT
TORSDOF 0
ENDMDL
MODEL 4
REMARK VINA RESULT:    -3.982      2.106      4.183
REMARK INTER + INTRA:          -3.982
REMARK INTER:                  -3.982
REMARK INTRA:                   0.000
REMARK UNBOUND:                 0.000
REMARK SMILES O=c1ccc2ccccc2o1
REMARK SMILES IDX 7 1 8 2 9 3 10 4 5 5 6 6 4 7 3 8 2 9 1 10 11 11
REMARK H PARENT
REMARK Flexibility Score: inf
ROOT
ATOM      1  C   UNL     1      29.434  48.780  40.301  1.00  0.00     0.001 A 
ATOM      2  C   UNL     1      30.293  49.345  41.249  1.00  0.00     0.004 A 
ATOM      3  C   UNL     1      30.300  50.729  41.455  1.00  0.00     0.048 A 
ATOM      4  C   UNL     1      29.448  51.553  40.712  1.00  0.00     0.138 A 
ATOM      5  C   UNL     1      28.580  50.982  39.754  1.00  0.00     0.018 A 
ATOM      6  C   UNL     1      28.577  49.594  39.553  1.00  0.00     0.012 A 
ATOM      7  C   UNL     1      27.739  51.830  39.028  1.00  0.00     0.019 A 
ATOM      8  C   UNL     1      27.780  53.203  39.267  1.00  0.00     0.094 A 
ATOM      9  C   UNL     1      28.665  53.698  40.232  1.00  0.00     0.336 A 
ATOM     10  O   UNL     1      28.717  54.935  40.460  1.00  0.00    -0.246 OA
ATOM     11  O   UNL     1      29.455  52.869  40.909  1.00  0.00    -0.423 OA
ENDROOT
TORSDOF 0
ENDMDL
MODEL 5
REMARK VINA RESULT:    -3.914      1.922      3.634
REMARK INTER + INTRA:          -3.914
REMARK INTER:                  -3.914
REMARK INTRA:                   0.000
REMARK UNBOUND:                 0.000
REMARK SMILES O=c1ccc2ccccc2o1
REMARK SMILES IDX 7 1 8 2 9 3 10 4 5 5 6 6 4 7 3 8 2 9 1 10 11 11
REMARK H PARENT
REMARK Flexibility Score: inf
ROOT
ATOM      1  C   UNL     1      26.376  51.279  41.917  1.00  0.00     0.001 A 
ATOM      2  C   UNL     1      27.127  50.117  42.125  1.00  0.00     0.004 A 
ATOM      3  C   UNL     1      28.273  49.874  41.361  1.00  0.00     0.048 A 
ATOM      4  C   UNL     1      28.672  50.794  40.385  1.00  0.00     0.138 A 
ATOM      5  C   UNL     1      27.914  51.968  40.175  1.00  0.00     0.018 A 
ATOM      6  C   UNL     1      26.766  52.205  40.944  1.00  0.00     0.012 A 
ATOM      7  C   UNL     1      28.338  52.868  39.193  1.00  0.00     0.019 A 
ATOM      8  C   UNL     1      29.487  52.585  38.456  1.00  0.00     0.094 A 
ATOM      9  C   UNL     1      30.188  51.403  38.719  1.00  0.00     0.336 A 
ATOM     10  O   UNL     1      31.227  51.131  38.062  1.00  0.00    -0.246 OA
ATOM     11  O   UNL     1      29.763  50.562  39.658  1.00  0.00    -0.423 OA
ENDROOT
TORSDOF 0
ENDMDL
MODEL 6
REMARK VINA RESULT:    -3.885      1.510      3.798
REMARK INTER + INTRA:          -3.885
REMARK INTER:                  -3.885
REMARK INTRA:                   0.000
REMARK UNBOUND:                 0.000
REMARK SMILES O=c1ccc2ccccc2o1
REMARK SMILES IDX 7 1 8 2 9 3 10 4 5 5 6 6 4 7 3 8 2 9 1 10 11 11
REMARK H PARENT
REMARK Flexibility Score: inf
ROOT
ATOM      1  C   UNL     1      30.469  48.716  41.160  1.00  0.00     0.001 A 
ATOM      2  C   UNL     1      29.199  48.710  41.747  1.00  0.00     0.004 A 
ATOM      3  C   UNL     1      28.231  49.633  41.338  1.00  0.00     0.048 A 
ATOM      4  C   UNL     1      28.530  50.567  40.339  1.00  0.00     0.138 A 
ATOM      5  C   UNL     1      29.813  50.573  39.746  1.00  0.00     0.018 A 
ATOM      6  C   UNL     1      30.779  49.645  40.161  1.00  0.00     0.012 A 
ATOM      7  C   UNL     1      30.082  51.517  38.751  1.00  0.00     0.019 A 
ATOM      8  C   UNL     1      29.086  52.417  38.375  1.00  0.00     0.094 A 
ATOM      9  C   UNL     1      27.838  52.353  39.006  1.00  0.00     0.336 A 
ATOM     10  O   UNL     1      26.928  53.158  38.680  1.00  0.00    -0.246 OA
ATOM     11  O   UNL     1      27.608  51.445  39.951  1.00  0.00    -0.423 OA
ENDROOT
TORSDOF 0
ENDMDL
MODEL 7
REMARK VINA RESULT:    -3.753      1.973      3.146
REMARK INTER + INTRA:          -3.753
REMARK INTER:                  -3.753
REMARK INTRA:                   0.000
REMARK UNBOUND:                 0.000
REMARK SMILES O=c1ccc2ccccc2o1
REMARK SMILES IDX 7 1 8 2 9 3 10 4 5 5 6 6 4 7 3 8 2 9 1 10 11 11
REMARK H PARENT
REMARK Flexibility Score: inf
ROOT
ATOM      1  C   UNL     1      26.329  51.056  42.125  1.00  0.00     0.001 A 
ATOM      2  C   UNL     1      26.214  52.116  41.219  1.00  0.00     0.004 A 
ATOM      3  C   UNL     1      27.190  52.310  40.236  1.00  0.00     0.048 A 
ATOM      4  C   UNL     1      28.286  51.444  40.156  1.00  0.00     0.138 A 
ATOM      5  C   UNL     1      28.402  50.373  41.071  1.00  0.00     0.018 A 
ATOM      6  C   UNL     1      27.420  50.184  42.054  1.00  0.00     0.012 A 
ATOM      7  C   UNL     1      29.507  49.524  40.966  1.00  0.00     0.019 A 
ATOM      8  C   UNL     1      30.456  49.755  39.970  1.00  0.00     0.094 A 
ATOM      9  C   UNL     1      30.276  50.836  39.099  1.00  0.00     0.336 A 
ATOM     10  O   UNL     1      31.122  51.060  38.195  1.00  0.00    -0.246 OA
ATOM     11  O   UNL     1      29.215  51.629  39.221  1.00  0.00    -0.423 OA
ENDROOT
TORSDOF 0
ENDMDL
MODEL 8
REMARK VINA RESULT:    -3.700     16.766     17.056
REMARK INTER + INTRA:          -3.700
REMARK INTER:                  -3.700
REMARK INTRA:                   0.000
REMARK UNBOUND:                 0.000
REMARK SMILES O=c1ccc2ccccc2o1
REMARK SMILES IDX 7 1 8 2 9 3 10 4 5 5 6 6 4 7 3 8 2 9 1 10 11 11
REMARK H PARENT
REMARK Flexibility Score: inf
ROOT
ATOM      1  C   UNL     1      24.875  39.872  25.319  1.00  0.00     0.001 A 
ATOM      2  C   UNL     1      25.069  40.664  24.183  1.00  0.00     0.004 A 
ATOM      3  C   UNL     1      26.000  41.707  24.203  1.00  0.00     0.048 A 
ATOM      4  C   UNL     1      26.743  41.962  25.361  1.00  0.00     0.138 A 
ATOM      5  C   UNL     1      26.548  41.162  26.509  1.00  0.00     0.018 A 
ATOM      6  C   UNL     1      25.612  40.118  26.483  1.00  0.00     0.012 A 
ATOM      7  C   UNL     1      27.304  41.439  27.651  1.00  0.00     0.019 A 
ATOM      8  C   UNL     1      28.222  42.489  27.625  1.00  0.00     0.094 A 
ATOM      9  C   UNL     1      28.362  43.240  26.453  1.00  0.00     0.336 A 
ATOM     10  O   UNL     1      29.185  44.191  26.411  1.00  0.00    -0.246 OA
ATOM     11  O   UNL     1      27.629  42.955  25.379  1.00  0.00    -0.423 OA
ENDROOT
TORSDOF 0
ENDMDL
MODEL 9
REMARK VINA RESULT:    -3.696      1.316      3.360
REMARK INTER + INTRA:          -3.696
REMARK INTER:                  -3.696
REMARK INTRA:                   0.000
REMARK UNBOUND:                 0.000
REMARK SMILES O=c1ccc2ccccc2o1
REMARK SMILES IDX 7 1 8 2 9 3 10 4 5 5 6 6 4 7 3 8 2 9 1 10 11 11
REMARK H PARENT
REMARK Flexibility Score: inf
ROOT
ATOM      1  C   UNL     1      31.187  50.750  38.740  1.00  0.00     0.001 A 
ATOM      2  C   UNL     1      31.054  49.960  39.886  1.00  0.00     0.004 A 
ATOM      3  C   UNL     1      29.906  50.058  40.679  1.00  0.00     0.048 A 
ATOM      4  C   UNL     1      28.886  50.949  40.327  1.00  0.00     0.138 A 
ATOM      5  C   UNL     1      29.020  51.747  39.168  1.00  0.00     0.018 A 
ATOM      6  C   UNL     1      30.173  51.643  38.378  1.00  0.00     0.012 A 
ATOM      7  C   UNL     1      27.983  52.626  38.842  1.00  0.00     0.019 A 
ATOM      8  C   UNL     1      26.857  52.690  39.661  1.00  0.00     0.094 A 
ATOM      9  C   UNL     1      26.793  51.870  40.793  1.00  0.00     0.336 A 
ATOM     10  O   UNL     1      25.784  51.915  41.545  1.00  0.00    -0.246 OA
ATOM     11  O   UNL     1      27.793  51.041  41.082  1.00  0.00    -0.423 OA
ENDROOT
TORSDOF 0
ENDMDL
