MODEL 1
REMARK VINA RESULT:    -4.749      0.000      0.000
REMARK INTER + INTRA:          -6.342
REMARK INTER:                  -6.414
REMARK INTRA:                   0.072
REMARK UNBOUND:                 0.072
REMARK SMILES CC(=O)CCC=C(C)CCC=C(C)C
REMARK SMILES IDX 7 1 6 2 8 3 9 4 10 5 11 6 13 7 12 8 14 9 5 10 4 11 2 12 3 13
REMARK SMILES IDX 1 14
REMARK H PARENT
REMARK Flexibility Score: inf
ROOT
ATOM      1  C   UNL     1      19.916 -23.242  13.909  1.00  0.00    -0.077 C 
ATOM      2  C   UNL     1      19.029 -22.221  13.890  1.00  0.00    -0.028 C 
ATOM      3  C   UNL     1      21.076 -23.272  14.879  1.00  0.00     0.039 C 
ENDROOT
BRANCH   1   4
ATOM      4  C   UNL     1      19.756 -24.371  12.916  1.00  0.00     0.034 C 
BRANCH   4   5
ATOM      5  C   UNL     1      20.887 -25.396  13.071  1.00  0.00     0.032 C 
BRANCH   5   6
ATOM      6  C   UNL     1      20.367 -26.798  12.875  1.00  0.00    -0.028 C 
ATOM      7  C   UNL     1      22.366 -27.858  13.950  1.00  0.00     0.039 C 
ATOM      8  C   UNL     1      21.011 -27.914  13.287  1.00  0.00    -0.080 C 
ATOM      9  C   UNL     1      20.351 -29.249  13.054  1.00  0.00     0.039 C 
ENDBRANCH   5   6
ENDBRANCH   4   5
ENDBRANCH   1   4
BRANCH   2  10
ATOM     10  C   UNL     1      19.045 -21.059  14.851  1.00  0.00     0.035 C 
BRANCH  10  11
ATOM     11  C   UNL     1      20.382 -20.315  14.775  1.00  0.00     0.079 C 
BRANCH  11  12
ATOM     12  C   UNL     1      20.158 -18.830  14.654  1.00  0.00     0.130 C 
ATOM     13  O   UNL     1      20.277 -18.291  13.564  1.00  0.00    -0.300 OA
ATOM     14  C   UNL     1      19.784 -17.997  15.845  1.00  0.00     0.087 C 
ENDBRANCH  11  12
ENDBRANCH  10  11
ENDBRANCH   2  10
TORSDOF 6
ENDMDL
MODEL 2
REMARK VINA RESULT:    -4.252     13.981     16.473
REMARK INTER + INTRA:          -5.671
REMARK INTER:                  -4.525
REMARK INTRA:                  -1.146
REMARK UNBOUND:                 0.072
REMARK SMILES CC(=O)CCC=C(C)CCC=C(C)C
REMARK SMILES IDX 7 1 6 2 8 3 9 4 10 5 11 6 13 7 12 8 14 9 5 10 4 11 2 12 3 13
REMARK SMILES IDX 1 14
REMARK H PARENT
REMARK Flexibility Score: inf
ROOT
ATOM      1  C   UNL     1       7.374 -35.625  15.421  1.00  0.00    -0.077 C 
ATOM      2  C   UNL     1       8.091 -35.124  16.453  1.00  0.00    -0.028 C 
ATOM      3  C   UNL     1       5.875 -35.452  15.332  1.00  0.00     0.039 C 
ENDROOT
BRANCH   1   4
ATOM      4  C   UNL     1       8.092 -36.401  14.339  1.00  0.00     0.034 C 
BRANCH   4   5
ATOM      5  C   UNL     1       8.165 -35.586  13.043  1.00  0.00     0.032 C 
BRANCH   5   6
ATOM      6  C   UNL     1       9.360 -34.665  13.057  1.00  0.00    -0.028 C 
ATOM      7  C   UNL     1       7.962 -32.593  13.218  1.00  0.00     0.039 C 
ATOM      8  C   UNL     1       9.285 -33.320  13.160  1.00  0.00    -0.080 C 
ATOM      9  C   UNL     1      10.569 -32.530  13.199  1.00  0.00     0.039 C 
ENDBRANCH   5   6
ENDBRANCH   4   5
ENDBRANCH   1   4
BRANCH   2  10
ATOM     10  C   UNL     1       7.510 -34.295  17.570  1.00  0.00     0.035 C 
BRANCH  10  11
ATOM     11  C   UNL     1       7.442 -32.818  17.168  1.00  0.00     0.079 C 
BRANCH  11  12
ATOM     12  C   UNL     1       8.769 -32.143  17.396  1.00  0.00     0.130 C 
ATOM     13  O   UNL     1       9.505 -31.925  16.446  1.00  0.00    -0.300 OA
ATOM     14  C   UNL     1       9.205 -31.723  18.769  1.00  0.00     0.087 C 
ENDBRANCH  11  12
ENDBRANCH  10  11
ENDBRANCH   2  10
TORSDOF 6
ENDMDL
MODEL 3
REMARK VINA RESULT:    -4.112     14.988     18.072
REMARK INTER + INTRA:          -5.482
REMARK INTER:                  -4.718
REMARK INTRA:                  -0.763
REMARK UNBOUND:                 0.072
REMARK SMILES CC(=O)CCC=C(C)CCC=C(C)C
REMARK SMILES IDX 7 1 6 2 8 3 9 4 10 5 11 6 13 7 12 8 14 9 5 10 4 11 2 12 3 13
REMARK SMILES IDX 1 14
REMARK H PARENT
REMARK Flexibility Score: inf
ROOT
ATOM      1  C   UNL     1       7.061 -34.963  17.233  1.00  0.00    -0.077 C 
ATOM      2  C   UNL     1       6.223 -35.450  16.290  1.00  0.00    -0.028 C 
ATOM      3  C   UNL     1       7.688 -35.854  18.280  1.00  0.00     0.039 C 
ENDROOT
BRANCH   1   4
ATOM      4  C   UNL     1       7.357 -33.480  17.254  1.00  0.00     0.034 C 
BRANCH   4   5
ATOM      5  C   UNL     1       7.393 -32.912  15.830  1.00  0.00     0.032 C 
BRANCH   5   6
ATOM      6  C   UNL     1       8.805 -32.889  15.299  1.00  0.00    -0.028 C 
ATOM      7  C   UNL     1       8.073 -32.669  12.913  1.00  0.00     0.039 C 
ATOM      8  C   UNL     1       9.126 -32.756  13.993  1.00  0.00    -0.080 C 
ATOM      9  C   UNL     1      10.584 -32.712  13.614  1.00  0.00     0.039 C 
ENDBRANCH   5   6
ENDBRANCH   4   5
ENDBRANCH   1   4
BRANCH   2  10
ATOM     10  C   UNL     1       5.879 -36.909  16.127  1.00  0.00     0.035 C 
BRANCH  10  11
ATOM     11  C   UNL     1       5.878 -37.301  14.646  1.00  0.00     0.079 C 
BRANCH  11  12
ATOM     12  C   UNL     1       6.746 -36.365  13.847  1.00  0.00     0.130 C 
ATOM     13  O   UNL     1       6.225 -35.502  13.158  1.00  0.00    -0.300 OA
ATOM     14  C   UNL     1       8.243 -36.466  13.884  1.00  0.00     0.087 C 
ENDBRANCH  11  12
ENDBRANCH  10  11
ENDBRANCH   2  10
TORSDOF 6
ENDMDL
MODEL 4
REMARK VINA RESULT:    -4.084     14.410     17.213
REMARK INTER + INTRA:          -5.443
REMARK INTER:                  -4.585
REMARK INTRA:                  -0.859
REMARK UNBOUND:                 0.072
REMARK SMILES CC(=O)CCC=C(C)CCC=C(C)C
REMARK SMILES IDX 7 1 6 2 8 3 9 4 10 5 11 6 13 7 12 8 14 9 5 10 4 11 2 12 3 13
REMARK SMILES IDX 1 14
REMARK H PARENT
REMARK Flexibility Score: inf
ROOT
ATOM      1  C   UNL     1       7.097 -35.812  16.138  1.00  0.00    -0.077 C 
ATOM      2  C   UNL     1       8.067 -35.470  15.260  1.00  0.00    -0.028 C 
ATOM      3  C   UNL     1       6.036 -36.833  15.796  1.00  0.00     0.039 C 
ENDROOT
BRANCH   1   4
ATOM      4  C   UNL     1       7.062 -35.137  17.491  1.00  0.00     0.034 C 
BRANCH   4   5
ATOM      5  C   UNL     1       6.810 -33.631  17.340  1.00  0.00     0.032 C 
BRANCH   5   6
ATOM      6  C   UNL     1       7.709 -32.844  18.260  1.00  0.00    -0.028 C 
ATOM      7  C   UNL     1       9.250 -32.144  16.413  1.00  0.00     0.039 C 
ATOM      8  C   UNL     1       8.795 -32.150  17.854  1.00  0.00    -0.080 C 
ATOM      9  C   UNL     1       9.580 -31.378  18.884  1.00  0.00     0.039 C 
ENDBRANCH   5   6
ENDBRANCH   4   5
ENDBRANCH   1   4
BRANCH   2  10
ATOM     10  C   UNL     1       8.245 -36.096  13.900  1.00  0.00     0.035 C 
BRANCH  10  11
ATOM     11  C   UNL     1       8.739 -35.057  12.888  1.00  0.00     0.079 C 
BRANCH  11  12
ATOM     12  C   UNL     1      10.186 -34.718  13.136  1.00  0.00     0.130 C 
ATOM     13  O   UNL     1      10.997 -35.618  13.285  1.00  0.00    -0.300 OA
ATOM     14  C   UNL     1      10.654 -33.294  13.198  1.00  0.00     0.087 C 
ENDBRANCH  11  12
ENDBRANCH  10  11
ENDBRANCH   2  10
TORSDOF 6
ENDMDL
MODEL 5
REMARK VINA RESULT:    -4.043     14.810     16.768
REMARK INTER + INTRA:          -5.389
REMARK INTER:                  -4.287
REMARK INTRA:                  -1.103
REMARK UNBOUND:                 0.072
REMARK SMILES CC(=O)CCC=C(C)CCC=C(C)C
REMARK SMILES IDX 7 1 6 2 8 3 9 4 10 5 11 6 13 7 12 8 14 9 5 10 4 11 2 12 3 13
REMARK SMILES IDX 1 14
REMARK H PARENT
REMARK Flexibility Score: inf
ROOT
ATOM      1  C   UNL     1       8.715 -32.551  15.704  1.00  0.00    -0.077 C 
ATOM      2  C   UNL     1       7.543 -33.026  15.225  1.00  0.00    -0.028 C 
ATOM      3  C   UNL     1       8.949 -32.350  17.184  1.00  0.00     0.039 C 
ENDROOT
BRANCH   1   4
ATOM      4  C   UNL     1       9.813 -32.188  14.729  1.00  0.00     0.034 C 
BRANCH   4   5
ATOM      5  C   UNL     1       9.651 -32.965  13.416  1.00  0.00     0.032 C 
BRANCH   5   6
ATOM      6  C   UNL     1      10.806 -33.915  13.212  1.00  0.00    -0.028 C 
ATOM      7  C   UNL     1       9.428 -35.947  13.707  1.00  0.00     0.039 C 
ATOM      8  C   UNL     1      10.714 -35.259  13.316  1.00  0.00    -0.080 C 
ATOM      9  C   UNL     1      11.946 -36.085  13.047  1.00  0.00     0.039 C 
ENDBRANCH   5   6
ENDBRANCH   4   5
ENDBRANCH   1   4
BRANCH   2  10
ATOM     10  C   UNL     1       6.387 -33.468  16.086  1.00  0.00     0.035 C 
BRANCH  10  11
ATOM     11  C   UNL     1       5.879 -34.844  15.644  1.00  0.00     0.079 C 
BRANCH  11  12
ATOM     12  C   UNL     1       6.574 -35.939  16.410  1.00  0.00     0.130 C 
ATOM     13  O   UNL     1       6.574 -37.077  15.967  1.00  0.00    -0.300 OA
ATOM     14  C   UNL     1       7.276 -35.660  17.707  1.00  0.00     0.087 C 
ENDBRANCH  11  12
ENDBRANCH  10  11
ENDBRANCH   2  10
TORSDOF 6
ENDMDL
MODEL 6
REMARK VINA RESULT:    -3.981     14.286     16.673
REMARK INTER + INTRA:          -5.304
REMARK INTER:                  -4.481
REMARK INTRA:                  -0.824
REMARK UNBOUND:                 0.072
REMARK SMILES CC(=O)CCC=C(C)CCC=C(C)C
REMARK SMILES IDX 7 1 6 2 8 3 9 4 10 5 11 6 13 7 12 8 14 9 5 10 4 11 2 12 3 13
REMARK SMILES IDX 1 14
REMARK H PARENT
REMARK Flexibility Score: inf
ROOT
ATOM      1  C   UNL     1       6.687 -34.731  16.532  1.00  0.00    -0.077 C 
ATOM      2  C   UNL     1       7.496 -34.336  17.541  1.00  0.00    -0.028 C 
ATOM      3  C   UNL     1       5.875 -33.742  15.726  1.00  0.00     0.039 C 
ENDROOT
BRANCH   1   4
ATOM      4  C   UNL     1       6.573 -36.207  16.219  1.00  0.00     0.034 C 
BRANCH   4   5
ATOM      5  C   UNL     1       6.441 -36.432  14.708  1.00  0.00     0.032 C 
BRANCH   5   6
ATOM      6  C   UNL     1       7.743 -36.922  14.124  1.00  0.00    -0.028 C 
ATOM      7  C   UNL     1       8.380 -34.666  13.243  1.00  0.00     0.039 C 
ATOM      8  C   UNL     1       8.635 -36.135  13.484  1.00  0.00    -0.080 C 
ATOM      9  C   UNL     1       9.914 -36.758  12.985  1.00  0.00     0.039 C 
ENDBRANCH   5   6
ENDBRANCH   4   5
ENDBRANCH   1   4
BRANCH   2  10
ATOM     10  C   UNL     1       7.736 -32.898  17.928  1.00  0.00     0.035 C 
BRANCH  10  11
ATOM     11  C   UNL     1       8.849 -32.288  17.071  1.00  0.00     0.079 C 
BRANCH  11  12
ATOM     12  C   UNL     1       9.738 -31.402  17.905  1.00  0.00     0.130 C 
ATOM     13  O   UNL     1      10.563 -30.689  17.355  1.00  0.00    -0.300 OA
ATOM     14  C   UNL     1       9.625 -31.370  19.401  1.00  0.00     0.087 C 
ENDBRANCH  11  12
ENDBRANCH  10  11
ENDBRANCH   2  10
TORSDOF 6
ENDMDL
MODEL 7
REMARK VINA RESULT:    -3.943     13.919     16.870
REMARK INTER + INTRA:          -5.253
REMARK INTER:                  -4.357
REMARK INTRA:                  -0.896
REMARK UNBOUND:                 0.072
REMARK SMILES CC(=O)CCC=C(C)CCC=C(C)C
REMARK SMILES IDX 7 1 6 2 8 3 9 4 10 5 11 6 13 7 12 8 14 9 5 10 4 11 2 12 3 13
REMARK SMILES IDX 1 14
REMARK H PARENT
REMARK Flexibility Score: inf
ROOT
ATOM      1  C   UNL     1       7.082 -35.424  14.558  1.00  0.00    -0.077 C 
ATOM      2  C   UNL     1       8.351 -35.080  14.238  1.00  0.00    -0.028 C 
ATOM      3  C   UNL     1       5.896 -34.914  13.771  1.00  0.00     0.039 C 
ENDROOT
BRANCH   1   4
ATOM      4  C   UNL     1       6.845 -36.323  15.750  1.00  0.00     0.034 C 
BRANCH   4   5
ATOM      5  C   UNL     1       6.427 -35.502  16.976  1.00  0.00     0.032 C 
BRANCH   5   6
ATOM      6  C   UNL     1       7.550 -34.598  17.421  1.00  0.00    -0.028 C 
ATOM      7  C   UNL     1       6.391 -32.514  16.654  1.00  0.00     0.039 C 
ATOM      8  C   UNL     1       7.537 -33.252  17.305  1.00  0.00    -0.080 C 
ATOM      9  C   UNL     1       8.718 -32.475  17.829  1.00  0.00     0.039 C 
ENDBRANCH   5   6
ENDBRANCH   4   5
ENDBRANCH   1   4
BRANCH   2  10
ATOM     10  C   UNL     1       8.731 -34.231  13.051  1.00  0.00     0.035 C 
BRANCH  10  11
ATOM     11  C   UNL     1       9.364 -32.914  13.512  1.00  0.00     0.079 C 
BRANCH  11  12
ATOM     12  C   UNL     1      10.862 -32.961  13.356  1.00  0.00     0.130 C 
ATOM     13  O   UNL     1      11.526 -31.974  13.632  1.00  0.00    -0.300 OA
ATOM     14  C   UNL     1      11.558 -34.200  12.875  1.00  0.00     0.087 C 
ENDBRANCH  11  12
ENDBRANCH  10  11
ENDBRANCH   2  10
TORSDOF 6
ENDMDL
MODEL 8
REMARK VINA RESULT:    -3.721     14.864     16.926
REMARK INTER + INTRA:          -4.953
REMARK INTER:                  -3.980
REMARK INTRA:                  -0.974
REMARK UNBOUND:                 0.072
REMARK SMILES CC(=O)CCC=C(C)CCC=C(C)C
REMARK SMILES IDX 7 1 6 2 8 3 9 4 10 5 11 6 13 7 12 8 14 9 5 10 4 11 2 12 3 13
REMARK SMILES IDX 1 14
REMARK H PARENT
REMARK Flexibility Score: inf
ROOT
ATOM      1  C   UNL     1       9.673 -33.941  13.912  1.00  0.00    -0.077 C 
ATOM      2  C   UNL     1       9.257 -33.810  15.192  1.00  0.00    -0.028 C 
ATOM      3  C   UNL     1       9.741 -32.759  12.971  1.00  0.00     0.039 C 
ENDROOT
BRANCH   1   4
ATOM      4  C   UNL     1      10.058 -35.312  13.403  1.00  0.00     0.034 C 
BRANCH   4   5
ATOM      5  C   UNL     1       8.828 -36.060  12.875  1.00  0.00     0.032 C 
BRANCH   5   6
ATOM      6  C   UNL     1       8.030 -36.645  14.013  1.00  0.00    -0.028 C 
ATOM      7  C   UNL     1       6.066 -35.140  13.618  1.00  0.00     0.039 C 
ATOM      8  C   UNL     1       6.777 -36.258  14.344  1.00  0.00    -0.080 C 
ATOM      9  C   UNL     1       6.087 -36.960  15.485  1.00  0.00     0.039 C 
ENDBRANCH   5   6
ENDBRANCH   4   5
ENDBRANCH   1   4
BRANCH   2  10
ATOM     10  C   UNL     1       8.888 -32.499  15.839  1.00  0.00     0.035 C 
BRANCH  10  11
ATOM     11  C   UNL     1       7.439 -32.532  16.337  1.00  0.00     0.079 C 
BRANCH  11  12
ATOM     12  C   UNL     1       7.372 -33.071  17.743  1.00  0.00     0.130 C 
ATOM     13  O   UNL     1       7.349 -32.293  18.684  1.00  0.00    -0.300 OA
ATOM     14  C   UNL     1       7.324 -34.546  18.011  1.00  0.00     0.087 C 
ENDBRANCH  11  12
ENDBRANCH  10  11
ENDBRANCH   2  10
TORSDOF 6
ENDMDL
MODEL 9
REMARK VINA RESULT:    -3.168      2.642      7.561
REMARK INTER + INTRA:          -4.207
REMARK INTER:                  -3.913
REMARK INTRA:                  -0.293
REMARK UNBOUND:                 0.072
REMARK SMILES CC(=O)CCC=C(C)CCC=C(C)C
REMARK SMILES IDX 7 1 6 2 8 3 9 4 10 5 11 6 13 7 12 8 14 9 5 10 4 11 2 12 3 13
REMARK SMILES IDX 1 14
REMARK H PARENT
REMARK Flexibility Score: inf
ROOT
ATOM      1  C   UNL     1      19.961 -23.216  14.136  1.00  0.00    -0.077 C 
ATOM      2  C   UNL     1      19.936 -24.230  13.240  1.00  0.00    -0.028 C 
ATOM      3  C   UNL     1      20.956 -23.182  15.273  1.00  0.00     0.039 C 
ENDROOT
BRANCH   1   4
ATOM      4  C   UNL     1      18.948 -22.100  14.008  1.00  0.00     0.034 C 
BRANCH   4   5
ATOM      5  C   UNL     1      19.647 -20.760  13.748  1.00  0.00     0.032 C 
BRANCH   5   6
ATOM      6  C   UNL     1      19.740 -19.950  15.017  1.00  0.00    -0.028 C 
ATOM      7  C   UNL     1      20.482 -17.875  13.826  1.00  0.00     0.039 C 
ATOM      8  C   UNL     1      20.091 -18.646  15.065  1.00  0.00    -0.080 C 
ATOM      9  C   UNL     1      20.104 -17.955  16.405  1.00  0.00     0.039 C 
ENDBRANCH   5   6
ENDBRANCH   4   5
ENDBRANCH   1   4
BRANCH   2  10
ATOM     10  C   UNL     1      20.913 -25.378  13.225  1.00  0.00     0.035 C 
BRANCH  10  11
ATOM     11  C   UNL     1      20.200 -26.688  12.876  1.00  0.00     0.079 C 
BRANCH  11  12
ATOM     12  C   UNL     1      21.050 -27.873  13.254  1.00  0.00     0.130 C 
ATOM     13  O   UNL     1      22.190 -27.692  13.655  1.00  0.00    -0.300 OA
ATOM     14  C   UNL     1      20.524 -29.275  13.154  1.00  0.00     0.087 C 
ENDBRANCH  11  12
ENDBRANCH  10  11
ENDBRANCH   2  10
TORSDOF 6
ENDMDL
