MODEL 1
REMARK VINA RESULT:    -3.706      0.000      0.000
REMARK INTER + INTRA:          -6.866
REMARK INTER:                  -5.655
REMARK INTRA:                  -1.211
REMARK UNBOUND:                -1.211
REMARK SMILES CCCCCCCCCCC(=O)[O-]
REMARK SMILES IDX 7 1 8 2 9 3 10 4 11 5 12 6 13 7 6 8 5 9 4 10 3 11 2 12 1 13
REMARK H PARENT
REMARK Flexibility Score: inf
ROOT
ATOM      1  C   UNL     1     156.620 173.323 166.145  1.00  0.00     0.000 C 
ENDROOT
BRANCH   1   2
ATOM      2  C   UNL     1     155.690 174.249 165.341  1.00  0.00     0.000 C 
BRANCH   2   3
ATOM      3  C   UNL     1     154.994 173.584 164.135  1.00  0.00     0.006 C 
BRANCH   3   4
ATOM      4  C   UNL     1     155.457 172.147 163.844  1.00  0.00     0.053 C 
BRANCH   4   5
ATOM      5  C   UNL     1     154.351 171.154 164.026  1.00  0.00     0.041 C 
ATOM      6  O   UNL     1     153.336 171.454 164.709  1.00  0.00    -0.550 OA
ATOM      7  O   UNL     1     154.424 169.910 163.413  1.00  0.00    -0.550 OA
ENDBRANCH   4   5
ENDBRANCH   3   4
ENDBRANCH   2   3
ENDBRANCH   1   2
BRANCH   1   8
ATOM      8  C   UNL     1     158.071 173.830 166.193  1.00  0.00     0.000 C 
BRANCH   8   9
ATOM      9  C   UNL     1     158.449 174.653 164.951  1.00  0.00    -0.000 C 
BRANCH   9  10
ATOM     10  C   UNL     1     159.386 173.890 163.998  1.00  0.00    -0.000 C 
BRANCH  10  11
ATOM     11  C   UNL     1     158.649 173.384 162.739  1.00  0.00    -0.000 C 
BRANCH  11  12
ATOM     12  C   UNL     1     158.173 174.514 161.811  1.00  0.00    -0.003 C 
ATOM     13  C   UNL     1     156.916 174.152 161.023  1.00  0.00     0.004 C 
ENDBRANCH  11  12
ENDBRANCH  10  11
ENDBRANCH   9  10
ENDBRANCH   8   9
ENDBRANCH   1   8
TORSDOF 9
ENDMDL
MODEL 2
REMARK VINA RESULT:    -3.617      2.021      4.039
REMARK INTER + INTRA:          -6.732
REMARK INTER:                  -5.434
REMARK INTRA:                  -1.298
REMARK UNBOUND:                -1.211
REMARK SMILES CCCCCCCCCCC(=O)[O-]
REMARK SMILES IDX 7 1 8 2 9 3 10 4 11 5 12 6 13 7 6 8 5 9 4 10 3 11 2 12 1 13
REMARK H PARENT
REMARK Flexibility Score: inf
ROOT
ATOM      1  C   UNL     1     157.498 174.380 165.621  1.00  0.00     0.000 C 
ENDROOT
BRANCH   1   2
ATOM      2  C   UNL     1     158.175 173.880 164.333  1.00  0.00     0.000 C 
BRANCH   2   3
ATOM      3  C   UNL     1     157.283 173.011 163.423  1.00  0.00     0.006 C 
BRANCH   3   4
ATOM      4  C   UNL     1     156.708 173.749 162.202  1.00  0.00     0.053 C 
BRANCH   4   5
ATOM      5  C   UNL     1     155.298 174.196 162.429  1.00  0.00     0.041 C 
ATOM      6  O   UNL     1     154.342 173.573 161.894  1.00  0.00    -0.550 OA
ATOM      7  O   UNL     1     155.035 175.279 163.258  1.00  0.00    -0.550 OA
ENDBRANCH   4   5
ENDBRANCH   3   4
ENDBRANCH   2   3
ENDBRANCH   1   2
BRANCH   1   8
ATOM      8  C   UNL     1     157.462 173.314 166.730  1.00  0.00     0.000 C 
BRANCH   8   9
ATOM      9  C   UNL     1     156.030 172.905 167.108  1.00  0.00    -0.000 C 
BRANCH   9  10
ATOM     10  C   UNL     1     154.964 173.654 166.289  1.00  0.00    -0.000 C 
BRANCH  10  11
ATOM     11  C   UNL     1     153.937 172.695 165.651  1.00  0.00    -0.000 C 
BRANCH  11  12
ATOM     12  C   UNL     1     154.468 171.263 165.466  1.00  0.00    -0.003 C 
ATOM     13  C   UNL     1     154.452 170.802 164.010  1.00  0.00     0.004 C 
ENDBRANCH  11  12
ENDBRANCH  10  11
ENDBRANCH   9  10
ENDBRANCH   8   9
ENDBRANCH   1   8
TORSDOF 9
ENDMDL
MODEL 3
REMARK VINA RESULT:    -3.608      2.784      4.502
REMARK INTER + INTRA:          -6.718
REMARK INTER:                  -5.451
REMARK INTRA:                  -1.267
REMARK UNBOUND:                -1.211
REMARK SMILES CCCCCCCCCCC(=O)[O-]
REMARK SMILES IDX 7 1 8 2 9 3 10 4 11 5 12 6 13 7 6 8 5 9 4 10 3 11 2 12 1 13
REMARK H PARENT
REMARK Flexibility Score: inf
ROOT
ATOM      1  C   UNL     1     158.808 173.631 163.856  1.00  0.00     0.000 C 
ENDROOT
BRANCH   1   2
ATOM      2  C   UNL     1     158.243 173.248 162.477  1.00  0.00     0.000 C 
BRANCH   2   3
ATOM      3  C   UNL     1     157.734 174.432 161.629  1.00  0.00     0.006 C 
BRANCH   3   4
ATOM      4  C   UNL     1     156.276 174.299 161.158  1.00  0.00     0.053 C 
BRANCH   4   5
ATOM      5  C   UNL     1     156.145 174.494 159.679  1.00  0.00     0.041 C 
ATOM      6  O   UNL     1     155.094 174.993 159.197  1.00  0.00    -0.550 OA
ATOM      7  O   UNL     1     157.196 174.157 158.835  1.00  0.00    -0.550 OA
ENDBRANCH   4   5
ENDBRANCH   3   4
ENDBRANCH   2   3
ENDBRANCH   1   2
BRANCH   1   8
ATOM      8  C   UNL     1     158.161 174.903 164.433  1.00  0.00     0.000 C 
BRANCH   8   9
ATOM      9  C   UNL     1     156.997 174.591 165.387  1.00  0.00    -0.000 C 
BRANCH   9  10
ATOM     10  C   UNL     1     155.634 175.027 164.820  1.00  0.00    -0.000 C 
BRANCH  10  11
ATOM     11  C   UNL     1     154.554 173.939 164.998  1.00  0.00    -0.000 C 
BRANCH  11  12
ATOM     12  C   UNL     1     155.125 172.513 165.064  1.00  0.00    -0.003 C 
ATOM     13  C   UNL     1     155.117 171.802 163.712  1.00  0.00     0.004 C 
ENDBRANCH  11  12
ENDBRANCH  10  11
ENDBRANCH   9  10
ENDBRANCH   8   9
ENDBRANCH   1   8
TORSDOF 9
ENDMDL
MODEL 4
REMARK VINA RESULT:    -3.565      2.620      4.758
REMARK INTER + INTRA:          -6.652
REMARK INTER:                  -5.565
REMARK INTRA:                  -1.087
REMARK UNBOUND:                -1.211
REMARK SMILES CCCCCCCCCCC(=O)[O-]
REMARK SMILES IDX 7 1 8 2 9 3 10 4 11 5 12 6 13 7 6 8 5 9 4 10 3 11 2 12 1 13
REMARK H PARENT
REMARK Flexibility Score: inf
ROOT
ATOM      1  C   UNL     1     154.869 171.796 163.400  1.00  0.00     0.000 C 
ENDROOT
BRANCH   1   2
ATOM      2  C   UNL     1     154.262 173.210 163.433  1.00  0.00     0.000 C 
BRANCH   2   3
ATOM      3  C   UNL     1     155.202 174.334 162.950  1.00  0.00     0.006 C 
BRANCH   3   4
ATOM      4  C   UNL     1     155.864 174.071 161.587  1.00  0.00     0.053 C 
BRANCH   4   5
ATOM      5  C   UNL     1     157.357 174.046 161.684  1.00  0.00     0.041 C 
ATOM      6  O   UNL     1     158.043 174.945 161.127  1.00  0.00    -0.550 OA
ATOM      7  O   UNL     1     157.993 173.052 162.418  1.00  0.00    -0.550 OA
ENDBRANCH   4   5
ENDBRANCH   3   4
ENDBRANCH   2   3
ENDBRANCH   1   2
BRANCH   1   8
ATOM      8  C   UNL     1     154.377 170.908 164.556  1.00  0.00     0.000 C 
BRANCH   8   9
ATOM      9  C   UNL     1     154.172 171.697 165.858  1.00  0.00    -0.000 C 
BRANCH   9  10
ATOM     10  C   UNL     1     155.053 171.180 167.009  1.00  0.00    -0.000 C 
BRANCH  10  11
ATOM     11  C   UNL     1     156.135 172.202 167.420  1.00  0.00    -0.000 C 
BRANCH  11  12
ATOM     12  C   UNL     1     156.081 173.510 166.613  1.00  0.00    -0.003 C 
ATOM     13  C   UNL     1     157.391 173.824 165.894  1.00  0.00     0.004 C 
ENDBRANCH  11  12
ENDBRANCH  10  11
ENDBRANCH   9  10
ENDBRANCH   8   9
ENDBRANCH   1   8
TORSDOF 9
ENDMDL
MODEL 5
REMARK VINA RESULT:    -3.528      1.626      2.291
REMARK INTER + INTRA:          -6.595
REMARK INTER:                  -5.673
REMARK INTRA:                  -0.923
REMARK UNBOUND:                -1.211
REMARK SMILES CCCCCCCCCCC(=O)[O-]
REMARK SMILES IDX 7 1 8 2 9 3 10 4 11 5 12 6 13 7 6 8 5 9 4 10 3 11 2 12 1 13
REMARK H PARENT
REMARK Flexibility Score: inf
ROOT
ATOM      1  C   UNL     1     155.125 172.904 166.658  1.00  0.00     0.000 C 
ENDROOT
BRANCH   1   2
ATOM      2  C   UNL     1     154.788 171.464 166.229  1.00  0.00     0.000 C 
BRANCH   2   3
ATOM      3  C   UNL     1     154.057 171.341 164.877  1.00  0.00     0.006 C 
BRANCH   3   4
ATOM      4  C   UNL     1     154.801 171.973 163.689  1.00  0.00     0.053 C 
BRANCH   4   5
ATOM      5  C   UNL     1     154.029 173.100 163.078  1.00  0.00     0.041 C 
ATOM      6  O   UNL     1     153.223 172.879 162.135  1.00  0.00    -0.550 OA
ATOM      7  O   UNL     1     154.171 174.391 163.572  1.00  0.00    -0.550 OA
ENDBRANCH   4   5
ENDBRANCH   3   4
ENDBRANCH   2   3
ENDBRANCH   1   2
BRANCH   1   8
ATOM      8  C   UNL     1     156.639 173.169 166.720  1.00  0.00     0.000 C 
BRANCH   8   9
ATOM      9  C   UNL     1     157.096 174.220 165.696  1.00  0.00    -0.000 C 
BRANCH   9  10
ATOM     10  C   UNL     1     158.620 174.210 165.478  1.00  0.00    -0.000 C 
BRANCH  10  11
ATOM     11  C   UNL     1     158.995 174.241 163.981  1.00  0.00    -0.000 C 
BRANCH  11  12
ATOM     12  C   UNL     1     158.273 173.171 163.146  1.00  0.00    -0.003 C 
ATOM     13  C   UNL     1     157.597 173.738 161.900  1.00  0.00     0.004 C 
ENDBRANCH  11  12
ENDBRANCH  10  11
ENDBRANCH   9  10
ENDBRANCH   8   9
ENDBRANCH   1   8
TORSDOF 9
ENDMDL
MODEL 6
REMARK VINA RESULT:    -3.494      2.022      3.181
REMARK INTER + INTRA:          -6.543
REMARK INTER:                  -5.396
REMARK INTRA:                  -1.147
REMARK UNBOUND:                -1.211
REMARK SMILES CCCCCCCCCCC(=O)[O-]
REMARK SMILES IDX 7 1 8 2 9 3 10 4 11 5 12 6 13 7 6 8 5 9 4 10 3 11 2 12 1 13
REMARK H PARENT
REMARK Flexibility Score: inf
ROOT
ATOM      1  C   UNL     1     155.500 172.316 163.708  1.00  0.00     0.000 C 
ENDROOT
BRANCH   1   2
ATOM      2  C   UNL     1     154.431 171.283 164.107  1.00  0.00     0.000 C 
BRANCH   2   3
ATOM      3  C   UNL     1     153.869 171.446 165.534  1.00  0.00     0.006 C 
BRANCH   3   4
ATOM      4  C   UNL     1     154.755 170.851 166.641  1.00  0.00     0.053 C 
BRANCH   4   5
ATOM      5  C   UNL     1     155.386 171.913 167.487  1.00  0.00     0.041 C 
ATOM      6  O   UNL     1     156.539 171.741 167.965  1.00  0.00    -0.550 OA
ATOM      7  O   UNL     1     154.716 173.108 167.719  1.00  0.00    -0.550 OA
ENDBRANCH   4   5
ENDBRANCH   3   4
ENDBRANCH   2   3
ENDBRANCH   1   2
BRANCH   1   8
ATOM      8  C   UNL     1     155.088 173.760 164.039  1.00  0.00     0.000 C 
BRANCH   8   9
ATOM      9  C   UNL     1     156.162 174.512 164.840  1.00  0.00    -0.000 C 
BRANCH   9  10
ATOM     10  C   UNL     1     157.470 173.711 164.973  1.00  0.00    -0.000 C 
BRANCH  10  11
ATOM     11  C   UNL     1     158.615 174.321 164.137  1.00  0.00    -0.000 C 
BRANCH  11  12
ATOM     12  C   UNL     1     158.829 173.620 162.785  1.00  0.00    -0.003 C 
ATOM     13  C   UNL     1     158.072 174.287 161.639  1.00  0.00     0.004 C 
ENDBRANCH  11  12
ENDBRANCH  10  11
ENDBRANCH   9  10
ENDBRANCH   8   9
ENDBRANCH   1   8
TORSDOF 9
ENDMDL
MODEL 7
REMARK VINA RESULT:    -3.492      2.677      5.117
REMARK INTER + INTRA:          -6.540
REMARK INTER:                  -5.476
REMARK INTRA:                  -1.065
REMARK UNBOUND:                -1.211
REMARK SMILES CCCCCCCCCCC(=O)[O-]
REMARK SMILES IDX 7 1 8 2 9 3 10 4 11 5 12 6 13 7 6 8 5 9 4 10 3 11 2 12 1 13
REMARK H PARENT
REMARK Flexibility Score: inf
ROOT
ATOM      1  C   UNL     1     157.036 174.455 160.470  1.00  0.00     0.000 C 
ENDROOT
BRANCH   1   2
ATOM      2  C   UNL     1     157.973 174.652 161.675  1.00  0.00     0.000 C 
BRANCH   2   3
ATOM      3  C   UNL     1     158.272 173.373 162.484  1.00  0.00     0.006 C 
BRANCH   3   4
ATOM      4  C   UNL     1     159.086 173.605 163.767  1.00  0.00     0.053 C 
BRANCH   4   5
ATOM      5  C   UNL     1     158.507 174.700 164.608  1.00  0.00     0.041 C 
ATOM      6  O   UNL     1     157.426 174.517 165.229  1.00  0.00    -0.550 OA
ATOM      7  O   UNL     1     159.178 175.910 164.737  1.00  0.00    -0.550 OA
ENDBRANCH   4   5
ENDBRANCH   3   4
ENDBRANCH   2   3
ENDBRANCH   1   2
BRANCH   1   8
ATOM      8  C   UNL     1     155.551 174.412 160.870  1.00  0.00     0.000 C 
BRANCH   8   9
ATOM      9  C   UNL     1     155.235 175.331 162.061  1.00  0.00    -0.000 C 
BRANCH   9  10
ATOM     10  C   UNL     1     154.552 174.584 163.220  1.00  0.00    -0.000 C 
BRANCH  10  11
ATOM     11  C   UNL     1     154.350 173.085 162.909  1.00  0.00    -0.000 C 
BRANCH  11  12
ATOM     12  C   UNL     1     155.101 172.152 163.873  1.00  0.00    -0.003 C 
ATOM     13  C   UNL     1     154.521 170.739 163.912  1.00  0.00     0.004 C 
ENDBRANCH  11  12
ENDBRANCH  10  11
ENDBRANCH   9  10
ENDBRANCH   8   9
ENDBRANCH   1   8
TORSDOF 9
ENDMDL
MODEL 8
REMARK VINA RESULT:    -3.467      3.022      5.476
REMARK INTER + INTRA:          -6.502
REMARK INTER:                  -5.536
REMARK INTRA:                  -0.966
REMARK UNBOUND:                -1.211
REMARK SMILES CCCCCCCCCCC(=O)[O-]
REMARK SMILES IDX 7 1 8 2 9 3 10 4 11 5 12 6 13 7 6 8 5 9 4 10 3 11 2 12 1 13
REMARK H PARENT
REMARK Flexibility Score: inf
ROOT
ATOM      1  C   UNL     1     155.558 171.975 163.680  1.00  0.00     0.000 C 
ENDROOT
BRANCH   1   2
ATOM      2  C   UNL     1     154.999 173.338 163.233  1.00  0.00     0.000 C 
BRANCH   2   3
ATOM      3  C   UNL     1     155.852 174.557 163.640  1.00  0.00     0.006 C 
BRANCH   3   4
ATOM      4  C   UNL     1     156.335 174.538 165.100  1.00  0.00     0.053 C 
BRANCH   4   5
ATOM      5  C   UNL     1     157.805 174.801 165.207  1.00  0.00     0.041 C 
ATOM      6  O   UNL     1     158.519 174.103 165.975  1.00  0.00    -0.550 OA
ATOM      7  O   UNL     1     158.394 175.794 164.434  1.00  0.00    -0.550 OA
ENDBRANCH   4   5
ENDBRANCH   3   4
ENDBRANCH   2   3
ENDBRANCH   1   2
BRANCH   1   8
ATOM      8  C   UNL     1     154.459 170.999 164.132  1.00  0.00     0.000 C 
BRANCH   8   9
ATOM      9  C   UNL     1     153.494 171.628 165.149  1.00  0.00    -0.000 C 
BRANCH   9  10
ATOM     10  C   UNL     1     154.141 171.834 166.530  1.00  0.00    -0.000 C 
BRANCH  10  11
ATOM     11  C   UNL     1     154.757 170.533 167.085  1.00  0.00    -0.000 C 
BRANCH  11  12
ATOM     12  C   UNL     1     155.869 170.773 168.121  1.00  0.00    -0.003 C 
ATOM     13  C   UNL     1     156.494 172.163 168.017  1.00  0.00     0.004 C 
ENDBRANCH  11  12
ENDBRANCH  10  11
ENDBRANCH   9  10
ENDBRANCH   8   9
ENDBRANCH   1   8
TORSDOF 9
ENDMDL
MODEL 9
REMARK VINA RESULT:    -3.457      1.260      2.097
REMARK INTER + INTRA:          -6.487
REMARK INTER:                  -5.676
REMARK INTRA:                  -0.812
REMARK UNBOUND:                -1.211
REMARK SMILES CCCCCCCCCCC(=O)[O-]
REMARK SMILES IDX 7 1 8 2 9 3 10 4 11 5 12 6 13 7 6 8 5 9 4 10 3 11 2 12 1 13
REMARK H PARENT
REMARK Flexibility Score: inf
ROOT
ATOM      1  C   UNL     1     157.805 174.646 164.842  1.00  0.00     0.000 C 
ENDROOT
BRANCH   1   2
ATOM      2  C   UNL     1     157.107 173.891 165.987  1.00  0.00     0.000 C 
BRANCH   2   3
ATOM      3  C   UNL     1     155.587 173.700 165.811  1.00  0.00     0.006 C 
BRANCH   3   4
ATOM      4  C   UNL     1     155.136 172.234 165.704  1.00  0.00     0.053 C 
BRANCH   4   5
ATOM      5  C   UNL     1     154.576 171.917 164.352  1.00  0.00     0.041 C 
ATOM      6  O   UNL     1     153.987 172.809 163.685  1.00  0.00    -0.550 OA
ATOM      7  O   UNL     1     154.735 170.646 163.812  1.00  0.00    -0.550 OA
ENDBRANCH   4   5
ENDBRANCH   3   4
ENDBRANCH   2   3
ENDBRANCH   1   2
BRANCH   1   8
ATOM      8  C   UNL     1     158.697 173.733 163.983  1.00  0.00     0.000 C 
BRANCH   8   9
ATOM      9  C   UNL     1     157.907 172.996 162.889  1.00  0.00    -0.000 C 
BRANCH   9  10
ATOM     10  C   UNL     1     156.992 173.937 162.085  1.00  0.00    -0.000 C 
BRANCH  10  11
ATOM     11  C   UNL     1     157.787 174.831 161.110  1.00  0.00    -0.000 C 
BRANCH  11  12
ATOM     12  C   UNL     1     157.002 175.210 159.844  1.00  0.00    -0.003 C 
ATOM     13  C   UNL     1     157.005 174.109 158.786  1.00  0.00     0.004 C 
ENDBRANCH  11  12
ENDBRANCH  10  11
ENDBRANCH   9  10
ENDBRANCH   8   9
ENDBRANCH   1   8
TORSDOF 9
ENDMDL
