MODEL 1
REMARK VINA RESULT:    -3.478      0.000      0.000
REMARK INTER + INTRA:          -5.075
REMARK INTER:                  -4.494
REMARK INTRA:                  -0.581
REMARK UNBOUND:                -0.581
REMARK SMILES CCO[C@H]1O[C@@H](CO)[C@@H](O)[C@@H](O)[C@@H]1O
REMARK SMILES IDX 4 1 13 2 11 3 9 4 6 5 5 6 3 7 2 8 1 9 14 10 12 12 7 14 8 15
REMARK SMILES IDX 10 17
REMARK H PARENT 14 11 12 13 8 16 10 18
REMARK Flexibility Score: inf
ROOT
ATOM      1  C   UNL     1       8.051  -5.751  -2.111  1.00  0.00     0.281 C 
ATOM      2  C   UNL     1       8.915  -5.229  -0.930  1.00  0.00     0.202 C 
ATOM      3  C   UNL     1       8.601  -3.758  -0.558  1.00  0.00     0.179 C 
ATOM      4  C   UNL     1       7.204  -3.324  -1.050  1.00  0.00     0.177 C 
ATOM      5  C   UNL     1       7.104  -3.586  -2.580  1.00  0.00     0.178 C 
ATOM      6  O   UNL     1       7.779  -4.744  -3.077  1.00  0.00    -0.341 OA
ENDROOT
BRANCH   1   7
ATOM      7  O   UNL     1       6.839  -6.310  -1.622  1.00  0.00    -0.350 OA
BRANCH   7   8
ATOM      8  C   UNL     1       6.638  -7.635  -2.074  1.00  0.00     0.160 C 
ATOM      9  C   UNL     1       6.629  -8.606  -0.895  1.00  0.00     0.035 C 
ENDBRANCH   7   8
ENDBRANCH   1   7
BRANCH   2  10
ATOM     10  O   UNL     1      10.286  -5.369  -1.209  1.00  0.00    -0.385 OA
ATOM     11  H   UNL     1      10.576  -4.560  -1.707  1.00  0.00     0.211 HD
ENDBRANCH   2  10
BRANCH   3  12
ATOM     12  O   UNL     1       8.779  -3.499   0.814  1.00  0.00    -0.387 OA
ATOM     13  H   UNL     1       9.445  -2.772   0.915  1.00  0.00     0.211 HD
ENDBRANCH   3  12
BRANCH   5  14
ATOM     14  C   UNL     1       5.668  -3.505  -3.125  1.00  0.00     0.191 C 
BRANCH  14  15
ATOM     15  O   UNL     1       4.915  -4.623  -2.749  1.00  0.00    -0.394 OA
ATOM     16  H   UNL     1       5.560  -5.345  -2.527  1.00  0.00     0.210 HD
ENDBRANCH  14  15
ENDBRANCH   5  14
BRANCH   4  17
ATOM     17  O   UNL     1       6.129  -3.904  -0.345  1.00  0.00    -0.387 OA
ATOM     18  H   UNL     1       6.421  -4.736   0.104  1.00  0.00     0.211 HD
ENDBRANCH   4  17
TORSDOF 7
ENDMDL
MODEL 2
REMARK VINA RESULT:    -3.380      1.894      4.094
REMARK INTER + INTRA:          -4.949
REMARK INTER:                  -4.382
REMARK INTRA:                  -0.567
REMARK UNBOUND:                -0.581
REMARK SMILES CCO[C@H]1O[C@@H](CO)[C@@H](O)[C@@H](O)[C@@H]1O
REMARK SMILES IDX 4 1 13 2 11 3 9 4 6 5 5 6 3 7 2 8 1 9 14 10 12 12 7 14 8 15
REMARK SMILES IDX 10 17
REMARK H PARENT 14 11 12 13 8 16 10 18
REMARK Flexibility Score: inf
ROOT
ATOM      1  C   UNL     1       7.772  -5.406  -2.075  1.00  0.00     0.281 C 
ATOM      2  C   UNL     1       7.571  -6.795  -1.408  1.00  0.00     0.202 C 
ATOM      3  C   UNL     1       8.879  -7.623  -1.339  1.00  0.00     0.179 C 
ATOM      4  C   UNL     1      10.133  -6.731  -1.444  1.00  0.00     0.177 C 
ATOM      5  C   UNL     1      10.038  -5.878  -2.742  1.00  0.00     0.178 C 
ATOM      6  O   UNL     1       8.733  -5.434  -3.121  1.00  0.00    -0.341 OA
ENDROOT
BRANCH   1   7
ATOM      7  O   UNL     1       8.132  -4.440  -1.096  1.00  0.00    -0.350 OA
BRANCH   7   8
ATOM      8  C   UNL     1       7.007  -3.929  -0.407  1.00  0.00     0.160 C 
ATOM      9  C   UNL     1       5.909  -3.540  -1.394  1.00  0.00     0.035 C 
ENDBRANCH   7   8
ENDBRANCH   1   7
BRANCH   2  10
ATOM     10  O   UNL     1       6.574  -7.532  -2.072  1.00  0.00    -0.385 OA
ATOM     11  H   UNL     1       5.911  -6.886  -2.432  1.00  0.00     0.211 HD
ENDBRANCH   2  10
BRANCH   3  12
ATOM     12  O   UNL     1       8.925  -8.462  -0.210  1.00  0.00    -0.387 OA
ATOM     13  H   UNL     1       8.977  -7.897   0.603  1.00  0.00     0.211 HD
ENDBRANCH   3  12
BRANCH   5  14
ATOM     14  C   UNL     1      11.052  -4.723  -2.795  1.00  0.00     0.191 C 
BRANCH  14  15
ATOM     15  O   UNL     1      10.492  -3.527  -2.332  1.00  0.00    -0.394 OA
ATOM     16  H   UNL     1      10.850  -3.375  -1.418  1.00  0.00     0.210 HD
ENDBRANCH  14  15
ENDBRANCH   5  14
BRANCH   4  17
ATOM     17  O   UNL     1      10.383  -5.935  -0.308  1.00  0.00    -0.387 OA
ATOM     18  H   UNL     1       9.533  -5.594   0.067  1.00  0.00     0.211 HD
ENDBRANCH   4  17
TORSDOF 7
ENDMDL
MODEL 3
REMARK VINA RESULT:    -3.130      2.176      4.240
REMARK INTER + INTRA:          -4.626
REMARK INTER:                  -4.030
REMARK INTRA:                  -0.597
REMARK UNBOUND:                -0.581
REMARK SMILES CCO[C@H]1O[C@@H](CO)[C@@H](O)[C@@H](O)[C@@H]1O
REMARK SMILES IDX 4 1 13 2 11 3 9 4 6 5 5 6 3 7 2 8 1 9 14 10 12 12 7 14 8 15
REMARK SMILES IDX 10 17
REMARK H PARENT 14 11 12 13 8 16 10 18
REMARK Flexibility Score: inf
ROOT
ATOM      1  C   UNL     1       9.184  -3.950  -2.980  1.00  0.00     0.281 C 
ATOM      2  C   UNL     1       8.886  -3.106  -1.710  1.00  0.00     0.202 C 
ATOM      3  C   UNL     1       8.398  -3.967  -0.517  1.00  0.00     0.179 C 
ATOM      4  C   UNL     1       8.810  -5.446  -0.667  1.00  0.00     0.177 C 
ATOM      5  C   UNL     1       8.292  -5.978  -2.035  1.00  0.00     0.178 C 
ATOM      6  O   UNL     1       8.301  -5.053  -3.125  1.00  0.00    -0.341 OA
ENDROOT
BRANCH   1   7
ATOM      7  O   UNL     1      10.535  -4.393  -2.967  1.00  0.00    -0.350 OA
BRANCH   7   8
ATOM      8  C   UNL     1      11.452  -3.325  -3.106  1.00  0.00     0.160 C 
ATOM      9  C   UNL     1      12.885  -3.851  -3.125  1.00  0.00     0.035 C 
ENDBRANCH   7   8
ENDBRANCH   1   7
BRANCH   2  10
ATOM     10  O   UNL     1       7.946  -2.096  -1.985  1.00  0.00    -0.385 OA
ATOM     11  H   UNL     1       7.276  -2.473  -2.615  1.00  0.00     0.211 HD
ENDBRANCH   2  10
BRANCH   3  12
ATOM     12  O   UNL     1       8.792  -3.436   0.726  1.00  0.00    -0.387 OA
ATOM     13  H   UNL     1       9.710  -3.073   0.639  1.00  0.00     0.211 HD
ENDBRANCH   3  12
BRANCH   5  14
ATOM     14  C   UNL     1       8.912  -7.324  -2.445  1.00  0.00     0.191 C 
BRANCH  14  15
ATOM     15  O   UNL     1      10.282  -7.199  -2.706  1.00  0.00    -0.394 OA
ATOM     16  H   UNL     1      10.370  -6.890  -3.646  1.00  0.00     0.210 HD
ENDBRANCH  14  15
ENDBRANCH   5  14
BRANCH   4  17
ATOM     17  O   UNL     1      10.188  -5.691  -0.494  1.00  0.00    -0.387 OA
ATOM     18  H   UNL     1      10.582  -6.045  -1.329  1.00  0.00     0.211 HD
ENDBRANCH   4  17
TORSDOF 7
ENDMDL
MODEL 4
REMARK VINA RESULT:    -3.083      1.731      3.993
REMARK INTER + INTRA:          -4.565
REMARK INTER:                  -4.327
REMARK INTRA:                  -0.237
REMARK UNBOUND:                -0.581
REMARK SMILES CCO[C@H]1O[C@@H](CO)[C@@H](O)[C@@H](O)[C@@H]1O
REMARK SMILES IDX 4 1 13 2 11 3 9 4 6 5 5 6 3 7 2 8 1 9 14 10 12 12 7 14 8 15
REMARK SMILES IDX 10 17
REMARK H PARENT 14 11 12 13 8 16 10 18
REMARK Flexibility Score: inf
ROOT
ATOM      1  C   UNL     1       7.878  -5.676  -2.480  1.00  0.00     0.281 C 
ATOM      2  C   UNL     1       6.438  -5.539  -3.048  1.00  0.00     0.202 C 
ATOM      3  C   UNL     1       5.589  -4.487  -2.289  1.00  0.00     0.179 C 
ATOM      4  C   UNL     1       6.470  -3.474  -1.529  1.00  0.00     0.177 C 
ATOM      5  C   UNL     1       7.436  -4.251  -0.588  1.00  0.00     0.178 C 
ATOM      6  O   UNL     1       7.929  -5.503  -1.070  1.00  0.00    -0.341 OA
ENDROOT
BRANCH   1   7
ATOM      7  O   UNL     1       8.748  -4.755  -3.125  1.00  0.00    -0.350 OA
BRANCH   7   8
ATOM      8  C   UNL     1      10.110  -5.109  -2.976  1.00  0.00     0.160 C 
ATOM      9  C   UNL     1      10.995  -3.868  -3.050  1.00  0.00     0.035 C 
ENDBRANCH   7   8
ENDBRANCH   1   7
BRANCH   2  10
ATOM     10  O   UNL     1       5.776  -6.780  -3.045  1.00  0.00    -0.385 OA
ATOM     11  H   UNL     1       6.463  -7.487  -2.930  1.00  0.00     0.211 HD
ENDBRANCH   2  10
BRANCH   3  12
ATOM     12  O   UNL     1       4.653  -3.848  -3.122  1.00  0.00    -0.387 OA
ATOM     13  H   UNL     1       3.946  -4.500  -3.363  1.00  0.00     0.211 HD
ENDBRANCH   3  12
BRANCH   5  14
ATOM     14  C   UNL     1       8.577  -3.385  -0.028  1.00  0.00     0.191 C 
BRANCH  14  15
ATOM     15  O   UNL     1       8.813  -3.662   1.324  1.00  0.00    -0.394 OA
ATOM     16  H   UNL     1       9.644  -4.205   1.366  1.00  0.00     0.210 HD
ENDBRANCH  14  15
ENDBRANCH   5  14
BRANCH   4  17
ATOM     17  O   UNL     1       7.160  -2.563  -2.356  1.00  0.00    -0.387 OA
ATOM     18  H   UNL     1       6.569  -1.811  -2.607  1.00  0.00     0.211 HD
ENDBRANCH   4  17
TORSDOF 7
ENDMDL
MODEL 5
REMARK VINA RESULT:    -2.866      1.925      3.639
REMARK INTER + INTRA:          -4.284
REMARK INTER:                  -3.829
REMARK INTRA:                  -0.456
REMARK UNBOUND:                -0.581
REMARK SMILES CCO[C@H]1O[C@@H](CO)[C@@H](O)[C@@H](O)[C@@H]1O
REMARK SMILES IDX 4 1 13 2 11 3 9 4 6 5 5 6 3 7 2 8 1 9 14 10 12 12 7 14 8 15
REMARK SMILES IDX 10 17
REMARK H PARENT 14 11 12 13 8 16 10 18
REMARK Flexibility Score: inf
ROOT
ATOM      1  C   UNL     1       9.458  -5.258  -1.497  1.00  0.00     0.281 C 
ATOM      2  C   UNL     1       9.055  -6.759  -1.509  1.00  0.00     0.202 C 
ATOM      3  C   UNL     1       7.528  -6.973  -1.353  1.00  0.00     0.179 C 
ATOM      4  C   UNL     1       6.726  -5.714  -1.742  1.00  0.00     0.177 C 
ATOM      5  C   UNL     1       7.246  -4.507  -0.909  1.00  0.00     0.178 C 
ATOM      6  O   UNL     1       8.647  -4.480  -0.626  1.00  0.00    -0.341 OA
ENDROOT
BRANCH   1   7
ATOM      7  O   UNL     1       9.419  -4.729  -2.815  1.00  0.00    -0.350 OA
BRANCH   7   8
ATOM      8  C   UNL     1      10.568  -3.963  -3.121  1.00  0.00     0.160 C 
ATOM      9  C   UNL     1      11.835  -4.775  -2.858  1.00  0.00     0.035 C 
ENDBRANCH   7   8
ENDBRANCH   1   7
BRANCH   2  10
ATOM     10  O   UNL     1       9.743  -7.473  -0.511  1.00  0.00    -0.385 OA
ATOM     11  H   UNL     1       9.543  -8.437  -0.640  1.00  0.00     0.211 HD
ENDBRANCH   2  10
BRANCH   3  12
ATOM     12  O   UNL     1       7.073  -8.117  -2.034  1.00  0.00    -0.387 OA
ATOM     13  H   UNL     1       6.227  -7.893  -2.500  1.00  0.00     0.211 HD
ENDBRANCH   3  12
BRANCH   5  14
ATOM     14  C   UNL     1       6.760  -3.145  -1.431  1.00  0.00     0.191 C 
BRANCH  14  15
ATOM     15  O   UNL     1       7.736  -2.520  -2.216  1.00  0.00    -0.394 OA
ATOM     16  H   UNL     1       7.257  -2.014  -2.924  1.00  0.00     0.210 HD
ENDBRANCH  14  15
ENDBRANCH   5  14
BRANCH   4  17
ATOM     17  O   UNL     1       6.712  -5.433  -3.124  1.00  0.00    -0.387 OA
ATOM     18  H   UNL     1       6.084  -4.694  -3.318  1.00  0.00     0.211 HD
ENDBRANCH   4  17
TORSDOF 7
ENDMDL
MODEL 6
REMARK VINA RESULT:    -2.845      2.223      3.164
REMARK INTER + INTRA:          -4.258
REMARK INTER:                  -3.655
REMARK INTRA:                  -0.602
REMARK UNBOUND:                -0.581
REMARK SMILES CCO[C@H]1O[C@@H](CO)[C@@H](O)[C@@H](O)[C@@H]1O
REMARK SMILES IDX 4 1 13 2 11 3 9 4 6 5 5 6 3 7 2 8 1 9 14 10 12 12 7 14 8 15
REMARK SMILES IDX 10 17
REMARK H PARENT 14 11 12 13 8 16 10 18
REMARK Flexibility Score: inf
ROOT
ATOM      1  C   UNL     1       9.646  -8.000  -2.003  1.00  0.00     0.281 C 
ATOM      2  C   UNL     1      11.108  -7.626  -1.634  1.00  0.00     0.202 C 
ATOM      3  C   UNL     1      11.408  -6.117  -1.820  1.00  0.00     0.179 C 
ATOM      4  C   UNL     1      10.121  -5.267  -1.812  1.00  0.00     0.177 C 
ATOM      5  C   UNL     1       9.145  -5.818  -2.892  1.00  0.00     0.178 C 
ATOM      6  O   UNL     1       9.142  -7.234  -3.089  1.00  0.00    -0.341 OA
ENDROOT
BRANCH   1   7
ATOM      7  O   UNL     1       8.803  -7.864  -0.867  1.00  0.00    -0.350 OA
BRANCH   7   8
ATOM      8  C   UNL     1       8.281  -9.106  -0.435  1.00  0.00     0.160 C 
ATOM      9  C   UNL     1       6.761  -9.124  -0.581  1.00  0.00     0.035 C 
ENDBRANCH   7   8
ENDBRANCH   1   7
BRANCH   2  10
ATOM     10  O   UNL     1      12.026  -8.391  -2.375  1.00  0.00    -0.385 OA
ATOM     11  H   UNL     1      12.638  -8.835  -1.731  1.00  0.00     0.211 HD
ENDBRANCH   2  10
BRANCH   3  12
ATOM     12  O   UNL     1      12.358  -5.639  -0.899  1.00  0.00    -0.387 OA
ATOM     13  H   UNL     1      12.382  -4.649  -0.952  1.00  0.00     0.211 HD
ENDBRANCH   3  12
BRANCH   5  14
ATOM     14  C   UNL     1       7.713  -5.273  -2.763  1.00  0.00     0.191 C 
BRANCH  14  15
ATOM     15  O   UNL     1       7.082  -5.762  -1.613  1.00  0.00    -0.394 OA
ATOM     16  H   UNL     1       6.418  -6.438  -1.913  1.00  0.00     0.210 HD
ENDBRANCH  14  15
ENDBRANCH   5  14
BRANCH   4  17
ATOM     17  O   UNL     1       9.500  -5.156  -0.550  1.00  0.00    -0.387 OA
ATOM     18  H   UNL     1       9.238  -6.049  -0.217  1.00  0.00     0.211 HD
ENDBRANCH   4  17
TORSDOF 7
ENDMDL
MODEL 7
REMARK VINA RESULT:    -2.652      1.650      3.682
REMARK INTER + INTRA:          -4.008
REMARK INTER:                  -3.929
REMARK INTRA:                  -0.078
REMARK UNBOUND:                -0.581
REMARK SMILES CCO[C@H]1O[C@@H](CO)[C@@H](O)[C@@H](O)[C@@H]1O
REMARK SMILES IDX 4 1 13 2 11 3 9 4 6 5 5 6 3 7 2 8 1 9 14 10 12 12 7 14 8 15
REMARK SMILES IDX 10 17
REMARK H PARENT 14 11 12 13 8 16 10 18
REMARK Flexibility Score: inf
ROOT
ATOM      1  C   UNL     1       8.946  -4.010  -1.087  1.00  0.00     0.281 C 
ATOM      2  C   UNL     1       9.481  -5.429  -1.427  1.00  0.00     0.202 C 
ATOM      3  C   UNL     1       8.357  -6.495  -1.491  1.00  0.00     0.179 C 
ATOM      4  C   UNL     1       6.971  -5.861  -1.726  1.00  0.00     0.177 C 
ATOM      5  C   UNL     1       6.714  -4.789  -0.627  1.00  0.00     0.178 C 
ATOM      6  O   UNL     1       7.848  -4.040  -0.185  1.00  0.00    -0.341 OA
ENDROOT
BRANCH   1   7
ATOM      7  O   UNL     1       8.591  -3.322  -2.279  1.00  0.00    -0.350 OA
BRANCH   7   8
ATOM      8  C   UNL     1       8.234  -1.975  -2.034  1.00  0.00     0.160 C 
ATOM      9  C   UNL     1       7.161  -1.520  -3.021  1.00  0.00     0.035 C 
ENDBRANCH   7   8
ENDBRANCH   1   7
BRANCH   2  10
ATOM     10  O   UNL     1      10.468  -5.829  -0.509  1.00  0.00    -0.385 OA
ATOM     11  H   UNL     1      10.158  -5.568   0.398  1.00  0.00     0.211 HD
ENDBRANCH   2  10
BRANCH   3  12
ATOM     12  O   UNL     1       8.634  -7.513  -2.422  1.00  0.00    -0.387 OA
ATOM     13  H   UNL     1       7.908  -8.187  -2.381  1.00  0.00     0.211 HD
ENDBRANCH   3  12
BRANCH   5  14
ATOM     14  C   UNL     1       5.525  -3.864  -0.937  1.00  0.00     0.191 C 
BRANCH  14  15
ATOM     15  O   UNL     1       5.022  -3.269   0.226  1.00  0.00    -0.394 OA
ATOM     16  H   UNL     1       4.723  -4.006   0.821  1.00  0.00     0.210 HD
ENDBRANCH  14  15
ENDBRANCH   5  14
BRANCH   4  17
ATOM     17  O   UNL     1       6.778  -5.341  -3.023  1.00  0.00    -0.387 OA
ATOM     18  H   UNL     1       7.228  -4.465  -3.113  1.00  0.00     0.211 HD
ENDBRANCH   4  17
TORSDOF 7
ENDMDL
MODEL 8
REMARK VINA RESULT:    -2.637      1.930      2.669
REMARK INTER + INTRA:          -3.988
REMARK INTER:                  -3.410
REMARK INTRA:                  -0.579
REMARK UNBOUND:                -0.581
REMARK SMILES CCO[C@H]1O[C@@H](CO)[C@@H](O)[C@@H](O)[C@@H]1O
REMARK SMILES IDX 4 1 13 2 11 3 9 4 6 5 5 6 3 7 2 8 1 9 14 10 12 12 7 14 8 15
REMARK SMILES IDX 10 17
REMARK H PARENT 14 11 12 13 8 16 10 18
REMARK Flexibility Score: inf
ROOT
ATOM      1  C   UNL     1       9.801  -5.869  -2.196  1.00  0.00     0.281 C 
ATOM      2  C   UNL     1      10.064  -4.357  -1.957  1.00  0.00     0.202 C 
ATOM      3  C   UNL     1       8.770  -3.505  -2.007  1.00  0.00     0.179 C 
ATOM      4  C   UNL     1       7.509  -4.357  -1.757  1.00  0.00     0.177 C 
ATOM      5  C   UNL     1       7.486  -5.536  -2.773  1.00  0.00     0.178 C 
ATOM      6  O   UNL     1       8.750  -6.102  -3.125  1.00  0.00    -0.341 OA
ENDROOT
BRANCH   1   7
ATOM      7  O   UNL     1       9.526  -6.520  -0.962  1.00  0.00    -0.350 OA
BRANCH   7   8
ATOM      8  C   UNL     1      10.124  -7.799  -0.886  1.00  0.00     0.160 C 
ATOM      9  C   UNL     1      11.457  -7.810  -1.630  1.00  0.00     0.035 C 
ENDBRANCH   7   8
ENDBRANCH   1   7
BRANCH   2  10
ATOM     10  O   UNL     1      11.001  -3.857  -2.879  1.00  0.00    -0.385 OA
ATOM     11  H   UNL     1      10.551  -3.797  -3.762  1.00  0.00     0.211 HD
ENDBRANCH   2  10
BRANCH   3  12
ATOM     12  O   UNL     1       8.827  -2.389  -1.153  1.00  0.00    -0.387 OA
ATOM     13  H   UNL     1       8.119  -2.479  -0.465  1.00  0.00     0.211 HD
ENDBRANCH   3  12
BRANCH   5  14
ATOM     14  C   UNL     1       6.467  -6.632  -2.421  1.00  0.00     0.191 C 
BRANCH  14  15
ATOM     15  O   UNL     1       6.839  -7.324  -1.262  1.00  0.00    -0.394 OA
ATOM     16  H   UNL     1       6.034  -7.373  -0.683  1.00  0.00     0.210 HD
ENDBRANCH  14  15
ENDBRANCH   5  14
BRANCH   4  17
ATOM     17  O   UNL     1       7.359  -4.806  -0.428  1.00  0.00    -0.387 OA
ATOM     18  H   UNL     1       8.209  -5.185  -0.095  1.00  0.00     0.211 HD
ENDBRANCH   4  17
TORSDOF 7
ENDMDL
MODEL 9
REMARK VINA RESULT:    -2.589      1.293      3.520
REMARK INTER + INTRA:          -3.926
REMARK INTER:                  -3.377
REMARK INTRA:                  -0.549
REMARK UNBOUND:                -0.581
REMARK SMILES CCO[C@H]1O[C@@H](CO)[C@@H](O)[C@@H](O)[C@@H]1O
REMARK SMILES IDX 4 1 13 2 11 3 9 4 6 5 5 6 3 7 2 8 1 9 14 10 12 12 7 14 8 15
REMARK SMILES IDX 10 17
REMARK H PARENT 14 11 12 13 8 16 10 18
REMARK Flexibility Score: inf
ROOT
ATOM      1  C   UNL     1       7.275  -4.937  -1.312  1.00  0.00     0.281 C 
ATOM      2  C   UNL     1       8.716  -4.525  -0.900  1.00  0.00     0.202 C 
ATOM      3  C   UNL     1       9.699  -5.722  -0.873  1.00  0.00     0.179 C 
ATOM      4  C   UNL     1       9.199  -6.900  -1.734  1.00  0.00     0.177 C 
ATOM      5  C   UNL     1       7.768  -7.295  -1.267  1.00  0.00     0.178 C 
ATOM      6  O   UNL     1       6.918  -6.228  -0.837  1.00  0.00    -0.341 OA
ENDROOT
BRANCH   1   7
ATOM      7  O   UNL     1       7.132  -4.870  -2.724  1.00  0.00    -0.350 OA
BRANCH   7   8
ATOM      8  C   UNL     1       6.239  -3.849  -3.125  1.00  0.00     0.160 C 
ATOM      9  C   UNL     1       4.798  -4.250  -2.820  1.00  0.00     0.035 C 
ENDBRANCH   7   8
ENDBRANCH   1   7
BRANCH   2  10
ATOM     10  O   UNL     1       8.717  -3.878   0.349  1.00  0.00    -0.385 OA
ATOM     11  H   UNL     1       9.203  -3.018   0.242  1.00  0.00     0.211 HD
ENDBRANCH   2  10
BRANCH   3  12
ATOM     12  O   UNL     1      11.013  -5.347  -1.209  1.00  0.00    -0.387 OA
ATOM     13  H   UNL     1      11.032  -4.369  -1.371  1.00  0.00     0.211 HD
ENDBRANCH   3  12
BRANCH   5  14
ATOM     14  C   UNL     1       7.036  -8.226  -2.248  1.00  0.00     0.191 C 
BRANCH  14  15
ATOM     15  O   UNL     1       6.169  -7.510  -3.083  1.00  0.00    -0.394 OA
ATOM     16  H   UNL     1       6.588  -7.489  -3.983  1.00  0.00     0.210 HD
ENDBRANCH  14  15
ENDBRANCH   5  14
BRANCH   4  17
ATOM     17  O   UNL     1       9.255  -6.673  -3.125  1.00  0.00    -0.387 OA
ATOM     18  H   UNL     1       9.197  -5.706  -3.318  1.00  0.00     0.211 HD
ENDBRANCH   4  17
TORSDOF 7
ENDMDL
