MODEL 1
REMARK VINA RESULT:    -4.403      0.000      0.000
REMARK INTER + INTRA:          -5.971
REMARK INTER:                  -5.947
REMARK INTRA:                  -0.024
REMARK UNBOUND:                -0.024
REMARK SMILES CCCCCCC=CC(=O)[O-]
REMARK SMILES IDX 5 1 6 2 7 3 8 4 9 5 10 6 11 7 4 8 3 9 2 10 1 11
REMARK H PARENT
REMARK Flexibility Score: inf
ROOT
ATOM      1  C   UNL     1     148.062 146.085 144.203  1.00  0.00     0.004 C 
ENDROOT
BRANCH   1   2
ATOM      2  C   UNL     1     146.572 145.858 143.915  1.00  0.00     0.027 C 
BRANCH   2   3
ATOM      3  C   UNL     1     145.740 147.002 144.420  1.00  0.00    -0.025 C 
ATOM      4  C   UNL     1     144.790 146.822 145.343  1.00  0.00     0.020 C 
BRANCH   4   5
ATOM      5  C   UNL     1     143.977 147.934 145.855  1.00  0.00     0.064 C 
ATOM      6  O   UNL     1     143.426 147.835 146.983  1.00  0.00    -0.545 OA
ATOM      7  O   UNL     1     143.804 149.096 145.112  1.00  0.00    -0.545 OA
ENDBRANCH   4   5
ENDBRANCH   2   3
ENDBRANCH   1   2
BRANCH   1   8
ATOM      8  C   UNL     1     148.355 145.963 145.706  1.00  0.00     0.000 C 
BRANCH   8   9
ATOM      9  C   UNL     1     148.226 147.303 146.453  1.00  0.00    -0.000 C 
BRANCH   9  10
ATOM     10  C   UNL     1     149.091 147.422 147.721  1.00  0.00    -0.003 C 
ATOM     11  C   UNL     1     149.088 148.830 148.317  1.00  0.00     0.004 C 
ENDBRANCH   9  10
ENDBRANCH   8   9
ENDBRANCH   1   8
TORSDOF 6
ENDMDL
MODEL 2
REMARK VINA RESULT:    -4.376      2.761      4.707
REMARK INTER + INTRA:          -5.936
REMARK INTER:                  -5.598
REMARK INTRA:                  -0.337
REMARK UNBOUND:                -0.024
REMARK SMILES CCCCCCC=CC(=O)[O-]
REMARK SMILES IDX 5 1 6 2 7 3 8 4 9 5 10 6 11 7 4 8 3 9 2 10 1 11
REMARK H PARENT
REMARK Flexibility Score: inf
ROOT
ATOM      1  C   UNL     1     147.981 146.456 144.334  1.00  0.00     0.004 C 
ENDROOT
BRANCH   1   2
ATOM      2  C   UNL     1     148.181 146.162 145.826  1.00  0.00     0.027 C 
BRANCH   2   3
ATOM      3  C   UNL     1     148.353 147.430 146.612  1.00  0.00    -0.025 C 
ATOM      4  C   UNL     1     149.086 147.466 147.729  1.00  0.00     0.020 C 
BRANCH   4   5
ATOM      5  C   UNL     1     149.275 148.702 148.502  1.00  0.00     0.064 C 
ATOM      6  O   UNL     1     150.435 149.058 148.834  1.00  0.00    -0.545 OA
ATOM      7  O   UNL     1     148.188 149.486 148.875  1.00  0.00    -0.545 OA
ENDBRANCH   4   5
ENDBRANCH   2   3
ENDBRANCH   1   2
BRANCH   1   8
ATOM      8  C   UNL     1     146.532 146.173 143.909  1.00  0.00     0.000 C 
BRANCH   8   9
ATOM      9  C   UNL     1     145.539 147.232 144.420  1.00  0.00    -0.000 C 
BRANCH   9  10
ATOM     10  C   UNL     1     144.555 146.730 145.492  1.00  0.00    -0.003 C 
ATOM     11  C   UNL     1     143.788 147.862 146.177  1.00  0.00     0.004 C 
ENDBRANCH   9  10
ENDBRANCH   8   9
ENDBRANCH   1   8
TORSDOF 6
ENDMDL
MODEL 3
REMARK VINA RESULT:    -4.224     19.339     20.816
REMARK INTER + INTRA:          -5.730
REMARK INTER:                  -5.018
REMARK INTRA:                  -0.712
REMARK UNBOUND:                -0.024
REMARK SMILES CCCCCCC=CC(=O)[O-]
REMARK SMILES IDX 5 1 6 2 7 3 8 4 9 5 10 6 11 7 4 8 3 9 2 10 1 11
REMARK H PARENT
REMARK Flexibility Score: inf
ROOT
ATOM      1  C   UNL     1     156.566 137.075 158.561  1.00  0.00     0.004 C 
ENDROOT
BRANCH   1   2
ATOM      2  C   UNL     1     157.345 138.375 158.323  1.00  0.00     0.027 C 
BRANCH   2   3
ATOM      3  C   UNL     1     157.736 139.020 159.621  1.00  0.00    -0.025 C 
ATOM      4  C   UNL     1     156.942 138.967 160.695  1.00  0.00     0.020 C 
BRANCH   4   5
ATOM      5  C   UNL     1     157.318 139.582 161.976  1.00  0.00     0.064 C 
ATOM      6  O   UNL     1     157.335 138.882 163.022  1.00  0.00    -0.545 OA
ATOM      7  O   UNL     1     157.652 140.930 162.052  1.00  0.00    -0.545 OA
ENDBRANCH   4   5
ENDBRANCH   2   3
ENDBRANCH   1   2
BRANCH   1   8
ATOM      8  C   UNL     1     157.424 135.850 158.211  1.00  0.00     0.000 C 
BRANCH   8   9
ATOM      9  C   UNL     1     157.716 134.954 159.428  1.00  0.00    -0.000 C 
BRANCH   9  10
ATOM     10  C   UNL     1     156.729 135.111 160.598  1.00  0.00    -0.003 C 
ATOM     11  C   UNL     1     157.412 135.499 161.909  1.00  0.00     0.004 C 
ENDBRANCH   9  10
ENDBRANCH   8   9
ENDBRANCH   1   8
TORSDOF 6
ENDMDL
MODEL 4
REMARK VINA RESULT:    -3.792      9.203     10.346
REMARK INTER + INTRA:          -5.147
REMARK INTER:                  -4.671
REMARK INTRA:                  -0.476
REMARK UNBOUND:                -0.024
REMARK SMILES CCCCCCC=CC(=O)[O-]
REMARK SMILES IDX 5 1 6 2 7 3 8 4 9 5 10 6 11 7 4 8 3 9 2 10 1 11
REMARK H PARENT
REMARK Flexibility Score: inf
ROOT
ATOM      1  C   UNL     1     150.907 141.236 148.315  1.00  0.00     0.004 C 
ENDROOT
BRANCH   1   2
ATOM      2  C   UNL     1     152.141 141.210 147.404  1.00  0.00     0.027 C 
BRANCH   2   3
ATOM      3  C   UNL     1     153.406 141.373 148.198  1.00  0.00    -0.025 C 
ATOM      4  C   UNL     1     154.495 141.938 147.668  1.00  0.00     0.020 C 
BRANCH   4   5
ATOM      5  C   UNL     1     155.736 142.116 148.437  1.00  0.00     0.064 C 
ATOM      6  O   UNL     1     156.810 141.621 148.007  1.00  0.00    -0.545 OA
ATOM      7  O   UNL     1     155.740 142.822 149.635  1.00  0.00    -0.545 OA
ENDBRANCH   4   5
ENDBRANCH   2   3
ENDBRANCH   1   2
BRANCH   1   8
ATOM      8  C   UNL     1     151.184 140.504 149.636  1.00  0.00     0.000 C 
BRANCH   8   9
ATOM      9  C   UNL     1     150.913 141.377 150.875  1.00  0.00    -0.000 C 
BRANCH   9  10
ATOM     10  C   UNL     1     152.126 141.582 151.799  1.00  0.00    -0.003 C 
ATOM     11  C   UNL     1     152.957 142.811 151.432  1.00  0.00     0.004 C 
ENDBRANCH   9  10
ENDBRANCH   8   9
ENDBRANCH   1   8
TORSDOF 6
ENDMDL
MODEL 5
REMARK VINA RESULT:    -3.593      9.369     10.111
REMARK INTER + INTRA:          -4.878
REMARK INTER:                  -4.575
REMARK INTRA:                  -0.303
REMARK UNBOUND:                -0.024
REMARK SMILES CCCCCCC=CC(=O)[O-]
REMARK SMILES IDX 5 1 6 2 7 3 8 4 9 5 10 6 11 7 4 8 3 9 2 10 1 11
REMARK H PARENT
REMARK Flexibility Score: inf
ROOT
ATOM      1  C   UNL     1     152.116 141.291 147.937  1.00  0.00     0.004 C 
ENDROOT
BRANCH   1   2
ATOM      2  C   UNL     1     153.609 141.639 147.878  1.00  0.00     0.027 C 
BRANCH   2   3
ATOM      3  C   UNL     1     154.013 142.073 146.498  1.00  0.00    -0.025 C 
ATOM      4  C   UNL     1     155.249 142.507 146.235  1.00  0.00     0.020 C 
BRANCH   4   5
ATOM      5  C   UNL     1     155.662 142.922 144.887  1.00  0.00     0.064 C 
ATOM      6  O   UNL     1     156.555 143.799 144.751  1.00  0.00    -0.545 OA
ATOM      7  O   UNL     1     155.079 142.361 143.755  1.00  0.00    -0.545 OA
ENDBRANCH   4   5
ENDBRANCH   2   3
ENDBRANCH   1   2
BRANCH   1   8
ATOM      8  C   UNL     1     151.792 140.478 149.199  1.00  0.00     0.000 C 
BRANCH   8   9
ATOM      9  C   UNL     1     150.938 141.261 150.214  1.00  0.00    -0.000 C 
BRANCH   9  10
ATOM     10  C   UNL     1     151.632 141.548 151.557  1.00  0.00    -0.003 C 
ATOM     11  C   UNL     1     152.837 142.478 151.420  1.00  0.00     0.004 C 
ENDBRANCH   9  10
ENDBRANCH   8   9
ENDBRANCH   1   8
TORSDOF 6
ENDMDL
MODEL 6
REMARK VINA RESULT:    -3.301      9.569     10.452
REMARK INTER + INTRA:          -4.483
REMARK INTER:                  -4.231
REMARK INTRA:                  -0.252
REMARK UNBOUND:                -0.024
REMARK SMILES CCCCCCC=CC(=O)[O-]
REMARK SMILES IDX 5 1 6 2 7 3 8 4 9 5 10 6 11 7 4 8 3 9 2 10 1 11
REMARK H PARENT
REMARK Flexibility Score: inf
ROOT
ATOM      1  C   UNL     1     153.520 141.672 147.587  1.00  0.00     0.004 C 
ENDROOT
BRANCH   1   2
ATOM      2  C   UNL     1     154.950 142.091 147.949  1.00  0.00     0.027 C 
BRANCH   2   3
ATOM      3  C   UNL     1     155.760 142.382 146.718  1.00  0.00    -0.025 C 
ATOM      4  C   UNL     1     155.182 142.763 145.575  1.00  0.00     0.020 C 
BRANCH   4   5
ATOM      5  C   UNL     1     155.963 143.063 144.366  1.00  0.00     0.064 C 
ATOM      6  O   UNL     1     156.655 144.113 144.317  1.00  0.00    -0.545 OA
ATOM      7  O   UNL     1     155.947 142.205 143.272  1.00  0.00    -0.545 OA
ENDBRANCH   4   5
ENDBRANCH   2   3
ENDBRANCH   1   2
BRANCH   1   8
ATOM      8  C   UNL     1     152.880 140.864 148.726  1.00  0.00     0.000 C 
BRANCH   8   9
ATOM      9  C   UNL     1     151.341 140.917 148.708  1.00  0.00    -0.000 C 
BRANCH   9  10
ATOM     10  C   UNL     1     150.689 141.212 150.071  1.00  0.00    -0.003 C 
ATOM     11  C   UNL     1     151.703 141.601 151.147  1.00  0.00     0.004 C 
ENDBRANCH   9  10
ENDBRANCH   8   9
ENDBRANCH   1   8
TORSDOF 6
ENDMDL
MODEL 7
REMARK VINA RESULT:    -3.300      9.304     11.093
REMARK INTER + INTRA:          -4.483
REMARK INTER:                  -3.998
REMARK INTRA:                  -0.485
REMARK UNBOUND:                -0.024
REMARK SMILES CCCCCCC=CC(=O)[O-]
REMARK SMILES IDX 5 1 6 2 7 3 8 4 9 5 10 6 11 7 4 8 3 9 2 10 1 11
REMARK H PARENT
REMARK Flexibility Score: inf
ROOT
ATOM      1  C   UNL     1     153.300 142.310 151.557  1.00  0.00     0.004 C 
ENDROOT
BRANCH   1   2
ATOM      2  C   UNL     1     153.531 142.969 150.192  1.00  0.00     0.027 C 
BRANCH   2   3
ATOM      3  C   UNL     1     154.907 142.671 149.669  1.00  0.00    -0.025 C 
ATOM      4  C   UNL     1     155.094 142.139 148.457  1.00  0.00     0.020 C 
BRANCH   4   5
ATOM      5  C   UNL     1     156.436 141.854 147.927  1.00  0.00     0.064 C 
ATOM      6  O   UNL     1     157.252 141.194 148.622  1.00  0.00    -0.545 OA
ATOM      7  O   UNL     1     156.819 142.306 146.669  1.00  0.00    -0.545 OA
ENDBRANCH   4   5
ENDBRANCH   2   3
ENDBRANCH   1   2
BRANCH   1   8
ATOM      8  C   UNL     1     151.914 141.652 151.622  1.00  0.00     0.000 C 
BRANCH   8   9
ATOM      9  C   UNL     1     151.623 140.745 150.412  1.00  0.00    -0.000 C 
BRANCH   9  10
ATOM     10  C   UNL     1     150.432 141.187 149.544  1.00  0.00    -0.003 C 
ATOM     11  C   UNL     1     150.764 141.230 148.052  1.00  0.00     0.004 C 
ENDBRANCH   9  10
ENDBRANCH   8   9
ENDBRANCH   1   8
TORSDOF 6
ENDMDL
MODEL 8
REMARK VINA RESULT:    -2.925      9.342     10.802
REMARK INTER + INTRA:          -3.975
REMARK INTER:                  -3.732
REMARK INTRA:                  -0.243
REMARK UNBOUND:                -0.024
REMARK SMILES CCCCCCC=CC(=O)[O-]
REMARK SMILES IDX 5 1 6 2 7 3 8 4 9 5 10 6 11 7 4 8 3 9 2 10 1 11
REMARK H PARENT
REMARK Flexibility Score: inf
ROOT
ATOM      1  C   UNL     1     156.524 141.623 148.329  1.00  0.00     0.004 C 
ENDROOT
BRANCH   1   2
ATOM      2  C   UNL     1     155.226 141.998 147.603  1.00  0.00     0.027 C 
BRANCH   2   3
ATOM      3  C   UNL     1     154.037 141.865 148.511  1.00  0.00    -0.025 C 
ATOM      4  C   UNL     1     152.929 141.227 148.123  1.00  0.00     0.020 C 
BRANCH   4   5
ATOM      5  C   UNL     1     151.763 141.078 149.005  1.00  0.00     0.064 C 
ATOM      6  O   UNL     1     150.633 140.831 148.508  1.00  0.00    -0.545 OA
ATOM      7  O   UNL     1     151.887 141.208 150.384  1.00  0.00    -0.545 OA
ENDBRANCH   4   5
ENDBRANCH   2   3
ENDBRANCH   1   2
BRANCH   1   8
ATOM      8  C   UNL     1     157.734 141.750 147.391  1.00  0.00     0.000 C 
BRANCH   8   9
ATOM      9  C   UNL     1     157.376 142.380 146.033  1.00  0.00    -0.000 C 
BRANCH   9  10
ATOM     10  C   UNL     1     158.125 141.786 144.827  1.00  0.00    -0.003 C 
ATOM     11  C   UNL     1     157.897 142.571 143.536  1.00  0.00     0.004 C 
ENDBRANCH   9  10
ENDBRANCH   8   9
ENDBRANCH   1   8
TORSDOF 6
ENDMDL
