MODEL 1
REMARK VINA RESULT:    -5.161      0.000      0.000
REMARK INTER + INTRA:         -11.327
REMARK INTER:                  -9.687
REMARK INTRA:                  -1.640
REMARK UNBOUND:                -1.640
REMARK SMILES CCCCCCCCC=CCCCCCCCC(=O)[O-]
REMARK SMILES IDX 10 1 9 2 11 3 12 4 13 5 14 6 15 7 16 8 17 9 18 10 19 11
REMARK SMILES IDX 20 12 8 13 7 14 6 15 5 16 4 17 3 18 2 19 1 20
REMARK H PARENT
REMARK Flexibility Score: inf
ROOT
ATOM      1  C   UNL     1       4.923  11.186  19.604  1.00  0.00    -0.031 C 
ATOM      2  C   UNL     1       6.055  11.061  18.885  1.00  0.00    -0.031 C 
ENDROOT
BRANCH   1   3
ATOM      3  C   UNL     1       3.572  11.492  19.008  1.00  0.00     0.027 C 
BRANCH   3   4
ATOM      4  C   UNL     1       2.786  10.203  18.722  1.00  0.00     0.004 C 
BRANCH   4   5
ATOM      5  C   UNL     1       3.015   9.674  17.296  1.00  0.00     0.000 C 
BRANCH   5   6
ATOM      6  C   UNL     1       2.214   8.406  16.941  1.00  0.00     0.000 C 
BRANCH   6   7
ATOM      7  C   UNL     1       0.979   8.150  17.822  1.00  0.00     0.000 C 
BRANCH   7   8
ATOM      8  C   UNL     1       0.460   6.709  17.719  1.00  0.00     0.006 C 
BRANCH   8   9
ATOM      9  C   UNL     1       0.252   6.100  19.109  1.00  0.00     0.053 C 
BRANCH   9  10
ATOM     10  C   UNL     1       1.043   4.838  19.253  1.00  0.00     0.041 C 
ATOM     11  O   UNL     1       1.268   4.114  18.248  1.00  0.00    -0.550 OA
ATOM     12  O   UNL     1       1.489   4.436  20.505  1.00  0.00    -0.550 OA
ENDBRANCH   9  10
ENDBRANCH   8   9
ENDBRANCH   7   8
ENDBRANCH   6   7
ENDBRANCH   5   6
ENDBRANCH   4   5
ENDBRANCH   3   4
ENDBRANCH   1   3
BRANCH   2  13
ATOM     13  C   UNL     1       6.118  11.152  17.380  1.00  0.00     0.027 C 
BRANCH  13  14
ATOM     14  C   UNL     1       6.136  12.616  16.921  1.00  0.00     0.004 C 
BRANCH  14  15
ATOM     15  C   UNL     1       5.390  12.821  15.592  1.00  0.00     0.000 C 
BRANCH  15  16
ATOM     16  C   UNL     1       3.853  12.735  15.739  1.00  0.00     0.000 C 
BRANCH  16  17
ATOM     17  C   UNL     1       3.139  12.697  14.377  1.00  0.00    -0.000 C 
BRANCH  17  18
ATOM     18  C   UNL     1       2.677  11.273  13.997  1.00  0.00    -0.000 C 
BRANCH  18  19
ATOM     19  C   UNL     1       3.830  10.334  13.607  1.00  0.00    -0.003 C 
ATOM     20  C   UNL     1       3.413   8.866  13.552  1.00  0.00     0.004 C 
ENDBRANCH  18  19
ENDBRANCH  17  18
ENDBRANCH  16  17
ENDBRANCH  15  16
ENDBRANCH  14  15
ENDBRANCH  13  14
ENDBRANCH   2  13
TORSDOF 15
ENDMDL
MODEL 2
REMARK VINA RESULT:    -5.101      2.529      6.332
REMARK INTER + INTRA:         -11.213
REMARK INTER:                 -10.021
REMARK INTRA:                  -1.192
REMARK UNBOUND:                -1.640
REMARK SMILES CCCCCCCCC=CCCCCCCCC(=O)[O-]
REMARK SMILES IDX 10 1 9 2 11 3 12 4 13 5 14 6 15 7 16 8 17 9 18 10 19 11
REMARK SMILES IDX 20 12 8 13 7 14 6 15 5 16 4 17 3 18 2 19 1 20
REMARK H PARENT
REMARK Flexibility Score: inf
ROOT
ATOM      1  C   UNL     1       5.189  10.854  18.875  1.00  0.00    -0.031 C 
ATOM      2  C   UNL     1       3.892  10.769  19.227  1.00  0.00    -0.031 C 
ENDROOT
BRANCH   1   3
ATOM      3  C   UNL     1       5.681  10.837  17.450  1.00  0.00     0.027 C 
BRANCH   3   4
ATOM      4  C   UNL     1       6.130  12.236  16.999  1.00  0.00     0.004 C 
BRANCH   4   5
ATOM      5  C   UNL     1       5.369  12.730  15.757  1.00  0.00     0.000 C 
BRANCH   5   6
ATOM      6  C   UNL     1       3.833  12.685  15.879  1.00  0.00     0.000 C 
BRANCH   6   7
ATOM      7  C   UNL     1       3.068  13.000  14.583  1.00  0.00     0.000 C 
BRANCH   7   8
ATOM      8  C   UNL     1       2.714  11.742  13.777  1.00  0.00     0.006 C 
BRANCH   8   9
ATOM      9  C   UNL     1       3.090  10.473  14.547  1.00  0.00     0.053 C 
BRANCH   9  10
ATOM     10  C   UNL     1       3.779   9.497  13.647  1.00  0.00     0.041 C 
ATOM     11  O   UNL     1       4.908   9.772  13.161  1.00  0.00    -0.550 OA
ATOM     12  O   UNL     1       3.154   8.306  13.304  1.00  0.00    -0.550 OA
ENDBRANCH   9  10
ENDBRANCH   8   9
ENDBRANCH   7   8
ENDBRANCH   6   7
ENDBRANCH   5   6
ENDBRANCH   4   5
ENDBRANCH   3   4
ENDBRANCH   1   3
BRANCH   2  13
ATOM     13  C   UNL     1       2.749  10.705  18.245  1.00  0.00     0.027 C 
BRANCH  13  14
ATOM     14  C   UNL     1       2.534   9.269  17.750  1.00  0.00     0.004 C 
BRANCH  14  15
ATOM     15  C   UNL     1       1.070   8.818  17.883  1.00  0.00     0.000 C 
BRANCH  15  16
ATOM     16  C   UNL     1       0.863   7.322  17.551  1.00  0.00     0.000 C 
BRANCH  16  17
ATOM     17  C   UNL     1       0.260   6.542  18.733  1.00  0.00    -0.000 C 
BRANCH  17  18
ATOM     18  C   UNL     1       0.592   5.035  18.670  1.00  0.00    -0.000 C 
BRANCH  18  19
ATOM     19  C   UNL     1       1.125   4.465  19.995  1.00  0.00    -0.003 C 
ATOM     20  C   UNL     1       2.483   3.782  19.849  1.00  0.00     0.004 C 
ENDBRANCH  18  19
ENDBRANCH  17  18
ENDBRANCH  16  17
ENDBRANCH  15  16
ENDBRANCH  14  15
ENDBRANCH  13  14
ENDBRANCH   2  13
TORSDOF 15
ENDMDL
MODEL 3
REMARK VINA RESULT:    -4.921      0.647      1.201
REMARK INTER + INTRA:         -10.876
REMARK INTER:                  -9.399
REMARK INTRA:                  -1.476
REMARK UNBOUND:                -1.640
REMARK SMILES CCCCCCCCC=CCCCCCCCC(=O)[O-]
REMARK SMILES IDX 10 1 9 2 11 3 12 4 13 5 14 6 15 7 16 8 17 9 18 10 19 11
REMARK SMILES IDX 20 12 8 13 7 14 6 15 5 16 4 17 3 18 2 19 1 20
REMARK H PARENT
REMARK Flexibility Score: inf
ROOT
ATOM      1  C   UNL     1       4.969  11.517  19.227  1.00  0.00    -0.031 C 
ATOM      2  C   UNL     1       5.918  11.402  18.278  1.00  0.00    -0.031 C 
ENDROOT
BRANCH   1   3
ATOM      3  C   UNL     1       3.488  11.439  18.955  1.00  0.00     0.027 C 
BRANCH   3   4
ATOM      4  C   UNL     1       3.018   9.980  18.847  1.00  0.00     0.004 C 
BRANCH   4   5
ATOM      5  C   UNL     1       2.413   9.653  17.471  1.00  0.00     0.000 C 
BRANCH   5   6
ATOM      6  C   UNL     1       1.856   8.222  17.334  1.00  0.00     0.000 C 
BRANCH   6   7
ATOM      7  C   UNL     1       0.476   7.999  17.977  1.00  0.00     0.000 C 
BRANCH   7   8
ATOM      8  C   UNL     1       0.465   6.835  18.978  1.00  0.00     0.006 C 
BRANCH   8   9
ATOM      9  C   UNL     1       0.519   5.487  18.255  1.00  0.00     0.053 C 
BRANCH   9  10
ATOM     10  C   UNL     1       1.179   4.455  19.114  1.00  0.00     0.041 C 
ATOM     11  O   UNL     1       1.164   4.572  20.367  1.00  0.00    -0.550 OA
ATOM     12  O   UNL     1       1.854   3.392  18.530  1.00  0.00    -0.550 OA
ENDBRANCH   9  10
ENDBRANCH   8   9
ENDBRANCH   7   8
ENDBRANCH   6   7
ENDBRANCH   5   6
ENDBRANCH   4   5
ENDBRANCH   3   4
ENDBRANCH   1   3
BRANCH   2  13
ATOM     13  C   UNL     1       5.633  11.123  16.823  1.00  0.00     0.027 C 
BRANCH  13  14
ATOM     14  C   UNL     1       5.344  12.424  16.064  1.00  0.00     0.004 C 
BRANCH  14  15
ATOM     15  C   UNL     1       3.837  12.662  15.865  1.00  0.00     0.000 C 
BRANCH  15  16
ATOM     16  C   UNL     1       3.427  12.742  14.376  1.00  0.00     0.000 C 
BRANCH  16  17
ATOM     17  C   UNL     1       2.794  11.432  13.876  1.00  0.00    -0.000 C 
BRANCH  17  18
ATOM     18  C   UNL     1       3.854  10.359  13.544  1.00  0.00    -0.000 C 
BRANCH  18  19
ATOM     19  C   UNL     1       3.595   9.005  14.227  1.00  0.00    -0.003 C 
ATOM     20  C   UNL     1       3.234   7.897  13.240  1.00  0.00     0.004 C 
ENDBRANCH  18  19
ENDBRANCH  17  18
ENDBRANCH  16  17
ENDBRANCH  15  16
ENDBRANCH  14  15
ENDBRANCH  13  14
ENDBRANCH   2  13
TORSDOF 15
ENDMDL
MODEL 4
REMARK VINA RESULT:    -4.712      0.896      3.950
REMARK INTER + INTRA:         -10.485
REMARK INTER:                  -8.610
REMARK INTRA:                  -1.875
REMARK UNBOUND:                -1.640
REMARK SMILES CCCCCCCCC=CCCCCCCCC(=O)[O-]
REMARK SMILES IDX 10 1 9 2 11 3 12 4 13 5 14 6 15 7 16 8 17 9 18 10 19 11
REMARK SMILES IDX 20 12 8 13 7 14 6 15 5 16 4 17 3 18 2 19 1 20
REMARK H PARENT
REMARK Flexibility Score: inf
ROOT
ATOM      1  C   UNL     1       2.748  10.334  13.777  1.00  0.00    -0.031 C 
ATOM      2  C   UNL     1       2.655  11.677  13.729  1.00  0.00    -0.031 C 
ENDROOT
BRANCH   1   3
ATOM      3  C   UNL     1       3.909   9.587  14.382  1.00  0.00     0.027 C 
BRANCH   3   4
ATOM      4  C   UNL     1       3.491   8.853  15.666  1.00  0.00     0.004 C 
BRANCH   4   5
ATOM      5  C   UNL     1       2.377   9.586  16.432  1.00  0.00     0.000 C 
BRANCH   5   6
ATOM      6  C   UNL     1       1.980   8.937  17.772  1.00  0.00     0.000 C 
BRANCH   6   7
ATOM      7  C   UNL     1       0.596   8.264  17.784  1.00  0.00     0.000 C 
BRANCH   7   8
ATOM      8  C   UNL     1       0.677   6.733  17.719  1.00  0.00     0.006 C 
BRANCH   8   9
ATOM      9  C   UNL     1       0.273   6.105  19.057  1.00  0.00     0.053 C 
BRANCH   9  10
ATOM     10  C   UNL     1       1.030   4.836  19.291  1.00  0.00     0.041 C 
ATOM     11  O   UNL     1       1.260   4.444  20.465  1.00  0.00    -0.550 OA
ATOM     12  O   UNL     1       1.524   4.112  18.214  1.00  0.00    -0.550 OA
ENDBRANCH   9  10
ENDBRANCH   8   9
ENDBRANCH   7   8
ENDBRANCH   6   7
ENDBRANCH   5   6
ENDBRANCH   4   5
ENDBRANCH   3   4
ENDBRANCH   1   3
BRANCH   2  13
ATOM     13  C   UNL     1       3.672  12.618  14.326  1.00  0.00     0.027 C 
BRANCH  13  14
ATOM     14  C   UNL     1       3.147  13.233  15.630  1.00  0.00     0.004 C 
BRANCH  14  15
ATOM     15  C   UNL     1       3.952  12.774  16.858  1.00  0.00     0.000 C 
BRANCH  15  16
ATOM     16  C   UNL     1       5.313  12.138  16.488  1.00  0.00     0.000 C 
BRANCH  16  17
ATOM     17  C   UNL     1       5.814  11.166  17.570  1.00  0.00    -0.000 C 
BRANCH  17  18
ATOM     18  C   UNL     1       4.708  10.797  18.583  1.00  0.00    -0.000 C 
BRANCH  18  19
ATOM     19  C   UNL     1       5.063  11.146  20.038  1.00  0.00    -0.003 C 
ATOM     20  C   UNL     1       6.566  11.127  20.308  1.00  0.00     0.004 C 
ENDBRANCH  18  19
ENDBRANCH  17  18
ENDBRANCH  16  17
ENDBRANCH  15  16
ENDBRANCH  14  15
ENDBRANCH  13  14
ENDBRANCH   2  13
TORSDOF 15
ENDMDL
MODEL 5
REMARK VINA RESULT:    -4.702      2.893      6.597
REMARK INTER + INTRA:         -10.465
REMARK INTER:                  -9.405
REMARK INTRA:                  -1.060
REMARK UNBOUND:                -1.640
REMARK SMILES CCCCCCCCC=CCCCCCCCC(=O)[O-]
REMARK SMILES IDX 10 1 9 2 11 3 12 4 13 5 14 6 15 7 16 8 17 9 18 10 19 11
REMARK SMILES IDX 20 12 8 13 7 14 6 15 5 16 4 17 3 18 2 19 1 20
REMARK H PARENT
REMARK Flexibility Score: inf
ROOT
ATOM      1  C   UNL     1       3.482  10.293  13.872  1.00  0.00    -0.031 C 
ATOM      2  C   UNL     1       3.539   9.266  14.741  1.00  0.00    -0.031 C 
ENDROOT
BRANCH   1   3
ATOM      3  C   UNL     1       3.042  11.687  14.239  1.00  0.00     0.027 C 
BRANCH   3   4
ATOM      4  C   UNL     1       4.249  12.613  14.459  1.00  0.00     0.004 C 
BRANCH   4   5
ATOM      5  C   UNL     1       4.403  13.047  15.927  1.00  0.00     0.000 C 
BRANCH   5   6
ATOM      6  C   UNL     1       3.075  13.270  16.677  1.00  0.00     0.000 C 
BRANCH   6   7
ATOM      7  C   UNL     1       3.063  12.782  18.135  1.00  0.00     0.000 C 
BRANCH   7   8
ATOM      8  C   UNL     1       3.569  11.340  18.288  1.00  0.00     0.006 C 
BRANCH   8   9
ATOM      9  C   UNL     1       4.314  11.157  19.613  1.00  0.00     0.053 C 
BRANCH   9  10
ATOM     10  C   UNL     1       5.794  11.205  19.393  1.00  0.00     0.041 C 
ATOM     11  O   UNL     1       6.260  11.227  18.224  1.00  0.00    -0.550 OA
ATOM     12  O   UNL     1       6.659  11.172  20.479  1.00  0.00    -0.550 OA
ENDBRANCH   9  10
ENDBRANCH   8   9
ENDBRANCH   7   8
ENDBRANCH   6   7
ENDBRANCH   5   6
ENDBRANCH   4   5
ENDBRANCH   3   4
ENDBRANCH   1   3
BRANCH   2  13
ATOM     13  C   UNL     1       3.226   9.381  16.212  1.00  0.00     0.027 C 
BRANCH  13  14
ATOM     14  C   UNL     1       2.441   8.157  16.701  1.00  0.00     0.004 C 
BRANCH  14  15
ATOM     15  C   UNL     1       1.358   8.529  17.728  1.00  0.00     0.000 C 
BRANCH  15  16
ATOM     16  C   UNL     1       0.216   7.489  17.808  1.00  0.00     0.000 C 
BRANCH  16  17
ATOM     17  C   UNL     1       0.288   6.644  19.092  1.00  0.00    -0.000 C 
BRANCH  17  18
ATOM     18  C   UNL     1       0.544   5.150  18.795  1.00  0.00    -0.000 C 
BRANCH  18  19
ATOM     19  C   UNL     1       1.249   4.405  19.942  1.00  0.00    -0.003 C 
ATOM     20  C   UNL     1       2.446   3.581  19.473  1.00  0.00     0.004 C 
ENDBRANCH  18  19
ENDBRANCH  17  18
ENDBRANCH  16  17
ENDBRANCH  15  16
ENDBRANCH  14  15
ENDBRANCH  13  14
ENDBRANCH   2  13
TORSDOF 15
ENDMDL
MODEL 6
REMARK VINA RESULT:    -4.676      1.144      2.265
REMARK INTER + INTRA:         -10.416
REMARK INTER:                  -8.770
REMARK INTRA:                  -1.646
REMARK UNBOUND:                -1.640
REMARK SMILES CCCCCCCCC=CCCCCCCCC(=O)[O-]
REMARK SMILES IDX 10 1 9 2 11 3 12 4 13 5 14 6 15 7 16 8 17 9 18 10 19 11
REMARK SMILES IDX 20 12 8 13 7 14 6 15 5 16 4 17 3 18 2 19 1 20
REMARK H PARENT
REMARK Flexibility Score: inf
ROOT
ATOM      1  C   UNL     1       4.742  11.259  19.275  1.00  0.00    -0.031 C 
ATOM      2  C   UNL     1       5.817  11.474  18.494  1.00  0.00    -0.031 C 
ENDROOT
BRANCH   1   3
ATOM      3  C   UNL     1       3.318  11.277  18.778  1.00  0.00     0.027 C 
BRANCH   3   4
ATOM      4  C   UNL     1       2.704   9.868  18.798  1.00  0.00     0.004 C 
BRANCH   4   5
ATOM      5  C   UNL     1       2.290   9.382  17.399  1.00  0.00     0.000 C 
BRANCH   5   6
ATOM      6  C   UNL     1       1.581   8.013  17.374  1.00  0.00     0.000 C 
BRANCH   6   7
ATOM      7  C   UNL     1       0.295   7.933  18.214  1.00  0.00     0.000 C 
BRANCH   7   8
ATOM      8  C   UNL     1       0.080   6.550  18.846  1.00  0.00     0.006 C 
BRANCH   8   9
ATOM      9  C   UNL     1       0.792   5.461  18.040  1.00  0.00     0.053 C 
BRANCH   9  10
ATOM     10  C   UNL     1       1.293   4.380  18.945  1.00  0.00     0.041 C 
ATOM     11  O   UNL     1       1.274   4.541  20.193  1.00  0.00    -0.550 OA
ATOM     12  O   UNL     1       1.827   3.216  18.409  1.00  0.00    -0.550 OA
ENDBRANCH   9  10
ENDBRANCH   8   9
ENDBRANCH   7   8
ENDBRANCH   6   7
ENDBRANCH   5   6
ENDBRANCH   4   5
ENDBRANCH   3   4
ENDBRANCH   1   3
BRANCH   2  13
ATOM     13  C   UNL     1       5.751  11.702  17.004  1.00  0.00     0.027 C 
BRANCH  13  14
ATOM     14  C   UNL     1       5.599  10.373  16.254  1.00  0.00     0.004 C 
BRANCH  14  15
ATOM     15  C   UNL     1       4.396  10.377  15.296  1.00  0.00     0.000 C 
BRANCH  15  16
ATOM     16  C   UNL     1       4.234  11.713  14.532  1.00  0.00     0.000 C 
BRANCH  16  17
ATOM     17  C   UNL     1       2.759  12.043  14.245  1.00  0.00    -0.000 C 
BRANCH  17  18
ATOM     18  C   UNL     1       2.331  13.396  14.855  1.00  0.00    -0.000 C 
BRANCH  18  19
ATOM     19  C   UNL     1       3.042  13.728  16.178  1.00  0.00    -0.003 C 
ATOM     20  C   UNL     1       2.118  14.374  17.208  1.00  0.00     0.004 C 
ENDBRANCH  18  19
ENDBRANCH  17  18
ENDBRANCH  16  17
ENDBRANCH  15  16
ENDBRANCH  14  15
ENDBRANCH  13  14
ENDBRANCH   2  13
TORSDOF 15
ENDMDL
MODEL 7
REMARK VINA RESULT:    -4.061      6.409      8.521
REMARK INTER + INTRA:          -9.263
REMARK INTER:                  -7.744
REMARK INTRA:                  -1.518
REMARK UNBOUND:                -1.640
REMARK SMILES CCCCCCCCC=CCCCCCCCC(=O)[O-]
REMARK SMILES IDX 10 1 9 2 11 3 12 4 13 5 14 6 15 7 16 8 17 9 18 10 19 11
REMARK SMILES IDX 20 12 8 13 7 14 6 15 5 16 4 17 3 18 2 19 1 20
REMARK H PARENT
REMARK Flexibility Score: inf
ROOT
ATOM      1  C   UNL     1       2.515  13.651  15.610  1.00  0.00    -0.031 C 
ATOM      2  C   UNL     1       2.953  12.898  14.582  1.00  0.00    -0.031 C 
ENDROOT
BRANCH   1   3
ATOM      3  C   UNL     1       3.092  13.600  17.002  1.00  0.00     0.027 C 
BRANCH   3   4
ATOM      4  C   UNL     1       2.125  14.211  18.028  1.00  0.00     0.004 C 
BRANCH   4   5
ATOM      5  C   UNL     1       1.233  15.307  17.422  1.00  0.00     0.000 C 
BRANCH   5   6
ATOM      6  C   UNL     1       0.518  16.201  18.454  1.00  0.00     0.000 C 
BRANCH   6   7
ATOM      7  C   UNL     1      -1.018  16.117  18.434  1.00  0.00     0.000 C 
BRANCH   7   8
ATOM      8  C   UNL     1      -1.695  17.476  18.660  1.00  0.00     0.006 C 
BRANCH   8   9
ATOM      9  C   UNL     1      -0.685  18.517  19.151  1.00  0.00     0.053 C 
BRANCH   9  10
ATOM     10  C   UNL     1      -0.390  19.512  18.073  1.00  0.00     0.041 C 
ATOM     11  O   UNL     1       0.801  19.831  17.815  1.00  0.00    -0.550 OA
ATOM     12  O   UNL     1      -1.430  20.123  17.387  1.00  0.00    -0.550 OA
ENDBRANCH   9  10
ENDBRANCH   8   9
ENDBRANCH   7   8
ENDBRANCH   6   7
ENDBRANCH   5   6
ENDBRANCH   4   5
ENDBRANCH   3   4
ENDBRANCH   1   3
BRANCH   2  13
ATOM     13  C   UNL     1       4.118  11.944  14.667  1.00  0.00     0.027 C 
BRANCH  13  14
ATOM     14  C   UNL     1       3.637  10.488  14.600  1.00  0.00     0.004 C 
BRANCH  14  15
ATOM     15  C   UNL     1       4.034   9.684  15.849  1.00  0.00     0.000 C 
BRANCH  15  16
ATOM     16  C   UNL     1       2.891   9.570  16.886  1.00  0.00     0.000 C 
BRANCH  16  17
ATOM     17  C   UNL     1       3.289  10.149  18.255  1.00  0.00    -0.000 C 
BRANCH  17  18
ATOM     18  C   UNL     1       4.714  10.743  18.248  1.00  0.00    -0.000 C 
BRANCH  18  19
ATOM     19  C   UNL     1       5.060  11.532  19.522  1.00  0.00    -0.003 C 
ATOM     20  C   UNL     1       6.421  11.159  20.106  1.00  0.00     0.004 C 
ENDBRANCH  18  19
ENDBRANCH  17  18
ENDBRANCH  16  17
ENDBRANCH  15  16
ENDBRANCH  14  15
ENDBRANCH  13  14
ENDBRANCH   2  13
TORSDOF 15
ENDMDL
MODEL 8
REMARK VINA RESULT:    -4.040      2.827      4.267
REMARK INTER + INTRA:          -9.222
REMARK INTER:                  -7.978
REMARK INTRA:                  -1.243
REMARK UNBOUND:                -1.640
REMARK SMILES CCCCCCCCC=CCCCCCCCC(=O)[O-]
REMARK SMILES IDX 10 1 9 2 11 3 12 4 13 5 14 6 15 7 16 8 17 9 18 10 19 11
REMARK SMILES IDX 20 12 8 13 7 14 6 15 5 16 4 17 3 18 2 19 1 20
REMARK H PARENT
REMARK Flexibility Score: inf
ROOT
ATOM      1  C   UNL     1       3.550  10.288  15.135  1.00  0.00    -0.031 C 
ATOM      2  C   UNL     1       3.287  11.426  14.466  1.00  0.00    -0.031 C 
ENDROOT
BRANCH   1   3
ATOM      3  C   UNL     1       4.462  10.202  16.333  1.00  0.00     0.027 C 
BRANCH   3   4
ATOM      4  C   UNL     1       3.661   9.995  17.628  1.00  0.00     0.004 C 
BRANCH   4   5
ATOM      5  C   UNL     1       2.188   9.641  17.364  1.00  0.00     0.000 C 
BRANCH   5   6
ATOM      6  C   UNL     1       1.823   8.165  17.617  1.00  0.00     0.000 C 
BRANCH   6   7
ATOM      7  C   UNL     1       0.366   7.920  18.047  1.00  0.00     0.000 C 
BRANCH   7   8
ATOM      8  C   UNL     1       0.175   6.583  18.777  1.00  0.00     0.006 C 
BRANCH   8   9
ATOM      9  C   UNL     1       0.823   5.435  17.998  1.00  0.00     0.053 C 
BRANCH   9  10
ATOM     10  C   UNL     1       1.331   4.385  18.935  1.00  0.00     0.041 C 
ATOM     11  O   UNL     1       1.749   3.285  18.486  1.00  0.00    -0.550 OA
ATOM     12  O   UNL     1       1.295   4.600  20.306  1.00  0.00    -0.550 OA
ENDBRANCH   9  10
ENDBRANCH   8   9
ENDBRANCH   7   8
ENDBRANCH   6   7
ENDBRANCH   5   6
ENDBRANCH   4   5
ENDBRANCH   3   4
ENDBRANCH   1   3
BRANCH   2  13
ATOM     13  C   UNL     1       3.821  12.782  14.856  1.00  0.00     0.027 C 
BRANCH  13  14
ATOM     14  C   UNL     1       2.806  13.539  15.724  1.00  0.00     0.004 C 
BRANCH  14  15
ATOM     15  C   UNL     1       3.180  13.513  17.216  1.00  0.00     0.000 C 
BRANCH  15  16
ATOM     16  C   UNL     1       2.102  14.154  18.121  1.00  0.00     0.000 C 
BRANCH  16  17
ATOM     17  C   UNL     1       1.282  15.225  17.381  1.00  0.00    -0.000 C 
BRANCH  17  18
ATOM     18  C   UNL     1       0.569  16.191  18.352  1.00  0.00    -0.000 C 
BRANCH  18  19
ATOM     19  C   UNL     1      -0.952  16.275  18.133  1.00  0.00    -0.003 C 
ATOM     20  C   UNL     1      -1.753  15.600  19.244  1.00  0.00     0.004 C 
ENDBRANCH  18  19
ENDBRANCH  17  18
ENDBRANCH  16  17
ENDBRANCH  15  16
ENDBRANCH  14  15
ENDBRANCH  13  14
ENDBRANCH   2  13
TORSDOF 15
ENDMDL
MODEL 9
REMARK VINA RESULT:    -4.035      1.142      2.378
REMARK INTER + INTRA:          -9.213
REMARK INTER:                  -7.700
REMARK INTRA:                  -1.513
REMARK UNBOUND:                -1.640
REMARK SMILES CCCCCCCCC=CCCCCCCCC(=O)[O-]
REMARK SMILES IDX 10 1 9 2 11 3 12 4 13 5 14 6 15 7 16 8 17 9 18 10 19 11
REMARK SMILES IDX 20 12 8 13 7 14 6 15 5 16 4 17 3 18 2 19 1 20
REMARK H PARENT
REMARK Flexibility Score: inf
ROOT
ATOM      1  C   UNL     1       3.203  12.719  18.565  1.00  0.00    -0.031 C 
ATOM      2  C   UNL     1       2.810  13.366  17.451  1.00  0.00    -0.031 C 
ENDROOT
BRANCH   1   3
ATOM      3  C   UNL     1       4.437  11.858  18.652  1.00  0.00     0.027 C 
BRANCH   3   4
ATOM      4  C   UNL     1       4.150  10.424  18.176  1.00  0.00     0.004 C 
BRANCH   4   5
ATOM      5  C   UNL     1       2.677  10.022  18.363  1.00  0.00     0.000 C 
BRANCH   5   6
ATOM      6  C   UNL     1       2.173   8.944  17.383  1.00  0.00     0.000 C 
BRANCH   6   7
ATOM      7  C   UNL     1       0.844   8.278  17.778  1.00  0.00     0.000 C 
BRANCH   7   8
ATOM      8  C   UNL     1       0.871   6.751  17.621  1.00  0.00     0.006 C 
BRANCH   8   9
ATOM      9  C   UNL     1       0.216   6.064  18.823  1.00  0.00     0.053 C 
BRANCH   9  10
ATOM     10  C   UNL     1       0.976   4.832  19.201  1.00  0.00     0.041 C 
ATOM     11  O   UNL     1       1.219   4.585  20.412  1.00  0.00    -0.550 OA
ATOM     12  O   UNL     1       1.459   3.982  18.215  1.00  0.00    -0.550 OA
ENDBRANCH   9  10
ENDBRANCH   8   9
ENDBRANCH   7   8
ENDBRANCH   6   7
ENDBRANCH   5   6
ENDBRANCH   4   5
ENDBRANCH   3   4
ENDBRANCH   1   3
BRANCH   2  13
ATOM     13  C   UNL     1       3.580  13.365  16.154  1.00  0.00     0.027 C 
BRANCH  13  14
ATOM     14  C   UNL     1       2.627  13.370  14.952  1.00  0.00     0.004 C 
BRANCH  14  15
ATOM     15  C   UNL     1       2.836  12.153  14.035  1.00  0.00     0.000 C 
BRANCH  15  16
ATOM     16  C   UNL     1       3.682  11.036  14.693  1.00  0.00     0.000 C 
BRANCH  16  17
ATOM     17  C   UNL     1       4.245  10.048  13.657  1.00  0.00    -0.000 C 
BRANCH  17  18
ATOM     18  C   UNL     1       3.769   8.601  13.909  1.00  0.00    -0.000 C 
BRANCH  18  19
ATOM     19  C   UNL     1       2.739   8.102  12.881  1.00  0.00    -0.003 C 
ATOM     20  C   UNL     1       2.407   6.620  13.038  1.00  0.00     0.004 C 
ENDBRANCH  18  19
ENDBRANCH  17  18
ENDBRANCH  16  17
ENDBRANCH  15  16
ENDBRANCH  14  15
ENDBRANCH  13  14
ENDBRANCH   2  13
TORSDOF 15
ENDMDL
