MODEL 1
REMARK VINA RESULT:    -3.115      0.000      0.000
REMARK INTER + INTRA:          -4.340
REMARK INTER:                  -4.207
REMARK INTRA:                  -0.132
REMARK UNBOUND:                -0.132
REMARK SMILES [NH3+]CCCC[C@@H]([NH3+])C(=O)[O-]
REMARK SMILES IDX 4 1 3 2 2 3 1 4 5 8 6 9 7 10 8 14 9 15 10 16
REMARK H PARENT 1 5 1 6 1 7 7 11 7 12 7 13
REMARK Flexibility Score: inf
ROOT
ATOM      1  C   UNL     1     151.597 144.632 132.880  1.00  0.00     0.012 C 
ENDROOT
BRANCH   1   2
ATOM      2  C   UNL     1     152.048 143.347 133.590  1.00  0.00     0.061 C 
BRANCH   2   3
ATOM      3  C   UNL     1     151.303 143.162 134.919  1.00  0.00     0.258 C 
BRANCH   3   4
ATOM      4  N   UNL     1     151.618 141.866 135.520  1.00  0.00    -0.358 N 
ATOM      5  H   UNL     1     150.803 141.219 135.426  1.00  0.00     0.344 HD
ATOM      6  H   UNL     1     151.828 142.002 136.535  1.00  0.00     0.344 HD
ATOM      7  H   UNL     1     152.457 141.449 135.054  1.00  0.00     0.344 HD
ENDBRANCH   3   4
ENDBRANCH   2   3
ENDBRANCH   1   2
BRANCH   1   8
ATOM      8  C   UNL     1     150.157 145.040 133.239  1.00  0.00     0.072 C 
BRANCH   8   9
ATOM      9  C   UNL     1     150.028 146.457 133.847  1.00  0.00     0.227 C 
BRANCH   9  10
ATOM     10  N   UNL     1     151.250 147.230 133.599  1.00  0.00    -0.350 N 
ATOM     11  H   UNL     1     151.054 148.252 133.712  1.00  0.00     0.345 HD
ATOM     12  H   UNL     1     151.987 146.962 134.292  1.00  0.00     0.345 HD
ATOM     13  H   UNL     1     151.610 147.055 132.633  1.00  0.00     0.345 HD
ENDBRANCH   9  10
BRANCH   9  14
ATOM     14  C   UNL     1     148.837 147.185 133.283  1.00  0.00     0.099 C 
ATOM     15  O   UNL     1     147.836 146.540 132.875  1.00  0.00    -0.544 OA
ATOM     16  O   UNL     1     148.836 148.573 133.203  1.00  0.00    -0.544 OA
ENDBRANCH   9  14
ENDBRANCH   8   9
ENDBRANCH   1   8
TORSDOF 7
ENDMDL
MODEL 2
REMARK VINA RESULT:    -3.023     12.451     14.068
REMARK INTER + INTRA:          -4.215
REMARK INTER:                  -3.767
REMARK INTRA:                  -0.448
REMARK UNBOUND:                -0.132
REMARK SMILES [NH3+]CCCC[C@@H]([NH3+])C(=O)[O-]
REMARK SMILES IDX 4 1 3 2 2 3 1 4 5 8 6 9 7 10 8 14 9 15 10 16
REMARK H PARENT 1 5 1 6 1 7 7 11 7 12 7 13
REMARK Flexibility Score: inf
ROOT
ATOM      1  C   UNL     1     138.168 149.753 135.870  1.00  0.00     0.012 C 
ENDROOT
BRANCH   1   2
ATOM      2  C   UNL     1     139.061 149.853 134.624  1.00  0.00     0.061 C 
BRANCH   2   3
ATOM      3  C   UNL     1     139.742 148.511 134.326  1.00  0.00     0.258 C 
BRANCH   3   4
ATOM      4  N   UNL     1     138.925 147.698 133.425  1.00  0.00    -0.358 N 
ATOM      5  H   UNL     1     137.923 147.731 133.722  1.00  0.00     0.344 HD
ATOM      6  H   UNL     1     139.258 146.708 133.462  1.00  0.00     0.344 HD
ATOM      7  H   UNL     1     139.016 148.049 132.444  1.00  0.00     0.344 HD
ENDBRANCH   3   4
ENDBRANCH   2   3
ENDBRANCH   1   2
BRANCH   1   8
ATOM      8  C   UNL     1     136.689 150.064 135.574  1.00  0.00     0.072 C 
BRANCH   8   9
ATOM      9  C   UNL     1     135.697 148.998 136.093  1.00  0.00     0.227 C 
BRANCH   9  10
ATOM     10  N   UNL     1     134.388 149.165 135.451  1.00  0.00    -0.350 N 
ATOM     11  H   UNL     1     133.630 149.118 136.170  1.00  0.00     0.345 HD
ATOM     12  H   UNL     1     134.338 150.101 134.986  1.00  0.00     0.345 HD
ATOM     13  H   UNL     1     134.229 148.420 134.735  1.00  0.00     0.345 HD
ENDBRANCH   9  10
BRANCH   9  14
ATOM     14  C   UNL     1     136.215 147.606 135.847  1.00  0.00     0.099 C 
ATOM     15  O   UNL     1     136.486 146.851 136.817  1.00  0.00    -0.544 OA
ATOM     16  O   UNL     1     136.402 147.146 134.549  1.00  0.00    -0.544 OA
ENDBRANCH   9  14
ENDBRANCH   8   9
ENDBRANCH   1   8
TORSDOF 7
ENDMDL
MODEL 3
REMARK VINA RESULT:    -2.994      1.688      2.024
REMARK INTER + INTRA:          -4.176
REMARK INTER:                  -4.005
REMARK INTRA:                  -0.171
REMARK UNBOUND:                -0.132
REMARK SMILES [NH3+]CCCC[C@@H]([NH3+])C(=O)[O-]
REMARK SMILES IDX 4 1 3 2 2 3 1 4 5 8 6 9 7 10 8 14 9 15 10 16
REMARK H PARENT 1 5 1 6 1 7 7 11 7 12 7 13
REMARK Flexibility Score: inf
ROOT
ATOM      1  C   UNL     1     149.583 145.134 133.128  1.00  0.00     0.012 C 
ENDROOT
BRANCH   1   2
ATOM      2  C   UNL     1     151.054 144.857 133.469  1.00  0.00     0.061 C 
BRANCH   2   3
ATOM      3  C   UNL     1     151.187 143.615 134.361  1.00  0.00     0.258 C 
BRANCH   3   4
ATOM      4  N   UNL     1     152.324 142.793 133.947  1.00  0.00    -0.358 N 
ATOM      5  H   UNL     1     151.985 141.914 133.493  1.00  0.00     0.344 HD
ATOM      6  H   UNL     1     152.890 142.543 134.790  1.00  0.00     0.344 HD
ATOM      7  H   UNL     1     152.928 143.326 133.280  1.00  0.00     0.344 HD
ENDBRANCH   3   4
ENDBRANCH   2   3
ENDBRANCH   1   2
BRANCH   1   8
ATOM      8  C   UNL     1     149.286 146.632 132.930  1.00  0.00     0.072 C 
BRANCH   8   9
ATOM      9  C   UNL     1     150.219 147.577 133.722  1.00  0.00     0.227 C 
BRANCH   9  10
ATOM     10  N   UNL     1     150.645 148.698 132.877  1.00  0.00    -0.350 N 
ATOM     11  H   UNL     1     150.410 149.605 133.342  1.00  0.00     0.345 HD
ATOM     12  H   UNL     1     151.682 148.663 132.736  1.00  0.00     0.345 HD
ATOM     13  H   UNL     1     150.173 148.659 131.944  1.00  0.00     0.345 HD
ENDBRANCH   9  10
BRANCH   9  14
ATOM     14  C   UNL     1     149.542 148.099 134.962  1.00  0.00     0.099 C 
ATOM     15  O   UNL     1     148.291 148.015 135.082  1.00  0.00    -0.544 OA
ATOM     16  O   UNL     1     150.290 148.680 135.979  1.00  0.00    -0.544 OA
ENDBRANCH   9  14
ENDBRANCH   8   9
ENDBRANCH   1   8
TORSDOF 7
ENDMDL
MODEL 4
REMARK VINA RESULT:    -2.961      1.832      2.071
REMARK INTER + INTRA:          -4.132
REMARK INTER:                  -3.990
REMARK INTRA:                  -0.142
REMARK UNBOUND:                -0.132
REMARK SMILES [NH3+]CCCC[C@@H]([NH3+])C(=O)[O-]
REMARK SMILES IDX 4 1 3 2 2 3 1 4 5 8 6 9 7 10 8 14 9 15 10 16
REMARK H PARENT 1 5 1 6 1 7 7 11 7 12 7 13
REMARK Flexibility Score: inf
ROOT
ATOM      1  C   UNL     1     150.669 145.602 132.876  1.00  0.00     0.012 C 
ENDROOT
BRANCH   1   2
ATOM      2  C   UNL     1     151.698 144.466 132.978  1.00  0.00     0.061 C 
BRANCH   2   3
ATOM      3  C   UNL     1     151.398 143.560 134.180  1.00  0.00     0.258 C 
BRANCH   3   4
ATOM      4  N   UNL     1     152.412 142.514 134.312  1.00  0.00    -0.358 N 
ATOM      5  H   UNL     1     153.249 142.886 134.817  1.00  0.00     0.344 HD
ATOM      6  H   UNL     1     152.704 142.198 133.359  1.00  0.00     0.344 HD
ATOM      7  H   UNL     1     152.019 141.696 134.833  1.00  0.00     0.344 HD
ENDBRANCH   3   4
ENDBRANCH   2   3
ENDBRANCH   1   2
BRANCH   1   8
ATOM      8  C   UNL     1     149.244 145.154 133.249  1.00  0.00     0.072 C 
BRANCH   8   9
ATOM      9  C   UNL     1     148.156 146.230 133.021  1.00  0.00     0.227 C 
BRANCH   9  10
ATOM     10  N   UNL     1     146.864 145.766 133.537  1.00  0.00    -0.350 N 
ATOM     11  H   UNL     1     146.527 146.413 134.287  1.00  0.00     0.345 HD
ATOM     12  H   UNL     1     146.155 145.761 132.768  1.00  0.00     0.345 HD
ATOM     13  H   UNL     1     146.947 144.800 133.930  1.00  0.00     0.345 HD
ENDBRANCH   9  10
BRANCH   9  14
ATOM     14  C   UNL     1     148.533 147.532 133.677  1.00  0.00     0.099 C 
ATOM     15  O   UNL     1     148.703 148.566 132.980  1.00  0.00    -0.544 OA
ATOM     16  O   UNL     1     148.700 147.601 135.056  1.00  0.00    -0.544 OA
ENDBRANCH   9  14
ENDBRANCH   8   9
ENDBRANCH   1   8
TORSDOF 7
ENDMDL
MODEL 5
REMARK VINA RESULT:    -2.929      3.306      5.334
REMARK INTER + INTRA:          -4.088
REMARK INTER:                  -4.012
REMARK INTRA:                  -0.076
REMARK UNBOUND:                -0.132
REMARK SMILES [NH3+]CCCC[C@@H]([NH3+])C(=O)[O-]
REMARK SMILES IDX 4 1 3 2 2 3 1 4 5 8 6 9 7 10 8 14 9 15 10 16
REMARK H PARENT 1 5 1 6 1 7 7 11 7 12 7 13
REMARK Flexibility Score: inf
ROOT
ATOM      1  C   UNL     1     150.611 145.119 133.635  1.00  0.00     0.012 C 
ENDROOT
BRANCH   1   2
ATOM      2  C   UNL     1     150.870 146.599 133.953  1.00  0.00     0.061 C 
BRANCH   2   3
ATOM      3  C   UNL     1     149.908 147.506 133.174  1.00  0.00     0.258 C 
BRANCH   3   4
ATOM      4  N   UNL     1     150.476 148.842 132.997  1.00  0.00    -0.358 N 
ATOM      5  H   UNL     1     150.646 149.286 133.929  1.00  0.00     0.344 HD
ATOM      6  H   UNL     1     149.801 149.432 132.458  1.00  0.00     0.344 HD
ATOM      7  H   UNL     1     151.374 148.783 132.464  1.00  0.00     0.344 HD
ENDBRANCH   3   4
ENDBRANCH   2   3
ENDBRANCH   1   2
BRANCH   1   8
ATOM      8  C   UNL     1     150.612 144.228 134.891  1.00  0.00     0.072 C 
BRANCH   8   9
ATOM      9  C   UNL     1     151.082 142.775 134.642  1.00  0.00     0.227 C 
BRANCH   9  10
ATOM     10  N   UNL     1     152.466 142.764 134.157  1.00  0.00    -0.350 N 
ATOM     11  H   UNL     1     152.497 143.077 133.159  1.00  0.00     0.345 HD
ATOM     12  H   UNL     1     153.046 143.425 134.724  1.00  0.00     0.345 HD
ATOM     13  H   UNL     1     152.876 141.804 134.228  1.00  0.00     0.345 HD
ENDBRANCH   9  10
BRANCH   9  14
ATOM     14  C   UNL     1     150.970 141.945 135.893  1.00  0.00     0.099 C 
ATOM     15  O   UNL     1     151.696 140.928 136.045  1.00  0.00    -0.544 OA
ATOM     16  O   UNL     1     150.061 142.292 136.887  1.00  0.00    -0.544 OA
ENDBRANCH   9  14
ENDBRANCH   8   9
ENDBRANCH   1   8
TORSDOF 7
ENDMDL
MODEL 6
REMARK VINA RESULT:    -2.888     18.827     19.400
REMARK INTER + INTRA:          -4.034
REMARK INTER:                  -3.522
REMARK INTRA:                  -0.512
REMARK UNBOUND:                -0.132
REMARK SMILES [NH3+]CCCC[C@@H]([NH3+])C(=O)[O-]
REMARK SMILES IDX 4 1 3 2 2 3 1 4 5 8 6 9 7 10 8 14 9 15 10 16
REMARK H PARENT 1 5 1 6 1 7 7 11 7 12 7 13
REMARK Flexibility Score: inf
ROOT
ATOM      1  C   UNL     1     152.132 153.866 150.722  1.00  0.00     0.012 C 
ENDROOT
BRANCH   1   2
ATOM      2  C   UNL     1     152.981 152.803 150.009  1.00  0.00     0.061 C 
BRANCH   2   3
ATOM      3  C   UNL     1     152.092 151.802 149.258  1.00  0.00     0.258 C 
BRANCH   3   4
ATOM      4  N   UNL     1     151.913 150.576 150.035  1.00  0.00    -0.358 N 
ATOM      5  H   UNL     1     151.230 149.945 149.558  1.00  0.00     0.344 HD
ATOM      6  H   UNL     1     151.544 150.822 150.982  1.00  0.00     0.344 HD
ATOM      7  H   UNL     1     152.830 150.085 150.147  1.00  0.00     0.344 HD
ENDBRANCH   3   4
ENDBRANCH   2   3
ENDBRANCH   1   2
BRANCH   1   8
ATOM      8  C   UNL     1     152.042 153.638 152.242  1.00  0.00     0.072 C 
BRANCH   8   9
ATOM      9  C   UNL     1     150.620 153.800 152.829  1.00  0.00     0.227 C 
BRANCH   9  10
ATOM     10  N   UNL     1     150.233 155.215 152.845  1.00  0.00    -0.350 N 
ATOM     11  H   UNL     1     151.073 155.811 153.029  1.00  0.00     0.345 HD
ATOM     12  H   UNL     1     149.840 155.486 151.913  1.00  0.00     0.345 HD
ATOM     13  H   UNL     1     149.516 155.395 153.584  1.00  0.00     0.345 HD
ENDBRANCH   9  10
BRANCH   9  14
ATOM     14  C   UNL     1     149.613 153.002 152.042  1.00  0.00     0.099 C 
ATOM     15  O   UNL     1     148.660 153.584 151.461  1.00  0.00    -0.544 OA
ATOM     16  O   UNL     1     149.726 151.619 151.957  1.00  0.00    -0.544 OA
ENDBRANCH   9  14
ENDBRANCH   8   9
ENDBRANCH   1   8
TORSDOF 7
ENDMDL
MODEL 7
REMARK VINA RESULT:    -2.158      1.491      2.062
REMARK INTER + INTRA:          -3.048
REMARK INTER:                  -2.984
REMARK INTRA:                  -0.064
REMARK UNBOUND:                -0.132
REMARK SMILES [NH3+]CCCC[C@@H]([NH3+])C(=O)[O-]
REMARK SMILES IDX 4 1 3 2 2 3 1 4 5 8 6 9 7 10 8 14 9 15 10 16
REMARK H PARENT 1 5 1 6 1 7 7 11 7 12 7 13
REMARK Flexibility Score: inf
ROOT
ATOM      1  C   UNL     1     150.921 145.954 133.677  1.00  0.00     0.012 C 
ENDROOT
BRANCH   1   2
ATOM      2  C   UNL     1     150.835 144.509 133.162  1.00  0.00     0.061 C 
BRANCH   2   3
ATOM      3  C   UNL     1     152.231 143.878 133.060  1.00  0.00     0.258 C 
BRANCH   3   4
ATOM      4  N   UNL     1     152.379 142.780 134.015  1.00  0.00    -0.358 N 
ATOM      5  H   UNL     1     152.977 143.081 134.818  1.00  0.00     0.344 HD
ATOM      6  H   UNL     1     152.837 141.971 133.536  1.00  0.00     0.344 HD
ATOM      7  H   UNL     1     151.440 142.479 134.364  1.00  0.00     0.344 HD
ENDBRANCH   3   4
ENDBRANCH   2   3
ENDBRANCH   1   2
BRANCH   1   8
ATOM      8  C   UNL     1     149.970 146.911 132.935  1.00  0.00     0.072 C 
BRANCH   8   9
ATOM      9  C   UNL     1     149.506 148.125 133.772  1.00  0.00     0.227 C 
BRANCH   9  10
ATOM     10  N   UNL     1     150.492 149.208 133.689  1.00  0.00    -0.350 N 
ATOM     11  H   UNL     1     150.979 149.176 132.764  1.00  0.00     0.345 HD
ATOM     12  H   UNL     1     150.010 150.134 133.772  1.00  0.00     0.345 HD
ATOM     13  H   UNL     1     151.201 149.124 134.454  1.00  0.00     0.345 HD
ENDBRANCH   9  10
BRANCH   9  14
ATOM     14  C   UNL     1     148.160 148.621 133.312  1.00  0.00     0.099 C 
ATOM     15  O   UNL     1     148.034 149.794 132.875  1.00  0.00    -0.544 OA
ATOM     16  O   UNL     1     147.048 147.789 133.371  1.00  0.00    -0.544 OA
ENDBRANCH   9  14
ENDBRANCH   8   9
ENDBRANCH   1   8
TORSDOF 7
ENDMDL
MODEL 8
REMARK VINA RESULT:    -0.179      3.422      5.365
REMARK INTER + INTRA:          -0.375
REMARK INTER:                  -0.285
REMARK INTRA:                  -0.090
REMARK UNBOUND:                -0.132
REMARK SMILES [NH3+]CCCC[C@@H]([NH3+])C(=O)[O-]
REMARK SMILES IDX 4 1 3 2 2 3 1 4 5 8 6 9 7 10 8 14 9 15 10 16
REMARK H PARENT 1 5 1 6 1 7 7 11 7 12 7 13
REMARK Flexibility Score: inf
ROOT
ATOM      1  C   UNL     1     151.888 143.556 133.601  1.00  0.00     0.012 C 
ENDROOT
BRANCH   1   2
ATOM      2  C   UNL     1     151.425 144.828 132.875  1.00  0.00     0.061 C 
BRANCH   2   3
ATOM      3  C   UNL     1     150.944 145.887 133.876  1.00  0.00     0.258 C 
BRANCH   3   4
ATOM      4  N   UNL     1     151.192 147.237 133.368  1.00  0.00    -0.358 N 
ATOM      5  H   UNL     1     152.201 147.347 133.118  1.00  0.00     0.344 HD
ATOM      6  H   UNL     1     150.948 147.931 134.110  1.00  0.00     0.344 HD
ATOM      7  H   UNL     1     150.597 147.418 132.526  1.00  0.00     0.344 HD
ENDBRANCH   3   4
ENDBRANCH   2   3
ENDBRANCH   1   2
BRANCH   1   8
ATOM      8  C   UNL     1     151.247 143.393 134.991  1.00  0.00     0.072 C 
BRANCH   8   9
ATOM      9  C   UNL     1     151.150 141.929 135.482  1.00  0.00     0.227 C 
BRANCH   9  10
ATOM     10  N   UNL     1     152.407 141.220 135.217  1.00  0.00    -0.350 N 
ATOM     11  H   UNL     1     153.013 141.238 136.070  1.00  0.00     0.345 HD
ATOM     12  H   UNL     1     152.207 140.220 134.981  1.00  0.00     0.345 HD
ATOM     13  H   UNL     1     152.922 141.661 134.421  1.00  0.00     0.345 HD
ENDBRANCH   9  10
BRANCH   9  14
ATOM     14  C   UNL     1     150.826 141.867 136.951  1.00  0.00     0.099 C 
ATOM     15  O   UNL     1     151.724 141.578 137.785  1.00  0.00    -0.544 OA
ATOM     16  O   UNL     1     149.535 142.125 137.396  1.00  0.00    -0.544 OA
ENDBRANCH   9  14
ENDBRANCH   8   9
ENDBRANCH   1   8
TORSDOF 7
ENDMDL
