MODEL 1
REMARK VINA RESULT:    -4.111      0.000      0.000
REMARK INTER + INTRA:          -5.066
REMARK INTER:                  -4.952
REMARK INTRA:                  -0.115
REMARK UNBOUND:                -0.115
REMARK SMILES NC(=O)C[C@H]([NH3+])C(=O)[O-]
REMARK SMILES IDX 4 1 5 2 6 3 7 7 8 8 9 9 2 10 3 11 1 12
REMARK H PARENT 6 4 6 5 6 6 1 13 1 14
REMARK Flexibility Score: inf
ROOT
ATOM      1  C   UNL     1      19.309  29.712  44.385  1.00  0.00     0.171 C 
ENDROOT
BRANCH   1   2
ATOM      2  C   UNL     1      18.875  31.087  43.835  1.00  0.00     0.237 C 
BRANCH   2   3
ATOM      3  N   UNL     1      18.668  32.066  44.912  1.00  0.00    -0.350 N 
ATOM      4  H   UNL     1      17.644  32.182  45.094  1.00  0.00     0.345 HD
ATOM      5  H   UNL     1      19.079  32.995  44.665  1.00  0.00     0.345 HD
ATOM      6  H   UNL     1      19.119  31.721  45.791  1.00  0.00     0.345 HD
ENDBRANCH   2   3
BRANCH   2   7
ATOM      7  C   UNL     1      17.657  30.972  42.955  1.00  0.00     0.100 C 
ATOM      8  O   UNL     1      17.009  31.997  42.612  1.00  0.00    -0.544 OA
ATOM      9  O   UNL     1      17.209  29.717  42.559  1.00  0.00    -0.544 OA
ENDBRANCH   2   7
ENDBRANCH   1   2
BRANCH   1  10
ATOM     10  C   UNL     1      20.481  29.121  43.653  1.00  0.00     0.223 C 
ATOM     11  O   UNL     1      20.972  29.727  42.662  1.00  0.00    -0.275 OA
ATOM     12  N   UNL     1      21.056  27.887  44.080  1.00  0.00    -0.369 N 
ATOM     13  H   UNL     1      20.665  27.372  44.900  1.00  0.00     0.159 HD
ATOM     14  H   UNL     1      21.878  27.485  43.577  1.00  0.00     0.159 HD
ENDBRANCH   1  10
TORSDOF 4
ENDMDL
MODEL 2
REMARK VINA RESULT:    -4.053      1.591      1.738
REMARK INTER + INTRA:          -4.996
REMARK INTER:                  -4.652
REMARK INTRA:                  -0.345
REMARK UNBOUND:                -0.115
REMARK SMILES NC(=O)C[C@H]([NH3+])C(=O)[O-]
REMARK SMILES IDX 4 1 5 2 6 3 7 7 8 8 9 9 2 10 3 11 1 12
REMARK H PARENT 6 4 6 5 6 6 1 13 1 14
REMARK Flexibility Score: inf
ROOT
ATOM      1  C   UNL     1      19.388  29.886  44.294  1.00  0.00     0.171 C 
ENDROOT
BRANCH   1   2
ATOM      2  C   UNL     1      18.136  30.176  43.438  1.00  0.00     0.237 C 
BRANCH   2   3
ATOM      3  N   UNL     1      18.194  29.493  42.138  1.00  0.00    -0.350 N 
ATOM      4  H   UNL     1      17.388  29.794  41.543  1.00  0.00     0.345 HD
ATOM      5  H   UNL     1      18.164  28.454  42.254  1.00  0.00     0.345 HD
ATOM      6  H   UNL     1      19.079  29.751  41.644  1.00  0.00     0.345 HD
ENDBRANCH   2   3
BRANCH   2   7
ATOM      7  C   UNL     1      17.911  31.657  43.271  1.00  0.00     0.100 C 
ATOM      8  O   UNL     1      18.581  32.491  43.939  1.00  0.00    -0.544 OA
ATOM      9  O   UNL     1      16.919  32.112  42.412  1.00  0.00    -0.544 OA
ENDBRANCH   2   7
ENDBRANCH   1   2
BRANCH   1  10
ATOM     10  C   UNL     1      20.491  29.214  43.527  1.00  0.00     0.223 C 
ATOM     11  O   UNL     1      21.061  29.825  42.582  1.00  0.00    -0.275 OA
ATOM     12  N   UNL     1      20.914  27.894  43.870  1.00  0.00    -0.369 N 
ATOM     13  H   UNL     1      20.455  27.374  44.650  1.00  0.00     0.159 HD
ATOM     14  H   UNL     1      21.689  27.435  43.342  1.00  0.00     0.159 HD
ENDBRANCH   1  10
TORSDOF 4
ENDMDL
MODEL 3
REMARK VINA RESULT:    -3.977      1.942      2.775
REMARK INTER + INTRA:          -4.905
REMARK INTER:                  -4.476
REMARK INTRA:                  -0.430
REMARK UNBOUND:                -0.115
REMARK SMILES NC(=O)C[C@H]([NH3+])C(=O)[O-]
REMARK SMILES IDX 4 1 5 2 6 3 7 7 8 8 9 9 2 10 3 11 1 12
REMARK H PARENT 6 4 6 5 6 6 1 13 1 14
REMARK Flexibility Score: inf
ROOT
ATOM      1  C   UNL     1      17.490  30.121  43.876  1.00  0.00     0.171 C 
ENDROOT
BRANCH   1   2
ATOM      2  C   UNL     1      17.605  30.027  42.339  1.00  0.00     0.237 C 
BRANCH   2   3
ATOM      3  N   UNL     1      18.830  29.327  41.925  1.00  0.00    -0.350 N 
ATOM      4  H   UNL     1      19.463  29.204  42.748  1.00  0.00     0.345 HD
ATOM      5  H   UNL     1      19.336  29.858  41.179  1.00  0.00     0.345 HD
ATOM      6  H   UNL     1      18.584  28.379  41.557  1.00  0.00     0.345 HD
ENDBRANCH   2   3
BRANCH   2   7
ATOM      7  C   UNL     1      17.502  31.385  41.692  1.00  0.00     0.100 C 
ATOM      8  O   UNL     1      16.909  32.332  42.273  1.00  0.00    -0.544 OA
ATOM      9  O   UNL     1      18.019  31.583  40.417  1.00  0.00    -0.544 OA
ENDBRANCH   2   7
ENDBRANCH   1   2
BRANCH   1  10
ATOM     10  C   UNL     1      18.761  30.567  44.541  1.00  0.00     0.223 C 
ATOM     11  O   UNL     1      19.688  29.737  44.743  1.00  0.00    -0.275 OA
ATOM     12  N   UNL     1      18.936  31.929  44.931  1.00  0.00    -0.369 N 
ATOM     13  H   UNL     1      18.180  32.631  44.771  1.00  0.00     0.159 HD
ATOM     14  H   UNL     1      19.826  32.239  45.383  1.00  0.00     0.159 HD
ENDBRANCH   1  10
TORSDOF 4
ENDMDL
MODEL 4
REMARK VINA RESULT:    -3.943      2.383      3.589
REMARK INTER + INTRA:          -4.865
REMARK INTER:                  -4.370
REMARK INTRA:                  -0.494
REMARK UNBOUND:                -0.115
REMARK SMILES NC(=O)C[C@H]([NH3+])C(=O)[O-]
REMARK SMILES IDX 4 1 5 2 6 3 7 7 8 8 9 9 2 10 3 11 1 12
REMARK H PARENT 6 4 6 5 6 6 1 13 1 14
REMARK Flexibility Score: inf
ROOT
ATOM      1  C   UNL     1      17.654  31.835  42.807  1.00  0.00     0.171 C 
ENDROOT
BRANCH   1   2
ATOM      2  C   UNL     1      17.642  30.494  42.041  1.00  0.00     0.237 C 
BRANCH   2   3
ATOM      3  N   UNL     1      17.024  29.419  42.830  1.00  0.00    -0.350 N 
ATOM      4  H   UNL     1      17.089  29.645  43.849  1.00  0.00     0.345 HD
ATOM      5  H   UNL     1      17.493  28.501  42.653  1.00  0.00     0.345 HD
ATOM      6  H   UNL     1      16.012  29.336  42.578  1.00  0.00     0.345 HD
ENDBRANCH   2   3
BRANCH   2   7
ATOM      7  C   UNL     1      19.024  30.111  41.576  1.00  0.00     0.100 C 
ATOM      8  O   UNL     1      19.260  29.906  40.355  1.00  0.00    -0.544 OA
ATOM      9  O   UNL     1      20.039  29.930  42.507  1.00  0.00    -0.544 OA
ENDBRANCH   2   7
ENDBRANCH   1   2
BRANCH   1  10
ATOM     10  C   UNL     1      17.780  31.668  44.295  1.00  0.00     0.223 C 
ATOM     11  O   UNL     1      16.756  31.430  44.990  1.00  0.00    -0.275 OA
ATOM     12  N   UNL     1      19.057  31.758  44.929  1.00  0.00    -0.369 N 
ATOM     13  H   UNL     1      19.917  31.953  44.370  1.00  0.00     0.159 HD
ATOM     14  H   UNL     1      19.143  31.630  45.962  1.00  0.00     0.159 HD
ENDBRANCH   1  10
TORSDOF 4
ENDMDL
MODEL 5
REMARK VINA RESULT:    -3.819      1.531      3.407
REMARK INTER + INTRA:          -4.715
REMARK INTER:                  -4.569
REMARK INTRA:                  -0.146
REMARK UNBOUND:                -0.115
REMARK SMILES NC(=O)C[C@H]([NH3+])C(=O)[O-]
REMARK SMILES IDX 4 1 5 2 6 3 7 7 8 8 9 9 2 10 3 11 1 12
REMARK H PARENT 6 4 6 5 6 6 1 13 1 14
REMARK Flexibility Score: inf
ROOT
ATOM      1  C   UNL     1      19.977  30.467  44.392  1.00  0.00     0.171 C 
ENDROOT
BRANCH   1   2
ATOM      2  C   UNL     1      19.923  29.331  43.347  1.00  0.00     0.237 C 
BRANCH   2   3
ATOM      3  N   UNL     1      20.910  28.281  43.630  1.00  0.00    -0.350 N 
ATOM      4  H   UNL     1      21.539  28.153  42.804  1.00  0.00     0.345 HD
ATOM      5  H   UNL     1      20.444  27.370  43.850  1.00  0.00     0.345 HD
ATOM      6  H   UNL     1      21.499  28.563  44.448  1.00  0.00     0.345 HD
ENDBRANCH   2   3
BRANCH   2   7
ATOM      7  C   UNL     1      20.070  29.862  41.945  1.00  0.00     0.100 C 
ATOM      8  O   UNL     1      21.127  30.448  41.585  1.00  0.00    -0.544 OA
ATOM      9  O   UNL     1      19.012  29.754  41.051  1.00  0.00    -0.544 OA
ENDBRANCH   2   7
ENDBRANCH   1   2
BRANCH   1  10
ATOM     10  C   UNL     1      18.697  31.247  44.489  1.00  0.00     0.223 C 
ATOM     11  O   UNL     1      18.627  32.404  43.992  1.00  0.00    -0.275 OA
ATOM     12  N   UNL     1      17.550  30.683  45.125  1.00  0.00    -0.369 N 
ATOM     13  H   UNL     1      17.588  29.726  45.541  1.00  0.00     0.159 HD
ATOM     14  H   UNL     1      16.658  31.223  45.180  1.00  0.00     0.159 HD
ENDBRANCH   1  10
TORSDOF 4
ENDMDL
MODEL 6
REMARK VINA RESULT:    -3.802      1.915      3.567
REMARK INTER + INTRA:          -4.694
REMARK INTER:                  -4.213
REMARK INTRA:                  -0.481
REMARK UNBOUND:                -0.115
REMARK SMILES NC(=O)C[C@H]([NH3+])C(=O)[O-]
REMARK SMILES IDX 4 1 5 2 6 3 7 7 8 8 9 9 2 10 3 11 1 12
REMARK H PARENT 6 4 6 5 6 6 1 13 1 14
REMARK Flexibility Score: inf
ROOT
ATOM      1  C   UNL     1      17.458  30.176  43.624  1.00  0.00     0.171 C 
ENDROOT
BRANCH   1   2
ATOM      2  C   UNL     1      18.567  30.492  44.651  1.00  0.00     0.237 C 
BRANCH   2   3
ATOM      3  N   UNL     1      18.709  31.937  44.875  1.00  0.00    -0.350 N 
ATOM      4  H   UNL     1      17.884  32.441  44.475  1.00  0.00     0.345 HD
ATOM      5  H   UNL     1      19.582  32.306  44.433  1.00  0.00     0.345 HD
ATOM      6  H   UNL     1      18.743  32.131  45.903  1.00  0.00     0.345 HD
ENDBRANCH   2   3
BRANCH   2   7
ATOM      7  C   UNL     1      19.880  29.865  44.257  1.00  0.00     0.100 C 
ATOM      8  O   UNL     1      20.304  28.833  44.845  1.00  0.00    -0.544 OA
ATOM      9  O   UNL     1      20.660  30.458  43.272  1.00  0.00    -0.544 OA
ENDBRANCH   2   7
ENDBRANCH   1   2
BRANCH   1  10
ATOM     10  C   UNL     1      17.456  31.108  42.446  1.00  0.00     0.223 C 
ATOM     11  O   UNL     1      16.799  32.183  42.496  1.00  0.00    -0.275 OA
ATOM     12  N   UNL     1      18.209  30.797  41.273  1.00  0.00    -0.369 N 
ATOM     13  H   UNL     1      18.761  29.913  41.214  1.00  0.00     0.159 HD
ATOM     14  H   UNL     1      18.216  31.452  40.461  1.00  0.00     0.159 HD
ENDBRANCH   1  10
TORSDOF 4
ENDMDL
MODEL 7
REMARK VINA RESULT:    -3.798      1.858      3.849
REMARK INTER + INTRA:          -4.690
REMARK INTER:                  -4.256
REMARK INTRA:                  -0.434
REMARK UNBOUND:                -0.115
REMARK SMILES NC(=O)C[C@H]([NH3+])C(=O)[O-]
REMARK SMILES IDX 4 1 5 2 6 3 7 7 8 8 9 9 2 10 3 11 1 12
REMARK H PARENT 6 4 6 5 6 6 1 13 1 14
REMARK Flexibility Score: inf
ROOT
ATOM      1  C   UNL     1      20.085  31.401  42.739  1.00  0.00     0.171 C 
ENDROOT
BRANCH   1   2
ATOM      2  C   UNL     1      19.934  29.887  42.476  1.00  0.00     0.237 C 
BRANCH   2   3
ATOM      3  N   UNL     1      18.581  29.545  42.013  1.00  0.00    -0.350 N 
ATOM      4  H   UNL     1      18.426  28.515  42.102  1.00  0.00     0.345 HD
ATOM      5  H   UNL     1      18.438  29.828  41.017  1.00  0.00     0.345 HD
ATOM      6  H   UNL     1      17.873  30.035  42.608  1.00  0.00     0.345 HD
ENDBRANCH   2   3
BRANCH   2   7
ATOM      7  C   UNL     1      20.325  29.074  43.683  1.00  0.00     0.100 C 
ATOM      8  O   UNL     1      21.167  28.142  43.588  1.00  0.00    -0.544 OA
ATOM      9  O   UNL     1      19.712  29.317  44.906  1.00  0.00    -0.544 OA
ENDBRANCH   2   7
ENDBRANCH   1   2
BRANCH   1  10
ATOM     10  C   UNL     1      18.864  32.021  43.358  1.00  0.00     0.223 C 
ATOM     11  O   UNL     1      17.912  32.401  42.623  1.00  0.00    -0.275 OA
ATOM     12  N   UNL     1      18.763  32.168  44.774  1.00  0.00    -0.369 N 
ATOM     13  H   UNL     1      19.540  31.858  45.399  1.00  0.00     0.159 HD
ATOM     14  H   UNL     1      17.908  32.589  45.202  1.00  0.00     0.159 HD
ENDBRANCH   1  10
TORSDOF 4
ENDMDL
MODEL 8
REMARK VINA RESULT:    -3.735     22.629     23.538
REMARK INTER + INTRA:          -4.614
REMARK INTER:                  -4.242
REMARK INTRA:                  -0.372
REMARK UNBOUND:                -0.115
REMARK SMILES NC(=O)C[C@H]([NH3+])C(=O)[O-]
REMARK SMILES IDX 4 1 5 2 6 3 7 7 8 8 9 9 2 10 3 11 1 12
REMARK H PARENT 6 4 6 5 6 6 1 13 1 14
REMARK Flexibility Score: inf
ROOT
ATOM      1  C   UNL     1      17.459  46.234  25.016  1.00  0.00     0.171 C 
ENDROOT
BRANCH   1   2
ATOM      2  C   UNL     1      16.228  45.786  25.833  1.00  0.00     0.237 C 
BRANCH   2   3
ATOM      3  N   UNL     1      16.184  46.432  27.152  1.00  0.00    -0.350 N 
ATOM      4  H   UNL     1      16.466  47.435  27.066  1.00  0.00     0.345 HD
ATOM      5  H   UNL     1      16.821  45.953  27.830  1.00  0.00     0.345 HD
ATOM      6  H   UNL     1      15.207  46.398  27.527  1.00  0.00     0.345 HD
ENDBRANCH   2   3
BRANCH   2   7
ATOM      7  C   UNL     1      16.159  44.285  25.951  1.00  0.00     0.100 C 
ATOM      8  O   UNL     1      15.279  43.734  26.667  1.00  0.00    -0.544 OA
ATOM      9  O   UNL     1      17.107  43.498  25.309  1.00  0.00    -0.544 OA
ENDBRANCH   2   7
ENDBRANCH   1   2
BRANCH   1  10
ATOM     10  C   UNL     1      18.567  46.790  25.866  1.00  0.00     0.223 C 
ATOM     11  O   UNL     1      19.099  46.069  26.753  1.00  0.00    -0.275 OA
ATOM     12  N   UNL     1      19.034  48.124  25.666  1.00  0.00    -0.369 N 
ATOM     13  H   UNL     1      18.607  48.734  24.935  1.00  0.00     0.159 HD
ATOM     14  H   UNL     1      19.812  48.504  26.250  1.00  0.00     0.159 HD
ENDBRANCH   1  10
TORSDOF 4
ENDMDL
MODEL 9
REMARK VINA RESULT:    -3.618      2.484      2.785
REMARK INTER + INTRA:          -4.473
REMARK INTER:                  -4.030
REMARK INTRA:                  -0.443
REMARK UNBOUND:                -0.115
REMARK SMILES NC(=O)C[C@H]([NH3+])C(=O)[O-]
REMARK SMILES IDX 4 1 5 2 6 3 7 7 8 8 9 9 2 10 3 11 1 12
REMARK H PARENT 6 4 6 5 6 6 1 13 1 14
REMARK Flexibility Score: inf
ROOT
ATOM      1  C   UNL     1      17.707  30.963  41.803  1.00  0.00     0.171 C 
ENDROOT
BRANCH   1   2
ATOM      2  C   UNL     1      18.099  32.091  42.782  1.00  0.00     0.237 C 
BRANCH   2   3
ATOM      3  N   UNL     1      19.309  32.799  42.344  1.00  0.00    -0.350 N 
ATOM      4  H   UNL     1      19.273  33.795  42.661  1.00  0.00     0.345 HD
ATOM      5  H   UNL     1      19.406  32.775  41.302  1.00  0.00     0.345 HD
ATOM      6  H   UNL     1      20.153  32.351  42.771  1.00  0.00     0.345 HD
ENDBRANCH   2   3
BRANCH   2   7
ATOM      7  C   UNL     1      18.243  31.575  44.191  1.00  0.00     0.100 C 
ATOM      8  O   UNL     1      19.355  31.162  44.616  1.00  0.00    -0.544 OA
ATOM      9  O   UNL     1      17.127  31.502  45.016  1.00  0.00    -0.544 OA
ENDBRANCH   2   7
ENDBRANCH   1   2
BRANCH   1  10
ATOM     10  C   UNL     1      18.887  30.197  41.276  1.00  0.00     0.223 C 
ATOM     11  O   UNL     1      19.346  30.461  40.131  1.00  0.00    -0.275 OA
ATOM     12  N   UNL     1      19.507  29.184  42.068  1.00  0.00    -0.369 N 
ATOM     13  H   UNL     1      19.142  28.953  43.018  1.00  0.00     0.159 HD
ATOM     14  H   UNL     1      20.334  28.662  41.703  1.00  0.00     0.159 HD
ENDBRANCH   1  10
TORSDOF 4
ENDMDL
