MODEL 1
REMARK VINA RESULT:    -4.297      0.000      0.000
REMARK INTER + INTRA:          -4.689
REMARK INTER:                  -4.673
REMARK INTRA:                  -0.016
REMARK UNBOUND:                -0.016
REMARK SMILES OCc1ccccc1
REMARK SMILES IDX 2 1 3 2 6 3 5 4 7 5 4 6 8 7 1 8
REMARK H PARENT 1 9
REMARK Flexibility Score: inf
ROOT
ATOM      1  C   UNL     1      27.875   9.254  56.074  1.00  0.00     0.191 C 
ENDROOT
BRANCH   1   2
ATOM      2  C   UNL     1      27.482  10.253  55.026  1.00  0.00    -0.023 A 
ATOM      3  C   UNL     1      26.796  12.175  53.100  1.00  0.00     0.000 A 
ATOM      4  C   UNL     1      27.876  11.316  52.876  1.00  0.00     0.000 A 
ATOM      5  C   UNL     1      26.065  12.084  54.287  1.00  0.00     0.000 A 
ATOM      6  C   UNL     1      28.223  10.361  53.837  1.00  0.00     0.006 A 
ATOM      7  C   UNL     1      26.408  11.130  55.251  1.00  0.00     0.006 A 
ENDBRANCH   1   2
BRANCH   1   8
ATOM      8  O   UNL     1      27.875   9.875  57.329  1.00  0.00    -0.392 OA
ATOM      9  H   UNL     1      28.783   9.736  57.705  1.00  0.00     0.211 HD
ENDBRANCH   1   8
TORSDOF 2
ENDMDL
MODEL 2
REMARK VINA RESULT:    -4.283     21.266     21.476
REMARK INTER + INTRA:          -4.675
REMARK INTER:                  -4.654
REMARK INTRA:                  -0.020
REMARK UNBOUND:                -0.016
REMARK SMILES OCc1ccccc1
REMARK SMILES IDX 2 1 3 2 6 3 5 4 7 5 4 6 8 7 1 8
REMARK H PARENT 1 9
REMARK Flexibility Score: inf
ROOT
ATOM      1  C   UNL     1      39.764  24.884  63.524  1.00  0.00     0.191 C 
ENDROOT
BRANCH   1   2
ATOM      2  C   UNL     1      39.595  24.620  64.992  1.00  0.00    -0.023 A 
ATOM      3  C   UNL     1      39.273  24.049  67.720  1.00  0.00     0.000 A 
ATOM      4  C   UNL     1      40.552  24.074  67.158  1.00  0.00     0.000 A 
ATOM      5  C   UNL     1      38.153  24.297  66.921  1.00  0.00     0.000 A 
ATOM      6  C   UNL     1      40.715  24.353  65.797  1.00  0.00     0.006 A 
ATOM      7  C   UNL     1      38.310  24.577  65.560  1.00  0.00     0.006 A 
ENDBRANCH   1   2
BRANCH   1   8
ATOM      8  O   UNL     1      38.520  25.198  62.964  1.00  0.00    -0.392 OA
ATOM      9  H   UNL     1      38.585  24.965  62.002  1.00  0.00     0.211 HD
ENDBRANCH   1   8
TORSDOF 2
ENDMDL
MODEL 3
REMARK VINA RESULT:    -4.255     21.303     21.563
REMARK INTER + INTRA:          -4.644
REMARK INTER:                  -4.624
REMARK INTRA:                  -0.021
REMARK UNBOUND:                -0.016
REMARK SMILES OCc1ccccc1
REMARK SMILES IDX 2 1 3 2 6 3 5 4 7 5 4 6 8 7 1 8
REMARK H PARENT 1 9
REMARK Flexibility Score: inf
ROOT
ATOM      1  C   UNL     1      39.766  24.891  63.521  1.00  0.00     0.191 C 
ENDROOT
BRANCH   1   2
ATOM      2  C   UNL     1      39.643  24.572  64.982  1.00  0.00    -0.023 A 
ATOM      3  C   UNL     1      39.419  24.053  67.731  1.00  0.00     0.000 A 
ATOM      4  C   UNL     1      38.272  24.297  66.971  1.00  0.00     0.000 A 
ATOM      5  C   UNL     1      40.678  24.079  67.126  1.00  0.00     0.000 A 
ATOM      6  C   UNL     1      38.382  24.561  65.602  1.00  0.00     0.006 A 
ATOM      7  C   UNL     1      40.793  24.343  65.757  1.00  0.00     0.006 A 
ENDBRANCH   1   2
BRANCH   1   8
ATOM      8  O   UNL     1      38.497  25.179  63.002  1.00  0.00    -0.392 OA
ATOM      9  H   UNL     1      37.853  24.662  63.551  1.00  0.00     0.211 HD
ENDBRANCH   1   8
TORSDOF 2
ENDMDL
MODEL 4
REMARK VINA RESULT:    -4.217     21.437     21.665
REMARK INTER + INTRA:          -4.602
REMARK INTER:                  -4.581
REMARK INTRA:                  -0.021
REMARK UNBOUND:                -0.016
REMARK SMILES OCc1ccccc1
REMARK SMILES IDX 2 1 3 2 6 3 5 4 7 5 4 6 8 7 1 8
REMARK H PARENT 1 9
REMARK Flexibility Score: inf
ROOT
ATOM      1  C   UNL     1      38.433  25.073  64.440  1.00  0.00     0.191 C 
ENDROOT
BRANCH   1   2
ATOM      2  C   UNL     1      39.764  24.536  64.875  1.00  0.00    -0.023 A 
ATOM      3  C   UNL     1      42.284  23.605  65.686  1.00  0.00     0.000 A 
ATOM      4  C   UNL     1      41.352  24.018  66.642  1.00  0.00     0.000 A 
ATOM      5  C   UNL     1      41.967  23.665  64.326  1.00  0.00     0.000 A 
ATOM      6  C   UNL     1      40.097  24.487  66.240  1.00  0.00     0.006 A 
ATOM      7  C   UNL     1      40.713  24.134  63.920  1.00  0.00     0.006 A 
ENDBRANCH   1   2
BRANCH   1   8
ATOM      8  O   UNL     1      38.423  25.211  63.047  1.00  0.00    -0.392 OA
ATOM      9  H   UNL     1      37.467  25.252  62.781  1.00  0.00     0.211 HD
ENDBRANCH   1   8
TORSDOF 2
ENDMDL
MODEL 5
REMARK VINA RESULT:    -4.129     18.933     20.180
REMARK INTER + INTRA:          -4.506
REMARK INTER:                  -4.490
REMARK INTRA:                  -0.016
REMARK UNBOUND:                -0.016
REMARK SMILES OCc1ccccc1
REMARK SMILES IDX 2 1 3 2 6 3 5 4 7 5 4 6 8 7 1 8
REMARK H PARENT 1 9
REMARK Flexibility Score: inf
ROOT
ATOM      1  C   UNL     1      44.433  10.994  66.756  1.00  0.00     0.191 C 
ENDROOT
BRANCH   1   2
ATOM      2  C   UNL     1      43.463   9.869  66.969  1.00  0.00    -0.023 A 
ATOM      3  C   UNL     1      41.643   7.787  67.445  1.00  0.00     0.000 A 
ATOM      4  C   UNL     1      41.176   9.048  67.066  1.00  0.00     0.000 A 
ATOM      5  C   UNL     1      43.014   7.564  67.597  1.00  0.00     0.000 A 
ATOM      6  C   UNL     1      42.081  10.089  66.834  1.00  0.00     0.006 A 
ATOM      7  C   UNL     1      43.923   8.602  67.366  1.00  0.00     0.006 A 
ENDBRANCH   1   2
BRANCH   1   8
ATOM      8  O   UNL     1      44.016  11.763  65.662  1.00  0.00    -0.392 OA
ATOM      9  H   UNL     1      43.976  11.143  64.889  1.00  0.00     0.211 HD
ENDBRANCH   1   8
TORSDOF 2
ENDMDL
MODEL 6
REMARK VINA RESULT:    -4.035     18.955     20.043
REMARK INTER + INTRA:          -4.405
REMARK INTER:                  -4.387
REMARK INTRA:                  -0.018
REMARK UNBOUND:                -0.016
REMARK SMILES OCc1ccccc1
REMARK SMILES IDX 2 1 3 2 6 3 5 4 7 5 4 6 8 7 1 8
REMARK H PARENT 1 9
REMARK Flexibility Score: inf
ROOT
ATOM      1  C   UNL     1      40.958   6.940  68.968  1.00  0.00     0.191 C 
ENDROOT
BRANCH   1   2
ATOM      2  C   UNL     1      41.732   8.101  68.416  1.00  0.00    -0.023 A 
ATOM      3  C   UNL     1      43.141  10.320  67.434  1.00  0.00     0.000 A 
ATOM      4  C   UNL     1      43.655   9.586  68.506  1.00  0.00     0.000 A 
ATOM      5  C   UNL     1      41.920   9.957  66.858  1.00  0.00     0.000 A 
ATOM      6  C   UNL     1      42.952   8.482  69.000  1.00  0.00     0.006 A 
ATOM      7  C   UNL     1      41.213   8.855  67.349  1.00  0.00     0.006 A 
ENDBRANCH   1   2
BRANCH   1   8
ATOM      8  O   UNL     1      39.588   7.188  68.826  1.00  0.00    -0.392 OA
ATOM      9  H   UNL     1      39.458   7.483  67.888  1.00  0.00     0.211 HD
ENDBRANCH   1   8
TORSDOF 2
ENDMDL
MODEL 7
REMARK VINA RESULT:    -3.988     21.711     21.901
REMARK INTER + INTRA:          -4.354
REMARK INTER:                  -4.335
REMARK INTRA:                  -0.018
REMARK UNBOUND:                -0.016
REMARK SMILES OCc1ccccc1
REMARK SMILES IDX 2 1 3 2 6 3 5 4 7 5 4 6 8 7 1 8
REMARK H PARENT 1 9
REMARK Flexibility Score: inf
ROOT
ATOM      1  C   UNL     1      42.117  23.848  65.883  1.00  0.00     0.191 C 
ENDROOT
BRANCH   1   2
ATOM      2  C   UNL     1      40.665  24.155  66.106  1.00  0.00    -0.023 A 
ATOM      3  C   UNL     1      37.932  24.650  66.507  1.00  0.00     0.000 A 
ATOM      4  C   UNL     1      38.732  24.244  67.578  1.00  0.00     0.000 A 
ATOM      5  C   UNL     1      38.490  24.800  65.234  1.00  0.00     0.000 A 
ATOM      6  C   UNL     1      40.094  23.991  67.380  1.00  0.00     0.006 A 
ATOM      7  C   UNL     1      39.851  24.548  65.030  1.00  0.00     0.006 A 
ENDBRANCH   1   2
BRANCH   1   8
ATOM      8  O   UNL     1      42.524  22.855  66.783  1.00  0.00    -0.392 OA
ATOM      9  H   UNL     1      41.748  22.691  67.380  1.00  0.00     0.211 HD
ENDBRANCH   1   8
TORSDOF 2
ENDMDL
MODEL 8
REMARK VINA RESULT:    -3.944     23.489     23.760
REMARK INTER + INTRA:          -4.306
REMARK INTER:                  -4.294
REMARK INTRA:                  -0.011
REMARK UNBOUND:                -0.016
REMARK SMILES OCc1ccccc1
REMARK SMILES IDX 2 1 3 2 6 3 5 4 7 5 4 6 8 7 1 8
REMARK H PARENT 1 9
REMARK Flexibility Score: inf
ROOT
ATOM      1  C   UNL     1      41.512  23.830  66.428  1.00  0.00     0.191 C 
ENDROOT
BRANCH   1   2
ATOM      2  C   UNL     1      40.907  24.523  67.614  1.00  0.00    -0.023 A 
ATOM      3  C   UNL     1      39.841  25.799  69.874  1.00  0.00     0.000 A 
ATOM      4  C   UNL     1      40.657  26.511  68.991  1.00  0.00     0.000 A 
ATOM      5  C   UNL     1      39.564  24.449  69.639  1.00  0.00     0.000 A 
ATOM      6  C   UNL     1      41.194  25.876  67.867  1.00  0.00     0.006 A 
ATOM      7  C   UNL     1      40.099  23.810  68.515  1.00  0.00     0.006 A 
ENDBRANCH   1   2
BRANCH   1   8
ATOM      8  O   UNL     1      42.515  22.956  66.865  1.00  0.00    -0.392 OA
ATOM      9  H   UNL     1      42.208  22.044  66.626  1.00  0.00     0.211 HD
ENDBRANCH   1   8
TORSDOF 2
ENDMDL
MODEL 9
REMARK VINA RESULT:    -3.853     21.434     21.604
REMARK INTER + INTRA:          -4.207
REMARK INTER:                  -4.190
REMARK INTRA:                  -0.017
REMARK UNBOUND:                -0.016
REMARK SMILES OCc1ccccc1
REMARK SMILES IDX 2 1 3 2 6 3 5 4 7 5 4 6 8 7 1 8
REMARK H PARENT 1 9
REMARK Flexibility Score: inf
ROOT
ATOM      1  C   UNL     1      40.950  24.496  61.863  1.00  0.00     0.191 C 
ENDROOT
BRANCH   1   2
ATOM      2  C   UNL     1      41.239  24.271  63.318  1.00  0.00    -0.023 A 
ATOM      3  C   UNL     1      41.747  23.776  66.033  1.00  0.00     0.000 A 
ATOM      4  C   UNL     1      42.705  23.445  65.072  1.00  0.00     0.000 A 
ATOM      5  C   UNL     1      40.530  24.343  65.642  1.00  0.00     0.000 A 
ATOM      6  C   UNL     1      42.452  23.685  63.718  1.00  0.00     0.006 A 
ATOM      7  C   UNL     1      40.273  24.586  64.289  1.00  0.00     0.006 A 
ENDBRANCH   1   2
BRANCH   1   8
ATOM      8  O   UNL     1      41.408  23.398  61.125  1.00  0.00    -0.392 OA
ATOM      9  H   UNL     1      41.651  23.751  60.230  1.00  0.00     0.211 HD
ENDBRANCH   1   8
TORSDOF 2
ENDMDL
