MODEL 1
REMARK VINA RESULT:    -4.824      0.000      0.000
REMARK INTER + INTRA:          -5.290
REMARK INTER:                  -5.247
REMARK INTRA:                  -0.043
REMARK UNBOUND:                -0.043
REMARK SMILES COc1ccccc1O
REMARK SMILES IDX 3 1 4 2 5 3 6 4 7 5 8 6 2 7 1 8 9 9
REMARK H PARENT 9 10
REMARK Flexibility Score: inf
ROOT
ATOM      1  C   UNL     1     172.231 158.513 156.645  1.00  0.00     0.160 A 
ATOM      2  C   UNL     1     171.444 159.471 155.973  1.00  0.00     0.050 A 
ATOM      3  C   UNL     1     170.427 160.149 156.651  1.00  0.00     0.004 A 
ATOM      4  C   UNL     1     170.183 159.881 157.999  1.00  0.00     0.004 A 
ATOM      5  C   UNL     1     170.957 158.933 158.674  1.00  0.00     0.050 A 
ATOM      6  C   UNL     1     171.980 158.249 158.001  1.00  0.00     0.157 A 
ENDROOT
BRANCH   1   7
ATOM      7  O   UNL     1     173.263 157.810 156.004  1.00  0.00    -0.493 OA
ATOM      8  C   UNL     1     173.068 156.891 154.935  1.00  0.00     0.278 C 
ENDBRANCH   1   7
BRANCH   6   9
ATOM      9  O   UNL     1     172.752 157.303 158.673  1.00  0.00    -0.504 OA
ATOM     10  H   UNL     1     173.508 156.810 158.211  1.00  0.00     0.293 HD
ENDBRANCH   6   9
TORSDOF 2
ENDMDL
MODEL 2
REMARK VINA RESULT:    -4.766      1.479      3.101
REMARK INTER + INTRA:          -5.227
REMARK INTER:                  -5.184
REMARK INTRA:                  -0.043
REMARK UNBOUND:                -0.043
REMARK SMILES COc1ccccc1O
REMARK SMILES IDX 3 1 4 2 5 3 6 4 7 5 8 6 2 7 1 8 9 9
REMARK H PARENT 9 10
REMARK Flexibility Score: inf
ROOT
ATOM      1  C   UNL     1     171.494 159.152 157.379  1.00  0.00     0.160 A 
ATOM      2  C   UNL     1     170.560 159.815 156.556  1.00  0.00     0.050 A 
ATOM      3  C   UNL     1     170.923 160.232 155.271  1.00  0.00     0.004 A 
ATOM      4  C   UNL     1     172.213 159.993 154.796  1.00  0.00     0.004 A 
ATOM      5  C   UNL     1     173.146 159.337 155.603  1.00  0.00     0.050 A 
ATOM      6  C   UNL     1     172.790 158.916 156.893  1.00  0.00     0.157 A 
ENDROOT
BRANCH   1   7
ATOM      7  O   UNL     1     171.173 158.717 158.673  1.00  0.00    -0.493 OA
ATOM      8  C   UNL     1     170.813 159.579 159.748  1.00  0.00     0.278 C 
ENDBRANCH   1   7
BRANCH   6   9
ATOM      9  O   UNL     1     173.718 158.262 157.699  1.00  0.00    -0.504 OA
ATOM     10  H   UNL     1     174.255 157.472 157.358  1.00  0.00     0.293 HD
ENDBRANCH   6   9
TORSDOF 2
ENDMDL
MODEL 3
REMARK VINA RESULT:    -4.689      1.388      1.641
REMARK INTER + INTRA:          -5.144
REMARK INTER:                  -5.107
REMARK INTRA:                  -0.037
REMARK UNBOUND:                -0.043
REMARK SMILES COc1ccccc1O
REMARK SMILES IDX 3 1 4 2 5 3 6 4 7 5 8 6 2 7 1 8 9 9
REMARK H PARENT 9 10
REMARK Flexibility Score: inf
ROOT
ATOM      1  C   UNL     1     171.433 159.157 156.943  1.00  0.00     0.160 A 
ATOM      2  C   UNL     1     170.260 159.925 157.098  1.00  0.00     0.050 A 
ATOM      3  C   UNL     1     169.756 160.193 158.374  1.00  0.00     0.004 A 
ATOM      4  C   UNL     1     170.412 159.702 159.504  1.00  0.00     0.004 A 
ATOM      5  C   UNL     1     171.575 158.940 159.361  1.00  0.00     0.050 A 
ATOM      6  C   UNL     1     172.087 158.667 158.084  1.00  0.00     0.157 A 
ENDROOT
BRANCH   1   7
ATOM      7  O   UNL     1     171.973 158.864 155.681  1.00  0.00    -0.493 OA
ATOM      8  C   UNL     1     172.257 159.836 154.681  1.00  0.00     0.278 C 
ENDBRANCH   1   7
BRANCH   6   9
ATOM      9  O   UNL     1     173.246 157.908 157.940  1.00  0.00    -0.504 OA
ATOM     10  H   UNL     1     173.721 157.507 158.742  1.00  0.00     0.293 HD
ENDBRANCH   6   9
TORSDOF 2
ENDMDL
MODEL 4
REMARK VINA RESULT:    -4.612      2.117      3.596
REMARK INTER + INTRA:          -5.059
REMARK INTER:                  -5.019
REMARK INTRA:                  -0.040
REMARK UNBOUND:                -0.043
REMARK SMILES COc1ccccc1O
REMARK SMILES IDX 3 1 4 2 5 3 6 4 7 5 8 6 2 7 1 8 9 9
REMARK H PARENT 9 10
REMARK Flexibility Score: inf
ROOT
ATOM      1  C   UNL     1     170.438 160.156 156.017  1.00  0.00     0.160 A 
ATOM      2  C   UNL     1     170.024 160.088 157.364  1.00  0.00     0.050 A 
ATOM      3  C   UNL     1     170.761 159.345 158.291  1.00  0.00     0.004 A 
ATOM      4  C   UNL     1     171.911 158.665 157.888  1.00  0.00     0.004 A 
ATOM      5  C   UNL     1     172.329 158.726 156.556  1.00  0.00     0.050 A 
ATOM      6  C   UNL     1     171.595 159.469 155.620  1.00  0.00     0.157 A 
ENDROOT
BRANCH   1   7
ATOM      7  O   UNL     1     169.729 160.890 155.053  1.00  0.00    -0.493 OA
ATOM      8  C   UNL     1     168.361 160.676 154.722  1.00  0.00     0.278 C 
ENDBRANCH   1   7
BRANCH   6   9
ATOM      9  O   UNL     1     172.011 159.531 154.292  1.00  0.00    -0.504 OA
ATOM     10  H   UNL     1     172.402 160.379 153.896  1.00  0.00     0.293 HD
ENDBRANCH   6   9
TORSDOF 2
ENDMDL
MODEL 5
REMARK VINA RESULT:    -4.556      1.928      3.567
REMARK INTER + INTRA:          -4.998
REMARK INTER:                  -5.049
REMARK INTRA:                   0.051
REMARK UNBOUND:                -0.043
REMARK SMILES COc1ccccc1O
REMARK SMILES IDX 3 1 4 2 5 3 6 4 7 5 8 6 2 7 1 8 9 9
REMARK H PARENT 9 10
REMARK Flexibility Score: inf
ROOT
ATOM      1  C   UNL     1     171.661 158.974 157.341  1.00  0.00     0.160 A 
ATOM      2  C   UNL     1     172.972 158.741 156.875  1.00  0.00     0.050 A 
ATOM      3  C   UNL     1     173.363 159.198 155.613  1.00  0.00     0.004 A 
ATOM      4  C   UNL     1     172.458 159.888 154.806  1.00  0.00     0.004 A 
ATOM      5  C   UNL     1     171.157 160.124 155.259  1.00  0.00     0.050 A 
ATOM      6  C   UNL     1     170.756 159.669 156.524  1.00  0.00     0.157 A 
ENDROOT
BRANCH   1   7
ATOM      7  O   UNL     1     171.226 158.534 158.601  1.00  0.00    -0.493 OA
ATOM      8  C   UNL     1     171.124 159.363 159.753  1.00  0.00     0.278 C 
ENDBRANCH   1   7
BRANCH   6   9
ATOM      9  O   UNL     1     169.460 159.903 156.976  1.00  0.00    -0.504 OA
ATOM     10  H   UNL     1     168.920 159.181 157.441  1.00  0.00     0.293 HD
ENDBRANCH   6   9
TORSDOF 2
ENDMDL
MODEL 6
REMARK VINA RESULT:    -4.542      1.827      2.608
REMARK INTER + INTRA:          -4.983
REMARK INTER:                  -4.951
REMARK INTRA:                  -0.032
REMARK UNBOUND:                -0.043
REMARK SMILES COc1ccccc1O
REMARK SMILES IDX 3 1 4 2 5 3 6 4 7 5 8 6 2 7 1 8 9 9
REMARK H PARENT 9 10
REMARK Flexibility Score: inf
ROOT
ATOM      1  C   UNL     1     171.766 159.203 155.981  1.00  0.00     0.160 A 
ATOM      2  C   UNL     1     172.576 158.508 156.903  1.00  0.00     0.050 A 
ATOM      3  C   UNL     1     172.241 158.489 158.261  1.00  0.00     0.004 A 
ATOM      4  C   UNL     1     171.103 159.159 158.712  1.00  0.00     0.004 A 
ATOM      5  C   UNL     1     170.295 159.851 157.806  1.00  0.00     0.050 A 
ATOM      6  C   UNL     1     170.624 159.875 156.443  1.00  0.00     0.157 A 
ENDROOT
BRANCH   1   7
ATOM      7  O   UNL     1     172.064 159.249 154.611  1.00  0.00    -0.493 OA
ATOM      8  C   UNL     1     172.542 158.142 153.853  1.00  0.00     0.278 C 
ENDBRANCH   1   7
BRANCH   6   9
ATOM      9  O   UNL     1     169.818 160.565 155.539  1.00  0.00    -0.504 OA
ATOM     10  H   UNL     1     169.338 161.419 155.800  1.00  0.00     0.293 HD
ENDBRANCH   6   9
TORSDOF 2
ENDMDL
MODEL 7
REMARK VINA RESULT:    -4.481      2.518      3.515
REMARK INTER + INTRA:          -4.918
REMARK INTER:                  -4.894
REMARK INTRA:                  -0.024
REMARK UNBOUND:                -0.043
REMARK SMILES COc1ccccc1O
REMARK SMILES IDX 3 1 4 2 5 3 6 4 7 5 8 6 2 7 1 8 9 9
REMARK H PARENT 9 10
REMARK Flexibility Score: inf
ROOT
ATOM      1  C   UNL     1     170.746 160.238 155.616  1.00  0.00     0.160 A 
ATOM      2  C   UNL     1     171.872 160.046 154.788  1.00  0.00     0.050 A 
ATOM      3  C   UNL     1     172.935 159.247 155.219  1.00  0.00     0.004 A 
ATOM      4  C   UNL     1     172.889 158.634 156.472  1.00  0.00     0.004 A 
ATOM      5  C   UNL     1     171.778 158.819 157.299  1.00  0.00     0.050 A 
ATOM      6  C   UNL     1     170.707 159.619 156.875  1.00  0.00     0.157 A 
ENDROOT
BRANCH   1   7
ATOM      7  O   UNL     1     169.656 161.031 155.223  1.00  0.00    -0.493 OA
ATOM      8  C   UNL     1     168.525 160.548 154.507  1.00  0.00     0.278 C 
ENDBRANCH   1   7
BRANCH   6   9
ATOM      9  O   UNL     1     169.598 159.803 157.699  1.00  0.00    -0.504 OA
ATOM     10  H   UNL     1     169.408 159.184 158.479  1.00  0.00     0.293 HD
ENDBRANCH   6   9
TORSDOF 2
ENDMDL
MODEL 8
REMARK VINA RESULT:    -4.246      2.438      3.976
REMARK INTER + INTRA:          -4.661
REMARK INTER:                  -4.616
REMARK INTRA:                  -0.045
REMARK UNBOUND:                -0.043
REMARK SMILES COc1ccccc1O
REMARK SMILES IDX 3 1 4 2 5 3 6 4 7 5 8 6 2 7 1 8 9 9
REMARK H PARENT 9 10
REMARK Flexibility Score: inf
ROOT
ATOM      1  C   UNL     1     171.732 159.309 155.352  1.00  0.00     0.160 A 
ATOM      2  C   UNL     1     171.829 158.952 156.712  1.00  0.00     0.050 A 
ATOM      3  C   UNL     1     172.419 157.740 157.083  1.00  0.00     0.004 A 
ATOM      4  C   UNL     1     172.915 156.875 156.106  1.00  0.00     0.004 A 
ATOM      5  C   UNL     1     172.823 157.220 154.755  1.00  0.00     0.050 A 
ATOM      6  C   UNL     1     172.233 158.434 154.376  1.00  0.00     0.157 A 
ENDROOT
BRANCH   1   7
ATOM      7  O   UNL     1     171.148 160.516 154.935  1.00  0.00    -0.493 OA
ATOM      8  C   UNL     1     169.762 160.820 155.043  1.00  0.00     0.278 C 
ENDBRANCH   1   7
BRANCH   6   9
ATOM      9  O   UNL     1     172.141 158.779 153.029  1.00  0.00    -0.504 OA
ATOM     10  H   UNL     1     171.800 158.123 152.335  1.00  0.00     0.293 HD
ENDBRANCH   6   9
TORSDOF 2
ENDMDL
MODEL 9
REMARK VINA RESULT:    -4.137      2.611      3.610
REMARK INTER + INTRA:          -4.543
REMARK INTER:                  -4.512
REMARK INTRA:                  -0.030
REMARK UNBOUND:                -0.043
REMARK SMILES COc1ccccc1O
REMARK SMILES IDX 3 1 4 2 5 3 6 4 7 5 8 6 2 7 1 8 9 9
REMARK H PARENT 9 10
REMARK Flexibility Score: inf
ROOT
ATOM      1  C   UNL     1     172.430 158.666 154.047  1.00  0.00     0.160 A 
ATOM      2  C   UNL     1     172.923 157.374 154.323  1.00  0.00     0.050 A 
ATOM      3  C   UNL     1     172.904 156.875 155.628  1.00  0.00     0.004 A 
ATOM      4  C   UNL     1     172.395 157.655 156.668  1.00  0.00     0.004 A 
ATOM      5  C   UNL     1     171.904 158.936 156.406  1.00  0.00     0.050 A 
ATOM      6  C   UNL     1     171.919 159.443 155.098  1.00  0.00     0.157 A 
ENDROOT
BRANCH   1   7
ATOM      7  O   UNL     1     172.429 159.205 152.751  1.00  0.00    -0.493 OA
ATOM      8  C   UNL     1     173.423 158.941 151.768  1.00  0.00     0.278 C 
ENDBRANCH   1   7
BRANCH   6   9
ATOM      9  O   UNL     1     171.429 160.721 154.835  1.00  0.00    -0.504 OA
ATOM     10  H   UNL     1     171.231 161.029 153.889  1.00  0.00     0.293 HD
ENDBRANCH   6   9
TORSDOF 2
ENDMDL
