MODEL 1
REMARK VINA RESULT:    -3.921      0.000      0.000
REMARK INTER + INTRA:          -6.281
REMARK INTER:                  -5.755
REMARK INTRA:                  -0.526
REMARK UNBOUND:                -0.526
REMARK SMILES O=C([O-])CCCCCCCC(=O)[O-]
REMARK SMILES IDX 7 1 6 2 5 3 4 4 2 5 1 6 3 7 8 8 9 9 10 10 11 11 12 12 13 13
REMARK H PARENT
REMARK Flexibility Score: inf
ROOT
ATOM      1  C   UNL     1     -10.503   3.525  17.122  1.00  0.00     0.000 C 
ENDROOT
BRANCH   1   2
ATOM      2  C   UNL     1     -11.871   4.081  16.700  1.00  0.00     0.000 C 
BRANCH   2   3
ATOM      3  C   UNL     1     -12.990   3.714  17.687  1.00  0.00     0.006 C 
BRANCH   3   4
ATOM      4  C   UNL     1     -12.462   3.432  19.100  1.00  0.00     0.053 C 
BRANCH   4   5
ATOM      5  C   UNL     1     -13.479   3.826  20.125  1.00  0.00     0.041 C 
ATOM      6  O   UNL     1     -14.069   4.935  20.039  1.00  0.00    -0.550 OA
ATOM      7  O   UNL     1     -13.739   2.990  21.204  1.00  0.00    -0.550 OA
ENDBRANCH   4   5
ENDBRANCH   3   4
ENDBRANCH   2   3
ENDBRANCH   1   2
BRANCH   1   8
ATOM      8  C   UNL     1      -9.787   2.870  15.930  1.00  0.00     0.000 C 
BRANCH   8   9
ATOM      9  C   UNL     1      -9.975   1.346  15.890  1.00  0.00     0.006 C 
BRANCH   9  10
ATOM     10  C   UNL     1     -10.408   0.839  14.509  1.00  0.00     0.053 C 
BRANCH  10  11
ATOM     11  C   UNL     1     -11.873   0.535  14.500  1.00  0.00     0.041 C 
ATOM     12  O   UNL     1     -12.415   0.058  13.469  1.00  0.00    -0.550 OA
ATOM     13  O   UNL     1     -12.648   0.824  15.616  1.00  0.00    -0.550 OA
ENDBRANCH  10  11
ENDBRANCH   9  10
ENDBRANCH   8   9
ENDBRANCH   1   8
TORSDOF 8
ENDMDL
MODEL 2
REMARK VINA RESULT:    -3.912      2.445      2.921
REMARK INTER + INTRA:          -6.268
REMARK INTER:                  -5.446
REMARK INTRA:                  -0.822
REMARK UNBOUND:                -0.526
REMARK SMILES O=C([O-])CCCCCCCC(=O)[O-]
REMARK SMILES IDX 7 1 6 2 5 3 4 4 2 5 1 6 3 7 8 8 9 9 10 10 11 11 12 12 13 13
REMARK H PARENT
REMARK Flexibility Score: inf
ROOT
ATOM      1  C   UNL     1     -12.367   2.805  16.711  1.00  0.00     0.000 C 
ENDROOT
BRANCH   1   2
ATOM      2  C   UNL     1     -12.748   3.649  17.936  1.00  0.00     0.000 C 
BRANCH   2   3
ATOM      3  C   UNL     1     -11.800   3.429  19.126  1.00  0.00     0.006 C 
BRANCH   3   4
ATOM      4  C   UNL     1     -11.491   1.946  19.368  1.00  0.00     0.053 C 
BRANCH   4   5
ATOM      5  C   UNL     1     -10.026   1.749  19.597  1.00  0.00     0.041 C 
ATOM      6  O   UNL     1      -9.215   2.683  19.359  1.00  0.00    -0.550 OA
ATOM      7  O   UNL     1      -9.548   0.517  20.026  1.00  0.00    -0.550 OA
ENDBRANCH   4   5
ENDBRANCH   3   4
ENDBRANCH   2   3
ENDBRANCH   1   2
BRANCH   1   8
ATOM      8  C   UNL     1     -11.280   3.506  15.880  1.00  0.00     0.000 C 
BRANCH   8   9
ATOM      9  C   UNL     1      -9.944   2.748  15.893  1.00  0.00     0.006 C 
BRANCH   9  10
ATOM     10  C   UNL     1     -10.127   1.226  15.935  1.00  0.00     0.053 C 
BRANCH  10  11
ATOM     11  C   UNL     1     -10.268   0.678  14.549  1.00  0.00     0.041 C 
ATOM     12  O   UNL     1     -11.407   0.408  14.087  1.00  0.00    -0.550 OA
ATOM     13  O   UNL     1      -9.136   0.422  13.786  1.00  0.00    -0.550 OA
ENDBRANCH  10  11
ENDBRANCH   9  10
ENDBRANCH   8   9
ENDBRANCH   1   8
TORSDOF 8
ENDMDL
MODEL 3
REMARK VINA RESULT:    -3.880      0.752      5.653
REMARK INTER + INTRA:          -6.221
REMARK INTER:                  -5.668
REMARK INTRA:                  -0.553
REMARK UNBOUND:                -0.526
REMARK SMILES O=C([O-])CCCCCCCC(=O)[O-]
REMARK SMILES IDX 7 1 6 2 5 3 4 4 2 5 1 6 3 7 8 8 9 9 10 10 11 11 12 12 13 13
REMARK H PARENT
REMARK Flexibility Score: inf
ROOT
ATOM      1  C   UNL     1     -10.327   3.368  16.736  1.00  0.00     0.000 C 
ENDROOT
BRANCH   1   2
ATOM      2  C   UNL     1      -9.689   2.589  15.577  1.00  0.00     0.000 C 
BRANCH   2   3
ATOM      3  C   UNL     1     -10.038   1.092  15.606  1.00  0.00     0.006 C 
BRANCH   3   4
ATOM      4  C   UNL     1     -10.551   0.579  14.255  1.00  0.00     0.053 C 
BRANCH   4   5
ATOM      5  C   UNL     1     -12.012   0.268  14.335  1.00  0.00     0.041 C 
ATOM      6  O   UNL     1     -12.578  -0.363  13.403  1.00  0.00    -0.550 OA
ATOM      7  O   UNL     1     -12.761   0.719  15.414  1.00  0.00    -0.550 OA
ENDBRANCH   4   5
ENDBRANCH   3   4
ENDBRANCH   2   3
ENDBRANCH   1   2
BRANCH   1   8
ATOM      8  C   UNL     1     -11.697   3.933  16.328  1.00  0.00     0.000 C 
BRANCH   8   9
ATOM      9  C   UNL     1     -12.796   3.619  17.355  1.00  0.00     0.006 C 
BRANCH   9  10
ATOM     10  C   UNL     1     -12.230   3.212  18.722  1.00  0.00     0.053 C 
BRANCH  10  11
ATOM     11  C   UNL     1     -12.890   3.994  19.813  1.00  0.00     0.041 C 
ATOM     12  O   UNL     1     -14.139   4.154  19.813  1.00  0.00    -0.550 OA
ATOM     13  O   UNL     1     -12.121   4.588  20.805  1.00  0.00    -0.550 OA
ENDBRANCH  10  11
ENDBRANCH   9  10
ENDBRANCH   8   9
ENDBRANCH   1   8
TORSDOF 8
ENDMDL
MODEL 4
REMARK VINA RESULT:    -3.777      2.282      5.517
REMARK INTER + INTRA:          -6.070
REMARK INTER:                  -5.301
REMARK INTRA:                  -0.769
REMARK UNBOUND:                -0.526
REMARK SMILES O=C([O-])CCCCCCCC(=O)[O-]
REMARK SMILES IDX 7 1 6 2 5 3 4 4 2 5 1 6 3 7 8 8 9 9 10 10 11 11 12 12 13 13
REMARK H PARENT
REMARK Flexibility Score: inf
ROOT
ATOM      1  C   UNL     1     -12.862   3.596  17.148  1.00  0.00     0.000 C 
ENDROOT
BRANCH   1   2
ATOM      2  C   UNL     1     -12.374   2.357  16.384  1.00  0.00     0.000 C 
BRANCH   2   3
ATOM      3  C   UNL     1     -10.991   2.560  15.746  1.00  0.00     0.006 C 
BRANCH   3   4
ATOM      4  C   UNL     1     -10.142   1.282  15.757  1.00  0.00     0.053 C 
BRANCH   4   5
ATOM      5  C   UNL     1     -10.196   0.608  14.423  1.00  0.00     0.041 C 
ATOM      6  O   UNL     1      -9.147   0.467  13.740  1.00  0.00    -0.550 OA
ATOM      7  O   UNL     1     -11.414   0.178  13.910  1.00  0.00    -0.550 OA
ENDBRANCH   4   5
ENDBRANCH   3   4
ENDBRANCH   2   3
ENDBRANCH   1   2
BRANCH   1   8
ATOM      8  C   UNL     1     -11.679   4.366  17.755  1.00  0.00     0.000 C 
BRANCH   8   9
ATOM      9  C   UNL     1     -11.431   4.007  19.228  1.00  0.00     0.006 C 
BRANCH   9  10
ATOM     10  C   UNL     1     -10.070   3.335  19.451  1.00  0.00     0.053 C 
BRANCH  10  11
ATOM     11  C   UNL     1     -10.223   1.847  19.489  1.00  0.00     0.041 C 
ATOM     12  O   UNL     1      -9.260   1.102  19.170  1.00  0.00    -0.550 OA
ATOM     13  O   UNL     1     -11.446   1.283  19.832  1.00  0.00    -0.550 OA
ENDBRANCH  10  11
ENDBRANCH   9  10
ENDBRANCH   8   9
ENDBRANCH   1   8
TORSDOF 8
ENDMDL
MODEL 5
REMARK VINA RESULT:    -3.703      1.242      6.136
REMARK INTER + INTRA:          -5.961
REMARK INTER:                  -5.480
REMARK INTRA:                  -0.481
REMARK UNBOUND:                -0.526
REMARK SMILES O=C([O-])CCCCCCCC(=O)[O-]
REMARK SMILES IDX 7 1 6 2 5 3 4 4 2 5 1 6 3 7 8 8 9 9 10 10 11 11 12 12 13 13
REMARK H PARENT
REMARK Flexibility Score: inf
ROOT
ATOM      1  C   UNL     1     -12.436   2.914  16.623  1.00  0.00     0.000 C 
ENDROOT
BRANCH   1   2
ATOM      2  C   UNL     1     -11.234   3.727  16.119  1.00  0.00     0.000 C 
BRANCH   2   3
ATOM      3  C   UNL     1     -10.081   2.838  15.628  1.00  0.00     0.006 C 
BRANCH   3   4
ATOM      4  C   UNL     1     -10.385   1.342  15.775  1.00  0.00     0.053 C 
BRANCH   4   5
ATOM      5  C   UNL     1     -10.408   0.680  14.434  1.00  0.00     0.041 C 
ATOM      6  O   UNL     1     -11.498   0.290  13.938  1.00  0.00    -0.550 OA
ATOM      7  O   UNL     1      -9.220   0.447  13.752  1.00  0.00    -0.550 OA
ENDBRANCH   4   5
ENDBRANCH   3   4
ENDBRANCH   2   3
ENDBRANCH   1   2
BRANCH   1   8
ATOM      8  C   UNL     1     -13.151   3.647  17.768  1.00  0.00     0.000 C 
BRANCH   8   9
ATOM      9  C   UNL     1     -12.181   4.149  18.848  1.00  0.00     0.006 C 
BRANCH   9  10
ATOM     10  C   UNL     1     -12.050   3.173  20.025  1.00  0.00     0.053 C 
BRANCH  10  11
ATOM     11  C   UNL     1     -13.129   3.422  21.031  1.00  0.00     0.041 C 
ATOM     12  O   UNL     1     -13.501   4.597  21.284  1.00  0.00    -0.550 OA
ATOM     13  O   UNL     1     -13.689   2.357  21.725  1.00  0.00    -0.550 OA
ENDBRANCH  10  11
ENDBRANCH   9  10
ENDBRANCH   8   9
ENDBRANCH   1   8
TORSDOF 8
ENDMDL
MODEL 6
REMARK VINA RESULT:    -3.623      2.100      2.543
REMARK INTER + INTRA:          -5.844
REMARK INTER:                  -5.408
REMARK INTRA:                  -0.435
REMARK UNBOUND:                -0.526
REMARK SMILES O=C([O-])CCCCCCCC(=O)[O-]
REMARK SMILES IDX 7 1 6 2 5 3 4 4 2 5 1 6 3 7 8 8 9 9 10 10 11 11 12 12 13 13
REMARK H PARENT
REMARK Flexibility Score: inf
ROOT
ATOM      1  C   UNL     1      -9.558   3.788  17.348  1.00  0.00     0.000 C 
ENDROOT
BRANCH   1   2
ATOM      2  C   UNL     1      -8.775   2.802  18.229  1.00  0.00     0.000 C 
BRANCH   2   3
ATOM      3  C   UNL     1      -9.423   2.595  19.607  1.00  0.00     0.006 C 
BRANCH   3   4
ATOM      4  C   UNL     1      -9.844   1.140  19.848  1.00  0.00     0.053 C 
BRANCH   4   5
ATOM      5  C   UNL     1     -11.225   1.084  20.422  1.00  0.00     0.041 C 
ATOM      6  O   UNL     1     -12.014   2.054  20.271  1.00  0.00    -0.550 OA
ATOM      7  O   UNL     1     -11.624  -0.019  21.166  1.00  0.00    -0.550 OA
ENDBRANCH   4   5
ENDBRANCH   3   4
ENDBRANCH   2   3
ENDBRANCH   1   2
BRANCH   1   8
ATOM      8  C   UNL     1      -9.905   3.153  15.992  1.00  0.00     0.000 C 
BRANCH   8   9
ATOM      9  C   UNL     1      -9.949   1.618  16.051  1.00  0.00     0.006 C 
BRANCH   9  10
ATOM     10  C   UNL     1     -10.295   0.985  14.697  1.00  0.00     0.053 C 
BRANCH  10  11
ATOM     11  C   UNL     1     -11.747   0.625  14.645  1.00  0.00     0.041 C 
ATOM     12  O   UNL     1     -12.220   0.042  13.635  1.00  0.00    -0.550 OA
ATOM     13  O   UNL     1     -12.587   0.977  15.694  1.00  0.00    -0.550 OA
ENDBRANCH  10  11
ENDBRANCH   9  10
ENDBRANCH   8   9
ENDBRANCH   1   8
TORSDOF 8
ENDMDL
MODEL 7
REMARK VINA RESULT:    -3.610      1.701      2.255
REMARK INTER + INTRA:          -5.824
REMARK INTER:                  -5.120
REMARK INTRA:                  -0.704
REMARK UNBOUND:                -0.526
REMARK SMILES O=C([O-])CCCCCCCC(=O)[O-]
REMARK SMILES IDX 7 1 6 2 5 3 4 4 2 5 1 6 3 7 8 8 9 9 10 10 11 11 12 12 13 13
REMARK H PARENT
REMARK Flexibility Score: inf
ROOT
ATOM      1  C   UNL     1      -9.479   1.692  18.120  1.00  0.00     0.000 C 
ENDROOT
BRANCH   1   2
ATOM      2  C   UNL     1     -10.149   1.994  19.470  1.00  0.00     0.000 C 
BRANCH   2   3
ATOM      3  C   UNL     1     -11.681   2.058  19.370  1.00  0.00     0.006 C 
BRANCH   3   4
ATOM      4  C   UNL     1     -12.239   3.441  19.726  1.00  0.00     0.053 C 
BRANCH   4   5
ATOM      5  C   UNL     1     -12.563   4.209  18.483  1.00  0.00     0.041 C 
ATOM      6  O   UNL     1     -13.230   3.670  17.561  1.00  0.00    -0.550 OA
ATOM      7  O   UNL     1     -12.086   5.504  18.321  1.00  0.00    -0.550 OA
ENDBRANCH   4   5
ENDBRANCH   3   4
ENDBRANCH   2   3
ENDBRANCH   1   2
BRANCH   1   8
ATOM      8  C   UNL     1      -9.358   2.967  17.272  1.00  0.00     0.000 C 
BRANCH   8   9
ATOM      9  C   UNL     1     -10.114   2.866  15.938  1.00  0.00     0.006 C 
BRANCH   9  10
ATOM     10  C   UNL     1      -9.856   1.540  15.211  1.00  0.00     0.053 C 
BRANCH  10  11
ATOM     11  C   UNL     1     -11.149   0.862  14.888  1.00  0.00     0.041 C 
ATOM     12  O   UNL     1     -11.192  -0.035  14.005  1.00  0.00    -0.550 OA
ATOM     13  O   UNL     1     -12.318   1.253  15.529  1.00  0.00    -0.550 OA
ENDBRANCH  10  11
ENDBRANCH   9  10
ENDBRANCH   8   9
ENDBRANCH   1   8
TORSDOF 8
ENDMDL
MODEL 8
REMARK VINA RESULT:    -3.582      3.735      4.367
REMARK INTER + INTRA:          -5.784
REMARK INTER:                  -5.195
REMARK INTRA:                  -0.589
REMARK UNBOUND:                -0.526
REMARK SMILES O=C([O-])CCCCCCCC(=O)[O-]
REMARK SMILES IDX 7 1 6 2 5 3 4 4 2 5 1 6 3 7 8 8 9 9 10 10 11 11 12 12 13 13
REMARK H PARENT
REMARK Flexibility Score: inf
ROOT
ATOM      1  C   UNL     1     -10.027   2.357  19.581  1.00  0.00     0.000 C 
ENDROOT
BRANCH   1   2
ATOM      2  C   UNL     1     -11.393   1.821  20.036  1.00  0.00     0.000 C 
BRANCH   2   3
ATOM      3  C   UNL     1     -11.279   0.524  20.852  1.00  0.00     0.006 C 
BRANCH   3   4
ATOM      4  C   UNL     1     -10.119   0.558  21.855  1.00  0.00     0.053 C 
BRANCH   4   5
ATOM      5  C   UNL     1      -9.221  -0.622  21.655  1.00  0.00     0.041 C 
ATOM      6  O   UNL     1      -8.474  -1.016  22.589  1.00  0.00    -0.550 OA
ATOM      7  O   UNL     1      -9.170  -1.256  20.419  1.00  0.00    -0.550 OA
ENDBRANCH   4   5
ENDBRANCH   3   4
ENDBRANCH   2   3
ENDBRANCH   1   2
BRANCH   1   8
ATOM      8  C   UNL     1      -9.546   1.627  18.317  1.00  0.00     0.000 C 
BRANCH   8   9
ATOM      9  C   UNL     1      -9.746   2.458  17.040  1.00  0.00     0.006 C 
BRANCH   9  10
ATOM     10  C   UNL     1     -10.415   1.660  15.914  1.00  0.00     0.053 C 
BRANCH  10  11
ATOM     11  C   UNL     1     -11.904   1.721  16.046  1.00  0.00     0.041 C 
ATOM     12  O   UNL     1     -12.623   0.814  15.549  1.00  0.00    -0.550 OA
ATOM     13  O   UNL     1     -12.502   2.804  16.678  1.00  0.00    -0.550 OA
ENDBRANCH  10  11
ENDBRANCH   9  10
ENDBRANCH   8   9
ENDBRANCH   1   8
TORSDOF 8
ENDMDL
MODEL 9
REMARK VINA RESULT:    -3.566      1.686      5.209
REMARK INTER + INTRA:          -5.759
REMARK INTER:                  -4.987
REMARK INTRA:                  -0.772
REMARK UNBOUND:                -0.526
REMARK SMILES O=C([O-])CCCCCCCC(=O)[O-]
REMARK SMILES IDX 7 1 6 2 5 3 4 4 2 5 1 6 3 7 8 8 9 9 10 10 11 11 12 12 13 13
REMARK H PARENT
REMARK Flexibility Score: inf
ROOT
ATOM      1  C   UNL     1      -9.504   1.673  18.349  1.00  0.00     0.000 C 
ENDROOT
BRANCH   1   2
ATOM      2  C   UNL     1      -9.262   2.894  17.450  1.00  0.00     0.000 C 
BRANCH   2   3
ATOM      3  C   UNL     1     -10.044   2.822  16.129  1.00  0.00     0.006 C 
BRANCH   3   4
ATOM      4  C   UNL     1      -9.922   1.455  15.444  1.00  0.00     0.053 C 
BRANCH   4   5
ATOM      5  C   UNL     1     -11.272   0.953  15.038  1.00  0.00     0.041 C 
ATOM      6  O   UNL     1     -12.282   1.202  15.748  1.00  0.00    -0.550 OA
ATOM      7  O   UNL     1     -11.407   0.166  13.901  1.00  0.00    -0.550 OA
ENDBRANCH   4   5
ENDBRANCH   3   4
ENDBRANCH   2   3
ENDBRANCH   1   2
BRANCH   1   8
ATOM      8  C   UNL     1     -10.888   1.749  19.014  1.00  0.00     0.000 C 
BRANCH   8   9
ATOM      9  C   UNL     1     -11.049   2.989  19.907  1.00  0.00     0.006 C 
BRANCH   9  10
ATOM     10  C   UNL     1     -12.437   3.630  19.785  1.00  0.00     0.053 C 
BRANCH  10  11
ATOM     11  C   UNL     1     -12.599   4.272  18.443  1.00  0.00     0.041 C 
ATOM     12  O   UNL     1     -13.318   3.730  17.564  1.00  0.00    -0.550 OA
ATOM     13  O   UNL     1     -11.917   5.446  18.149  1.00  0.00    -0.550 OA
ENDBRANCH  10  11
ENDBRANCH   9  10
ENDBRANCH   8   9
ENDBRANCH   1   8
TORSDOF 8
ENDMDL
