MODEL 1
REMARK VINA RESULT:    -4.753      0.000      0.000
REMARK INTER + INTRA:          -7.033
REMARK INTER:                  -7.253
REMARK INTRA:                   0.220
REMARK UNBOUND:                 0.220
REMARK SMILES CC1=CCC[C@H](C)C(=O)C[C@@H](C(C)C)C(=O)C1
REMARK SMILES IDX 8 1 9 2 6 3 7 4 5 5 4 6 3 7 2 8 1 9 10 11 11 12 15 13 16 14
REMARK SMILES IDX 17 15 12 17 13 18 14 19
REMARK H PARENT
REMARK Flexibility Score: 70.00
ROOT
ATOM      1  C   UNL     1     -12.586 -16.389  31.531  1.00  0.00     0.136 C 
ATOM      2  O   UNL     1     -13.514 -17.035  31.993  1.00  0.00    -0.299 OA
ENDROOT
BRANCH   1   3
ATOM      3  C   UNL     1     -11.177 -16.664  32.033  1.00  0.00     0.053 C 
ATOM      4  C   UNL     1     -10.903 -15.861  33.309  1.00  0.00     0.016 C 
BRANCH   3   5
ATOM      5  C   UNL     1     -10.913 -18.168  32.262  1.00  0.00     0.015 C 
BRANCH   5   6
ATOM      6  C   UNL     1     -10.669 -18.914  30.941  1.00  0.00     0.028 C 
BRANCH   6   7
ATOM      7  C   UNL     1     -11.933 -19.441  30.306  1.00  0.00    -0.028 C 
ATOM      8  C   UNL     1     -12.350 -19.209  29.033  1.00  0.00    -0.070 CG0
ATOM      9  C   UNL     1     -13.588 -19.918  28.543  1.00  0.00     0.039 C 
ATOM     10  G   UNL     1     -11.745 -18.164  28.100  1.00  0.00     0.000 G0
ENDBRANCH   6   7
ENDBRANCH   5   6
ENDBRANCH   3   5
ENDBRANCH   1   3
BRANCH   1  11
ATOM     11  C   UNL     1     -12.857 -15.397  30.420  1.00  0.00     0.087 C 
BRANCH  11  12
ATOM     12  C   UNL     1     -12.967 -16.026  29.000  1.00  0.00     0.066 C 
BRANCH  12  13
ATOM     13  C   UNL     1     -11.679 -16.759  28.628  1.00  0.00     0.140 C 
ATOM     14  O   UNL     1     -10.599 -16.190  28.701  1.00  0.00    -0.299 OA
BRANCH  13  15
ATOM     15  C   UNL     1     -11.737 -18.168  28.090  1.00  0.00     0.106 CG0
ATOM     16  G   UNL     1     -12.355 -19.192  29.038  1.00  0.00     0.000 G0
ENDBRANCH  13  15
ENDBRANCH  12  13
BRANCH  12  17
ATOM     17  C   UNL     1     -13.439 -15.037  27.878  1.00  0.00    -0.006 C 
ATOM     18  C   UNL     1     -14.511 -14.043  28.360  1.00  0.00     0.008 C 
ATOM     19  C   UNL     1     -14.002 -15.810  26.669  1.00  0.00     0.008 C 
ENDBRANCH  12  17
ENDBRANCH  11  12
ENDBRANCH   1  11
TORSDOF 1
ENDMDL
MODEL 2
REMARK VINA RESULT:    -4.710      2.069      3.538
REMARK INTER + INTRA:          -6.968
REMARK INTER:                  -6.954
REMARK INTRA:                  -0.014
REMARK UNBOUND:                 0.220
REMARK SMILES CC1=CCC[C@H](C)C(=O)C[C@@H](C(C)C)C(=O)C1
REMARK SMILES IDX 8 1 9 2 6 3 7 4 5 5 4 6 3 7 2 8 1 9 10 11 11 12 15 13 16 14
REMARK SMILES IDX 17 15 12 17 13 18 14 19
REMARK H PARENT
REMARK Flexibility Score: 70.00
ROOT
ATOM      1  C   UNL     1     -12.944 -19.447  29.265  1.00  0.00     0.136 C 
ATOM      2  O   UNL     1     -13.043 -20.487  28.633  1.00  0.00    -0.299 OA
ENDROOT
BRANCH   1   3
ATOM      3  C   UNL     1     -12.271 -19.478  30.629  1.00  0.00     0.053 C 
ATOM      4  C   UNL     1     -12.467 -20.850  31.284  1.00  0.00     0.016 C 
BRANCH   3   5
ATOM      5  C   UNL     1     -10.774 -19.110  30.560  1.00  0.00     0.015 C 
BRANCH   5   6
ATOM      6  C   UNL     1     -10.338 -18.259  31.763  1.00  0.00     0.028 C 
BRANCH   6   7
ATOM      7  C   UNL     1     -11.457 -17.434  32.351  1.00  0.00    -0.028 C 
ATOM      8  C   UNL     1     -12.082 -16.385  31.754  1.00  0.00    -0.070 CG0
ATOM      9  C   UNL     1     -13.259 -15.756  32.457  1.00  0.00     0.039 C 
ATOM     10  G   UNL     1     -11.590 -15.690  30.488  1.00  0.00     0.000 G0
ENDBRANCH   6   7
ENDBRANCH   5   6
ENDBRANCH   3   5
ENDBRANCH   1   3
BRANCH   1  11
ATOM     11  C   UNL     1     -13.418 -18.152  28.639  1.00  0.00     0.087 C 
BRANCH  11  12
ATOM     12  C   UNL     1     -12.293 -17.109  28.375  1.00  0.00     0.066 C 
BRANCH  12  13
ATOM     13  C   UNL     1     -12.472 -15.879  29.264  1.00  0.00     0.140 C 
ATOM     14  O   UNL     1     -13.280 -15.010  28.966  1.00  0.00    -0.299 OA
BRANCH  13  15
ATOM     15  C   UNL     1     -11.594 -15.686  30.476  1.00  0.00     0.106 CG0
ATOM     16  G   UNL     1     -12.094 -16.367  31.746  1.00  0.00     0.000 G0
ENDBRANCH  13  15
ENDBRANCH  12  13
BRANCH  12  17
ATOM     17  C   UNL     1     -12.086 -16.733  26.867  1.00  0.00    -0.006 C 
ATOM     18  C   UNL     1     -13.370 -16.872  26.028  1.00  0.00     0.008 C 
ATOM     19  C   UNL     1     -10.992 -17.612  26.229  1.00  0.00     0.008 C 
ENDBRANCH  12  17
ENDBRANCH  11  12
ENDBRANCH   1  11
TORSDOF 1
ENDMDL
MODEL 3
REMARK VINA RESULT:    -4.703      1.957      3.070
REMARK INTER + INTRA:          -6.956
REMARK INTER:                  -6.775
REMARK INTRA:                  -0.181
REMARK UNBOUND:                 0.220
REMARK SMILES CC1=CCC[C@H](C)C(=O)C[C@@H](C(C)C)C(=O)C1
REMARK SMILES IDX 8 1 9 2 6 3 7 4 5 5 4 6 3 7 2 8 1 9 10 11 11 12 15 13 16 14
REMARK SMILES IDX 17 15 12 17 13 18 14 19
REMARK H PARENT
REMARK Flexibility Score: 70.00
ROOT
ATOM      1  C   UNL     1     -10.607 -16.392  29.877  1.00  0.00     0.136 C 
ATOM      2  O   UNL     1     -10.146 -15.357  29.422  1.00  0.00    -0.299 OA
ENDROOT
BRANCH   1   3
ATOM      3  C   UNL     1     -11.030 -16.429  31.337  1.00  0.00     0.053 C 
ATOM      4  C   UNL     1      -9.967 -15.755  32.213  1.00  0.00     0.016 C 
BRANCH   3   5
ATOM      5  C   UNL     1     -12.417 -15.793  31.569  1.00  0.00     0.015 C 
BRANCH   5   6
ATOM      6  C   UNL     1     -13.365 -16.746  32.314  1.00  0.00     0.028 C 
BRANCH   6   7
ATOM      7  C   UNL     1     -12.837 -18.156  32.420  1.00  0.00    -0.028 C 
ATOM      8  C   UNL     1     -12.893 -19.110  31.453  1.00  0.00    -0.070 CG0
ATOM      9  C   UNL     1     -12.207 -20.430  31.706  1.00  0.00     0.039 C 
ATOM     10  G   UNL     1     -13.728 -19.006  30.180  1.00  0.00     0.000 G0
ENDBRANCH   6   7
ENDBRANCH   5   6
ENDBRANCH   3   5
ENDBRANCH   1   3
BRANCH   1  11
ATOM     11  C   UNL     1     -10.818 -17.575  28.955  1.00  0.00     0.087 C 
BRANCH  11  12
ATOM     12  C   UNL     1     -12.267 -17.718  28.403  1.00  0.00     0.066 C 
BRANCH  12  13
ATOM     13  C   UNL     1     -12.917 -19.006  28.904  1.00  0.00     0.140 C 
ATOM     14  O   UNL     1     -12.850 -20.032  28.242  1.00  0.00    -0.299 OA
BRANCH  13  15
ATOM     15  C   UNL     1     -13.717 -19.003  30.184  1.00  0.00     0.106 CG0
ATOM     16  G   UNL     1     -12.888 -19.115  31.460  1.00  0.00     0.000 G0
ENDBRANCH  13  15
ENDBRANCH  12  13
BRANCH  12  17
ATOM     17  C   UNL     1     -12.397 -17.546  26.849  1.00  0.00    -0.006 C 
ATOM     18  C   UNL     1     -11.060 -17.208  26.164  1.00  0.00     0.008 C 
ATOM     19  C   UNL     1     -13.412 -16.437  26.505  1.00  0.00     0.008 C 
ENDBRANCH  12  17
ENDBRANCH  11  12
ENDBRANCH   1  11
TORSDOF 1
ENDMDL
MODEL 4
REMARK VINA RESULT:    -4.690      1.746      3.732
REMARK INTER + INTRA:          -6.937
REMARK INTER:                  -8.233
REMARK INTRA:                   1.295
REMARK UNBOUND:                 0.220
REMARK SMILES CC1=CCC[C@H](C)C(=O)C[C@@H](C(C)C)C(=O)C1
REMARK SMILES IDX 8 1 9 2 6 3 7 4 5 5 4 6 3 7 2 8 1 9 10 11 11 12 15 13 16 14
REMARK SMILES IDX 17 15 12 17 13 18 14 19
REMARK H PARENT
REMARK Flexibility Score: 70.00
ROOT
ATOM      1  C   UNL     1     -12.776 -15.840  28.538  1.00  0.00     0.136 C 
ATOM      2  O   UNL     1     -13.501 -14.857  28.507  1.00  0.00    -0.299 OA
ENDROOT
BRANCH   1   3
ATOM      3  C   UNL     1     -13.070 -16.998  27.597  1.00  0.00     0.053 C 
ATOM      4  C   UNL     1     -12.548 -16.683  26.191  1.00  0.00     0.016 C 
BRANCH   3   5
ATOM      5  C   UNL     1     -12.497 -18.338  28.109  1.00  0.00     0.015 C 
BRANCH   5   6
ATOM      6  C   UNL     1     -13.605 -19.284  28.596  1.00  0.00     0.028 C 
BRANCH   6   7
ATOM      7  C   UNL     1     -13.244 -20.034  29.855  1.00  0.00    -0.028 C 
ATOM      8  C   UNL     1     -12.231 -19.728  30.709  1.00  0.00    -0.070 CG0
ATOM      9  C   UNL     1     -12.096 -20.531  31.979  1.00  0.00     0.039 C 
ATOM     10  G   UNL     1     -11.118 -18.728  30.411  1.00  0.00     0.000 G0
ENDBRANCH   6   7
ENDBRANCH   5   6
ENDBRANCH   3   5
ENDBRANCH   1   3
BRANCH   1  11
ATOM     11  C   UNL     1     -11.568 -15.840  29.450  1.00  0.00     0.087 C 
BRANCH  11  12
ATOM     12  C   UNL     1     -11.865 -16.254  30.921  1.00  0.00     0.066 C 
BRANCH  12  13
ATOM     13  C   UNL     1     -11.076 -17.505  31.305  1.00  0.00     0.140 C 
ATOM     14  O   UNL     1     -10.364 -17.508  32.299  1.00  0.00    -0.299 OA
BRANCH  13  15
ATOM     15  C   UNL     1     -11.106 -18.723  30.414  1.00  0.00     0.106 CG0
ATOM     16  G   UNL     1     -12.216 -19.721  30.729  1.00  0.00     0.000 G0
ENDBRANCH  13  15
ENDBRANCH  12  13
BRANCH  12  17
ATOM     17  C   UNL     1     -13.388 -16.374  31.275  1.00  0.00    -0.006 C 
ATOM     18  C   UNL     1     -14.021 -15.032  31.688  1.00  0.00     0.008 C 
ATOM     19  C   UNL     1     -13.606 -17.385  32.418  1.00  0.00     0.008 C 
ENDBRANCH  12  17
ENDBRANCH  11  12
ENDBRANCH   1  11
TORSDOF 1
ENDMDL
MODEL 5
REMARK VINA RESULT:    -4.293      1.740      3.765
REMARK INTER + INTRA:          -6.331
REMARK INTER:                  -6.610
REMARK INTRA:                   0.279
REMARK UNBOUND:                 0.220
REMARK SMILES CC1=CCC[C@H](C)C(=O)C[C@@H](C(C)C)C(=O)C1
REMARK SMILES IDX 8 1 9 2 6 3 7 4 5 5 4 6 3 7 2 8 1 9 10 11 11 12 15 13 16 14
REMARK SMILES IDX 17 15 12 17 13 18 14 19
REMARK H PARENT
REMARK Flexibility Score: 70.00
ROOT
ATOM      1  C   UNL     1     -11.469 -16.731  28.692  1.00  0.00     0.136 C 
ATOM      2  O   UNL     1     -10.489 -17.315  28.254  1.00  0.00    -0.299 OA
ENDROOT
BRANCH   1   3
ATOM      3  C   UNL     1     -12.838 -17.067  28.121  1.00  0.00     0.053 C 
ATOM      4  C   UNL     1     -13.129 -16.195  26.895  1.00  0.00     0.016 C 
BRANCH   3   5
ATOM      5  C   UNL     1     -12.987 -18.565  27.778  1.00  0.00     0.015 C 
BRANCH   5   6
ATOM      6  C   UNL     1     -13.880 -19.298  28.791  1.00  0.00     0.028 C 
BRANCH   6   7
ATOM      7  C   UNL     1     -13.108 -20.172  29.750  1.00  0.00    -0.028 C 
ATOM      8  C   UNL     1     -12.834 -19.890  31.051  1.00  0.00    -0.070 CG0
ATOM      9  C   UNL     1     -12.145 -20.943  31.884  1.00  0.00     0.039 C 
ATOM     10  G   UNL     1     -13.035 -18.526  31.704  1.00  0.00     0.000 G0
ENDBRANCH   6   7
ENDBRANCH   5   6
ENDBRANCH   3   5
ENDBRANCH   1   3
BRANCH   1  11
ATOM     11  C   UNL     1     -11.299 -15.757  29.838  1.00  0.00     0.087 C 
BRANCH  11  12
ATOM     12  C   UNL     1     -12.110 -16.115  31.119  1.00  0.00     0.066 C 
BRANCH  12  13
ATOM     13  C   UNL     1     -11.860 -17.563  31.536  1.00  0.00     0.140 C 
ATOM     14  O   UNL     1     -10.718 -17.980  31.674  1.00  0.00    -0.299 OA
BRANCH  13  15
ATOM     15  C   UNL     1     -13.019 -18.515  31.703  1.00  0.00     0.106 CG0
ATOM     16  G   UNL     1     -12.822 -19.885  31.061  1.00  0.00     0.000 G0
ENDBRANCH  13  15
ENDBRANCH  12  13
BRANCH  12  17
ATOM     17  C   UNL     1     -13.638 -15.767  31.047  1.00  0.00    -0.006 C 
ATOM     18  C   UNL     1     -13.955 -14.641  30.046  1.00  0.00     0.008 C 
ATOM     19  C   UNL     1     -14.170 -15.350  32.432  1.00  0.00     0.008 C 
ENDBRANCH  12  17
ENDBRANCH  11  12
ENDBRANCH   1  11
TORSDOF 1
ENDMDL
MODEL 6
REMARK VINA RESULT:    -4.267      1.719      4.135
REMARK INTER + INTRA:          -6.291
REMARK INTER:                  -6.593
REMARK INTRA:                   0.301
REMARK UNBOUND:                 0.220
REMARK SMILES CC1=CCC[C@H](C)C(=O)C[C@@H](C(C)C)C(=O)C1
REMARK SMILES IDX 8 1 9 2 6 3 7 4 5 5 4 6 3 7 2 8 1 9 10 11 11 12 15 13 16 14
REMARK SMILES IDX 17 15 12 17 13 18 14 19
REMARK H PARENT
REMARK Flexibility Score: 70.00
ROOT
ATOM      1  C   UNL     1     -13.250 -16.455  32.123  1.00  0.00     0.136 C 
ATOM      2  O   UNL     1     -12.241 -16.123  32.726  1.00  0.00    -0.299 OA
ENDROOT
BRANCH   1   3
ATOM      3  C   UNL     1     -14.379 -15.448  31.970  1.00  0.00     0.053 C 
ATOM      4  C   UNL     1     -14.441 -14.532  33.197  1.00  0.00     0.016 C 
BRANCH   3   5
ATOM      5  C   UNL     1     -14.263 -14.620  30.672  1.00  0.00     0.015 C 
BRANCH   5   6
ATOM      6  C   UNL     1     -13.030 -15.021  29.846  1.00  0.00     0.028 C 
BRANCH   6   7
ATOM      7  C   UNL     1     -13.349 -15.332  28.404  1.00  0.00    -0.028 C 
ATOM      8  C   UNL     1     -12.947 -16.430  27.711  1.00  0.00    -0.070 CG0
ATOM      9  C   UNL     1     -13.463 -16.621  26.306  1.00  0.00     0.039 C 
ATOM     10  G   UNL     1     -11.889 -17.419  28.191  1.00  0.00     0.000 G0
ENDBRANCH   6   7
ENDBRANCH   5   6
ENDBRANCH   3   5
ENDBRANCH   1   3
BRANCH   1  11
ATOM     11  C   UNL     1     -13.311 -17.825  31.481  1.00  0.00     0.087 C 
BRANCH  11  12
ATOM     12  C   UNL     1     -12.036 -18.223  30.680  1.00  0.00     0.066 C 
BRANCH  12  13
ATOM     13  C   UNL     1     -12.364 -18.434  29.203  1.00  0.00     0.140 C 
ATOM     14  O   UNL     1     -12.958 -19.439  28.838  1.00  0.00    -0.299 OA
BRANCH  13  15
ATOM     15  C   UNL     1     -11.885 -17.443  28.171  1.00  0.00     0.106 CG0
ATOM     16  G   UNL     1     -12.936 -16.436  27.712  1.00  0.00     0.000 G0
ENDBRANCH  13  15
ENDBRANCH  12  13
BRANCH  12  17
ATOM     17  C   UNL     1     -11.224 -19.418  31.291  1.00  0.00    -0.006 C 
ATOM     18  C   UNL     1     -12.122 -20.520  31.883  1.00  0.00     0.008 C 
ATOM     19  C   UNL     1     -10.271 -18.923  32.397  1.00  0.00     0.008 C 
ENDBRANCH  12  17
ENDBRANCH  11  12
ENDBRANCH   1  11
TORSDOF 1
ENDMDL
MODEL 7
REMARK VINA RESULT:    -4.116      1.619      3.769
REMARK INTER + INTRA:          -6.062
REMARK INTER:                  -6.707
REMARK INTRA:                   0.646
REMARK UNBOUND:                 0.220
REMARK SMILES CC1=CCC[C@H](C)C(=O)C[C@@H](C(C)C)C(=O)C1
REMARK SMILES IDX 8 1 9 2 6 3 7 4 5 5 4 6 3 7 2 8 1 9 10 11 11 12 15 13 16 14
REMARK SMILES IDX 17 15 12 17 13 18 14 19
REMARK H PARENT
REMARK Flexibility Score: 70.00
ROOT
ATOM      1  C   UNL     1     -13.278 -15.502  29.905  1.00  0.00     0.136 C 
ATOM      2  O   UNL     1     -14.000 -14.565  30.210  1.00  0.00    -0.299 OA
ENDROOT
BRANCH   1   3
ATOM      3  C   UNL     1     -12.460 -15.412  28.626  1.00  0.00     0.053 C 
ATOM      4  C   UNL     1     -10.972 -15.608  28.935  1.00  0.00     0.016 C 
BRANCH   3   5
ATOM      5  C   UNL     1     -12.935 -16.410  27.548  1.00  0.00     0.015 C 
BRANCH   5   6
ATOM      6  C   UNL     1     -12.057 -17.671  27.511  1.00  0.00     0.028 C 
BRANCH   6   7
ATOM      7  C   UNL     1     -12.668 -18.850  28.229  1.00  0.00    -0.028 C 
ATOM      8  C   UNL     1     -12.301 -19.326  29.448  1.00  0.00    -0.070 CG0
ATOM      9  C   UNL     1     -13.108 -20.447  30.054  1.00  0.00     0.039 C 
ATOM     10  G   UNL     1     -11.034 -18.915  30.194  1.00  0.00     0.000 G0
ENDBRANCH   6   7
ENDBRANCH   5   6
ENDBRANCH   3   5
ENDBRANCH   1   3
BRANCH   1  11
ATOM     11  C   UNL     1     -13.159 -16.680  30.848  1.00  0.00     0.087 C 
BRANCH  11  12
ATOM     12  C   UNL     1     -11.789 -16.791  31.579  1.00  0.00     0.066 C 
BRANCH  12  13
ATOM     13  C   UNL     1     -11.258 -18.223  31.528  1.00  0.00     0.140 C 
ATOM     14  O   UNL     1     -10.949 -18.806  32.558  1.00  0.00    -0.299 OA
BRANCH  13  15
ATOM     15  C   UNL     1     -11.034 -18.901  30.199  1.00  0.00     0.106 CG0
ATOM     16  G   UNL     1     -12.307 -19.310  29.464  1.00  0.00     0.000 G0
ENDBRANCH  13  15
ENDBRANCH  12  13
BRANCH  12  17
ATOM     17  C   UNL     1     -11.769 -16.195  33.030  1.00  0.00    -0.006 C 
ATOM     18  C   UNL     1     -12.979 -15.292  33.329  1.00  0.00     0.008 C 
ATOM     19  C   UNL     1     -10.483 -15.379  33.269  1.00  0.00     0.008 C 
ENDBRANCH  12  17
ENDBRANCH  11  12
ENDBRANCH   1  11
TORSDOF 1
ENDMDL
MODEL 8
REMARK VINA RESULT:    -3.960      2.285      5.387
REMARK INTER + INTRA:          -5.823
REMARK INTER:                  -5.896
REMARK INTRA:                   0.073
REMARK UNBOUND:                 0.220
REMARK SMILES CC1=CCC[C@H](C)C(=O)C[C@@H](C(C)C)C(=O)C1
REMARK SMILES IDX 8 1 9 2 6 3 7 4 5 5 4 6 3 7 2 8 1 9 10 11 11 12 15 13 16 14
REMARK SMILES IDX 17 15 12 17 13 18 14 19
REMARK H PARENT
REMARK Flexibility Score: 70.00
ROOT
ATOM      1  C   UNL     1     -12.877 -17.482  28.473  1.00  0.00     0.136 C 
ATOM      2  O   UNL     1     -13.583 -18.456  28.262  1.00  0.00    -0.299 OA
ENDROOT
BRANCH   1   3
ATOM      3  C   UNL     1     -12.976 -16.288  27.537  1.00  0.00     0.053 C 
ATOM      4  C   UNL     1     -13.169 -16.762  26.092  1.00  0.00     0.016 C 
BRANCH   3   5
ATOM      5  C   UNL     1     -14.092 -15.304  27.946  1.00  0.00     0.015 C 
BRANCH   5   6
ATOM      6  C   UNL     1     -13.629 -14.342  29.052  1.00  0.00     0.028 C 
BRANCH   6   7
ATOM      7  C   UNL     1     -14.514 -14.364  30.275  1.00  0.00    -0.028 C 
ATOM      8  C   UNL     1     -14.187 -14.869  31.494  1.00  0.00    -0.070 CG0
ATOM      9  C   UNL     1     -15.166 -14.697  32.629  1.00  0.00     0.039 C 
ATOM     10  G   UNL     1     -12.963 -15.737  31.772  1.00  0.00     0.000 G0
ENDBRANCH   6   7
ENDBRANCH   5   6
ENDBRANCH   3   5
ENDBRANCH   1   3
BRANCH   1  11
ATOM     11  C   UNL     1     -11.991 -17.463  29.700  1.00  0.00     0.087 C 
BRANCH  11  12
ATOM     12  C   UNL     1     -12.578 -18.205  30.937  1.00  0.00     0.066 C 
BRANCH  12  13
ATOM     13  C   UNL     1     -13.232 -17.219  31.904  1.00  0.00     0.140 C 
ATOM     14  O   UNL     1     -14.034 -17.611  32.740  1.00  0.00    -0.299 OA
BRANCH  13  15
ATOM     15  C   UNL     1     -12.955 -15.741  31.782  1.00  0.00     0.106 CG0
ATOM     16  G   UNL     1     -14.180 -14.880  31.486  1.00  0.00     0.000 G0
ENDBRANCH  13  15
ENDBRANCH  12  13
BRANCH  12  17
ATOM     17  C   UNL     1     -11.578 -19.176  31.656  1.00  0.00    -0.006 C 
ATOM     18  C   UNL     1     -10.169 -19.162  31.034  1.00  0.00     0.008 C 
ATOM     19  C   UNL     1     -12.106 -20.624  31.628  1.00  0.00     0.008 C 
ENDBRANCH  12  17
ENDBRANCH  11  12
ENDBRANCH   1  11
TORSDOF 1
ENDMDL
MODEL 9
REMARK VINA RESULT:    -3.868      1.996      4.995
REMARK INTER + INTRA:          -5.682
REMARK INTER:                  -6.275
REMARK INTRA:                   0.592
REMARK UNBOUND:                 0.220
REMARK SMILES CC1=CCC[C@H](C)C(=O)C[C@@H](C(C)C)C(=O)C1
REMARK SMILES IDX 8 1 9 2 6 3 7 4 5 5 4 6 3 7 2 8 1 9 10 11 11 12 15 13 16 14
REMARK SMILES IDX 17 15 12 17 13 18 14 19
REMARK H PARENT
REMARK Flexibility Score: 70.00
ROOT
ATOM      1  C   UNL     1     -12.780 -18.259  28.067  1.00  0.00     0.136 C 
ATOM      2  O   UNL     1     -13.945 -18.559  27.859  1.00  0.00    -0.299 OA
ENDROOT
BRANCH   1   3
ATOM      3  C   UNL     1     -12.229 -16.984  27.447  1.00  0.00     0.053 C 
ATOM      4  C   UNL     1     -11.795 -17.243  25.999  1.00  0.00     0.016 C 
BRANCH   3   5
ATOM      5  C   UNL     1     -13.228 -15.809  27.519  1.00  0.00     0.015 C 
BRANCH   5   6
ATOM      6  C   UNL     1     -12.960 -14.905  28.733  1.00  0.00     0.028 C 
BRANCH   6   7
ATOM      7  C   UNL     1     -13.657 -15.366  29.990  1.00  0.00    -0.028 C 
ATOM      8  C   UNL     1     -13.056 -15.765  31.142  1.00  0.00    -0.070 CG0
ATOM      9  C   UNL     1     -13.926 -16.083  32.333  1.00  0.00     0.039 C 
ATOM     10  G   UNL     1     -11.567 -16.063  31.284  1.00  0.00     0.000 G0
ENDBRANCH   6   7
ENDBRANCH   5   6
ENDBRANCH   3   5
ENDBRANCH   1   3
BRANCH   1  11
ATOM     11  C   UNL     1     -11.949 -19.118  28.995  1.00  0.00     0.087 C 
BRANCH  11  12
ATOM     12  C   UNL     1     -11.802 -18.557  30.440  1.00  0.00     0.066 C 
BRANCH  12  13
ATOM     13  C   UNL     1     -11.067 -17.218  30.433  1.00  0.00     0.140 C 
ATOM     14  O   UNL     1     -10.032 -17.082  29.796  1.00  0.00    -0.299 OA
BRANCH  13  15
ATOM     15  C   UNL     1     -11.569 -16.073  31.278  1.00  0.00     0.106 CG0
ATOM     16  G   UNL     1     -13.061 -15.783  31.145  1.00  0.00     0.000 G0
ENDBRANCH  13  15
ENDBRANCH  12  13
BRANCH  12  17
ATOM     17  C   UNL     1     -11.197 -19.566  31.478  1.00  0.00    -0.006 C 
ATOM     18  C   UNL     1     -12.211 -20.623  31.955  1.00  0.00     0.008 C 
ATOM     19  C   UNL     1     -10.656 -18.821  32.715  1.00  0.00     0.008 C 
ENDBRANCH  12  17
ENDBRANCH  11  12
ENDBRANCH   1  11
TORSDOF 1
ENDMDL
