MODEL 1
REMARK VINA RESULT:    -4.665      0.000      0.000
REMARK INTER + INTRA:          -6.825
REMARK INTER:                  -6.574
REMARK INTRA:                  -0.251
REMARK UNBOUND:                -0.251
REMARK SMILES C=CCCCCCCC(=O)[O-]
REMARK SMILES IDX 6 1 7 2 8 3 9 4 10 5 11 6 5 7 4 8 3 9 2 10 1 11
REMARK H PARENT
REMARK Flexibility Score: inf
ROOT
ATOM      1  C   UNL     1     -13.389 -67.635 -35.881  1.00  0.00     0.000 C 
ENDROOT
BRANCH   1   2
ATOM      2  C   UNL     1     -14.577 -67.184 -35.018  1.00  0.00     0.006 C 
BRANCH   2   3
ATOM      3  C   UNL     1     -15.662 -68.263 -34.973  1.00  0.00     0.053 C 
BRANCH   3   4
ATOM      4  C   UNL     1     -16.878 -67.754 -34.266  1.00  0.00     0.041 C 
ATOM      5  O   UNL     1     -16.958 -67.825 -33.012  1.00  0.00    -0.550 OA
ATOM      6  O   UNL     1     -17.904 -67.157 -34.988  1.00  0.00    -0.550 OA
ENDBRANCH   3   4
ENDBRANCH   2   3
ENDBRANCH   1   2
BRANCH   1   7
ATOM      7  C   UNL     1     -12.040 -67.463 -35.166  1.00  0.00     0.000 C 
BRANCH   7   8
ATOM      8  C   UNL     1     -12.171 -66.724 -33.822  1.00  0.00     0.004 C 
BRANCH   8   9
ATOM      9  C   UNL     1     -10.802 -66.373 -33.221  1.00  0.00     0.027 C 
BRANCH   9  10
ATOM     10  C   UNL     1     -10.487 -67.190 -31.995  1.00  0.00    -0.035 C 
ATOM     11  C   UNL     1      -9.273 -67.183 -31.438  1.00  0.00     0.004 C 
ENDBRANCH   9  10
ENDBRANCH   8   9
ENDBRANCH   7   8
ENDBRANCH   1   7
TORSDOF 7
ENDMDL
MODEL 2
REMARK VINA RESULT:    -4.609      2.867      3.853
REMARK INTER + INTRA:          -6.746
REMARK INTER:                  -6.485
REMARK INTRA:                  -0.261
REMARK UNBOUND:                -0.251
REMARK SMILES C=CCCCCCCC(=O)[O-]
REMARK SMILES IDX 6 1 7 2 8 3 9 4 10 5 11 6 5 7 4 8 3 9 2 10 1 11
REMARK H PARENT
REMARK Flexibility Score: inf
ROOT
ATOM      1  C   UNL     1     -12.294 -66.861 -33.542  1.00  0.00     0.000 C 
ENDROOT
BRANCH   1   2
ATOM      2  C   UNL     1     -12.118 -67.231 -35.022  1.00  0.00     0.006 C 
BRANCH   2   3
ATOM      3  C   UNL     1     -13.381 -67.899 -35.573  1.00  0.00     0.053 C 
BRANCH   3   4
ATOM      4  C   UNL     1     -13.659 -67.427 -36.965  1.00  0.00     0.041 C 
ATOM      5  O   UNL     1     -12.777 -67.528 -37.857  1.00  0.00    -0.550 OA
ATOM      6  O   UNL     1     -14.911 -66.919 -37.289  1.00  0.00    -0.550 OA
ENDBRANCH   3   4
ENDBRANCH   2   3
ENDBRANCH   1   2
BRANCH   1   7
ATOM      7  C   UNL     1     -11.057 -66.163 -32.955  1.00  0.00     0.000 C 
BRANCH   7   8
ATOM      8  C   UNL     1     -10.235 -65.418 -34.022  1.00  0.00     0.004 C 
BRANCH   8   9
ATOM      9  C   UNL     1      -8.944 -64.820 -33.443  1.00  0.00     0.027 C 
BRANCH   9  10
ATOM     10  C   UNL     1      -8.176 -64.019 -34.461  1.00  0.00    -0.035 C 
ATOM     11  C   UNL     1      -8.777 -63.457 -35.514  1.00  0.00     0.004 C 
ENDBRANCH   9  10
ENDBRANCH   8   9
ENDBRANCH   7   8
ENDBRANCH   1   7
TORSDOF 7
ENDMDL
MODEL 3
REMARK VINA RESULT:    -4.585      4.790      6.836
REMARK INTER + INTRA:          -6.711
REMARK INTER:                  -6.326
REMARK INTRA:                  -0.385
REMARK UNBOUND:                -0.251
REMARK SMILES C=CCCCCCCC(=O)[O-]
REMARK SMILES IDX 6 1 7 2 8 3 9 4 10 5 11 6 5 7 4 8 3 9 2 10 1 11
REMARK H PARENT
REMARK Flexibility Score: inf
ROOT
ATOM      1  C   UNL     1      -9.255 -66.168 -32.330  1.00  0.00     0.000 C 
ENDROOT
BRANCH   1   2
ATOM      2  C   UNL     1      -9.424 -64.970 -33.276  1.00  0.00     0.006 C 
BRANCH   2   3
ATOM      3  C   UNL     1      -8.073 -64.314 -33.575  1.00  0.00     0.053 C 
BRANCH   3   4
ATOM      4  C   UNL     1      -8.033 -63.814 -34.984  1.00  0.00     0.041 C 
ATOM      5  O   UNL     1      -9.102 -63.630 -35.622  1.00  0.00    -0.550 OA
ATOM      6  O   UNL     1      -6.815 -63.504 -35.577  1.00  0.00    -0.550 OA
ENDBRANCH   3   4
ENDBRANCH   2   3
ENDBRANCH   1   2
BRANCH   1   7
ATOM      7  C   UNL     1     -10.489 -67.084 -32.311  1.00  0.00     0.000 C 
BRANCH   7   8
ATOM      8  C   UNL     1     -11.812 -66.298 -32.308  1.00  0.00     0.004 C 
BRANCH   8   9
ATOM      9  C   UNL     1     -12.683 -66.628 -33.528  1.00  0.00     0.027 C 
BRANCH   9  10
ATOM     10  C   UNL     1     -11.889 -67.241 -34.652  1.00  0.00    -0.035 C 
ATOM     11  C   UNL     1     -12.456 -67.574 -35.815  1.00  0.00     0.004 C 
ENDBRANCH   9  10
ENDBRANCH   8   9
ENDBRANCH   7   8
ENDBRANCH   1   7
TORSDOF 7
ENDMDL
MODEL 4
REMARK VINA RESULT:    -4.555      1.590      2.109
REMARK INTER + INTRA:          -6.670
REMARK INTER:                  -6.386
REMARK INTRA:                  -0.283
REMARK UNBOUND:                -0.251
REMARK SMILES C=CCCCCCCC(=O)[O-]
REMARK SMILES IDX 6 1 7 2 8 3 9 4 10 5 11 6 5 7 4 8 3 9 2 10 1 11
REMARK H PARENT
REMARK Flexibility Score: inf
ROOT
ATOM      1  C   UNL     1     -14.310 -67.121 -34.710  1.00  0.00     0.000 C 
ENDROOT
BRANCH   1   2
ATOM      2  C   UNL     1     -15.618 -67.852 -35.042  1.00  0.00     0.006 C 
BRANCH   2   3
ATOM      3  C   UNL     1     -16.765 -66.857 -35.246  1.00  0.00     0.053 C 
BRANCH   3   4
ATOM      4  C   UNL     1     -17.180 -66.823 -36.682  1.00  0.00     0.041 C 
ATOM      5  O   UNL     1     -16.553 -66.109 -37.507  1.00  0.00    -0.550 OA
ATOM      6  O   UNL     1     -18.232 -67.619 -37.121  1.00  0.00    -0.550 OA
ENDBRANCH   3   4
ENDBRANCH   2   3
ENDBRANCH   1   2
BRANCH   1   7
ATOM      7  C   UNL     1     -13.112 -67.659 -35.508  1.00  0.00     0.000 C 
BRANCH   7   8
ATOM      8  C   UNL     1     -11.761 -67.307 -34.861  1.00  0.00     0.004 C 
BRANCH   8   9
ATOM      9  C   UNL     1     -11.935 -66.603 -33.508  1.00  0.00     0.027 C 
BRANCH   9  10
ATOM     10  C   UNL     1     -10.644 -66.509 -32.739  1.00  0.00    -0.035 C 
ATOM     11  C   UNL     1     -10.379 -67.315 -31.707  1.00  0.00     0.004 C 
ENDBRANCH   9  10
ENDBRANCH   8   9
ENDBRANCH   7   8
ENDBRANCH   1   7
TORSDOF 7
ENDMDL
MODEL 5
REMARK VINA RESULT:    -4.550      5.490      7.274
REMARK INTER + INTRA:          -6.663
REMARK INTER:                  -6.433
REMARK INTRA:                  -0.230
REMARK UNBOUND:                -0.251
REMARK SMILES C=CCCCCCCC(=O)[O-]
REMARK SMILES IDX 6 1 7 2 8 3 9 4 10 5 11 6 5 7 4 8 3 9 2 10 1 11
REMARK H PARENT
REMARK Flexibility Score: inf
ROOT
ATOM      1  C   UNL     1      -8.777 -65.123 -33.013  1.00  0.00     0.000 C 
ENDROOT
BRANCH   1   2
ATOM      2  C   UNL     1      -7.947 -64.200 -33.917  1.00  0.00     0.006 C 
BRANCH   2   3
ATOM      3  C   UNL     1      -8.772 -63.724 -35.117  1.00  0.00     0.053 C 
BRANCH   3   4
ATOM      4  C   UNL     1      -7.873 -63.279 -36.227  1.00  0.00     0.041 C 
ATOM      5  O   UNL     1      -8.263 -63.342 -37.422  1.00  0.00    -0.550 OA
ATOM      6  O   UNL     1      -6.621 -62.750 -35.939  1.00  0.00    -0.550 OA
ENDBRANCH   3   4
ENDBRANCH   2   3
ENDBRANCH   1   2
BRANCH   1   7
ATOM      7  C   UNL     1     -10.194 -65.366 -33.557  1.00  0.00     0.000 C 
BRANCH   7   8
ATOM      8  C   UNL     1     -10.925 -66.501 -32.819  1.00  0.00     0.004 C 
BRANCH   8   9
ATOM      9  C   UNL     1     -12.414 -66.563 -33.187  1.00  0.00     0.027 C 
BRANCH   9  10
ATOM     10  C   UNL     1     -13.274 -65.762 -32.245  1.00  0.00    -0.035 C 
ATOM     11  C   UNL     1     -14.604 -65.884 -32.229  1.00  0.00     0.004 C 
ENDBRANCH   9  10
ENDBRANCH   8   9
ENDBRANCH   7   8
ENDBRANCH   1   7
TORSDOF 7
ENDMDL
MODEL 6
REMARK VINA RESULT:    -4.549      5.851      7.319
REMARK INTER + INTRA:          -6.662
REMARK INTER:                  -6.258
REMARK INTRA:                  -0.404
REMARK UNBOUND:                -0.251
REMARK SMILES C=CCCCCCCC(=O)[O-]
REMARK SMILES IDX 6 1 7 2 8 3 9 4 10 5 11 6 5 7 4 8 3 9 2 10 1 11
REMARK H PARENT
REMARK Flexibility Score: inf
ROOT
ATOM      1  C   UNL     1     -10.656 -67.632 -30.997  1.00  0.00     0.000 C 
ENDROOT
BRANCH   1   2
ATOM      2  C   UNL     1      -9.691 -68.050 -29.878  1.00  0.00     0.006 C 
BRANCH   2   3
ATOM      3  C   UNL     1      -8.385 -67.255 -29.957  1.00  0.00     0.053 C 
BRANCH   3   4
ATOM      4  C   UNL     1      -7.949 -66.826 -28.592  1.00  0.00     0.041 C 
ATOM      5  O   UNL     1      -8.357 -67.442 -27.573  1.00  0.00    -0.550 OA
ATOM      6  O   UNL     1      -7.051 -65.775 -28.447  1.00  0.00    -0.550 OA
ENDBRANCH   3   4
ENDBRANCH   2   3
ENDBRANCH   1   2
BRANCH   1   7
ATOM      7  C   UNL     1      -9.930 -67.013 -32.202  1.00  0.00     0.000 C 
BRANCH   7   8
ATOM      8  C   UNL     1     -10.793 -65.980 -32.947  1.00  0.00     0.004 C 
BRANCH   8   9
ATOM      9  C   UNL     1      -9.955 -65.085 -33.871  1.00  0.00     0.027 C 
BRANCH   9  10
ATOM     10  C   UNL     1      -8.596 -64.781 -33.298  1.00  0.00    -0.035 C 
ATOM     11  C   UNL     1      -7.633 -64.216 -34.032  1.00  0.00     0.004 C 
ENDBRANCH   9  10
ENDBRANCH   8   9
ENDBRANCH   7   8
ENDBRANCH   1   7
TORSDOF 7
ENDMDL
MODEL 7
REMARK VINA RESULT:    -4.543      3.554      5.926
REMARK INTER + INTRA:          -6.652
REMARK INTER:                  -5.940
REMARK INTRA:                  -0.713
REMARK UNBOUND:                -0.251
REMARK SMILES C=CCCCCCCC(=O)[O-]
REMARK SMILES IDX 6 1 7 2 8 3 9 4 10 5 11 6 5 7 4 8 3 9 2 10 1 11
REMARK H PARENT
REMARK Flexibility Score: inf
ROOT
ATOM      1  C   UNL     1     -16.173 -67.083 -33.924  1.00  0.00     0.000 C 
ENDROOT
BRANCH   1   2
ATOM      2  C   UNL     1     -14.744 -66.803 -34.408  1.00  0.00     0.006 C 
BRANCH   2   3
ATOM      3  C   UNL     1     -14.274 -67.885 -35.384  1.00  0.00     0.053 C 
BRANCH   3   4
ATOM      4  C   UNL     1     -12.894 -67.583 -35.877  1.00  0.00     0.041 C 
ATOM      5  O   UNL     1     -11.932 -67.518 -35.069  1.00  0.00    -0.550 OA
ATOM      6  O   UNL     1     -12.663 -67.422 -37.238  1.00  0.00    -0.550 OA
ENDBRANCH   3   4
ENDBRANCH   2   3
ENDBRANCH   1   2
BRANCH   1   7
ATOM      7  C   UNL     1     -16.978 -67.934 -34.919  1.00  0.00     0.000 C 
BRANCH   7   8
ATOM      8  C   UNL     1     -17.950 -67.094 -35.767  1.00  0.00     0.004 C 
BRANCH   8   9
ATOM      9  C   UNL     1     -17.668 -67.228 -37.271  1.00  0.00     0.027 C 
BRANCH   9  10
ATOM     10  C   UNL     1     -16.611 -66.266 -37.745  1.00  0.00    -0.035 C 
ATOM     11  C   UNL     1     -15.685 -66.622 -38.640  1.00  0.00     0.004 C 
ENDBRANCH   9  10
ENDBRANCH   8   9
ENDBRANCH   7   8
ENDBRANCH   1   7
TORSDOF 7
ENDMDL
MODEL 8
REMARK VINA RESULT:    -4.500      3.515      6.097
REMARK INTER + INTRA:          -6.593
REMARK INTER:                  -6.248
REMARK INTRA:                  -0.345
REMARK UNBOUND:                -0.251
REMARK SMILES C=CCCCCCCC(=O)[O-]
REMARK SMILES IDX 6 1 7 2 8 3 9 4 10 5 11 6 5 7 4 8 3 9 2 10 1 11
REMARK H PARENT
REMARK Flexibility Score: inf
ROOT
ATOM      1  C   UNL     1     -13.226 -67.581 -35.551  1.00  0.00     0.000 C 
ENDROOT
BRANCH   1   2
ATOM      2  C   UNL     1     -11.848 -67.295 -34.937  1.00  0.00     0.006 C 
BRANCH   2   3
ATOM      3  C   UNL     1     -11.987 -66.611 -33.574  1.00  0.00     0.053 C 
BRANCH   3   4
ATOM      4  C   UNL     1     -10.641 -66.258 -33.025  1.00  0.00     0.041 C 
ATOM      5  O   UNL     1     -10.094 -66.994 -32.163  1.00  0.00    -0.550 OA
ATOM      6  O   UNL     1      -9.967 -65.140 -33.503  1.00  0.00    -0.550 OA
ENDBRANCH   3   4
ENDBRANCH   2   3
ENDBRANCH   1   2
BRANCH   1   7
ATOM      7  C   UNL     1     -14.380 -67.258 -34.588  1.00  0.00     0.000 C 
BRANCH   7   8
ATOM      8  C   UNL     1     -15.763 -67.456 -35.233  1.00  0.00     0.004 C 
BRANCH   8   9
ATOM      9  C   UNL     1     -16.251 -66.191 -35.953  1.00  0.00     0.027 C 
BRANCH   9  10
ATOM     10  C   UNL     1     -16.734 -66.475 -37.351  1.00  0.00    -0.035 C 
ATOM     11  C   UNL     1     -16.045 -66.084 -38.427  1.00  0.00     0.004 C 
ENDBRANCH   9  10
ENDBRANCH   8   9
ENDBRANCH   7   8
ENDBRANCH   1   7
TORSDOF 7
ENDMDL
MODEL 9
REMARK VINA RESULT:    -4.490      9.412     10.750
REMARK INTER + INTRA:          -6.578
REMARK INTER:                  -6.215
REMARK INTRA:                  -0.363
REMARK UNBOUND:                -0.251
REMARK SMILES C=CCCCCCCC(=O)[O-]
REMARK SMILES IDX 6 1 7 2 8 3 9 4 10 5 11 6 5 7 4 8 3 9 2 10 1 11
REMARK H PARENT
REMARK Flexibility Score: inf
ROOT
ATOM      1  C   UNL     1     -11.663 -65.090 -24.879  1.00  0.00     0.000 C 
ENDROOT
BRANCH   1   2
ATOM      2  C   UNL     1     -12.799 -64.632 -23.953  1.00  0.00     0.006 C 
BRANCH   2   3
ATOM      3  C   UNL     1     -12.539 -65.072 -22.509  1.00  0.00     0.053 C 
BRANCH   3   4
ATOM      4  C   UNL     1     -13.616 -65.999 -22.042  1.00  0.00     0.041 C 
ATOM      5  O   UNL     1     -14.438 -65.625 -21.165  1.00  0.00    -0.550 OA
ATOM      6  O   UNL     1     -13.742 -67.261 -22.610  1.00  0.00    -0.550 OA
ENDBRANCH   3   4
ENDBRANCH   2   3
ENDBRANCH   1   2
BRANCH   1   7
ATOM      7  C   UNL     1     -10.701 -66.073 -24.193  1.00  0.00     0.000 C 
BRANCH   7   8
ATOM      8  C   UNL     1      -9.424 -66.324 -25.014  1.00  0.00     0.004 C 
BRANCH   8   9
ATOM      9  C   UNL     1      -9.192 -67.819 -25.279  1.00  0.00     0.027 C 
BRANCH   9  10
ATOM     10  C   UNL     1     -10.397 -68.488 -25.886  1.00  0.00    -0.035 C 
ATOM     11  C   UNL     1     -10.315 -69.686 -26.474  1.00  0.00     0.004 C 
ENDBRANCH   9  10
ENDBRANCH   8   9
ENDBRANCH   7   8
ENDBRANCH   1   7
TORSDOF 7
ENDMDL
