MODEL 1
REMARK VINA RESULT:    -6.175      0.000      0.000
REMARK INTER + INTRA:          -9.128
REMARK INTER:                  -8.341
REMARK INTRA:                  -0.787
REMARK UNBOUND:                -0.787
REMARK SMILES O=c1c(-c2ccc(O)cc2)coc2c([C@@H]3O[C@H](CO)[C@H](O)[C@@H](O)[C@@H]3O)c(O)ccc12
REMARK SMILES IDX 3 1 11 2 12 3 13 4 30 5 2 6 1 7 29 8 28 9 26 10 14 11 4 12
REMARK SMILES IDX 5 13 6 14 7 15 10 16 9 17 8 18 15 20 24 21 16 22 22 23 17 24
REMARK SMILES IDX 20 25 25 26 23 28 18 30 19 31 21 33 27 35
REMARK H PARENT 8 19 25 27 23 29 19 32 21 34 27 36
REMARK Flexibility Score: inf
ROOT
ATOM      1  C   UNL     1     173.662 169.781 172.519  1.00  0.00     0.065 A 
ATOM      2  C   UNL     1     172.605 170.476 171.914  1.00  0.00     0.208 A 
ATOM      3  O   UNL     1     171.362 170.015 171.979  1.00  0.00    -0.463 OA
ATOM      4  C   UNL     1     171.030 168.891 172.608  1.00  0.00     0.147 A 
ATOM      5  C   UNL     1     172.034 168.132 173.256  1.00  0.00     0.066 A 
ATOM      6  C   UNL     1     173.364 168.592 173.209  1.00  0.00     0.200 A 
ATOM      7  O   UNL     1     174.279 167.954 173.800  1.00  0.00    -0.288 OA
ATOM      8  C   UNL     1     171.686 166.955 173.934  1.00  0.00     0.020 A 
ATOM      9  C   UNL     1     170.358 166.538 173.980  1.00  0.00     0.047 A 
ATOM     10  C   UNL     1     169.355 167.281 173.346  1.00  0.00     0.125 A 
ATOM     11  C   UNL     1     169.680 168.457 172.633  1.00  0.00     0.069 A 
ENDROOT
BRANCH   1  12
ATOM     12  C   UNL     1     175.045 170.311 172.425  1.00  0.00    -0.011 A 
ATOM     13  C   UNL     1     175.487 171.302 173.320  1.00  0.00     0.013 A 
ATOM     14  C   UNL     1     176.787 171.810 173.227  1.00  0.00     0.047 A 
ATOM     15  C   UNL     1     177.658 171.338 172.240  1.00  0.00     0.115 A 
ATOM     16  C   UNL     1     175.923 169.847 171.430  1.00  0.00     0.013 A 
ATOM     17  C   UNL     1     177.223 170.357 171.340  1.00  0.00     0.047 A 
BRANCH  15  18
ATOM     18  O   UNL     1     178.950 171.853 172.160  1.00  0.00    -0.508 OA
ATOM     19  H   UNL     1     179.118 172.842 172.020  1.00  0.00     0.293 HD
ENDBRANCH  15  18
ENDBRANCH   1  12
BRANCH  11  20
ATOM     20  C   UNL     1     168.565 169.263 171.975  1.00  0.00     0.188 C 
ATOM     21  C   UNL     1     168.162 168.633 170.616  1.00  0.00     0.179 C 
ATOM     22  O   UNL     1     167.446 169.373 172.840  1.00  0.00    -0.362 OA
ATOM     23  C   UNL     1     166.991 169.414 169.973  1.00  0.00     0.177 C 
ATOM     24  C   UNL     1     166.485 170.269 172.306  1.00  0.00     0.176 C 
ATOM     25  C   UNL     1     165.874 169.712 170.995  1.00  0.00     0.177 C 
BRANCH  21  26
ATOM     26  O   UNL     1     167.855 167.265 170.731  1.00  0.00    -0.387 OA
ATOM     27  H   UNL     1     168.687 166.778 170.958  1.00  0.00     0.211 HD
ENDBRANCH  21  26
BRANCH  23  28
ATOM     28  O   UNL     1     167.462 170.631 169.449  1.00  0.00    -0.387 OA
ATOM     29  H   UNL     1     166.666 171.200 169.280  1.00  0.00     0.211 HD
ENDBRANCH  23  28
BRANCH  24  30
ATOM     30  C   UNL     1     165.414 170.551 173.369  1.00  0.00     0.191 C 
BRANCH  30  31
ATOM     31  O   UNL     1     165.061 171.907 173.369  1.00  0.00    -0.394 OA
ATOM     32  H   UNL     1     164.111 171.945 173.084  1.00  0.00     0.210 HD
ENDBRANCH  30  31
ENDBRANCH  24  30
BRANCH  25  33
ATOM     33  O   UNL     1     165.140 168.538 171.242  1.00  0.00    -0.388 OA
ATOM     34  H   UNL     1     164.530 168.403 170.471  1.00  0.00     0.211 HD
ENDBRANCH  25  33
ENDBRANCH  11  20
BRANCH  10  35
ATOM     35  O   UNL     1     168.030 166.851 173.429  1.00  0.00    -0.507 OA
ATOM     36  H   UNL     1     167.290 167.461 173.753  1.00  0.00     0.293 HD
ENDBRANCH  10  35
TORSDOF 9
ENDMDL
MODEL 2
REMARK VINA RESULT:    -6.081      5.220      6.743
REMARK INTER + INTRA:          -9.002
REMARK INTER:                  -8.152
REMARK INTRA:                  -0.850
REMARK UNBOUND:                -0.787
REMARK SMILES O=c1c(-c2ccc(O)cc2)coc2c([C@@H]3O[C@H](CO)[C@H](O)[C@@H](O)[C@@H]3O)c(O)ccc12
REMARK SMILES IDX 3 1 11 2 12 3 13 4 30 5 2 6 1 7 29 8 28 9 26 10 14 11 4 12
REMARK SMILES IDX 5 13 6 14 7 15 10 16 9 17 8 18 15 20 24 21 16 22 22 23 17 24
REMARK SMILES IDX 20 25 25 26 23 28 18 30 19 31 21 33 27 35
REMARK H PARENT 8 19 25 27 23 29 19 32 21 34 27 36
REMARK Flexibility Score: inf
ROOT
ATOM      1  C   UNL     1     175.526 168.313 172.637  1.00  0.00     0.065 A 
ATOM      2  C   UNL     1     174.702 168.016 173.731  1.00  0.00     0.208 A 
ATOM      3  O   UNL     1     174.237 166.787 173.919  1.00  0.00    -0.463 OA
ATOM      4  C   UNL     1     174.511 165.769 173.108  1.00  0.00     0.147 A 
ATOM      5  C   UNL     1     175.344 165.979 171.983  1.00  0.00     0.066 A 
ATOM      6  C   UNL     1     175.857 167.270 171.754  1.00  0.00     0.200 A 
ATOM      7  O   UNL     1     176.626 167.485 170.776  1.00  0.00    -0.288 OA
ATOM      8  C   UNL     1     175.649 164.905 171.134  1.00  0.00     0.020 A 
ATOM      9  C   UNL     1     175.143 163.635 171.401  1.00  0.00     0.047 A 
ATOM     10  C   UNL     1     174.319 163.413 172.511  1.00  0.00     0.125 A 
ATOM     11  C   UNL     1     173.975 164.483 173.369  1.00  0.00     0.069 A 
ENDROOT
BRANCH   1  12
ATOM     12  C   UNL     1     176.027 169.697 172.443  1.00  0.00    -0.011 A 
ATOM     13  C   UNL     1     177.158 170.147 173.146  1.00  0.00     0.013 A 
ATOM     14  C   UNL     1     177.626 171.454 172.971  1.00  0.00     0.047 A 
ATOM     15  C   UNL     1     176.969 172.326 172.098  1.00  0.00     0.115 A 
ATOM     16  C   UNL     1     175.366 170.582 171.572  1.00  0.00     0.013 A 
ATOM     17  C   UNL     1     175.836 171.888 171.400  1.00  0.00     0.047 A 
BRANCH  15  18
ATOM     18  O   UNL     1     177.447 173.624 171.935  1.00  0.00    -0.508 OA
ATOM     19  H   UNL     1     178.439 173.819 171.869  1.00  0.00     0.293 HD
ENDBRANCH  15  18
ENDBRANCH   1  12
BRANCH  11  20
ATOM     20  C   UNL     1     173.099 164.209 174.587  1.00  0.00     0.188 C 
ATOM     21  C   UNL     1     171.596 164.282 174.210  1.00  0.00     0.179 C 
ATOM     22  O   UNL     1     173.421 162.955 175.167  1.00  0.00    -0.362 OA
ATOM     23  C   UNL     1     170.706 163.946 175.430  1.00  0.00     0.177 C 
ATOM     24  C   UNL     1     172.739 162.781 176.398  1.00  0.00     0.176 C 
ATOM     25  C   UNL     1     171.207 162.693 176.177  1.00  0.00     0.177 C 
BRANCH  21  26
ATOM     26  O   UNL     1     171.280 163.460 173.113  1.00  0.00    -0.387 OA
ATOM     27  H   UNL     1     170.522 162.878 173.369  1.00  0.00     0.211 HD
ENDBRANCH  21  26
BRANCH  23  28
ATOM     28  O   UNL     1     170.696 165.032 176.324  1.00  0.00    -0.387 OA
ATOM     29  H   UNL     1     170.722 165.859 175.774  1.00  0.00     0.211 HD
ENDBRANCH  23  28
BRANCH  24  30
ATOM     30  C   UNL     1     173.293 161.539 177.109  1.00  0.00     0.191 C 
BRANCH  30  31
ATOM     31  O   UNL     1     172.961 161.559 178.471  1.00  0.00    -0.394 OA
ATOM     32  H   UNL     1     172.899 160.609 178.753  1.00  0.00     0.210 HD
ENDBRANCH  30  31
ENDBRANCH  24  30
BRANCH  25  33
ATOM     33  O   UNL     1     170.871 161.543 175.439  1.00  0.00    -0.388 OA
ATOM     34  H   UNL     1     171.524 161.468 174.695  1.00  0.00     0.211 HD
ENDBRANCH  25  33
ENDBRANCH  11  20
BRANCH  10  35
ATOM     35  O   UNL     1     173.846 162.126 172.765  1.00  0.00    -0.507 OA
ATOM     36  H   UNL     1     172.897 161.853 172.541  1.00  0.00     0.293 HD
ENDBRANCH  10  35
TORSDOF 9
ENDMDL
MODEL 3
REMARK VINA RESULT:    -6.032      6.165      9.245
REMARK INTER + INTRA:          -8.935
REMARK INTER:                  -7.931
REMARK INTRA:                  -1.004
REMARK UNBOUND:                -0.787
REMARK SMILES O=c1c(-c2ccc(O)cc2)coc2c([C@@H]3O[C@H](CO)[C@H](O)[C@@H](O)[C@@H]3O)c(O)ccc12
REMARK SMILES IDX 3 1 11 2 12 3 13 4 30 5 2 6 1 7 29 8 28 9 26 10 14 11 4 12
REMARK SMILES IDX 5 13 6 14 7 15 10 16 9 17 8 18 15 20 24 21 16 22 22 23 17 24
REMARK SMILES IDX 20 25 25 26 23 28 18 30 19 31 21 33 27 35
REMARK H PARENT 8 19 25 27 23 29 19 32 21 34 27 36
REMARK Flexibility Score: inf
ROOT
ATOM      1  C   UNL     1     176.024 168.704 170.581  1.00  0.00     0.065 A 
ATOM      2  C   UNL     1     176.605 167.474 170.920  1.00  0.00     0.208 A 
ATOM      3  O   UNL     1     176.444 166.409 170.145  1.00  0.00    -0.463 OA
ATOM      4  C   UNL     1     175.738 166.424 169.017  1.00  0.00     0.147 A 
ATOM      5  C   UNL     1     175.126 167.628 168.595  1.00  0.00     0.066 A 
ATOM      6  C   UNL     1     175.278 168.779 169.392  1.00  0.00     0.200 A 
ATOM      7  O   UNL     1     174.768 169.876 169.030  1.00  0.00    -0.288 OA
ATOM      8  C   UNL     1     174.395 167.653 167.398  1.00  0.00     0.020 A 
ATOM      9  C   UNL     1     174.281 166.502 166.622  1.00  0.00     0.047 A 
ATOM     10  C   UNL     1     174.884 165.306 167.027  1.00  0.00     0.125 A 
ATOM     11  C   UNL     1     175.604 165.245 168.241  1.00  0.00     0.069 A 
ENDROOT
BRANCH   1  12
ATOM     12  C   UNL     1     176.212 169.880 171.468  1.00  0.00    -0.011 A 
ATOM     13  C   UNL     1     177.389 170.644 171.392  1.00  0.00     0.013 A 
ATOM     14  C   UNL     1     177.572 171.746 172.233  1.00  0.00     0.047 A 
ATOM     15  C   UNL     1     176.586 172.096 173.161  1.00  0.00     0.115 A 
ATOM     16  C   UNL     1     175.227 170.231 172.408  1.00  0.00     0.013 A 
ATOM     17  C   UNL     1     175.413 171.334 173.248  1.00  0.00     0.047 A 
BRANCH  15  18
ATOM     18  O   UNL     1     176.782 173.197 173.992  1.00  0.00    -0.508 OA
ATOM     19  H   UNL     1     176.328 173.267 174.894  1.00  0.00     0.293 HD
ENDBRANCH  15  18
ENDBRANCH   1  12
BRANCH  11  20
ATOM     20  C   UNL     1     176.276 163.937 168.646  1.00  0.00     0.188 C 
ATOM     21  C   UNL     1     175.251 162.974 169.302  1.00  0.00     0.179 C 
ATOM     22  O   UNL     1     176.907 163.328 167.530  1.00  0.00    -0.362 OA
ATOM     23  C   UNL     1     175.916 161.623 169.660  1.00  0.00     0.177 C 
ATOM     24  C   UNL     1     177.681 162.212 167.937  1.00  0.00     0.176 C 
ATOM     25  C   UNL     1     176.777 161.084 168.498  1.00  0.00     0.177 C 
BRANCH  21  26
ATOM     26  O   UNL     1     174.111 162.780 168.500  1.00  0.00    -0.387 OA
ATOM     27  H   UNL     1     173.339 162.606 169.095  1.00  0.00     0.211 HD
ENDBRANCH  21  26
BRANCH  23  28
ATOM     28  O   UNL     1     176.732 161.781 170.794  1.00  0.00    -0.387 OA
ATOM     29  H   UNL     1     176.766 160.899 171.250  1.00  0.00     0.211 HD
ENDBRANCH  23  28
BRANCH  24  30
ATOM     30  C   UNL     1     178.535 161.734 166.755  1.00  0.00     0.191 C 
BRANCH  30  31
ATOM     31  O   UNL     1     178.882 160.385 166.909  1.00  0.00    -0.394 OA
ATOM     32  H   UNL     1     179.366 160.322 167.773  1.00  0.00     0.210 HD
ENDBRANCH  30  31
ENDBRANCH  24  30
BRANCH  25  33
ATOM     33  O   UNL     1     175.939 160.566 167.495  1.00  0.00    -0.388 OA
ATOM     34  H   UNL     1     175.439 161.329 167.104  1.00  0.00     0.211 HD
ENDBRANCH  25  33
ENDBRANCH  11  20
BRANCH  10  35
ATOM     35  O   UNL     1     174.771 164.175 166.217  1.00  0.00    -0.507 OA
ATOM     36  H   UNL     1     175.263 163.316 166.430  1.00  0.00     0.293 HD
ENDBRANCH  10  35
TORSDOF 9
ENDMDL
MODEL 4
REMARK VINA RESULT:    -6.008      4.837      6.299
REMARK INTER + INTRA:          -8.903
REMARK INTER:                  -7.909
REMARK INTRA:                  -0.993
REMARK UNBOUND:                -0.787
REMARK SMILES O=c1c(-c2ccc(O)cc2)coc2c([C@@H]3O[C@H](CO)[C@H](O)[C@@H](O)[C@@H]3O)c(O)ccc12
REMARK SMILES IDX 3 1 11 2 12 3 13 4 30 5 2 6 1 7 29 8 28 9 26 10 14 11 4 12
REMARK SMILES IDX 5 13 6 14 7 15 10 16 9 17 8 18 15 20 24 21 16 22 22 23 17 24
REMARK SMILES IDX 20 25 25 26 23 28 18 30 19 31 21 33 27 35
REMARK H PARENT 8 19 25 27 23 29 19 32 21 34 27 36
REMARK Flexibility Score: inf
ROOT
ATOM      1  C   UNL     1     174.500 170.390 170.576  1.00  0.00     0.065 A 
ATOM      2  C   UNL     1     174.837 170.197 169.229  1.00  0.00     0.208 A 
ATOM      3  O   UNL     1     173.910 169.883 168.334  1.00  0.00    -0.463 OA
ATOM      4  C   UNL     1     172.622 169.733 168.635  1.00  0.00     0.147 A 
ATOM      5  C   UNL     1     172.193 169.921 169.970  1.00  0.00     0.066 A 
ATOM      6  C   UNL     1     173.150 170.256 170.946  1.00  0.00     0.200 A 
ATOM      7  O   UNL     1     172.797 170.458 172.142  1.00  0.00    -0.288 OA
ATOM      8  C   UNL     1     170.834 169.780 170.289  1.00  0.00     0.020 A 
ATOM      9  C   UNL     1     169.909 169.468 169.296  1.00  0.00     0.047 A 
ATOM     10  C   UNL     1     170.321 169.283 167.971  1.00  0.00     0.125 A 
ATOM     11  C   UNL     1     171.687 169.392 167.625  1.00  0.00     0.069 A 
ENDROOT
BRANCH   1  12
ATOM     12  C   UNL     1     175.556 170.732 171.561  1.00  0.00    -0.011 A 
ATOM     13  C   UNL     1     175.976 172.065 171.717  1.00  0.00     0.013 A 
ATOM     14  C   UNL     1     176.978 172.388 172.638  1.00  0.00     0.047 A 
ATOM     15  C   UNL     1     177.574 171.387 173.410  1.00  0.00     0.115 A 
ATOM     16  C   UNL     1     176.166 169.729 172.335  1.00  0.00     0.013 A 
ATOM     17  C   UNL     1     177.168 170.055 173.255  1.00  0.00     0.047 A 
BRANCH  15  18
ATOM     18  O   UNL     1     178.571 171.724 174.323  1.00  0.00    -0.508 OA
ATOM     19  H   UNL     1     178.428 172.444 175.021  1.00  0.00     0.293 HD
ENDBRANCH  15  18
ENDBRANCH   1  12
BRANCH  11  20
ATOM     20  C   UNL     1     172.105 169.213 166.170  1.00  0.00     0.188 C 
ATOM     21  C   UNL     1     172.198 167.708 165.807  1.00  0.00     0.179 C 
ATOM     22  O   UNL     1     171.213 169.895 165.302  1.00  0.00    -0.362 OA
ATOM     23  C   UNL     1     172.564 167.523 164.314  1.00  0.00     0.177 C 
ATOM     24  C   UNL     1     171.699 169.881 163.970  1.00  0.00     0.176 C 
ATOM     25  C   UNL     1     171.723 168.439 163.402  1.00  0.00     0.177 C 
BRANCH  21  26
ATOM     26  O   UNL     1     171.021 167.007 166.129  1.00  0.00    -0.387 OA
ATOM     27  H   UNL     1     170.613 167.435 166.923  1.00  0.00     0.211 HD
ENDBRANCH  21  26
BRANCH  23  28
ATOM     28  O   UNL     1     173.925 167.816 164.120  1.00  0.00    -0.387 OA
ATOM     29  H   UNL     1     174.320 167.967 165.019  1.00  0.00     0.211 HD
ENDBRANCH  23  28
BRANCH  24  30
ATOM     30  C   UNL     1     170.845 170.827 163.113  1.00  0.00     0.191 C 
BRANCH  30  31
ATOM     31  O   UNL     1     170.861 170.427 161.770  1.00  0.00    -0.394 OA
ATOM     32  H   UNL     1     170.424 169.536 161.743  1.00  0.00     0.210 HD
ENDBRANCH  30  31
ENDBRANCH  24  30
BRANCH  25  33
ATOM     33  O   UNL     1     170.420 167.921 163.290  1.00  0.00    -0.388 OA
ATOM     34  H   UNL     1     170.380 167.100 163.845  1.00  0.00     0.211 HD
ENDBRANCH  25  33
ENDBRANCH  11  20
BRANCH  10  35
ATOM     35  O   UNL     1     169.368 168.993 166.994  1.00  0.00    -0.507 OA
ATOM     36  H   UNL     1     169.077 168.043 166.798  1.00  0.00     0.293 HD
ENDBRANCH  10  35
TORSDOF 9
ENDMDL
MODEL 5
REMARK VINA RESULT:    -5.887      4.360      6.039
REMARK INTER + INTRA:          -8.739
REMARK INTER:                  -8.090
REMARK INTRA:                  -0.649
REMARK UNBOUND:                -0.787
REMARK SMILES O=c1c(-c2ccc(O)cc2)coc2c([C@@H]3O[C@H](CO)[C@H](O)[C@@H](O)[C@@H]3O)c(O)ccc12
REMARK SMILES IDX 3 1 11 2 12 3 13 4 30 5 2 6 1 7 29 8 28 9 26 10 14 11 4 12
REMARK SMILES IDX 5 13 6 14 7 15 10 16 9 17 8 18 15 20 24 21 16 22 22 23 17 24
REMARK SMILES IDX 20 25 25 26 23 28 18 30 19 31 21 33 27 35
REMARK H PARENT 8 19 25 27 23 29 19 32 21 34 27 36
REMARK Flexibility Score: inf
ROOT
ATOM      1  C   UNL     1     174.253 170.392 170.844  1.00  0.00     0.065 A 
ATOM      2  C   UNL     1     174.374 170.037 169.493  1.00  0.00     0.208 A 
ATOM      3  O   UNL     1     173.317 169.631 168.800  1.00  0.00    -0.463 OA
ATOM      4  C   UNL     1     172.096 169.534 169.318  1.00  0.00     0.147 A 
ATOM      5  C   UNL     1     171.883 169.883 170.672  1.00  0.00     0.066 A 
ATOM      6  C   UNL     1     172.981 170.320 171.437  1.00  0.00     0.200 A 
ATOM      7  O   UNL     1     172.821 170.667 172.641  1.00  0.00    -0.288 OA
ATOM      8  C   UNL     1     170.593 169.798 171.218  1.00  0.00     0.020 A 
ATOM      9  C   UNL     1     169.524 169.382 170.428  1.00  0.00     0.047 A 
ATOM     10  C   UNL     1     169.720 169.036 169.086  1.00  0.00     0.125 A 
ATOM     11  C   UNL     1     171.013 169.087 168.517  1.00  0.00     0.069 A 
ENDROOT
BRANCH   1  12
ATOM     12  C   UNL     1     175.451 170.836 171.601  1.00  0.00    -0.011 A 
ATOM     13  C   UNL     1     176.102 169.951 172.480  1.00  0.00     0.013 A 
ATOM     14  C   UNL     1     177.225 170.369 173.201  1.00  0.00     0.047 A 
ATOM     15  C   UNL     1     177.708 171.674 173.058  1.00  0.00     0.115 A 
ATOM     16  C   UNL     1     175.937 172.148 171.468  1.00  0.00     0.013 A 
ATOM     17  C   UNL     1     177.060 172.564 172.191  1.00  0.00     0.047 A 
BRANCH  15  18
ATOM     18  O   UNL     1     178.827 172.076 173.783  1.00  0.00    -0.508 OA
ATOM     19  H   UNL     1     178.946 173.036 174.085  1.00  0.00     0.293 HD
ENDBRANCH  15  18
ENDBRANCH   1  12
BRANCH  11  20
ATOM     20  C   UNL     1     171.196 168.732 167.045  1.00  0.00     0.188 C 
ATOM     21  C   UNL     1     171.013 169.987 166.151  1.00  0.00     0.179 C 
ATOM     22  O   UNL     1     172.460 168.127 166.826  1.00  0.00    -0.362 OA
ATOM     23  C   UNL     1     171.256 169.642 164.663  1.00  0.00     0.177 C 
ATOM     24  C   UNL     1     172.558 167.635 165.500  1.00  0.00     0.176 C 
ATOM     25  C   UNL     1     172.531 168.795 164.472  1.00  0.00     0.177 C 
BRANCH  21  26
ATOM     26  O   UNL     1     171.829 171.058 166.562  1.00  0.00    -0.387 OA
ATOM     27  H   UNL     1     171.252 171.744 166.983  1.00  0.00     0.211 HD
ENDBRANCH  21  26
BRANCH  23  28
ATOM     28  O   UNL     1     170.157 168.928 164.155  1.00  0.00    -0.387 OA
ATOM     29  H   UNL     1     169.494 169.599 163.846  1.00  0.00     0.211 HD
ENDBRANCH  23  28
BRANCH  24  30
ATOM     30  C   UNL     1     173.826 166.779 165.373  1.00  0.00     0.191 C 
BRANCH  30  31
ATOM     31  O   UNL     1     174.334 166.838 164.068  1.00  0.00    -0.394 OA
ATOM     32  H   UNL     1     175.087 167.483 164.095  1.00  0.00     0.210 HD
ENDBRANCH  30  31
ENDBRANCH  24  30
BRANCH  25  33
ATOM     33  O   UNL     1     173.665 169.616 164.612  1.00  0.00    -0.388 OA
ATOM     34  H   UNL     1     174.464 169.035 164.517  1.00  0.00     0.211 HD
ENDBRANCH  25  33
ENDBRANCH  11  20
BRANCH  10  35
ATOM     35  O   UNL     1     168.626 168.645 168.314  1.00  0.00    -0.507 OA
ATOM     36  H   UNL     1     168.416 167.669 168.142  1.00  0.00     0.293 HD
ENDBRANCH  10  35
TORSDOF 9
ENDMDL
MODEL 6
REMARK VINA RESULT:    -5.770      5.843      8.050
REMARK INTER + INTRA:          -8.581
REMARK INTER:                  -8.012
REMARK INTRA:                  -0.569
REMARK UNBOUND:                -0.787
REMARK SMILES O=c1c(-c2ccc(O)cc2)coc2c([C@@H]3O[C@H](CO)[C@H](O)[C@@H](O)[C@@H]3O)c(O)ccc12
REMARK SMILES IDX 3 1 11 2 12 3 13 4 30 5 2 6 1 7 29 8 28 9 26 10 14 11 4 12
REMARK SMILES IDX 5 13 6 14 7 15 10 16 9 17 8 18 15 20 24 21 16 22 22 23 17 24
REMARK SMILES IDX 20 25 25 26 23 28 18 30 19 31 21 33 27 35
REMARK H PARENT 8 19 25 27 23 29 19 32 21 34 27 36
REMARK Flexibility Score: inf
ROOT
ATOM      1  C   UNL     1     175.764 169.574 170.835  1.00  0.00     0.065 A 
ATOM      2  C   UNL     1     176.229 168.254 170.918  1.00  0.00     0.208 A 
ATOM      3  O   UNL     1     175.755 167.314 170.110  1.00  0.00    -0.463 OA
ATOM      4  C   UNL     1     174.829 167.545 169.183  1.00  0.00     0.147 A 
ATOM      5  C   UNL     1     174.313 168.852 169.024  1.00  0.00     0.066 A 
ATOM      6  C   UNL     1     174.794 169.875 169.863  1.00  0.00     0.200 A 
ATOM      7  O   UNL     1     174.376 171.059 169.729  1.00  0.00    -0.288 OA
ATOM      8  C   UNL     1     173.349 169.104 168.036  1.00  0.00     0.020 A 
ATOM      9  C   UNL     1     172.909 168.074 167.208  1.00  0.00     0.047 A 
ATOM     10  C   UNL     1     173.413 166.776 167.353  1.00  0.00     0.125 A 
ATOM     11  C   UNL     1     174.366 166.489 168.357  1.00  0.00     0.069 A 
ENDROOT
BRANCH   1  12
ATOM     12  C   UNL     1     176.303 170.607 171.756  1.00  0.00    -0.011 A 
ATOM     13  C   UNL     1     177.626 171.063 171.614  1.00  0.00     0.013 A 
ATOM     14  C   UNL     1     178.138 172.029 172.486  1.00  0.00     0.047 A 
ATOM     15  C   UNL     1     177.340 172.547 173.510  1.00  0.00     0.115 A 
ATOM     16  C   UNL     1     175.509 171.126 172.793  1.00  0.00     0.013 A 
ATOM     17  C   UNL     1     176.024 172.091 173.664  1.00  0.00     0.047 A 
BRANCH  15  18
ATOM     18  O   UNL     1     177.864 173.508 174.371  1.00  0.00    -0.508 OA
ATOM     19  H   UNL     1     178.140 173.277 175.318  1.00  0.00     0.293 HD
ENDBRANCH  15  18
ENDBRANCH   1  12
BRANCH  11  20
ATOM     20  C   UNL     1     174.921 165.073 168.475  1.00  0.00     0.188 C 
ATOM     21  C   UNL     1     176.304 164.966 167.782  1.00  0.00     0.179 C 
ATOM     22  O   UNL     1     174.998 164.675 169.835  1.00  0.00    -0.362 OA
ATOM     23  C   UNL     1     176.897 163.547 167.951  1.00  0.00     0.177 C 
ATOM     24  C   UNL     1     175.340 163.303 169.937  1.00  0.00     0.176 C 
ATOM     25  C   UNL     1     176.773 163.046 169.405  1.00  0.00     0.177 C 
BRANCH  21  26
ATOM     26  O   UNL     1     177.206 165.948 168.234  1.00  0.00    -0.387 OA
ATOM     27  H   UNL     1     178.126 165.642 168.032  1.00  0.00     0.211 HD
ENDBRANCH  21  26
BRANCH  23  28
ATOM     28  O   UNL     1     176.227 162.648 167.103  1.00  0.00    -0.387 OA
ATOM     29  H   UNL     1     175.786 163.190 166.398  1.00  0.00     0.211 HD
ENDBRANCH  23  28
BRANCH  24  30
ATOM     30  C   UNL     1     175.175 162.850 171.395  1.00  0.00     0.191 C 
BRANCH  30  31
ATOM     31  O   UNL     1     176.130 161.878 171.723  1.00  0.00    -0.394 OA
ATOM     32  H   UNL     1     176.947 162.112 171.210  1.00  0.00     0.210 HD
ENDBRANCH  30  31
ENDBRANCH  24  30
BRANCH  25  33
ATOM     33  O   UNL     1     177.730 163.693 170.207  1.00  0.00    -0.388 OA
ATOM     34  H   UNL     1     177.239 164.284 170.835  1.00  0.00     0.211 HD
ENDBRANCH  25  33
ENDBRANCH  11  20
BRANCH  10  35
ATOM     35  O   UNL     1     172.970 165.771 166.494  1.00  0.00    -0.507 OA
ATOM     36  H   UNL     1     173.496 164.916 166.357  1.00  0.00     0.293 HD
ENDBRANCH  10  35
TORSDOF 9
ENDMDL
MODEL 7
REMARK VINA RESULT:    -5.753      2.799      5.368
REMARK INTER + INTRA:          -8.557
REMARK INTER:                  -7.478
REMARK INTRA:                  -1.080
REMARK UNBOUND:                -0.787
REMARK SMILES O=c1c(-c2ccc(O)cc2)coc2c([C@@H]3O[C@H](CO)[C@H](O)[C@@H](O)[C@@H]3O)c(O)ccc12
REMARK SMILES IDX 3 1 11 2 12 3 13 4 30 5 2 6 1 7 29 8 28 9 26 10 14 11 4 12
REMARK SMILES IDX 5 13 6 14 7 15 10 16 9 17 8 18 15 20 24 21 16 22 22 23 17 24
REMARK SMILES IDX 20 25 25 26 23 28 18 30 19 31 21 33 27 35
REMARK H PARENT 8 19 25 27 23 29 19 32 21 34 27 36
REMARK Flexibility Score: inf
ROOT
ATOM      1  C   UNL     1     174.387 169.458 172.747  1.00  0.00     0.065 A 
ATOM      2  C   UNL     1     174.474 168.297 173.527  1.00  0.00     0.208 A 
ATOM      3  O   UNL     1     173.451 167.456 173.613  1.00  0.00    -0.463 OA
ATOM      4  C   UNL     1     172.295 167.643 172.982  1.00  0.00     0.147 A 
ATOM      5  C   UNL     1     172.125 168.785 172.164  1.00  0.00     0.066 A 
ATOM      6  C   UNL     1     173.190 169.698 172.048  1.00  0.00     0.200 A 
ATOM      7  O   UNL     1     173.081 170.712 171.305  1.00  0.00    -0.288 OA
ATOM      8  C   UNL     1     170.913 168.978 171.484  1.00  0.00     0.020 A 
ATOM      9  C   UNL     1     169.886 168.045 171.603  1.00  0.00     0.047 A 
ATOM     10  C   UNL     1     170.043 166.909 172.406  1.00  0.00     0.125 A 
ATOM     11  C   UNL     1     171.243 166.703 173.124  1.00  0.00     0.069 A 
ENDROOT
BRANCH   1  12
ATOM     12  C   UNL     1     175.541 170.388 172.673  1.00  0.00    -0.011 A 
ATOM     13  C   UNL     1     176.603 170.131 171.787  1.00  0.00     0.013 A 
ATOM     14  C   UNL     1     177.696 171.001 171.723  1.00  0.00     0.047 A 
ATOM     15  C   UNL     1     177.745 172.133 172.542  1.00  0.00     0.115 A 
ATOM     16  C   UNL     1     175.600 171.524 173.500  1.00  0.00     0.013 A 
ATOM     17  C   UNL     1     176.694 172.392 173.433  1.00  0.00     0.047 A 
BRANCH  15  18
ATOM     18  O   UNL     1     178.840 172.991 172.467  1.00  0.00    -0.508 OA
ATOM     19  H   UNL     1     179.724 172.761 172.905  1.00  0.00     0.293 HD
ENDBRANCH  15  18
ENDBRANCH   1  12
BRANCH  11  20
ATOM     20  C   UNL     1     171.399 165.444 173.970  1.00  0.00     0.188 C 
ATOM     21  C   UNL     1     170.795 165.654 175.383  1.00  0.00     0.179 C 
ATOM     22  O   UNL     1     170.811 164.326 173.323  1.00  0.00    -0.362 OA
ATOM     23  C   UNL     1     170.898 164.359 176.224  1.00  0.00     0.177 C 
ATOM     24  C   UNL     1     171.112 163.128 174.018  1.00  0.00     0.176 C 
ATOM     25  C   UNL     1     170.453 163.119 175.422  1.00  0.00     0.177 C 
BRANCH  21  26
ATOM     26  O   UNL     1     169.467 166.119 175.333  1.00  0.00    -0.387 OA
ATOM     27  H   UNL     1     169.004 165.827 176.157  1.00  0.00     0.211 HD
ENDBRANCH  21  26
BRANCH  23  28
ATOM     28  O   UNL     1     172.226 164.173 176.648  1.00  0.00    -0.387 OA
ATOM     29  H   UNL     1     172.807 164.630 175.985  1.00  0.00     0.211 HD
ENDBRANCH  23  28
BRANCH  24  30
ATOM     30  C   UNL     1     170.674 161.928 173.167  1.00  0.00     0.191 C 
BRANCH  30  31
ATOM     31  O   UNL     1     169.450 162.190 172.536  1.00  0.00    -0.394 OA
ATOM     32  H   UNL     1     169.207 161.359 172.050  1.00  0.00     0.210 HD
ENDBRANCH  30  31
ENDBRANCH  24  30
BRANCH  25  33
ATOM     33  O   UNL     1     169.051 163.106 175.319  1.00  0.00    -0.388 OA
ATOM     34  H   UNL     1     168.734 164.034 175.472  1.00  0.00     0.211 HD
ENDBRANCH  25  33
ENDBRANCH  11  20
BRANCH  10  35
ATOM     35  O   UNL     1     169.004 165.981 172.488  1.00  0.00    -0.507 OA
ATOM     36  H   UNL     1     169.165 164.989 172.366  1.00  0.00     0.293 HD
ENDBRANCH  10  35
TORSDOF 9
ENDMDL
MODEL 8
REMARK VINA RESULT:    -5.735      4.392      6.257
REMARK INTER + INTRA:          -8.534
REMARK INTER:                  -7.890
REMARK INTRA:                  -0.644
REMARK UNBOUND:                -0.787
REMARK SMILES O=c1c(-c2ccc(O)cc2)coc2c([C@@H]3O[C@H](CO)[C@H](O)[C@@H](O)[C@@H]3O)c(O)ccc12
REMARK SMILES IDX 3 1 11 2 12 3 13 4 30 5 2 6 1 7 29 8 28 9 26 10 14 11 4 12
REMARK SMILES IDX 5 13 6 14 7 15 10 16 9 17 8 18 15 20 24 21 16 22 22 23 17 24
REMARK SMILES IDX 20 25 25 26 23 28 18 30 19 31 21 33 27 35
REMARK H PARENT 8 19 25 27 23 29 19 32 21 34 27 36
REMARK Flexibility Score: inf
ROOT
ATOM      1  C   UNL     1     175.758 168.647 172.291  1.00  0.00     0.065 A 
ATOM      2  C   UNL     1     174.875 168.161 173.265  1.00  0.00     0.208 A 
ATOM      3  O   UNL     1     174.394 166.927 173.192  1.00  0.00    -0.463 OA
ATOM      4  C   UNL     1     174.704 166.077 172.216  1.00  0.00     0.147 A 
ATOM      5  C   UNL     1     175.597 166.483 171.197  1.00  0.00     0.066 A 
ATOM      6  C   UNL     1     176.130 167.785 171.244  1.00  0.00     0.200 A 
ATOM      7  O   UNL     1     176.951 168.169 170.366  1.00  0.00    -0.288 OA
ATOM      8  C   UNL     1     175.940 165.584 170.176  1.00  0.00     0.020 A 
ATOM      9  C   UNL     1     175.413 164.295 170.169  1.00  0.00     0.047 A 
ATOM     10  C   UNL     1     174.530 163.881 171.173  1.00  0.00     0.125 A 
ATOM     11  C   UNL     1     174.147 164.773 172.200  1.00  0.00     0.069 A 
ENDROOT
BRANCH   1  12
ATOM     12  C   UNL     1     176.277 170.035 172.390  1.00  0.00    -0.011 A 
ATOM     13  C   UNL     1     175.752 171.049 171.568  1.00  0.00     0.013 A 
ATOM     14  C   UNL     1     176.246 172.354 171.653  1.00  0.00     0.047 A 
ATOM     15  C   UNL     1     177.271 172.662 172.554  1.00  0.00     0.115 A 
ATOM     16  C   UNL     1     177.313 170.350 173.287  1.00  0.00     0.013 A 
ATOM     17  C   UNL     1     177.805 171.656 173.370  1.00  0.00     0.047 A 
BRANCH  15  18
ATOM     18  O   UNL     1     177.752 173.967 172.627  1.00  0.00    -0.508 OA
ATOM     19  H   UNL     1     178.647 174.178 173.052  1.00  0.00     0.293 HD
ENDBRANCH  15  18
ENDBRANCH   1  12
BRANCH  11  20
ATOM     20  C   UNL     1     173.205 164.288 173.297  1.00  0.00     0.188 C 
ATOM     21  C   UNL     1     174.006 163.838 174.548  1.00  0.00     0.179 C 
ATOM     22  O   UNL     1     172.259 165.291 173.630  1.00  0.00    -0.362 OA
ATOM     23  C   UNL     1     173.052 163.401 175.685  1.00  0.00     0.177 C 
ATOM     24  C   UNL     1     171.276 164.781 174.515  1.00  0.00     0.176 C 
ATOM     25  C   UNL     1     171.900 164.408 175.884  1.00  0.00     0.177 C 
BRANCH  21  26
ATOM     26  O   UNL     1     174.902 164.828 174.992  1.00  0.00    -0.387 OA
ATOM     27  H   UNL     1     174.624 165.114 175.898  1.00  0.00     0.211 HD
ENDBRANCH  21  26
BRANCH  23  28
ATOM     28  O   UNL     1     172.505 162.140 175.387  1.00  0.00    -0.387 OA
ATOM     29  H   UNL     1     172.722 161.544 176.151  1.00  0.00     0.211 HD
ENDBRANCH  23  28
BRANCH  24  30
ATOM     30  C   UNL     1     170.144 165.809 174.656  1.00  0.00     0.191 C 
BRANCH  30  31
ATOM     31  O   UNL     1     169.584 165.754 175.940  1.00  0.00    -0.394 OA
ATOM     32  H   UNL     1     170.312 165.458 176.546  1.00  0.00     0.210 HD
ENDBRANCH  30  31
ENDBRANCH  24  30
BRANCH  25  33
ATOM     33  O   UNL     1     172.387 165.551 176.543  1.00  0.00    -0.388 OA
ATOM     34  H   UNL     1     173.354 165.406 176.712  1.00  0.00     0.211 HD
ENDBRANCH  25  33
ENDBRANCH  11  20
BRANCH  10  35
ATOM     35  O   UNL     1     174.036 162.576 171.153  1.00  0.00    -0.507 OA
ATOM     36  H   UNL     1     174.565 161.799 171.529  1.00  0.00     0.293 HD
ENDBRANCH  10  35
TORSDOF 9
ENDMDL
MODEL 9
REMARK VINA RESULT:    -5.701      5.859      6.695
REMARK INTER + INTRA:          -8.487
REMARK INTER:                  -7.402
REMARK INTRA:                  -1.085
REMARK UNBOUND:                -0.787
REMARK SMILES O=c1c(-c2ccc(O)cc2)coc2c([C@@H]3O[C@H](CO)[C@H](O)[C@@H](O)[C@@H]3O)c(O)ccc12
REMARK SMILES IDX 3 1 11 2 12 3 13 4 30 5 2 6 1 7 29 8 28 9 26 10 14 11 4 12
REMARK SMILES IDX 5 13 6 14 7 15 10 16 9 17 8 18 15 20 24 21 16 22 22 23 17 24
REMARK SMILES IDX 20 25 25 26 23 28 18 30 19 31 21 33 27 35
REMARK H PARENT 8 19 25 27 23 29 19 32 21 34 27 36
REMARK Flexibility Score: inf
ROOT
ATOM      1  C   UNL     1     175.562 169.275 170.491  1.00  0.00     0.065 A 
ATOM      2  C   UNL     1     174.871 169.724 169.356  1.00  0.00     0.208 A 
ATOM      3  O   UNL     1     174.340 168.862 168.498  1.00  0.00    -0.463 OA
ATOM      4  C   UNL     1     174.419 167.542 168.643  1.00  0.00     0.147 A 
ATOM      5  C   UNL     1     175.090 167.003 169.766  1.00  0.00     0.066 A 
ATOM      6  C   UNL     1     175.663 167.888 170.699  1.00  0.00     0.200 A 
ATOM      7  O   UNL     1     176.245 167.441 171.726  1.00  0.00    -0.288 OA
ATOM      8  C   UNL     1     175.161 165.612 169.932  1.00  0.00     0.020 A 
ATOM      9  C   UNL     1     174.565 164.764 169.002  1.00  0.00     0.047 A 
ATOM     10  C   UNL     1     173.895 165.284 167.888  1.00  0.00     0.125 A 
ATOM     11  C   UNL     1     173.831 166.681 167.682  1.00  0.00     0.069 A 
ENDROOT
BRANCH   1  12
ATOM     12  C   UNL     1     176.155 170.258 171.432  1.00  0.00    -0.011 A 
ATOM     13  C   UNL     1     177.508 170.623 171.318  1.00  0.00     0.013 A 
ATOM     14  C   UNL     1     178.070 171.542 172.209  1.00  0.00     0.047 A 
ATOM     15  C   UNL     1     177.292 172.103 173.227  1.00  0.00     0.115 A 
ATOM     16  C   UNL     1     175.380 170.820 172.462  1.00  0.00     0.013 A 
ATOM     17  C   UNL     1     175.945 171.738 173.353  1.00  0.00     0.047 A 
BRANCH  15  18
ATOM     18  O   UNL     1     177.866 173.017 174.108  1.00  0.00    -0.508 OA
ATOM     19  H   UNL     1     178.826 173.322 174.002  1.00  0.00     0.293 HD
ENDBRANCH  15  18
ENDBRANCH   1  12
BRANCH  11  20
ATOM     20  C   UNL     1     173.072 167.223 166.475  1.00  0.00     0.188 C 
ATOM     21  C   UNL     1     173.997 167.297 165.232  1.00  0.00     0.179 C 
ATOM     22  O   UNL     1     171.921 166.437 166.210  1.00  0.00    -0.362 OA
ATOM     23  C   UNL     1     173.215 167.790 163.992  1.00  0.00     0.177 C 
ATOM     24  C   UNL     1     171.120 167.041 165.208  1.00  0.00     0.176 C 
ATOM     25  C   UNL     1     171.860 167.067 163.846  1.00  0.00     0.177 C 
BRANCH  21  26
ATOM     26  O   UNL     1     174.639 166.072 164.971  1.00  0.00    -0.387 OA
ATOM     27  H   UNL     1     174.453 165.457 165.725  1.00  0.00     0.211 HD
ENDBRANCH  21  26
BRANCH  23  28
ATOM     28  O   UNL     1     172.982 169.173 164.096  1.00  0.00    -0.387 OA
ATOM     29  H   UNL     1     173.685 169.539 164.694  1.00  0.00     0.211 HD
ENDBRANCH  23  28
BRANCH  24  30
ATOM     30  C   UNL     1     169.778 166.302 165.123  1.00  0.00     0.191 C 
BRANCH  30  31
ATOM     31  O   UNL     1     169.962 164.921 165.283  1.00  0.00    -0.394 OA
ATOM     32  H   UNL     1     169.773 164.728 166.238  1.00  0.00     0.210 HD
ENDBRANCH  30  31
ENDBRANCH  24  30
BRANCH  25  33
ATOM     33  O   UNL     1     172.074 165.762 163.365  1.00  0.00    -0.388 OA
ATOM     34  H   UNL     1     172.937 165.766 162.876  1.00  0.00     0.211 HD
ENDBRANCH  25  33
ENDBRANCH  11  20
BRANCH  10  35
ATOM     35  O   UNL     1     173.288 164.410 166.985  1.00  0.00    -0.507 OA
ATOM     36  H   UNL     1     173.001 163.478 167.257  1.00  0.00     0.293 HD
ENDBRANCH  10  35
TORSDOF 9
ENDMDL
