MODEL 1
REMARK VINA RESULT:    -3.921      0.000      0.000
REMARK INTER + INTRA:          -4.906
REMARK INTER:                  -4.838
REMARK INTRA:                  -0.068
REMARK UNBOUND:                -0.068
REMARK SMILES CCCCCC(=O)[O-]
REMARK SMILES IDX 4 1 5 2 6 3 7 4 8 5 3 6 2 7 1 8
REMARK H PARENT
REMARK Flexibility Score: inf
ROOT
ATOM      1  C   UNL     1       6.649   8.881   2.986  1.00  0.00     0.006 C 
ENDROOT
BRANCH   1   2
ATOM      2  C   UNL     1       7.900   9.737   2.773  1.00  0.00     0.053 C 
BRANCH   2   3
ATOM      3  C   UNL     1       9.080   8.871   2.458  1.00  0.00     0.041 C 
ATOM      4  O   UNL     1      10.100   9.366   1.912  1.00  0.00    -0.550 OA
ATOM      5  O   UNL     1       9.032   7.508   2.723  1.00  0.00    -0.550 OA
ENDBRANCH   2   3
ENDBRANCH   1   2
BRANCH   1   6
ATOM      6  C   UNL     1       5.387   9.632   2.544  1.00  0.00     0.000 C 
BRANCH   6   7
ATOM      7  C   UNL     1       4.335   8.663   1.991  1.00  0.00    -0.003 C 
ATOM      8  C   UNL     1       4.152   8.847   0.487  1.00  0.00     0.004 C 
ENDBRANCH   6   7
ENDBRANCH   1   6
TORSDOF 4
ENDMDL
MODEL 2
REMARK VINA RESULT:    -3.473      2.926      4.407
REMARK INTER + INTRA:          -4.353
REMARK INTER:                  -4.262
REMARK INTRA:                  -0.091
REMARK UNBOUND:                -0.068
REMARK SMILES CCCCCC(=O)[O-]
REMARK SMILES IDX 4 1 5 2 6 3 7 4 8 5 3 6 2 7 1 8
REMARK H PARENT
REMARK Flexibility Score: inf
ROOT
ATOM      1  C   UNL     1       7.273   9.479   2.944  1.00  0.00     0.006 C 
ENDROOT
BRANCH   1   2
ATOM      2  C   UNL     1       6.204   9.724   1.876  1.00  0.00     0.053 C 
BRANCH   2   3
ATOM      3  C   UNL     1       4.852   9.341   2.390  1.00  0.00     0.041 C 
ATOM      4  O   UNL     1       4.461   9.755   3.513  1.00  0.00    -0.550 OA
ATOM      5  O   UNL     1       4.044   8.486   1.652  1.00  0.00    -0.550 OA
ENDBRANCH   2   3
ENDBRANCH   1   2
BRANCH   1   6
ATOM      6  C   UNL     1       8.606  10.125   2.548  1.00  0.00     0.000 C 
BRANCH   6   7
ATOM      7  C   UNL     1       9.755   9.114   2.633  1.00  0.00    -0.003 C 
ATOM      8  C   UNL     1       9.289   7.715   2.240  1.00  0.00     0.004 C 
ENDBRANCH   6   7
ENDBRANCH   1   6
TORSDOF 4
ENDMDL
MODEL 3
REMARK VINA RESULT:    -3.429     22.634     23.161
REMARK INTER + INTRA:          -4.299
REMARK INTER:                  -4.197
REMARK INTRA:                  -0.102
REMARK UNBOUND:                -0.068
REMARK SMILES CCCCCC(=O)[O-]
REMARK SMILES IDX 4 1 5 2 6 3 7 4 8 5 3 6 2 7 1 8
REMARK H PARENT
REMARK Flexibility Score: inf
ROOT
ATOM      1  C   UNL     1      -6.309  -7.839  -4.865  1.00  0.00     0.006 C 
ENDROOT
BRANCH   1   2
ATOM      2  C   UNL     1      -7.794  -7.741  -5.227  1.00  0.00     0.053 C 
BRANCH   2   3
ATOM      3  C   UNL     1      -8.470  -6.702  -4.388  1.00  0.00     0.041 C 
ATOM      4  O   UNL     1      -8.168  -5.487  -4.520  1.00  0.00    -0.550 OA
ATOM      5  O   UNL     1      -9.397  -7.081  -3.425  1.00  0.00    -0.550 OA
ENDBRANCH   2   3
ENDBRANCH   1   2
BRANCH   1   6
ATOM      6  C   UNL     1      -5.488  -8.371  -6.047  1.00  0.00     0.000 C 
BRANCH   6   7
ATOM      7  C   UNL     1      -5.768  -7.562  -7.319  1.00  0.00    -0.003 C 
ATOM      8  C   UNL     1      -4.512  -7.429  -8.175  1.00  0.00     0.004 C 
ENDBRANCH   6   7
ENDBRANCH   1   6
TORSDOF 4
ENDMDL
MODEL 4
REMARK VINA RESULT:    -3.135     22.766     23.764
REMARK INTER + INTRA:          -3.936
REMARK INTER:                  -3.694
REMARK INTRA:                  -0.242
REMARK UNBOUND:                -0.068
REMARK SMILES CCCCCC(=O)[O-]
REMARK SMILES IDX 4 1 5 2 6 3 7 4 8 5 3 6 2 7 1 8
REMARK H PARENT
REMARK Flexibility Score: inf
ROOT
ATOM      1  C   UNL     1      -8.291  -8.363  -6.136  1.00  0.00     0.006 C 
ENDROOT
BRANCH   1   2
ATOM      2  C   UNL     1      -9.374  -7.400  -5.643  1.00  0.00     0.053 C 
BRANCH   2   3
ATOM      3  C   UNL     1      -8.919  -6.687  -4.408  1.00  0.00     0.041 C 
ATOM      4  O   UNL     1      -9.375  -7.016  -3.282  1.00  0.00    -0.550 OA
ATOM      5  O   UNL     1      -8.028  -5.626  -4.506  1.00  0.00    -0.550 OA
ENDBRANCH   2   3
ENDBRANCH   1   2
BRANCH   1   6
ATOM      6  C   UNL     1      -7.556  -7.788  -7.353  1.00  0.00     0.000 C 
BRANCH   6   7
ATOM      7  C   UNL     1      -6.058  -7.627  -7.068  1.00  0.00    -0.003 C 
ATOM      8  C   UNL     1      -5.707  -8.124  -5.669  1.00  0.00     0.004 C 
ENDBRANCH   6   7
ENDBRANCH   1   6
TORSDOF 4
ENDMDL
MODEL 5
REMARK VINA RESULT:    -3.123     23.429     24.379
REMARK INTER + INTRA:          -3.921
REMARK INTER:                  -3.696
REMARK INTRA:                  -0.225
REMARK UNBOUND:                -0.068
REMARK SMILES CCCCCC(=O)[O-]
REMARK SMILES IDX 4 1 5 2 6 3 7 4 8 5 3 6 2 7 1 8
REMARK H PARENT
REMARK Flexibility Score: inf
ROOT
ATOM      1  C   UNL     1      -9.607  -8.028  -6.623  1.00  0.00     0.006 C 
ENDROOT
BRANCH   1   2
ATOM      2  C   UNL     1      -9.706  -6.827  -5.679  1.00  0.00     0.053 C 
BRANCH   2   3
ATOM      3  C   UNL     1      -9.105  -7.156  -4.348  1.00  0.00     0.041 C 
ATOM      4  O   UNL     1      -7.932  -7.606  -4.277  1.00  0.00    -0.550 OA
ATOM      5  O   UNL     1      -9.859  -7.013  -3.190  1.00  0.00    -0.550 OA
ENDBRANCH   2   3
ENDBRANCH   1   2
BRANCH   1   6
ATOM      6  C   UNL     1      -8.643  -7.741  -7.781  1.00  0.00     0.000 C 
BRANCH   6   7
ATOM      7  C   UNL     1      -7.340  -8.532  -7.623  1.00  0.00    -0.003 C 
ATOM      8  C   UNL     1      -6.155  -7.602  -7.383  1.00  0.00     0.004 C 
ENDBRANCH   6   7
ENDBRANCH   1   6
TORSDOF 4
ENDMDL
MODEL 6
REMARK VINA RESULT:    -3.035     23.057     24.198
REMARK INTER + INTRA:          -3.812
REMARK INTER:                  -3.561
REMARK INTRA:                  -0.252
REMARK UNBOUND:                -0.068
REMARK SMILES CCCCCC(=O)[O-]
REMARK SMILES IDX 4 1 5 2 6 3 7 4 8 5 3 6 2 7 1 8
REMARK H PARENT
REMARK Flexibility Score: inf
ROOT
ATOM      1  C   UNL     1      -7.454  -8.391  -5.155  1.00  0.00     0.006 C 
ENDROOT
BRANCH   1   2
ATOM      2  C   UNL     1      -7.537  -6.871  -4.991  1.00  0.00     0.053 C 
BRANCH   2   3
ATOM      3  C   UNL     1      -8.883  -6.474  -4.469  1.00  0.00     0.041 C 
ATOM      4  O   UNL     1      -9.614  -5.693  -5.133  1.00  0.00    -0.550 OA
ATOM      5  O   UNL     1      -9.308  -6.926  -3.226  1.00  0.00    -0.550 OA
ENDBRANCH   2   3
ENDBRANCH   1   2
BRANCH   1   6
ATOM      6  C   UNL     1      -8.549  -8.903  -6.099  1.00  0.00     0.000 C 
BRANCH   6   7
ATOM      7  C   UNL     1      -8.335  -8.382  -7.525  1.00  0.00    -0.003 C 
ATOM      8  C   UNL     1      -9.628  -7.814  -8.104  1.00  0.00     0.004 C 
ENDBRANCH   6   7
ENDBRANCH   1   6
TORSDOF 4
ENDMDL
MODEL 7
REMARK VINA RESULT:    -3.003     22.632     23.470
REMARK INTER + INTRA:          -3.773
REMARK INTER:                  -3.591
REMARK INTRA:                  -0.182
REMARK UNBOUND:                -0.068
REMARK SMILES CCCCCC(=O)[O-]
REMARK SMILES IDX 4 1 5 2 6 3 7 4 8 5 3 6 2 7 1 8
REMARK H PARENT
REMARK Flexibility Score: inf
ROOT
ATOM      1  C   UNL     1      -7.491  -7.808  -4.938  1.00  0.00     0.006 C 
ENDROOT
BRANCH   1   2
ATOM      2  C   UNL     1      -6.120  -7.563  -5.574  1.00  0.00     0.053 C 
BRANCH   2   3
ATOM      3  C   UNL     1      -6.227  -7.562  -7.067  1.00  0.00     0.041 C 
ATOM      4  O   UNL     1      -7.262  -8.009  -7.628  1.00  0.00    -0.550 OA
ATOM      5  O   UNL     1      -5.163  -7.114  -7.840  1.00  0.00    -0.550 OA
ENDBRANCH   2   3
ENDBRANCH   1   2
BRANCH   1   6
ATOM      6  C   UNL     1      -8.158  -6.485  -4.543  1.00  0.00     0.000 C 
BRANCH   6   7
ATOM      7  C   UNL     1      -9.686  -6.599  -4.604  1.00  0.00    -0.003 C 
ATOM      8  C   UNL     1     -10.115  -7.921  -5.232  1.00  0.00     0.004 C 
ENDBRANCH   6   7
ENDBRANCH   1   6
TORSDOF 4
ENDMDL
MODEL 8
REMARK VINA RESULT:    -2.947     22.213     23.446
REMARK INTER + INTRA:          -3.704
REMARK INTER:                  -3.509
REMARK INTRA:                  -0.194
REMARK UNBOUND:                -0.068
REMARK SMILES CCCCCC(=O)[O-]
REMARK SMILES IDX 4 1 5 2 6 3 7 4 8 5 3 6 2 7 1 8
REMARK H PARENT
REMARK Flexibility Score: inf
ROOT
ATOM      1  C   UNL     1      -8.183  -7.855  -6.249  1.00  0.00     0.006 C 
ENDROOT
BRANCH   1   2
ATOM      2  C   UNL     1      -7.488  -9.061  -5.610  1.00  0.00     0.053 C 
BRANCH   2   3
ATOM      3  C   UNL     1      -6.124  -8.682  -5.124  1.00  0.00     0.041 C 
ATOM      4  O   UNL     1      -5.827  -8.812  -3.907  1.00  0.00    -0.550 OA
ATOM      5  O   UNL     1      -5.198  -8.139  -6.005  1.00  0.00    -0.550 OA
ENDBRANCH   2   3
ENDBRANCH   1   2
BRANCH   1   6
ATOM      6  C   UNL     1      -9.439  -7.463  -5.461  1.00  0.00     0.000 C 
BRANCH   6   7
ATOM      7  C   UNL     1      -9.070  -6.740  -4.160  1.00  0.00    -0.003 C 
ATOM      8  C   UNL     1      -8.108  -5.586  -4.425  1.00  0.00     0.004 C 
ENDBRANCH   6   7
ENDBRANCH   1   6
TORSDOF 4
ENDMDL
MODEL 9
REMARK VINA RESULT:    -2.903     22.998     24.131
REMARK INTER + INTRA:          -3.650
REMARK INTER:                  -3.381
REMARK INTRA:                  -0.269
REMARK UNBOUND:                -0.068
REMARK SMILES CCCCCC(=O)[O-]
REMARK SMILES IDX 4 1 5 2 6 3 7 4 8 5 3 6 2 7 1 8
REMARK H PARENT
REMARK Flexibility Score: inf
ROOT
ATOM      1  C   UNL     1      -6.331  -7.678  -7.094  1.00  0.00     0.006 C 
ENDROOT
BRANCH   1   2
ATOM      2  C   UNL     1      -5.736  -7.914  -5.703  1.00  0.00     0.053 C 
BRANCH   2   3
ATOM      3  C   UNL     1      -6.749  -8.548  -4.801  1.00  0.00     0.041 C 
ATOM      4  O   UNL     1      -7.782  -7.913  -4.464  1.00  0.00    -0.550 OA
ATOM      5  O   UNL     1      -6.526  -9.822  -4.293  1.00  0.00    -0.550 OA
ENDBRANCH   2   3
ENDBRANCH   1   2
BRANCH   1   6
ATOM      6  C   UNL     1      -6.694  -9.006  -7.770  1.00  0.00     0.000 C 
BRANCH   6   7
ATOM      7  C   UNL     1      -8.098  -8.945  -8.383  1.00  0.00    -0.003 C 
ATOM      8  C   UNL     1      -8.895  -7.772  -7.821  1.00  0.00     0.004 C 
ENDBRANCH   6   7
ENDBRANCH   1   6
TORSDOF 4
ENDMDL
