MODEL 1
REMARK VINA RESULT:    -3.124      0.000      0.000
REMARK INTER + INTRA:          -4.787
REMARK INTER:                  -4.220
REMARK INTRA:                  -0.568
REMARK UNBOUND:                -0.568
REMARK SMILES CCCCCCCC(C)=O
REMARK SMILES IDX 5 1 4 2 3 3 2 4 1 5 6 6 7 7 8 8 10 9 9 10
REMARK H PARENT
REMARK Flexibility Score: inf
ROOT
ATOM      1  C   UNL     1      10.847  -5.815  -1.269  1.00  0.00     0.000 C 
ENDROOT
BRANCH   1   2
ATOM      2  C   UNL     1       9.482  -5.253  -0.824  1.00  0.00     0.000 C 
BRANCH   2   3
ATOM      3  C   UNL     1       8.515  -4.902  -1.969  1.00  0.00    -0.000 C 
BRANCH   3   4
ATOM      4  C   UNL     1       8.685  -3.462  -2.474  1.00  0.00    -0.003 C 
ATOM      5  C   UNL     1       9.319  -3.437  -3.862  1.00  0.00     0.004 C 
ENDBRANCH   3   4
ENDBRANCH   2   3
ENDBRANCH   1   2
BRANCH   1   6
ATOM      6  C   UNL     1      12.072  -5.065  -0.715  1.00  0.00     0.008 C 
BRANCH   6   7
ATOM      7  C   UNL     1      12.367  -3.764  -1.472  1.00  0.00     0.075 C 
BRANCH   7   8
ATOM      8  C   UNL     1      13.136  -4.048  -2.736  1.00  0.00     0.129 C 
ATOM      9  O   UNL     1      12.949  -3.352  -3.722  1.00  0.00    -0.300 OA
ATOM     10  C   UNL     1      14.140  -5.161  -2.808  1.00  0.00     0.087 C 
ENDBRANCH   7   8
ENDBRANCH   6   7
ENDBRANCH   1   6
TORSDOF 6
ENDMDL
MODEL 2
REMARK VINA RESULT:    -2.721     10.522     12.481
REMARK INTER + INTRA:          -4.244
REMARK INTER:                  -3.904
REMARK INTRA:                  -0.340
REMARK UNBOUND:                -0.568
REMARK SMILES CCCCCCCC(C)=O
REMARK SMILES IDX 5 1 4 2 3 3 2 4 1 5 6 6 7 7 8 8 10 9 9 10
REMARK H PARENT
REMARK Flexibility Score: inf
ROOT
ATOM      1  C   UNL     1      10.144   5.884  -9.541  1.00  0.00     0.000 C 
ENDROOT
BRANCH   1   2
ATOM      2  C   UNL     1      10.382   7.302  -8.983  1.00  0.00     0.000 C 
BRANCH   2   3
ATOM      3  C   UNL     1       9.845   7.543  -7.562  1.00  0.00    -0.000 C 
BRANCH   3   4
ATOM      4  C   UNL     1       9.707   9.034  -7.221  1.00  0.00    -0.003 C 
ATOM      5  C   UNL     1      10.915   9.824  -7.714  1.00  0.00     0.004 C 
ENDBRANCH   3   4
ENDBRANCH   2   3
ENDBRANCH   1   2
BRANCH   1   6
ATOM      6  C   UNL     1       8.936   5.143  -8.942  1.00  0.00     0.008 C 
BRANCH   6   7
ATOM      7  C   UNL     1       8.938   3.642  -9.263  1.00  0.00     0.075 C 
BRANCH   7   8
ATOM      8  C   UNL     1       9.347   2.842  -8.054  1.00  0.00     0.129 C 
ATOM      9  O   UNL     1       9.346   1.622  -8.112  1.00  0.00    -0.300 OA
ATOM     10  C   UNL     1       9.769   3.510  -6.778  1.00  0.00     0.087 C 
ENDBRANCH   7   8
ENDBRANCH   6   7
ENDBRANCH   1   6
TORSDOF 6
ENDMDL
MODEL 3
REMARK VINA RESULT:    -2.715      9.641     11.819
REMARK INTER + INTRA:          -4.235
REMARK INTER:                  -3.449
REMARK INTRA:                  -0.786
REMARK UNBOUND:                -0.568
REMARK SMILES CCCCCCCC(C)=O
REMARK SMILES IDX 5 1 4 2 3 3 2 4 1 5 6 6 7 7 8 8 10 9 9 10
REMARK H PARENT
REMARK Flexibility Score: inf
ROOT
ATOM      1  C   UNL     1       9.161   4.291 -10.452  1.00  0.00     0.000 C 
ENDROOT
BRANCH   1   2
ATOM      2  C   UNL     1       9.066   5.816 -10.249  1.00  0.00     0.000 C 
BRANCH   2   3
ATOM      3  C   UNL     1      10.186   6.432  -9.392  1.00  0.00    -0.000 C 
BRANCH   3   4
ATOM      4  C   UNL     1       9.734   6.756  -7.961  1.00  0.00    -0.003 C 
ATOM      5  C   UNL     1       8.236   7.046  -7.911  1.00  0.00     0.004 C 
ENDBRANCH   3   4
ENDBRANCH   2   3
ENDBRANCH   1   2
BRANCH   1   6
ATOM      6  C   UNL     1       7.931   3.493  -9.984  1.00  0.00     0.008 C 
BRANCH   6   7
ATOM      7  C   UNL     1       7.862   3.344  -8.458  1.00  0.00     0.075 C 
BRANCH   7   8
ATOM      8  C   UNL     1       9.070   2.606  -7.942  1.00  0.00     0.129 C 
ATOM      9  O   UNL     1       9.257   1.449  -8.284  1.00  0.00    -0.300 OA
ATOM     10  C   UNL     1      10.057   3.265  -7.025  1.00  0.00     0.087 C 
ENDBRANCH   7   8
ENDBRANCH   6   7
ENDBRANCH   1   6
TORSDOF 6
ENDMDL
MODEL 4
REMARK VINA RESULT:    -2.702      1.865      4.462
REMARK INTER + INTRA:          -4.218
REMARK INTER:                  -3.644
REMARK INTRA:                  -0.573
REMARK UNBOUND:                -0.568
REMARK SMILES CCCCCCCC(C)=O
REMARK SMILES IDX 5 1 4 2 3 3 2 4 1 5 6 6 7 7 8 8 10 9 9 10
REMARK H PARENT
REMARK Flexibility Score: inf
ROOT
ATOM      1  C   UNL     1      12.462  -4.333  -3.630  1.00  0.00     0.000 C 
ENDROOT
BRANCH   1   2
ATOM      2  C   UNL     1      13.218  -3.857  -2.373  1.00  0.00     0.000 C 
BRANCH   2   3
ATOM      3  C   UNL     1      12.492  -4.110  -1.040  1.00  0.00    -0.000 C 
BRANCH   3   4
ATOM      4  C   UNL     1      13.444  -4.548   0.084  1.00  0.00    -0.003 C 
ATOM      5  C   UNL     1      14.369  -5.667  -0.385  1.00  0.00     0.004 C 
ENDBRANCH   3   4
ENDBRANCH   2   3
ENDBRANCH   1   2
BRANCH   1   6
ATOM      6  C   UNL     1      11.449  -5.467  -3.390  1.00  0.00     0.008 C 
BRANCH   6   7
ATOM      7  C   UNL     1      10.131  -5.259  -4.147  1.00  0.00     0.075 C 
BRANCH   7   8
ATOM      8  C   UNL     1       9.415  -4.034  -3.638  1.00  0.00     0.129 C 
ATOM      9  O   UNL     1       9.196  -3.106  -4.401  1.00  0.00    -0.300 OA
ATOM     10  C   UNL     1       8.953  -3.933  -2.214  1.00  0.00     0.087 C 
ENDBRANCH   7   8
ENDBRANCH   6   7
ENDBRANCH   1   6
TORSDOF 6
ENDMDL
MODEL 5
REMARK VINA RESULT:    -2.674      1.485      3.657
REMARK INTER + INTRA:          -4.179
REMARK INTER:                  -3.418
REMARK INTRA:                  -0.761
REMARK UNBOUND:                -0.568
REMARK SMILES CCCCCCCC(C)=O
REMARK SMILES IDX 5 1 4 2 3 3 2 4 1 5 6 6 7 7 8 8 10 9 9 10
REMARK H PARENT
REMARK Flexibility Score: inf
ROOT
ATOM      1  C   UNL     1       9.957  -5.340  -0.653  1.00  0.00     0.000 C 
ENDROOT
BRANCH   1   2
ATOM      2  C   UNL     1      11.287  -5.951  -1.140  1.00  0.00     0.000 C 
BRANCH   2   3
ATOM      3  C   UNL     1      12.529  -5.071  -0.917  1.00  0.00    -0.000 C 
BRANCH   3   4
ATOM      4  C   UNL     1      12.479  -3.757  -1.710  1.00  0.00    -0.003 C 
ATOM      5  C   UNL     1      12.824  -3.988  -3.179  1.00  0.00     0.004 C 
ENDBRANCH   3   4
ENDBRANCH   2   3
ENDBRANCH   1   2
BRANCH   1   6
ATOM      6  C   UNL     1       8.832  -5.308  -1.703  1.00  0.00     0.008 C 
BRANCH   6   7
ATOM      7  C   UNL     1       8.696  -3.943  -2.391  1.00  0.00     0.075 C 
BRANCH   7   8
ATOM      8  C   UNL     1       9.093  -4.037  -3.840  1.00  0.00     0.129 C 
ATOM      9  O   UNL     1       9.051  -3.038  -4.541  1.00  0.00    -0.300 OA
ATOM     10  C   UNL     1       9.553  -5.332  -4.444  1.00  0.00     0.087 C 
ENDBRANCH   7   8
ENDBRANCH   6   7
ENDBRANCH   1   6
TORSDOF 6
ENDMDL
MODEL 6
REMARK VINA RESULT:    -2.660      1.820      2.690
REMARK INTER + INTRA:          -4.160
REMARK INTER:                  -3.860
REMARK INTRA:                  -0.300
REMARK UNBOUND:                -0.568
REMARK SMILES CCCCCCCC(C)=O
REMARK SMILES IDX 5 1 4 2 3 3 2 4 1 5 6 6 7 7 8 8 10 9 9 10
REMARK H PARENT
REMARK Flexibility Score: inf
ROOT
ATOM      1  C   UNL     1       9.199  -4.466  -4.231  1.00  0.00     0.000 C 
ENDROOT
BRANCH   1   2
ATOM      2  C   UNL     1       7.992  -3.519  -4.078  1.00  0.00     0.000 C 
BRANCH   2   3
ATOM      3  C   UNL     1       7.811  -2.915  -2.674  1.00  0.00    -0.000 C 
BRANCH   3   4
ATOM      4  C   UNL     1       6.502  -3.353  -2.001  1.00  0.00    -0.003 C 
ATOM      5  C   UNL     1       6.720  -4.582  -1.123  1.00  0.00     0.004 C 
ENDBRANCH   3   4
ENDBRANCH   2   3
ENDBRANCH   1   2
BRANCH   1   6
ATOM      6  C   UNL     1      10.378  -4.179  -3.283  1.00  0.00     0.008 C 
BRANCH   6   7
ATOM      7  C   UNL     1      11.594  -5.074  -3.555  1.00  0.00     0.075 C 
BRANCH   7   8
ATOM      8  C   UNL     1      12.872  -4.291  -3.405  1.00  0.00     0.129 C 
ATOM      9  O   UNL     1      12.982  -3.208  -3.960  1.00  0.00    -0.300 OA
ATOM     10  C   UNL     1      14.013  -4.805  -2.578  1.00  0.00     0.087 C 
ENDBRANCH   7   8
ENDBRANCH   6   7
ENDBRANCH   1   6
TORSDOF 6
ENDMDL
MODEL 7
REMARK VINA RESULT:    -2.633      9.578     11.665
REMARK INTER + INTRA:          -4.125
REMARK INTER:                  -3.383
REMARK INTRA:                  -0.742
REMARK UNBOUND:                -0.568
REMARK SMILES CCCCCCCC(C)=O
REMARK SMILES IDX 5 1 4 2 3 3 2 4 1 5 6 6 7 7 8 8 10 9 9 10
REMARK H PARENT
REMARK Flexibility Score: inf
ROOT
ATOM      1  C   UNL     1       6.918   5.553  -7.451  1.00  0.00     0.000 C 
ENDROOT
BRANCH   1   2
ATOM      2  C   UNL     1       7.884   6.237  -8.439  1.00  0.00     0.000 C 
BRANCH   2   3
ATOM      3  C   UNL     1       9.067   6.975  -7.790  1.00  0.00    -0.000 C 
BRANCH   3   4
ATOM      4  C   UNL     1      10.263   7.137  -8.740  1.00  0.00    -0.003 C 
ATOM      5  C   UNL     1      10.243   6.074  -9.834  1.00  0.00     0.004 C 
ENDBRANCH   3   4
ENDBRANCH   2   3
ENDBRANCH   1   2
BRANCH   1   6
ATOM      6  C   UNL     1       7.025   4.018  -7.391  1.00  0.00     0.008 C 
BRANCH   6   7
ATOM      7  C   UNL     1       7.898   3.437  -8.511  1.00  0.00     0.075 C 
BRANCH   7   8
ATOM      8  C   UNL     1       9.092   2.722  -7.936  1.00  0.00     0.129 C 
ATOM      9  O   UNL     1       9.294   1.555  -8.234  1.00  0.00    -0.300 OA
ATOM     10  C   UNL     1      10.051   3.415  -7.013  1.00  0.00     0.087 C 
ENDBRANCH   7   8
ENDBRANCH   6   7
ENDBRANCH   1   6
TORSDOF 6
ENDMDL
MODEL 8
REMARK VINA RESULT:    -2.628      9.485     11.176
REMARK INTER + INTRA:          -4.117
REMARK INTER:                  -3.331
REMARK INTRA:                  -0.786
REMARK UNBOUND:                -0.568
REMARK SMILES CCCCCCCC(C)=O
REMARK SMILES IDX 5 1 4 2 3 3 2 4 1 5 6 6 7 7 8 8 10 9 9 10
REMARK H PARENT
REMARK Flexibility Score: inf
ROOT
ATOM      1  C   UNL     1       7.760   6.067  -9.066  1.00  0.00     0.000 C 
ENDROOT
BRANCH   1   2
ATOM      2  C   UNL     1       6.566   5.801  -8.127  1.00  0.00     0.000 C 
BRANCH   2   3
ATOM      3  C   UNL     1       6.905   5.802  -6.626  1.00  0.00    -0.000 C 
BRANCH   3   4
ATOM      4  C   UNL     1       6.081   4.781  -5.828  1.00  0.00    -0.003 C 
ATOM      5  C   UNL     1       6.055   3.427  -6.530  1.00  0.00     0.004 C 
ENDBRANCH   3   4
ENDBRANCH   2   3
ENDBRANCH   1   2
BRANCH   1   6
ATOM      6  C   UNL     1       9.047   5.297  -8.720  1.00  0.00     0.008 C 
BRANCH   6   7
ATOM      7  C   UNL     1       8.974   3.812  -9.100  1.00  0.00     0.075 C 
BRANCH   7   8
ATOM      8  C   UNL     1       9.419   2.948  -7.950  1.00  0.00     0.129 C 
ATOM      9  O   UNL     1       9.415   1.733  -8.075  1.00  0.00    -0.300 OA
ATOM     10  C   UNL     1       9.880   3.546  -6.653  1.00  0.00     0.087 C 
ENDBRANCH   7   8
ENDBRANCH   6   7
ENDBRANCH   1   6
TORSDOF 6
ENDMDL
MODEL 9
REMARK VINA RESULT:    -2.561     11.127     13.058
REMARK INTER + INTRA:          -4.027
REMARK INTER:                  -3.437
REMARK INTRA:                  -0.590
REMARK UNBOUND:                -0.568
REMARK SMILES CCCCCCCC(C)=O
REMARK SMILES IDX 5 1 4 2 3 3 2 4 1 5 6 6 7 7 8 8 10 9 9 10
REMARK H PARENT
REMARK Flexibility Score: inf
ROOT
ATOM      1  C   UNL     1      10.381   6.153  -9.650  1.00  0.00     0.000 C 
ENDROOT
BRANCH   1   2
ATOM      2  C   UNL     1       9.442   4.932  -9.578  1.00  0.00     0.000 C 
BRANCH   2   3
ATOM      3  C   UNL     1       8.444   4.945  -8.406  1.00  0.00    -0.000 C 
BRANCH   3   4
ATOM      4  C   UNL     1       9.044   4.391  -7.106  1.00  0.00    -0.003 C 
ATOM      5  C   UNL     1       9.889   3.149  -7.376  1.00  0.00     0.004 C 
ENDBRANCH   3   4
ENDBRANCH   2   3
ENDBRANCH   1   2
BRANCH   1   6
ATOM      6  C   UNL     1       9.763   7.480  -9.176  1.00  0.00     0.008 C 
BRANCH   6   7
ATOM      7  C   UNL     1      10.542   8.121  -8.019  1.00  0.00     0.075 C 
BRANCH   7   8
ATOM      8  C   UNL     1       9.596   8.723  -7.012  1.00  0.00     0.129 C 
ATOM      9  O   UNL     1      10.030   9.487  -6.163  1.00  0.00    -0.300 OA
ATOM     10  C   UNL     1       8.128   8.416  -7.036  1.00  0.00     0.087 C 
ENDBRANCH   7   8
ENDBRANCH   6   7
ENDBRANCH   1   6
TORSDOF 6
ENDMDL
