MODEL 1
REMARK VINA RESULT:    -5.250      0.000      0.000
REMARK INTER + INTRA:          -5.863
REMARK INTER:                  -5.863
REMARK INTRA:                   0.000
REMARK UNBOUND:                 0.000
REMARK SMILES Oc1cc(O)c2c(ccc3ccc(O)c(O)c32)c1
REMARK SMILES IDX 9 1 8 2 7 3 18 4 2 5 3 6 4 7 6 8 17 9 10 10 11 11 12 12
REMARK SMILES IDX 13 13 15 14 16 15 1 17 5 19 14 21
REMARK H PARENT 16 16 1 18 5 20 14 22
REMARK Flexibility Score: inf
ROOT
ATOM      1  C   UNL     1      12.935   5.627  20.715  1.00  0.00     0.009 A 
ATOM      2  C   UNL     1      12.147   6.588  20.095  1.00  0.00     0.009 A 
ATOM      3  C   UNL     1      12.229   6.786  18.713  1.00  0.00    -0.010 A 
ATOM      4  C   UNL     1      11.478   7.813  18.122  1.00  0.00     0.055 A 
ATOM      5  C   UNL     1      11.639   8.119  16.770  1.00  0.00     0.119 A 
ATOM      6  C   UNL     1      12.595   7.439  16.018  1.00  0.00     0.093 A 
ATOM      7  C   UNL     1      13.371   6.424  16.595  1.00  0.00     0.127 A 
ATOM      8  C   UNL     1      13.102   5.985  17.922  1.00  0.00     0.035 A 
ATOM      9  C   UNL     1      13.735   4.853  18.535  1.00  0.00     0.039 A 
ATOM     10  C   UNL     1      13.720   4.755  19.954  1.00  0.00    -0.014 A 
ATOM     11  C   UNL     1      14.455   3.754  20.602  1.00  0.00     0.013 A 
ATOM     12  C   UNL     1      15.161   2.813  19.862  1.00  0.00     0.051 A 
ATOM     13  C   UNL     1      15.073   2.795  18.471  1.00  0.00     0.158 A 
ATOM     14  C   UNL     1      14.283   3.760  17.804  1.00  0.00     0.166 A 
ENDROOT
BRANCH  14  15
ATOM     15  O   UNL     1      13.936   3.576  16.463  1.00  0.00    -0.504 OA
ATOM     16  H   UNL     1      14.240   4.183  15.715  1.00  0.00     0.293 HD
ENDBRANCH  14  15
BRANCH   5  17
ATOM     17  O   UNL     1      10.881   9.124  16.173  1.00  0.00    -0.508 OA
ATOM     18  H   UNL     1      10.457   8.997  15.261  1.00  0.00     0.293 HD
ENDBRANCH   5  17
BRANCH   7  19
ATOM     19  O   UNL     1      14.461   5.935  15.875  1.00  0.00    -0.507 OA
ATOM     20  H   UNL     1      15.364   5.778  16.309  1.00  0.00     0.293 HD
ENDBRANCH   7  19
BRANCH  13  21
ATOM     21  O   UNL     1      15.775   1.802  17.786  1.00  0.00    -0.504 OA
ATOM     22  H   UNL     1      15.677   0.814  17.982  1.00  0.00     0.293 HD
ENDBRANCH  13  21
TORSDOF 4
ENDMDL
MODEL 2
REMARK VINA RESULT:    -5.216      3.622      5.281
REMARK INTER + INTRA:          -5.826
REMARK INTER:                  -5.826
REMARK INTRA:                   0.000
REMARK UNBOUND:                 0.000
REMARK SMILES Oc1cc(O)c2c(ccc3ccc(O)c(O)c32)c1
REMARK SMILES IDX 9 1 8 2 7 3 18 4 2 5 3 6 4 7 6 8 17 9 10 10 11 11 12 12
REMARK SMILES IDX 13 13 15 14 16 15 1 17 5 19 14 21
REMARK H PARENT 16 16 1 18 5 20 14 22
REMARK Flexibility Score: inf
ROOT
ATOM      1  C   UNL     1      11.498   7.797  21.565  1.00  0.00     0.009 A 
ATOM      2  C   UNL     1      11.728   7.446  20.241  1.00  0.00     0.009 A 
ATOM      3  C   UNL     1      12.185   6.165  19.917  1.00  0.00    -0.010 A 
ATOM      4  C   UNL     1      12.482   5.861  18.580  1.00  0.00     0.055 A 
ATOM      5  C   UNL     1      13.062   4.636  18.246  1.00  0.00     0.119 A 
ATOM      6  C   UNL     1      13.405   3.738  19.254  1.00  0.00     0.093 A 
ATOM      7  C   UNL     1      13.138   4.032  20.598  1.00  0.00     0.127 A 
ATOM      8  C   UNL     1      12.394   5.196  20.941  1.00  0.00     0.035 A 
ATOM      9  C   UNL     1      11.939   5.494  22.267  1.00  0.00     0.039 A 
ATOM     10  C   UNL     1      11.590   6.838  22.579  1.00  0.00    -0.014 A 
ATOM     11  C   UNL     1      11.291   7.204  23.897  1.00  0.00     0.013 A 
ATOM     12  C   UNL     1      11.276   6.248  24.904  1.00  0.00     0.051 A 
ATOM     13  C   UNL     1      11.468   4.899  24.603  1.00  0.00     0.158 A 
ATOM     14  C   UNL     1      11.707   4.505  23.266  1.00  0.00     0.166 A 
ENDROOT
BRANCH  14  15
ATOM     15  O   UNL     1      11.594   3.161  22.901  1.00  0.00    -0.504 OA
ATOM     16  H   UNL     1      11.068   2.478  23.429  1.00  0.00     0.293 HD
ENDBRANCH  14  15
BRANCH   5  17
ATOM     17  O   UNL     1      13.340   4.319  16.918  1.00  0.00    -0.508 OA
ATOM     18  H   UNL     1      14.191   4.631  16.465  1.00  0.00     0.293 HD
ENDBRANCH   5  17
BRANCH   7  19
ATOM     19  O   UNL     1      13.700   3.214  21.578  1.00  0.00    -0.507 OA
ATOM     20  H   UNL     1      14.680   3.274  21.830  1.00  0.00     0.293 HD
ENDBRANCH   7  19
BRANCH  13  21
ATOM     21  O   UNL     1      11.403   3.981  25.653  1.00  0.00    -0.504 OA
ATOM     22  H   UNL     1      10.955   4.177  26.538  1.00  0.00     0.293 HD
ENDBRANCH  13  21
TORSDOF 4
ENDMDL
MODEL 3
REMARK VINA RESULT:    -5.185      1.951      2.857
REMARK INTER + INTRA:          -5.792
REMARK INTER:                  -5.792
REMARK INTRA:                   0.000
REMARK UNBOUND:                 0.000
REMARK SMILES Oc1cc(O)c2c(ccc3ccc(O)c(O)c32)c1
REMARK SMILES IDX 9 1 8 2 7 3 18 4 2 5 3 6 4 7 6 8 17 9 10 10 11 11 12 12
REMARK SMILES IDX 13 13 15 14 16 15 1 17 5 19 14 21
REMARK H PARENT 16 16 1 18 5 20 14 22
REMARK Flexibility Score: inf
ROOT
ATOM      1  C   UNL     1      15.580   5.174  16.516  1.00  0.00     0.009 A 
ATOM      2  C   UNL     1      14.886   6.285  16.055  1.00  0.00     0.009 A 
ATOM      3  C   UNL     1      13.611   6.579  16.548  1.00  0.00    -0.010 A 
ATOM      4  C   UNL     1      12.901   7.663  16.011  1.00  0.00     0.055 A 
ATOM      5  C   UNL     1      11.579   7.899  16.389  1.00  0.00     0.119 A 
ATOM      6  C   UNL     1      10.942   7.017  17.259  1.00  0.00     0.093 A 
ATOM      7  C   UNL     1      11.627   5.915  17.790  1.00  0.00     0.127 A 
ATOM      8  C   UNL     1      13.021   5.755  17.550  1.00  0.00     0.035 A 
ATOM      9  C   UNL     1      13.832   4.754  18.178  1.00  0.00     0.039 A 
ATOM     10  C   UNL     1      15.074   4.411  17.574  1.00  0.00    -0.014 A 
ATOM     11  C   UNL     1      15.825   3.335  18.062  1.00  0.00     0.013 A 
ATOM     12  C   UNL     1      15.392   2.625  19.176  1.00  0.00     0.051 A 
ATOM     13  C   UNL     1      14.257   3.032  19.876  1.00  0.00     0.158 A 
ATOM     14  C   UNL     1      13.523   4.157  19.435  1.00  0.00     0.166 A 
ENDROOT
BRANCH  14  15
ATOM     15  O   UNL     1      12.586   4.758  20.278  1.00  0.00    -0.504 OA
ATOM     16  H   UNL     1      11.999   4.246  20.922  1.00  0.00     0.293 HD
ENDBRANCH  14  15
BRANCH   5  17
ATOM     17  O   UNL     1      10.875   8.987  15.875  1.00  0.00    -0.508 OA
ATOM     18  H   UNL     1       9.903   9.149  16.112  1.00  0.00     0.293 HD
ENDBRANCH   5  17
BRANCH   7  19
ATOM     19  O   UNL     1      10.890   4.943  18.467  1.00  0.00    -0.507 OA
ATOM     20  H   UNL     1       9.878   4.977  18.520  1.00  0.00     0.293 HD
ENDBRANCH   7  19
BRANCH  13  21
ATOM     21  O   UNL     1      13.894   2.302  21.010  1.00  0.00    -0.504 OA
ATOM     22  H   UNL     1      12.970   1.918  21.153  1.00  0.00     0.293 HD
ENDBRANCH  13  21
TORSDOF 4
ENDMDL
MODEL 4
REMARK VINA RESULT:    -5.098      2.441      5.655
REMARK INTER + INTRA:          -5.694
REMARK INTER:                  -5.694
REMARK INTRA:                   0.000
REMARK UNBOUND:                 0.000
REMARK SMILES Oc1cc(O)c2c(ccc3ccc(O)c(O)c32)c1
REMARK SMILES IDX 9 1 8 2 7 3 18 4 2 5 3 6 4 7 6 8 17 9 10 10 11 11 12 12
REMARK SMILES IDX 13 13 15 14 16 15 1 17 5 19 14 21
REMARK H PARENT 16 16 1 18 5 20 14 22
REMARK Flexibility Score: inf
ROOT
ATOM      1  C   UNL     1      16.320   3.312  17.937  1.00  0.00     0.009 A 
ATOM      2  C   UNL     1      16.295   2.539  19.091  1.00  0.00     0.009 A 
ATOM      3  C   UNL     1      15.190   2.584  19.948  1.00  0.00    -0.010 A 
ATOM      4  C   UNL     1      15.222   1.852  21.144  1.00  0.00     0.055 A 
ATOM      5  C   UNL     1      14.192   1.980  22.078  1.00  0.00     0.119 A 
ATOM      6  C   UNL     1      13.159   2.886  21.846  1.00  0.00     0.093 A 
ATOM      7  C   UNL     1      13.121   3.642  20.667  1.00  0.00     0.127 A 
ATOM      8  C   UNL     1      14.067   3.401  19.631  1.00  0.00     0.035 A 
ATOM      9  C   UNL     1      14.008   4.011  18.335  1.00  0.00     0.039 A 
ATOM     10  C   UNL     1      15.192   4.039  17.545  1.00  0.00    -0.014 A 
ATOM     11  C   UNL     1      15.224   4.757  16.344  1.00  0.00     0.013 A 
ATOM     12  C   UNL     1      14.083   5.404  15.883  1.00  0.00     0.051 A 
ATOM     13  C   UNL     1      12.871   5.270  16.560  1.00  0.00     0.158 A 
ATOM     14  C   UNL     1      12.807   4.494  17.740  1.00  0.00     0.166 A 
ENDROOT
BRANCH  14  15
ATOM     15  O   UNL     1      11.569   4.097  18.252  1.00  0.00    -0.504 OA
ATOM     16  H   UNL     1      11.420   3.234  18.754  1.00  0.00     0.293 HD
ENDBRANCH  14  15
BRANCH   5  17
ATOM     17  O   UNL     1      14.207   1.241  23.259  1.00  0.00    -0.508 OA
ATOM     18  H   UNL     1      14.984   1.292  23.907  1.00  0.00     0.293 HD
ENDBRANCH   5  17
BRANCH   7  19
ATOM     19  O   UNL     1      12.204   4.690  20.583  1.00  0.00    -0.507 OA
ATOM     20  H   UNL     1      11.589   4.928  21.353  1.00  0.00     0.293 HD
ENDBRANCH   7  19
BRANCH  13  21
ATOM     21  O   UNL     1      11.752   5.912  16.026  1.00  0.00    -0.504 OA
ATOM     22  H   UNL     1      11.159   5.501  15.318  1.00  0.00     0.293 HD
ENDBRANCH  13  21
TORSDOF 4
ENDMDL
MODEL 5
REMARK VINA RESULT:    -5.043      3.089      3.951
REMARK INTER + INTRA:          -5.633
REMARK INTER:                  -5.633
REMARK INTRA:                   0.000
REMARK UNBOUND:                 0.000
REMARK SMILES Oc1cc(O)c2c(ccc3ccc(O)c(O)c32)c1
REMARK SMILES IDX 9 1 8 2 7 3 18 4 2 5 3 6 4 7 6 8 17 9 10 10 11 11 12 12
REMARK SMILES IDX 13 13 15 14 16 15 1 17 5 19 14 21
REMARK H PARENT 16 16 1 18 5 20 14 22
REMARK Flexibility Score: inf
ROOT
ATOM      1  C   UNL     1      16.604   7.804  17.236  1.00  0.00     0.009 A 
ATOM      2  C   UNL     1      15.347   7.838  17.825  1.00  0.00     0.009 A 
ATOM      3  C   UNL     1      14.560   6.683  17.879  1.00  0.00    -0.010 A 
ATOM      4  C   UNL     1      13.264   6.761  18.411  1.00  0.00     0.055 A 
ATOM      5  C   UNL     1      12.411   5.658  18.358  1.00  0.00     0.119 A 
ATOM      6  C   UNL     1      12.828   4.493  17.719  1.00  0.00     0.093 A 
ATOM      7  C   UNL     1      14.111   4.402  17.161  1.00  0.00     0.127 A 
ATOM      8  C   UNL     1      15.051   5.453  17.355  1.00  0.00     0.035 A 
ATOM      9  C   UNL     1      16.427   5.378  16.960  1.00  0.00     0.039 A 
ATOM     10  C   UNL     1      17.156   6.591  16.811  1.00  0.00    -0.014 A 
ATOM     11  C   UNL     1      18.452   6.578  16.280  1.00  0.00     0.013 A 
ATOM     12  C   UNL     1      19.060   5.374  15.945  1.00  0.00     0.051 A 
ATOM     13  C   UNL     1      18.428   4.162  16.219  1.00  0.00     0.158 A 
ATOM     14  C   UNL     1      17.146   4.156  16.815  1.00  0.00     0.166 A 
ENDROOT
BRANCH  14  15
ATOM     15  O   UNL     1      16.637   2.981  17.373  1.00  0.00    -0.504 OA
ATOM     16  H   UNL     1      15.665   2.849  17.617  1.00  0.00     0.293 HD
ENDBRANCH  14  15
BRANCH   5  17
ATOM     17  O   UNL     1      11.130   5.723  18.904  1.00  0.00    -0.508 OA
ATOM     18  H   UNL     1      10.501   4.929  18.876  1.00  0.00     0.293 HD
ENDBRANCH   5  17
BRANCH   7  19
ATOM     19  O   UNL     1      14.398   3.312  16.340  1.00  0.00    -0.507 OA
ATOM     20  H   UNL     1      14.475   3.404  15.333  1.00  0.00     0.293 HD
ENDBRANCH   7  19
BRANCH  13  21
ATOM     21  O   UNL     1      19.106   2.985  15.895  1.00  0.00    -0.504 OA
ATOM     22  H   UNL     1      19.225   2.215  16.539  1.00  0.00     0.293 HD
ENDBRANCH  13  21
TORSDOF 4
ENDMDL
MODEL 6
REMARK VINA RESULT:    -5.041      1.231      5.013
REMARK INTER + INTRA:          -5.630
REMARK INTER:                  -5.630
REMARK INTRA:                   0.000
REMARK UNBOUND:                 0.000
REMARK SMILES Oc1cc(O)c2c(ccc3ccc(O)c(O)c32)c1
REMARK SMILES IDX 9 1 8 2 7 3 18 4 2 5 3 6 4 7 6 8 17 9 10 10 11 11 12 12
REMARK SMILES IDX 13 13 15 14 16 15 1 17 5 19 14 21
REMARK H PARENT 16 16 1 18 5 20 14 22
REMARK Flexibility Score: inf
ROOT
ATOM      1  C   UNL     1      12.401   6.482  20.856  1.00  0.00     0.009 A 
ATOM      2  C   UNL     1      13.241   5.390  20.681  1.00  0.00     0.009 A 
ATOM      3  C   UNL     1      13.587   4.961  19.395  1.00  0.00    -0.010 A 
ATOM      4  C   UNL     1      14.374   3.810  19.245  1.00  0.00     0.055 A 
ATOM      5  C   UNL     1      14.625   3.286  17.977  1.00  0.00     0.119 A 
ATOM      6  C   UNL     1      14.037   3.874  16.859  1.00  0.00     0.093 A 
ATOM      7  C   UNL     1      13.228   5.011  16.989  1.00  0.00     0.127 A 
ATOM      8  C   UNL     1      13.102   5.658  18.251  1.00  0.00     0.035 A 
ATOM      9  C   UNL     1      12.429   6.909  18.446  1.00  0.00     0.039 A 
ATOM     10  C   UNL     1      11.998   7.249  19.759  1.00  0.00    -0.014 A 
ATOM     11  C   UNL     1      11.204   8.383  19.971  1.00  0.00     0.013 A 
ATOM     12  C   UNL     1      10.875   9.218  18.910  1.00  0.00     0.051 A 
ATOM     13  C   UNL     1      11.406   8.991  17.641  1.00  0.00     0.158 A 
ATOM     14  C   UNL     1      12.263   7.887  17.423  1.00  0.00     0.166 A 
ENDROOT
BRANCH  14  15
ATOM     15  O   UNL     1      13.039   7.819  16.264  1.00  0.00    -0.504 OA
ATOM     16  H   UNL     1      12.999   7.055  15.604  1.00  0.00     0.293 HD
ENDBRANCH  14  15
BRANCH   5  17
ATOM     17  O   UNL     1      15.424   2.155  17.819  1.00  0.00    -0.508 OA
ATOM     18  H   UNL     1      16.362   2.217  17.442  1.00  0.00     0.293 HD
ENDBRANCH   5  17
BRANCH   7  19
ATOM     19  O   UNL     1      12.485   5.424  15.884  1.00  0.00    -0.507 OA
ATOM     20  H   UNL     1      12.043   4.761  15.257  1.00  0.00     0.293 HD
ENDBRANCH   7  19
BRANCH  13  21
ATOM     21  O   UNL     1      11.070   9.887  16.624  1.00  0.00    -0.504 OA
ATOM     22  H   UNL     1      11.708  10.582  16.259  1.00  0.00     0.293 HD
ENDBRANCH  13  21
TORSDOF 4
ENDMDL
MODEL 7
REMARK VINA RESULT:    -5.002      2.991      5.016
REMARK INTER + INTRA:          -5.587
REMARK INTER:                  -5.587
REMARK INTRA:                   0.000
REMARK UNBOUND:                 0.000
REMARK SMILES Oc1cc(O)c2c(ccc3ccc(O)c(O)c32)c1
REMARK SMILES IDX 9 1 8 2 7 3 18 4 2 5 3 6 4 7 6 8 17 9 10 10 11 11 12 12
REMARK SMILES IDX 13 13 15 14 16 15 1 17 5 19 14 21
REMARK H PARENT 16 16 1 18 5 20 14 22
REMARK Flexibility Score: inf
ROOT
ATOM      1  C   UNL     1      14.710   2.594  20.041  1.00  0.00     0.009 A 
ATOM      2  C   UNL     1      14.228   2.609  21.343  1.00  0.00     0.009 A 
ATOM      3  C   UNL     1      13.274   3.555  21.733  1.00  0.00    -0.010 A 
ATOM      4  C   UNL     1      12.860   3.597  23.073  1.00  0.00     0.055 A 
ATOM      5  C   UNL     1      12.012   4.611  23.519  1.00  0.00     0.119 A 
ATOM      6  C   UNL     1      11.624   5.622  22.642  1.00  0.00     0.093 A 
ATOM      7  C   UNL     1      12.045   5.610  21.305  1.00  0.00     0.127 A 
ATOM      8  C   UNL     1      12.768   4.496  20.792  1.00  0.00     0.035 A 
ATOM      9  C   UNL     1      13.100   4.326  19.408  1.00  0.00     0.039 A 
ATOM     10  C   UNL     1      14.155   3.433  19.069  1.00  0.00    -0.014 A 
ATOM     11  C   UNL     1      14.616   3.351  17.749  1.00  0.00     0.013 A 
ATOM     12  C   UNL     1      14.012   4.100  16.747  1.00  0.00     0.051 A 
ATOM     13  C   UNL     1      12.882   4.870  17.023  1.00  0.00     0.158 A 
ATOM     14  C   UNL     1      12.363   4.912  18.338  1.00  0.00     0.166 A 
ENDROOT
BRANCH  14  15
ATOM     15  O   UNL     1      11.080   5.414  18.570  1.00  0.00    -0.504 OA
ATOM     16  H   UNL     1      10.276   5.183  18.004  1.00  0.00     0.293 HD
ENDBRANCH  14  15
BRANCH   5  17
ATOM     17  O   UNL     1      11.580   4.647  24.843  1.00  0.00    -0.508 OA
ATOM     18  H   UNL     1      11.296   3.805  25.331  1.00  0.00     0.293 HD
ENDBRANCH   5  17
BRANCH   7  19
ATOM     19  O   UNL     1      11.824   6.750  20.532  1.00  0.00    -0.507 OA
ATOM     20  H   UNL     1      11.263   7.525  20.868  1.00  0.00     0.293 HD
ENDBRANCH   7  19
BRANCH  13  21
ATOM     21  O   UNL     1      12.296   5.570  15.966  1.00  0.00    -0.504 OA
ATOM     22  H   UNL     1      12.399   6.567  15.833  1.00  0.00     0.293 HD
ENDBRANCH  13  21
TORSDOF 4
ENDMDL
MODEL 8
REMARK VINA RESULT:    -4.983     14.574     16.250
REMARK INTER + INTRA:          -5.565
REMARK INTER:                  -5.565
REMARK INTRA:                   0.000
REMARK UNBOUND:                 0.000
REMARK SMILES Oc1cc(O)c2c(ccc3ccc(O)c(O)c32)c1
REMARK SMILES IDX 9 1 8 2 7 3 18 4 2 5 3 6 4 7 6 8 17 9 10 10 11 11 12 12
REMARK SMILES IDX 13 13 15 14 16 15 1 17 5 19 14 21
REMARK H PARENT 16 16 1 18 5 20 14 22
REMARK Flexibility Score: inf
ROOT
ATOM      1  C   UNL     1      15.727   7.784  35.807  1.00  0.00     0.009 A 
ATOM      2  C   UNL     1      14.538   8.258  35.268  1.00  0.00     0.009 A 
ATOM      3  C   UNL     1      13.839   7.502  34.321  1.00  0.00    -0.010 A 
ATOM      4  C   UNL     1      12.682   8.037  33.736  1.00  0.00     0.055 A 
ATOM      5  C   UNL     1      12.039   7.363  32.697  1.00  0.00     0.119 A 
ATOM      6  C   UNL     1      12.586   6.183  32.198  1.00  0.00     0.093 A 
ATOM      7  C   UNL     1      13.754   5.643  32.754  1.00  0.00     0.127 A 
ATOM      8  C   UNL     1      14.325   6.224  33.921  1.00  0.00     0.035 A 
ATOM      9  C   UNL     1      15.420   5.650  34.648  1.00  0.00     0.039 A 
ATOM     10  C   UNL     1      16.172   6.490  35.516  1.00  0.00    -0.014 A 
ATOM     11  C   UNL     1      17.340   6.015  36.125  1.00  0.00     0.013 A 
ATOM     12  C   UNL     1      17.746   4.701  35.931  1.00  0.00     0.051 A 
ATOM     13  C   UNL     1      16.951   3.813  35.206  1.00  0.00     0.158 A 
ATOM     14  C   UNL     1      15.735   4.261  34.639  1.00  0.00     0.166 A 
ENDROOT
BRANCH  14  15
ATOM     15  O   UNL     1      14.791   3.336  34.186  1.00  0.00    -0.504 OA
ATOM     16  H   UNL     1      14.055   3.560  33.530  1.00  0.00     0.293 HD
ENDBRANCH  14  15
BRANCH   5  17
ATOM     17  O   UNL     1      10.878   7.879  32.125  1.00  0.00    -0.508 OA
ATOM     18  H   UNL     1      10.058   7.301  31.977  1.00  0.00     0.293 HD
ENDBRANCH   5  17
BRANCH   7  19
ATOM     19  O   UNL     1      14.385   4.597  32.080  1.00  0.00    -0.507 OA
ATOM     20  H   UNL     1      14.411   3.656  32.455  1.00  0.00     0.293 HD
ENDBRANCH   7  19
BRANCH  13  21
ATOM     21  O   UNL     1      17.394   2.496  35.079  1.00  0.00    -0.504 OA
ATOM     22  H   UNL     1      16.774   1.696  35.078  1.00  0.00     0.293 HD
ENDBRANCH  13  21
TORSDOF 4
ENDMDL
MODEL 9
REMARK VINA RESULT:    -4.912      4.323      6.331
REMARK INTER + INTRA:          -5.487
REMARK INTER:                  -5.487
REMARK INTRA:                   0.000
REMARK UNBOUND:                 0.000
REMARK SMILES Oc1cc(O)c2c(ccc3ccc(O)c(O)c32)c1
REMARK SMILES IDX 9 1 8 2 7 3 18 4 2 5 3 6 4 7 6 8 17 9 10 10 11 11 12 12
REMARK SMILES IDX 13 13 15 14 16 15 1 17 5 19 14 21
REMARK H PARENT 16 16 1 18 5 20 14 22
REMARK Flexibility Score: inf
ROOT
ATOM      1  C   UNL     1      11.017   8.333  22.152  1.00  0.00     0.009 A 
ATOM      2  C   UNL     1      10.877   8.032  23.500  1.00  0.00     0.009 A 
ATOM      3  C   UNL     1      11.167   6.747  23.972  1.00  0.00    -0.010 A 
ATOM      4  C   UNL     1      10.945   6.449  25.325  1.00  0.00     0.055 A 
ATOM      5  C   UNL     1      11.100   5.144  25.795  1.00  0.00     0.119 A 
ATOM      6  C   UNL     1      11.418   4.122  24.902  1.00  0.00     0.093 A 
ATOM      7  C   UNL     1      11.622   4.396  23.543  1.00  0.00     0.127 A 
ATOM      8  C   UNL     1      11.636   5.742  23.079  1.00  0.00     0.035 A 
ATOM      9  C   UNL     1      11.992   6.125  21.744  1.00  0.00     0.039 A 
ATOM     10  C   UNL     1      11.577   7.401  21.271  1.00  0.00    -0.014 A 
ATOM     11  C   UNL     1      11.765   7.755  19.930  1.00  0.00     0.013 A 
ATOM     12  C   UNL     1      12.411   6.885  19.059  1.00  0.00     0.051 A 
ATOM     13  C   UNL     1      12.960   5.693  19.529  1.00  0.00     0.158 A 
ATOM     14  C   UNL     1      12.835   5.350  20.895  1.00  0.00     0.166 A 
ENDROOT
BRANCH  14  15
ATOM     15  O   UNL     1      13.627   4.337  21.440  1.00  0.00    -0.504 OA
ATOM     16  H   UNL     1      14.112   3.644  20.887  1.00  0.00     0.293 HD
ENDBRANCH  14  15
BRANCH   5  17
ATOM     17  O   UNL     1      10.901   4.844  27.141  1.00  0.00    -0.508 OA
ATOM     18  H   UNL     1      10.295   4.085  27.432  1.00  0.00     0.293 HD
ENDBRANCH   5  17
BRANCH   7  19
ATOM     19  O   UNL     1      11.710   3.322  22.658  1.00  0.00    -0.507 OA
ATOM     20  H   UNL     1      10.890   2.817  22.344  1.00  0.00     0.293 HD
ENDBRANCH   7  19
BRANCH  13  21
ATOM     21  O   UNL     1      13.630   4.879  18.614  1.00  0.00    -0.504 OA
ATOM     22  H   UNL     1      13.890   3.920  18.806  1.00  0.00     0.293 HD
ENDBRANCH  13  21
TORSDOF 4
ENDMDL
