MODEL 1
REMARK VINA RESULT:    -5.223      0.000      0.000
REMARK INTER + INTRA:         -10.287
REMARK INTER:                  -9.192
REMARK INTRA:                  -1.095
REMARK UNBOUND:                -1.095
REMARK SMILES CCCCCCC=CCCCCCCCC(=O)[O-]
REMARK SMILES IDX 10 1 11 2 12 3 13 4 14 5 15 6 16 7 17 8 18 9 9 10 8 11 7 12
REMARK SMILES IDX 6 13 5 14 4 15 3 16 2 17 1 18
REMARK H PARENT
REMARK Flexibility Score: inf
ROOT
ATOM      1  C   UNL     1      49.261  50.605  34.939  1.00  0.00     0.004 C 
ENDROOT
BRANCH   1   2
ATOM      2  C   UNL     1      49.854  49.585  35.929  1.00  0.00     0.000 C 
BRANCH   2   3
ATOM      3  C   UNL     1      51.364  49.777  36.148  1.00  0.00     0.000 C 
BRANCH   3   4
ATOM      4  C   UNL     1      51.688  50.967  37.070  1.00  0.00     0.000 C 
BRANCH   4   5
ATOM      5  C   UNL     1      52.333  50.589  38.416  1.00  0.00     0.006 C 
BRANCH   5   6
ATOM      6  C   UNL     1      51.566  51.139  39.627  1.00  0.00     0.053 C 
BRANCH   6   7
ATOM      7  C   UNL     1      52.516  51.687  40.643  1.00  0.00     0.041 C 
ATOM      8  O   UNL     1      52.092  52.070  41.766  1.00  0.00    -0.550 OA
ATOM      9  O   UNL     1      53.864  51.819  40.335  1.00  0.00    -0.550 OA
ENDBRANCH   6   7
ENDBRANCH   5   6
ENDBRANCH   4   5
ENDBRANCH   3   4
ENDBRANCH   2   3
ENDBRANCH   1   2
BRANCH   1  10
ATOM     10  C   UNL     1      47.785  50.354  34.579  1.00  0.00     0.027 C 
BRANCH  10  11
ATOM     11  C   UNL     1      47.358  48.929  34.810  1.00  0.00    -0.031 C 
ATOM     12  C   UNL     1      46.140  48.626  35.283  1.00  0.00    -0.031 C 
BRANCH  12  13
ATOM     13  C   UNL     1      45.703  47.198  35.467  1.00  0.00     0.027 C 
BRANCH  13  14
ATOM     14  C   UNL     1      46.885  46.299  35.850  1.00  0.00     0.004 C 
BRANCH  14  15
ATOM     15  C   UNL     1      47.067  46.253  37.374  1.00  0.00     0.000 C 
BRANCH  15  16
ATOM     16  C   UNL     1      48.429  46.802  37.825  1.00  0.00    -0.000 C 
BRANCH  16  17
ATOM     17  C   UNL     1      48.752  46.455  39.286  1.00  0.00    -0.003 C 
ATOM     18  C   UNL     1      47.615  45.663  39.926  1.00  0.00     0.004 C 
ENDBRANCH  16  17
ENDBRANCH  15  16
ENDBRANCH  14  15
ENDBRANCH  13  14
ENDBRANCH  12  13
ENDBRANCH  10  11
ENDBRANCH   1  10
TORSDOF 13
ENDMDL
MODEL 2
REMARK VINA RESULT:    -5.207      5.571      7.770
REMARK INTER + INTRA:         -10.260
REMARK INTER:                  -9.151
REMARK INTRA:                  -1.109
REMARK UNBOUND:                -1.095
REMARK SMILES CCCCCCC=CCCCCCCCC(=O)[O-]
REMARK SMILES IDX 10 1 11 2 12 3 13 4 14 5 15 6 16 7 17 8 18 9 9 10 8 11 7 12
REMARK SMILES IDX 6 13 5 14 4 15 3 16 2 17 1 18
REMARK H PARENT
REMARK Flexibility Score: inf
ROOT
ATOM      1  C   UNL     1      46.937  44.537  34.690  1.00  0.00     0.004 C 
ENDROOT
BRANCH   1   2
ATOM      2  C   UNL     1      46.478  45.957  34.312  1.00  0.00     0.000 C 
BRANCH   2   3
ATOM      3  C   UNL     1      45.477  46.547  35.320  1.00  0.00     0.000 C 
BRANCH   3   4
ATOM      4  C   UNL     1      45.714  48.044  35.592  1.00  0.00     0.000 C 
BRANCH   4   5
ATOM      5  C   UNL     1      47.184  48.496  35.499  1.00  0.00     0.006 C 
BRANCH   5   6
ATOM      6  C   UNL     1      47.370  49.770  34.664  1.00  0.00     0.053 C 
BRANCH   6   7
ATOM      7  C   UNL     1      48.823  50.043  34.442  1.00  0.00     0.041 C 
ATOM      8  O   UNL     1      49.425  50.890  35.155  1.00  0.00    -0.550 OA
ATOM      9  O   UNL     1      49.502  49.398  33.417  1.00  0.00    -0.550 OA
ENDBRANCH   6   7
ENDBRANCH   5   6
ENDBRANCH   4   5
ENDBRANCH   3   4
ENDBRANCH   2   3
ENDBRANCH   1   2
BRANCH   1  10
ATOM     10  C   UNL     1      46.223  43.413  33.916  1.00  0.00     0.027 C 
BRANCH  10  11
ATOM     11  C   UNL     1      45.514  43.908  32.683  1.00  0.00    -0.031 C 
ATOM     12  C   UNL     1      45.856  43.487  31.456  1.00  0.00    -0.031 C 
BRANCH  12  13
ATOM     13  C   UNL     1      45.113  43.949  30.233  1.00  0.00     0.027 C 
BRANCH  13  14
ATOM     14  C   UNL     1      45.048  42.846  29.171  1.00  0.00     0.004 C 
BRANCH  14  15
ATOM     15  C   UNL     1      45.641  41.534  29.706  1.00  0.00     0.000 C 
BRANCH  15  16
ATOM     16  C   UNL     1      44.603  40.405  29.793  1.00  0.00    -0.000 C 
BRANCH  16  17
ATOM     17  C   UNL     1      44.990  39.323  30.812  1.00  0.00    -0.003 C 
ATOM     18  C   UNL     1      45.417  39.946  32.138  1.00  0.00     0.004 C 
ENDBRANCH  16  17
ENDBRANCH  15  16
ENDBRANCH  14  15
ENDBRANCH  13  14
ENDBRANCH  12  13
ENDBRANCH  10  11
ENDBRANCH   1  10
TORSDOF 13
ENDMDL
MODEL 3
REMARK VINA RESULT:    -5.206      7.590      9.564
REMARK INTER + INTRA:         -10.259
REMARK INTER:                  -9.540
REMARK INTRA:                  -0.719
REMARK UNBOUND:                -1.095
REMARK SMILES CCCCCCC=CCCCCCCCC(=O)[O-]
REMARK SMILES IDX 10 1 11 2 12 3 13 4 14 5 15 6 16 7 17 8 18 9 9 10 8 11 7 12
REMARK SMILES IDX 6 13 5 14 4 15 3 16 2 17 1 18
REMARK H PARENT
REMARK Flexibility Score: inf
ROOT
ATOM      1  C   UNL     1      43.956  52.927  34.412  1.00  0.00     0.004 C 
ENDROOT
BRANCH   1   2
ATOM      2  C   UNL     1      43.652  54.393  34.769  1.00  0.00     0.000 C 
BRANCH   2   3
ATOM      3  C   UNL     1      43.464  54.611  36.280  1.00  0.00     0.000 C 
BRANCH   3   4
ATOM      4  C   UNL     1      44.725  55.167  36.966  1.00  0.00     0.000 C 
BRANCH   4   5
ATOM      5  C   UNL     1      44.952  56.679  36.781  1.00  0.00     0.006 C 
BRANCH   5   6
ATOM      6  C   UNL     1      46.189  57.198  37.527  1.00  0.00     0.053 C 
BRANCH   6   7
ATOM      7  C   UNL     1      45.809  58.290  38.476  1.00  0.00     0.041 C 
ATOM      8  O   UNL     1      46.437  58.436  39.558  1.00  0.00    -0.550 OA
ATOM      9  O   UNL     1      44.730  59.116  38.189  1.00  0.00    -0.550 OA
ENDBRANCH   6   7
ENDBRANCH   5   6
ENDBRANCH   4   5
ENDBRANCH   3   4
ENDBRANCH   2   3
ENDBRANCH   1   2
BRANCH   1  10
ATOM     10  C   UNL     1      43.278  51.896  35.334  1.00  0.00     0.027 C 
BRANCH  10  11
ATOM     11  C   UNL     1      41.980  51.374  34.776  1.00  0.00    -0.031 C 
ATOM     12  C   UNL     1      41.543  51.726  33.558  1.00  0.00    -0.031 C 
BRANCH  12  13
ATOM     13  C   UNL     1      40.270  51.164  32.989  1.00  0.00     0.027 C 
BRANCH  13  14
ATOM     14  C   UNL     1      40.559  50.078  31.945  1.00  0.00     0.004 C 
BRANCH  14  15
ATOM     15  C   UNL     1      39.844  50.387  30.621  1.00  0.00     0.000 C 
BRANCH  15  16
ATOM     16  C   UNL     1      38.324  50.525  30.786  1.00  0.00    -0.000 C 
BRANCH  16  17
ATOM     17  C   UNL     1      37.606  49.167  30.810  1.00  0.00    -0.003 C 
ATOM     18  C   UNL     1      37.367  48.648  29.395  1.00  0.00     0.004 C 
ENDBRANCH  16  17
ENDBRANCH  15  16
ENDBRANCH  14  15
ENDBRANCH  13  14
ENDBRANCH  12  13
ENDBRANCH  10  11
ENDBRANCH   1  10
TORSDOF 13
ENDMDL
MODEL 4
REMARK VINA RESULT:    -5.178      7.561     10.634
REMARK INTER + INTRA:         -10.208
REMARK INTER:                  -9.389
REMARK INTRA:                  -0.819
REMARK UNBOUND:                -1.095
REMARK SMILES CCCCCCC=CCCCCCCCC(=O)[O-]
REMARK SMILES IDX 10 1 11 2 12 3 13 4 14 5 15 6 16 7 17 8 18 9 9 10 8 11 7 12
REMARK SMILES IDX 6 13 5 14 4 15 3 16 2 17 1 18
REMARK H PARENT
REMARK Flexibility Score: inf
ROOT
ATOM      1  C   UNL     1      45.476  44.081  33.111  1.00  0.00     0.004 C 
ENDROOT
BRANCH   1   2
ATOM      2  C   UNL     1      45.927  43.318  31.852  1.00  0.00     0.000 C 
BRANCH   2   3
ATOM      3  C   UNL     1      45.358  43.919  30.556  1.00  0.00     0.000 C 
BRANCH   3   4
ATOM      4  C   UNL     1      45.200  42.878  29.433  1.00  0.00     0.000 C 
BRANCH   4   5
ATOM      5  C   UNL     1      44.380  43.351  28.218  1.00  0.00     0.006 C 
BRANCH   5   6
ATOM      6  C   UNL     1      45.152  43.253  26.896  1.00  0.00     0.053 C 
BRANCH   6   7
ATOM      7  C   UNL     1      45.514  44.617  26.398  1.00  0.00     0.041 C 
ATOM      8  O   UNL     1      44.730  45.242  25.635  1.00  0.00    -0.550 OA
ATOM      9  O   UNL     1      46.737  45.179  26.739  1.00  0.00    -0.550 OA
ENDBRANCH   6   7
ENDBRANCH   5   6
ENDBRANCH   4   5
ENDBRANCH   3   4
ENDBRANCH   2   3
ENDBRANCH   1   2
BRANCH   1  10
ATOM     10  C   UNL     1      46.615  44.408  34.096  1.00  0.00     0.027 C 
BRANCH  10  11
ATOM     11  C   UNL     1      46.619  45.849  34.531  1.00  0.00    -0.031 C 
ATOM     12  C   UNL     1      45.541  46.421  35.087  1.00  0.00    -0.031 C 
BRANCH  12  13
ATOM     13  C   UNL     1      45.568  47.848  35.562  1.00  0.00     0.027 C 
BRANCH  13  14
ATOM     14  C   UNL     1      47.005  48.373  35.670  1.00  0.00     0.004 C 
BRANCH  14  15
ATOM     15  C   UNL     1      47.191  49.640  34.822  1.00  0.00     0.000 C 
BRANCH  15  16
ATOM     16  C   UNL     1      48.556  49.687  34.118  1.00  0.00    -0.000 C 
BRANCH  16  17
ATOM     17  C   UNL     1      48.868  48.396  33.346  1.00  0.00    -0.003 C 
ATOM     18  C   UNL     1      49.955  48.631  32.301  1.00  0.00     0.004 C 
ENDBRANCH  16  17
ENDBRANCH  15  16
ENDBRANCH  14  15
ENDBRANCH  13  14
ENDBRANCH  12  13
ENDBRANCH  10  11
ENDBRANCH   1  10
TORSDOF 13
ENDMDL
MODEL 5
REMARK VINA RESULT:    -5.161      4.215      6.854
REMARK INTER + INTRA:         -10.179
REMARK INTER:                  -8.558
REMARK INTRA:                  -1.621
REMARK UNBOUND:                -1.095
REMARK SMILES CCCCCCC=CCCCCCCCC(=O)[O-]
REMARK SMILES IDX 10 1 11 2 12 3 13 4 14 5 15 6 16 7 17 8 18 9 9 10 8 11 7 12
REMARK SMILES IDX 6 13 5 14 4 15 3 16 2 17 1 18
REMARK H PARENT
REMARK Flexibility Score: inf
ROOT
ATOM      1  C   UNL     1      45.871  46.446  35.028  1.00  0.00     0.004 C 
ENDROOT
BRANCH   1   2
ATOM      2  C   UNL     1      47.065  45.683  35.630  1.00  0.00     0.000 C 
BRANCH   2   3
ATOM      3  C   UNL     1      48.232  45.527  34.640  1.00  0.00     0.000 C 
BRANCH   3   4
ATOM      4  C   UNL     1      47.980  46.244  33.301  1.00  0.00     0.000 C 
BRANCH   4   5
ATOM      5  C   UNL     1      49.158  47.092  32.786  1.00  0.00     0.006 C 
BRANCH   5   6
ATOM      6  C   UNL     1      49.515  46.802  31.322  1.00  0.00     0.053 C 
BRANCH   6   7
ATOM      7  C   UNL     1      50.157  47.997  30.693  1.00  0.00     0.041 C 
ATOM      8  O   UNL     1      50.427  49.012  31.389  1.00  0.00    -0.550 OA
ATOM      9  O   UNL     1      50.414  48.009  29.328  1.00  0.00    -0.550 OA
ENDBRANCH   6   7
ENDBRANCH   5   6
ENDBRANCH   4   5
ENDBRANCH   3   4
ENDBRANCH   2   3
ENDBRANCH   1   2
BRANCH   1  10
ATOM     10  C   UNL     1      45.534  47.766  35.748  1.00  0.00     0.027 C 
BRANCH  10  11
ATOM     11  C   UNL     1      46.188  48.964  35.113  1.00  0.00    -0.031 C 
ATOM     12  C   UNL     1      47.480  49.258  35.324  1.00  0.00    -0.031 C 
BRANCH  12  13
ATOM     13  C   UNL     1      48.139  50.429  34.648  1.00  0.00     0.027 C 
BRANCH  13  14
ATOM     14  C   UNL     1      49.583  50.609  35.130  1.00  0.00     0.004 C 
BRANCH  14  15
ATOM     15  C   UNL     1      50.137  49.297  35.704  1.00  0.00     0.000 C 
BRANCH  15  16
ATOM     16  C   UNL     1      51.475  49.487  36.434  1.00  0.00    -0.000 C 
BRANCH  16  17
ATOM     17  C   UNL     1      51.656  50.913  36.975  1.00  0.00    -0.003 C 
ATOM     18  C   UNL     1      51.906  50.901  38.481  1.00  0.00     0.004 C 
ENDBRANCH  16  17
ENDBRANCH  15  16
ENDBRANCH  14  15
ENDBRANCH  13  14
ENDBRANCH  12  13
ENDBRANCH  10  11
ENDBRANCH   1  10
TORSDOF 13
ENDMDL
MODEL 6
REMARK VINA RESULT:    -5.146      2.947      5.514
REMARK INTER + INTRA:         -10.152
REMARK INTER:                  -8.624
REMARK INTRA:                  -1.529
REMARK UNBOUND:                -1.095
REMARK SMILES CCCCCCC=CCCCCCCCC(=O)[O-]
REMARK SMILES IDX 10 1 11 2 12 3 13 4 14 5 15 6 16 7 17 8 18 9 9 10 8 11 7 12
REMARK SMILES IDX 6 13 5 14 4 15 3 16 2 17 1 18
REMARK H PARENT
REMARK Flexibility Score: inf
ROOT
ATOM      1  C   UNL     1      46.634  46.474  35.702  1.00  0.00     0.004 C 
ENDROOT
BRANCH   1   2
ATOM      2  C   UNL     1      47.344  46.409  37.066  1.00  0.00     0.000 C 
BRANCH   2   3
ATOM      3  C   UNL     1      48.789  45.894  36.961  1.00  0.00     0.000 C 
BRANCH   3   4
ATOM      4  C   UNL     1      49.606  46.138  38.244  1.00  0.00     0.000 C 
BRANCH   4   5
ATOM      5  C   UNL     1      48.888  46.971  39.322  1.00  0.00     0.006 C 
BRANCH   5   6
ATOM      6  C   UNL     1      48.865  46.286  40.696  1.00  0.00     0.053 C 
BRANCH   6   7
ATOM      7  C   UNL     1      47.479  45.835  41.033  1.00  0.00     0.041 C 
ATOM      8  O   UNL     1      46.866  45.046  40.266  1.00  0.00    -0.550 OA
ATOM      9  O   UNL     1      46.847  46.324  42.169  1.00  0.00    -0.550 OA
ENDBRANCH   6   7
ENDBRANCH   5   6
ENDBRANCH   4   5
ENDBRANCH   3   4
ENDBRANCH   2   3
ENDBRANCH   1   2
BRANCH   1  10
ATOM     10  C   UNL     1      45.596  47.606  35.580  1.00  0.00     0.027 C 
BRANCH  10  11
ATOM     11  C   UNL     1      46.221  48.953  35.339  1.00  0.00    -0.031 C 
ATOM     12  C   UNL     1      47.394  49.083  34.701  1.00  0.00    -0.031 C 
BRANCH  12  13
ATOM     13  C   UNL     1      47.990  50.436  34.421  1.00  0.00     0.027 C 
BRANCH  13  14
ATOM     14  C   UNL     1      49.362  50.588  35.088  1.00  0.00     0.004 C 
BRANCH  14  15
ATOM     15  C   UNL     1      49.746  49.311  35.849  1.00  0.00     0.000 C 
BRANCH  15  16
ATOM     16  C   UNL     1      51.155  49.383  36.456  1.00  0.00    -0.000 C 
BRANCH  16  17
ATOM     17  C   UNL     1      51.550  50.811  36.865  1.00  0.00    -0.003 C 
ATOM     18  C   UNL     1      51.881  50.884  38.353  1.00  0.00     0.004 C 
ENDBRANCH  16  17
ENDBRANCH  15  16
ENDBRANCH  14  15
ENDBRANCH  13  14
ENDBRANCH  12  13
ENDBRANCH  10  11
ENDBRANCH   1  10
TORSDOF 13
ENDMDL
MODEL 7
REMARK VINA RESULT:    -5.117      3.261      4.886
REMARK INTER + INTRA:         -10.101
REMARK INTER:                  -8.150
REMARK INTRA:                  -1.952
REMARK UNBOUND:                -1.095
REMARK SMILES CCCCCCC=CCCCCCCCC(=O)[O-]
REMARK SMILES IDX 10 1 11 2 12 3 13 4 14 5 15 6 16 7 17 8 18 9 9 10 8 11 7 12
REMARK SMILES IDX 6 13 5 14 4 15 3 16 2 17 1 18
REMARK H PARENT
REMARK Flexibility Score: inf
ROOT
ATOM      1  C   UNL     1      49.485  49.365  34.413  1.00  0.00     0.004 C 
ENDROOT
BRANCH   1   2
ATOM      2  C   UNL     1      50.673  49.618  35.359  1.00  0.00     0.000 C 
BRANCH   2   3
ATOM      3  C   UNL     1      50.429  49.076  36.778  1.00  0.00     0.000 C 
BRANCH   3   4
ATOM      4  C   UNL     1      49.841  47.653  36.782  1.00  0.00     0.000 C 
BRANCH   4   5
ATOM      5  C   UNL     1      49.350  47.156  38.154  1.00  0.00     0.006 C 
BRANCH   5   6
ATOM      6  C   UNL     1      48.026  46.384  38.077  1.00  0.00     0.053 C 
BRANCH   6   7
ATOM      7  C   UNL     1      47.809  45.589  39.325  1.00  0.00     0.041 C 
ATOM      8  O   UNL     1      46.644  45.256  39.670  1.00  0.00    -0.550 OA
ATOM      9  O   UNL     1      48.888  45.257  40.133  1.00  0.00    -0.550 OA
ENDBRANCH   6   7
ENDBRANCH   5   6
ENDBRANCH   4   5
ENDBRANCH   3   4
ENDBRANCH   2   3
ENDBRANCH   1   2
BRANCH   1  10
ATOM     10  C   UNL     1      48.355  50.407  34.521  1.00  0.00     0.027 C 
BRANCH  10  11
ATOM     11  C   UNL     1      47.047  49.810  34.966  1.00  0.00    -0.031 C 
ATOM     12  C   UNL     1      46.860  48.483  35.021  1.00  0.00    -0.031 C 
BRANCH  12  13
ATOM     13  C   UNL     1      45.566  47.893  35.512  1.00  0.00     0.027 C 
BRANCH  13  14
ATOM     14  C   UNL     1      45.499  46.387  35.230  1.00  0.00     0.004 C 
BRANCH  14  15
ATOM     15  C   UNL     1      46.825  45.879  34.646  1.00  0.00     0.000 C 
BRANCH  15  16
ATOM     16  C   UNL     1      46.622  44.886  33.492  1.00  0.00    -0.000 C 
BRANCH  16  17
ATOM     17  C   UNL     1      47.776  44.914  32.478  1.00  0.00    -0.003 C 
ATOM     18  C   UNL     1      48.560  46.219  32.575  1.00  0.00     0.004 C 
ENDBRANCH  16  17
ENDBRANCH  15  16
ENDBRANCH  14  15
ENDBRANCH  13  14
ENDBRANCH  12  13
ENDBRANCH  10  11
ENDBRANCH   1  10
TORSDOF 13
ENDMDL
MODEL 8
REMARK VINA RESULT:    -5.072      2.666      5.265
REMARK INTER + INTRA:         -10.022
REMARK INTER:                  -7.519
REMARK INTRA:                  -2.503
REMARK UNBOUND:                -1.095
REMARK SMILES CCCCCCC=CCCCCCCCC(=O)[O-]
REMARK SMILES IDX 10 1 11 2 12 3 13 4 14 5 15 6 16 7 17 8 18 9 9 10 8 11 7 12
REMARK SMILES IDX 6 13 5 14 4 15 3 16 2 17 1 18
REMARK H PARENT
REMARK Flexibility Score: inf
ROOT
ATOM      1  C   UNL     1      45.621  46.722  35.366  1.00  0.00     0.004 C 
ENDROOT
BRANCH   1   2
ATOM      2  C   UNL     1      46.665  46.116  34.410  1.00  0.00     0.000 C 
BRANCH   2   3
ATOM      3  C   UNL     1      47.660  45.188  35.127  1.00  0.00     0.000 C 
BRANCH   3   4
ATOM      4  C   UNL     1      47.719  45.434  36.646  1.00  0.00     0.000 C 
BRANCH   4   5
ATOM      5  C   UNL     1      49.066  45.968  37.167  1.00  0.00     0.006 C 
BRANCH   5   6
ATOM      6  C   UNL     1      48.909  47.053  38.242  1.00  0.00     0.053 C 
BRANCH   6   7
ATOM      7  C   UNL     1      50.249  47.521  38.713  1.00  0.00     0.041 C 
ATOM      8  O   UNL     1      51.265  47.373  37.982  1.00  0.00    -0.550 OA
ATOM      9  O   UNL     1      50.386  48.077  39.978  1.00  0.00    -0.550 OA
ENDBRANCH   6   7
ENDBRANCH   5   6
ENDBRANCH   4   5
ENDBRANCH   3   4
ENDBRANCH   2   3
ENDBRANCH   1   2
BRANCH   1  10
ATOM     10  C   UNL     1      45.660  48.260  35.455  1.00  0.00     0.027 C 
BRANCH  10  11
ATOM     11  C   UNL     1      47.060  48.812  35.457  1.00  0.00    -0.031 C 
ATOM     12  C   UNL     1      47.413  49.844  34.677  1.00  0.00    -0.031 C 
BRANCH  12  13
ATOM     13  C   UNL     1      48.801  50.421  34.719  1.00  0.00     0.027 C 
BRANCH  13  14
ATOM     14  C   UNL     1      49.699  49.643  35.688  1.00  0.00     0.004 C 
BRANCH  14  15
ATOM     15  C   UNL     1      50.874  48.991  34.943  1.00  0.00     0.000 C 
BRANCH  15  16
ATOM     16  C   UNL     1      50.464  47.719  34.187  1.00  0.00    -0.000 C 
BRANCH  16  17
ATOM     17  C   UNL     1      50.391  47.931  32.668  1.00  0.00    -0.003 C 
ATOM     18  C   UNL     1      49.217  47.167  32.062  1.00  0.00     0.004 C 
ENDBRANCH  16  17
ENDBRANCH  15  16
ENDBRANCH  14  15
ENDBRANCH  13  14
ENDBRANCH  12  13
ENDBRANCH  10  11
ENDBRANCH   1  10
TORSDOF 13
ENDMDL
MODEL 9
REMARK VINA RESULT:    -5.072      1.751      4.638
REMARK INTER + INTRA:         -10.022
REMARK INTER:                  -8.751
REMARK INTRA:                  -1.271
REMARK UNBOUND:                -1.095
REMARK SMILES CCCCCCC=CCCCCCCCC(=O)[O-]
REMARK SMILES IDX 10 1 11 2 12 3 13 4 14 5 15 6 16 7 17 8 18 9 9 10 8 11 7 12
REMARK SMILES IDX 6 13 5 14 4 15 3 16 2 17 1 18
REMARK H PARENT
REMARK Flexibility Score: inf
ROOT
ATOM      1  C   UNL     1      48.846  46.663  39.509  1.00  0.00     0.004 C 
ENDROOT
BRANCH   1   2
ATOM      2  C   UNL     1      47.950  46.089  40.621  1.00  0.00     0.000 C 
BRANCH   2   3
ATOM      3  C   UNL     1      48.258  46.691  42.003  1.00  0.00     0.000 C 
BRANCH   3   4
ATOM      4  C   UNL     1      48.485  48.213  41.955  1.00  0.00     0.000 C 
BRANCH   4   5
ATOM      5  C   UNL     1      49.869  48.678  42.445  1.00  0.00     0.006 C 
BRANCH   5   6
ATOM      6  C   UNL     1      50.590  49.585  41.439  1.00  0.00     0.053 C 
BRANCH   6   7
ATOM      7  C   UNL     1      50.959  50.887  42.078  1.00  0.00     0.041 C 
ATOM      8  O   UNL     1      50.598  51.138  43.258  1.00  0.00    -0.550 OA
ATOM      9  O   UNL     1      51.660  51.842  41.354  1.00  0.00    -0.550 OA
ENDBRANCH   6   7
ENDBRANCH   5   6
ENDBRANCH   4   5
ENDBRANCH   3   4
ENDBRANCH   2   3
ENDBRANCH   1   2
BRANCH   1  10
ATOM     10  C   UNL     1      48.528  46.129  38.099  1.00  0.00     0.027 C 
BRANCH  10  11
ATOM     11  C   UNL     1      48.010  47.195  37.171  1.00  0.00    -0.031 C 
ATOM     12  C   UNL     1      46.854  47.051  36.507  1.00  0.00    -0.031 C 
BRANCH  12  13
ATOM     13  C   UNL     1      46.318  48.140  35.618  1.00  0.00     0.027 C 
BRANCH  13  14
ATOM     14  C   UNL     1      47.379  48.615  34.618  1.00  0.00     0.004 C 
BRANCH  14  15
ATOM     15  C   UNL     1      47.438  50.149  34.569  1.00  0.00     0.000 C 
BRANCH  15  16
ATOM     16  C   UNL     1      48.832  50.700  34.903  1.00  0.00    -0.000 C 
BRANCH  16  17
ATOM     17  C   UNL     1      49.903  49.600  34.965  1.00  0.00    -0.003 C 
ATOM     18  C   UNL     1      50.691  49.674  36.270  1.00  0.00     0.004 C 
ENDBRANCH  16  17
ENDBRANCH  15  16
ENDBRANCH  14  15
ENDBRANCH  13  14
ENDBRANCH  12  13
ENDBRANCH  10  11
ENDBRANCH   1  10
TORSDOF 13
ENDMDL
