MODEL 1
REMARK VINA RESULT:    -3.567      0.000      0.000
REMARK INTER + INTRA:          -4.548
REMARK INTER:                  -4.297
REMARK INTRA:                  -0.250
REMARK UNBOUND:                -0.250
REMARK SMILES C=CCc1ccc(O)c(OC)c1
REMARK SMILES IDX 9 1 7 2 6 3 5 4 4 5 12 6 10 7 11 8 8 9 3 11 2 12 1 13
REMARK H PARENT 8 10
REMARK Flexibility Score: inf
ROOT
ATOM      1  C   UNL     1      26.529  27.036  28.238  1.00  0.00     0.160 A 
ATOM      2  C   UNL     1      26.291  25.746  27.728  1.00  0.00     0.157 A 
ATOM      3  C   UNL     1      26.888  25.345  26.529  1.00  0.00     0.050 A 
ATOM      4  C   UNL     1      27.719  26.220  25.827  1.00  0.00     0.008 A 
ATOM      5  C   UNL     1      27.958  27.512  26.315  1.00  0.00    -0.040 A 
ATOM      6  C   UNL     1      27.368  27.913  27.524  1.00  0.00     0.054 A 
ENDROOT
BRANCH   1   7
ATOM      7  O   UNL     1      25.922  27.408  29.448  1.00  0.00    -0.493 OA
ATOM      8  C   UNL     1      25.689  28.752  29.855  1.00  0.00     0.278 C 
ENDBRANCH   1   7
BRANCH   2   9
ATOM      9  O   UNL     1      25.466  24.845  28.402  1.00  0.00    -0.504 OA
ATOM     10  H   UNL     1      25.767  24.359  29.239  1.00  0.00     0.293 HD
ENDBRANCH   2   9
BRANCH   5  11
ATOM     11  C   UNL     1      28.880  28.442  25.570  1.00  0.00     0.062 C 
BRANCH  11  12
ATOM     12  C   UNL     1      28.156  29.693  25.159  1.00  0.00    -0.030 C 
ATOM     13  C   UNL     1      27.199  29.678  24.227  1.00  0.00     0.004 C 
ENDBRANCH  11  12
ENDBRANCH   5  11
TORSDOF 4
ENDMDL
MODEL 2
REMARK VINA RESULT:    -3.559      1.179      1.232
REMARK INTER + INTRA:          -4.537
REMARK INTER:                  -4.347
REMARK INTRA:                  -0.190
REMARK UNBOUND:                -0.250
REMARK SMILES C=CCc1ccc(O)c(OC)c1
REMARK SMILES IDX 9 1 7 2 6 3 5 4 4 5 12 6 10 7 11 8 8 9 3 11 2 12 1 13
REMARK H PARENT 8 10
REMARK Flexibility Score: inf
ROOT
ATOM      1  C   UNL     1      26.528  27.353  28.740  1.00  0.00     0.160 A 
ATOM      2  C   UNL     1      27.035  26.113  29.169  1.00  0.00     0.157 A 
ATOM      3  C   UNL     1      28.075  25.499  28.464  1.00  0.00     0.050 A 
ATOM      4  C   UNL     1      28.615  26.107  27.330  1.00  0.00     0.008 A 
ATOM      5  C   UNL     1      28.114  27.337  26.881  1.00  0.00    -0.040 A 
ATOM      6  C   UNL     1      27.077  27.960  27.593  1.00  0.00     0.054 A 
ENDROOT
BRANCH   1   7
ATOM      7  O   UNL     1      25.488  27.950  29.470  1.00  0.00    -0.493 OA
ATOM      8  C   UNL     1      25.611  29.158  30.212  1.00  0.00     0.278 C 
ENDBRANCH   1   7
BRANCH   2   9
ATOM      9  O   UNL     1      26.520  25.476  30.298  1.00  0.00    -0.504 OA
ATOM     10  H   UNL     1      26.886  24.593  30.634  1.00  0.00     0.293 HD
ENDBRANCH   2   9
BRANCH   5  11
ATOM     11  C   UNL     1      28.720  28.004  25.675  1.00  0.00     0.062 C 
BRANCH  11  12
ATOM     12  C   UNL     1      28.126  29.369  25.466  1.00  0.00    -0.030 C 
ATOM     13  C   UNL     1      27.396  29.661  24.386  1.00  0.00     0.004 C 
ENDBRANCH  11  12
ENDBRANCH   5  11
TORSDOF 4
ENDMDL
MODEL 3
REMARK VINA RESULT:    -3.548     13.174     15.684
REMARK INTER + INTRA:          -4.524
REMARK INTER:                  -4.338
REMARK INTRA:                  -0.186
REMARK UNBOUND:                -0.250
REMARK SMILES C=CCc1ccc(O)c(OC)c1
REMARK SMILES IDX 9 1 7 2 6 3 5 4 4 5 12 6 10 7 11 8 8 9 3 11 2 12 1 13
REMARK H PARENT 8 10
REMARK Flexibility Score: inf
ROOT
ATOM      1  C   UNL     1      27.215  40.199  20.435  1.00  0.00     0.160 A 
ATOM      2  C   UNL     1      27.172  40.782  19.154  1.00  0.00     0.157 A 
ATOM      3  C   UNL     1      27.132  42.173  19.018  1.00  0.00     0.050 A 
ATOM      4  C   UNL     1      27.131  42.993  20.148  1.00  0.00     0.008 A 
ATOM      5  C   UNL     1      27.162  42.430  21.431  1.00  0.00    -0.040 A 
ATOM      6  C   UNL     1      27.212  41.034  21.570  1.00  0.00     0.054 A 
ENDROOT
BRANCH   1   7
ATOM      7  O   UNL     1      27.261  38.800  20.541  1.00  0.00    -0.493 OA
ATOM      8  C   UNL     1      26.117  37.956  20.593  1.00  0.00     0.278 C 
ENDBRANCH   1   7
BRANCH   2   9
ATOM      9  O   UNL     1      27.172  39.994  18.004  1.00  0.00    -0.504 OA
ATOM     10  H   UNL     1      27.142  40.396  17.074  1.00  0.00     0.293 HD
ENDBRANCH   2   9
BRANCH   5  11
ATOM     11  C   UNL     1      27.192  43.319  22.646  1.00  0.00     0.062 C 
BRANCH  11  12
ATOM     12  C   UNL     1      27.977  42.678  23.756  1.00  0.00    -0.030 C 
ATOM     13  C   UNL     1      27.970  43.172  24.998  1.00  0.00     0.004 C 
ENDBRANCH  11  12
ENDBRANCH   5  11
TORSDOF 4
ENDMDL
MODEL 4
REMARK VINA RESULT:    -3.502     14.428     15.667
REMARK INTER + INTRA:          -4.469
REMARK INTER:                  -4.216
REMARK INTRA:                  -0.253
REMARK UNBOUND:                -0.250
REMARK SMILES C=CCc1ccc(O)c(OC)c1
REMARK SMILES IDX 9 1 7 2 6 3 5 4 4 5 12 6 10 7 11 8 8 9 3 11 2 12 1 13
REMARK H PARENT 8 10
REMARK Flexibility Score: inf
ROOT
ATOM      1  C   UNL     1      27.565  39.924  19.685  1.00  0.00     0.160 A 
ATOM      2  C   UNL     1      26.235  39.931  20.146  1.00  0.00     0.157 A 
ATOM      3  C   UNL     1      25.750  41.025  20.869  1.00  0.00     0.050 A 
ATOM      4  C   UNL     1      26.579  42.114  21.142  1.00  0.00     0.008 A 
ATOM      5  C   UNL     1      27.909  42.120  20.701  1.00  0.00    -0.040 A 
ATOM      6  C   UNL     1      28.396  41.027  19.967  1.00  0.00     0.054 A 
ENDROOT
BRANCH   1   7
ATOM      7  O   UNL     1      28.024  38.815  18.956  1.00  0.00    -0.493 OA
ATOM      8  C   UNL     1      28.606  38.885  17.660  1.00  0.00     0.278 C 
ENDBRANCH   1   7
BRANCH   2   9
ATOM      9  O   UNL     1      25.379  38.860  19.892  1.00  0.00    -0.504 OA
ATOM     10  H   UNL     1      24.796  38.452  20.613  1.00  0.00     0.293 HD
ENDBRANCH   2   9
BRANCH   5  11
ATOM     11  C   UNL     1      28.790  43.310  20.972  1.00  0.00     0.062 C 
BRANCH  11  12
ATOM     12  C   UNL     1      28.529  43.865  22.344  1.00  0.00    -0.030 C 
ATOM     13  C   UNL     1      29.125  43.365  23.430  1.00  0.00     0.004 C 
ENDBRANCH  11  12
ENDBRANCH   5  11
TORSDOF 4
ENDMDL
MODEL 5
REMARK VINA RESULT:    -3.451     13.051     15.307
REMARK INTER + INTRA:          -4.408
REMARK INTER:                  -4.141
REMARK INTRA:                  -0.267
REMARK UNBOUND:                -0.250
REMARK SMILES C=CCc1ccc(O)c(OC)c1
REMARK SMILES IDX 9 1 7 2 6 3 5 4 4 5 12 6 10 7 11 8 8 9 3 11 2 12 1 13
REMARK H PARENT 8 10
REMARK Flexibility Score: inf
ROOT
ATOM      1  C   UNL     1      27.246  41.915  21.849  1.00  0.00     0.160 A 
ATOM      2  C   UNL     1      26.972  42.763  20.760  1.00  0.00     0.157 A 
ATOM      3  C   UNL     1      26.927  42.245  19.462  1.00  0.00     0.050 A 
ATOM      4  C   UNL     1      27.157  40.886  19.236  1.00  0.00     0.008 A 
ATOM      5  C   UNL     1      27.443  40.030  20.308  1.00  0.00    -0.040 A 
ATOM      6  C   UNL     1      27.478  40.546  21.613  1.00  0.00     0.054 A 
ENDROOT
BRANCH   1   7
ATOM      7  O   UNL     1      27.278  42.462  23.142  1.00  0.00    -0.493 OA
ATOM      8  C   UNL     1      28.382  42.360  24.035  1.00  0.00     0.278 C 
ENDBRANCH   1   7
BRANCH   2   9
ATOM      9  O   UNL     1      26.737  44.125  20.948  1.00  0.00    -0.504 OA
ATOM     10  H   UNL     1      25.889  44.472  21.380  1.00  0.00     0.293 HD
ENDBRANCH   2   9
BRANCH   5  11
ATOM     11  C   UNL     1      27.660  38.560  20.063  1.00  0.00     0.062 C 
BRANCH  11  12
ATOM     12  C   UNL     1      26.602  37.743  20.751  1.00  0.00    -0.030 C 
ATOM     13  C   UNL     1      25.326  37.770  20.358  1.00  0.00     0.004 C 
ENDBRANCH  11  12
ENDBRANCH   5  11
TORSDOF 4
ENDMDL
MODEL 6
REMARK VINA RESULT:    -3.437      0.955      2.471
REMARK INTER + INTRA:          -4.390
REMARK INTER:                  -4.107
REMARK INTRA:                  -0.284
REMARK UNBOUND:                -0.250
REMARK SMILES C=CCc1ccc(O)c(OC)c1
REMARK SMILES IDX 9 1 7 2 6 3 5 4 4 5 12 6 10 7 11 8 8 9 3 11 2 12 1 13
REMARK H PARENT 8 10
REMARK Flexibility Score: inf
ROOT
ATOM      1  C   UNL     1      26.500  26.315  27.839  1.00  0.00     0.160 A 
ATOM      2  C   UNL     1      26.467  27.173  28.955  1.00  0.00     0.157 A 
ATOM      3  C   UNL     1      27.189  28.370  28.940  1.00  0.00     0.050 A 
ATOM      4  C   UNL     1      27.948  28.723  27.824  1.00  0.00     0.008 A 
ATOM      5  C   UNL     1      28.002  27.876  26.709  1.00  0.00    -0.040 A 
ATOM      6  C   UNL     1      27.271  26.678  26.717  1.00  0.00     0.054 A 
ENDROOT
BRANCH   1   7
ATOM      7  O   UNL     1      25.761  25.122  27.879  1.00  0.00    -0.493 OA
ATOM      8  C   UNL     1      26.264  23.875  28.345  1.00  0.00     0.278 C 
ENDBRANCH   1   7
BRANCH   2   9
ATOM      9  O   UNL     1      25.719  26.852  30.087  1.00  0.00    -0.504 OA
ATOM     10  H   UNL     1      26.014  27.113  31.021  1.00  0.00     0.293 HD
ENDBRANCH   2   9
BRANCH   5  11
ATOM     11  C   UNL     1      28.799  28.275  25.494  1.00  0.00     0.062 C 
BRANCH  11  12
ATOM     12  C   UNL     1      28.315  29.589  24.948  1.00  0.00    -0.030 C 
ATOM     13  C   UNL     1      27.202  29.679  24.214  1.00  0.00     0.004 C 
ENDBRANCH  11  12
ENDBRANCH   5  11
TORSDOF 4
ENDMDL
MODEL 7
REMARK VINA RESULT:    -3.314      2.156      3.481
REMARK INTER + INTRA:          -4.243
REMARK INTER:                  -4.009
REMARK INTRA:                  -0.234
REMARK UNBOUND:                -0.250
REMARK SMILES C=CCc1ccc(O)c(OC)c1
REMARK SMILES IDX 9 1 7 2 6 3 5 4 4 5 12 6 10 7 11 8 8 9 3 11 2 12 1 13
REMARK H PARENT 8 10
REMARK Flexibility Score: inf
ROOT
ATOM      1  C   UNL     1      27.219  27.635  28.401  1.00  0.00     0.160 A 
ATOM      2  C   UNL     1      25.924  27.459  28.922  1.00  0.00     0.157 A 
ATOM      3  C   UNL     1      25.221  26.277  28.670  1.00  0.00     0.050 A 
ATOM      4  C   UNL     1      25.795  25.265  27.899  1.00  0.00     0.008 A 
ATOM      5  C   UNL     1      27.080  25.427  27.364  1.00  0.00    -0.040 A 
ATOM      6  C   UNL     1      27.792  26.609  27.623  1.00  0.00     0.054 A 
ENDROOT
BRANCH   1   7
ATOM      7  O   UNL     1      27.904  28.830  28.675  1.00  0.00    -0.493 OA
ATOM      8  C   UNL     1      28.770  29.493  27.761  1.00  0.00     0.278 C 
ENDBRANCH   1   7
BRANCH   2   9
ATOM      9  O   UNL     1      25.318  28.449  29.696  1.00  0.00    -0.504 OA
ATOM     10  H   UNL     1      24.556  28.247  30.332  1.00  0.00     0.293 HD
ENDBRANCH   2   9
BRANCH   5  11
ATOM     11  C   UNL     1      27.708  24.320  26.558  1.00  0.00     0.062 C 
BRANCH  11  12
ATOM     12  C   UNL     1      27.501  24.548  25.087  1.00  0.00    -0.030 C 
ATOM     13  C   UNL     1      26.485  23.987  24.425  1.00  0.00     0.004 C 
ENDBRANCH  11  12
ENDBRANCH   5  11
TORSDOF 4
ENDMDL
MODEL 8
REMARK VINA RESULT:    -3.297      2.746      4.713
REMARK INTER + INTRA:          -4.222
REMARK INTER:                  -3.958
REMARK INTRA:                  -0.263
REMARK UNBOUND:                -0.250
REMARK SMILES C=CCc1ccc(O)c(OC)c1
REMARK SMILES IDX 9 1 7 2 6 3 5 4 4 5 12 6 10 7 11 8 8 9 3 11 2 12 1 13
REMARK H PARENT 8 10
REMARK Flexibility Score: inf
ROOT
ATOM      1  C   UNL     1      28.341  28.513  25.978  1.00  0.00     0.160 A 
ATOM      2  C   UNL     1      28.765  29.262  27.092  1.00  0.00     0.157 A 
ATOM      3  C   UNL     1      28.835  28.663  28.354  1.00  0.00     0.050 A 
ATOM      4  C   UNL     1      28.484  27.322  28.518  1.00  0.00     0.008 A 
ATOM      5  C   UNL     1      28.049  26.564  27.422  1.00  0.00    -0.040 A 
ATOM      6  C   UNL     1      27.986  27.161  26.153  1.00  0.00     0.054 A 
ENDROOT
BRANCH   1   7
ATOM      7  O   UNL     1      28.286  29.139  24.723  1.00  0.00    -0.493 OA
ATOM      8  C   UNL     1      27.127  29.763  24.181  1.00  0.00     0.278 C 
ENDBRANCH   1   7
BRANCH   2   9
ATOM      9  O   UNL     1      29.123  30.603  26.965  1.00  0.00    -0.504 OA
ATOM     10  H   UNL     1      29.890  30.904  26.374  1.00  0.00     0.293 HD
ENDBRANCH   2   9
BRANCH   5  11
ATOM     11  C   UNL     1      27.700  25.110  27.600  1.00  0.00     0.062 C 
BRANCH  11  12
ATOM     12  C   UNL     1      26.530  24.953  28.530  1.00  0.00    -0.030 C 
ATOM     13  C   UNL     1      25.348  25.523  28.276  1.00  0.00     0.004 C 
ENDBRANCH  11  12
ENDBRANCH   5  11
TORSDOF 4
ENDMDL
