MODEL 1
REMARK VINA RESULT:    -2.779      0.000      0.000
REMARK INTER + INTRA:          -8.089
REMARK INTER:                  -6.029
REMARK INTRA:                  -2.060
REMARK UNBOUND:                -2.060
REMARK SMILES CCCCCCCCCCCCCCCCCCCCCC(=O)[O-]
REMARK SMILES IDX 12 1 11 2 10 3 9 4 8 5 7 6 6 7 5 8 4 9 3 10 2 11 1 12 13 13
REMARK SMILES IDX 14 14 15 15 16 16 17 17 18 18 19 19 20 20 21 21 22 22 23 23
REMARK SMILES IDX 24 24
REMARK H PARENT
REMARK Flexibility Score: inf
ROOT
ATOM      1  C   UNL     1      -9.931   3.474  -7.397  1.00  0.00     0.000 C 
ENDROOT
BRANCH   1   2
ATOM      2  C   UNL     1      -8.874   3.840  -6.329  1.00  0.00     0.000 C 
BRANCH   2   3
ATOM      3  C   UNL     1      -9.402   3.787  -4.876  1.00  0.00     0.000 C 
BRANCH   3   4
ATOM      4  C   UNL     1      -9.784   2.365  -4.425  1.00  0.00    -0.000 C 
BRANCH   4   5
ATOM      5  C   UNL     1      -8.546   1.483  -4.181  1.00  0.00    -0.000 C 
BRANCH   5   6
ATOM      6  C   UNL     1      -7.486   2.174  -3.308  1.00  0.00    -0.000 C 
BRANCH   6   7
ATOM      7  C   UNL     1      -6.116   1.503  -3.485  1.00  0.00    -0.000 C 
BRANCH   7   8
ATOM      8  C   UNL     1      -5.171   1.750  -2.298  1.00  0.00    -0.000 C 
BRANCH   8   9
ATOM      9  C   UNL     1      -5.771   2.602  -1.164  1.00  0.00    -0.000 C 
BRANCH   9  10
ATOM     10  C   UNL     1      -5.599   1.949   0.222  1.00  0.00    -0.000 C 
BRANCH  10  11
ATOM     11  C   UNL     1      -4.756   2.809   1.180  1.00  0.00    -0.003 C 
ATOM     12  C   UNL     1      -5.232   2.720   2.629  1.00  0.00     0.004 C 
ENDBRANCH  10  11
ENDBRANCH   9  10
ENDBRANCH   8   9
ENDBRANCH   7   8
ENDBRANCH   6   7
ENDBRANCH   5   6
ENDBRANCH   4   5
ENDBRANCH   3   4
ENDBRANCH   2   3
ENDBRANCH   1   2
BRANCH   1  13
ATOM     13  C   UNL     1      -9.789   2.045  -7.944  1.00  0.00     0.000 C 
BRANCH  13  14
ATOM     14  C   UNL     1      -8.512   1.864  -8.790  1.00  0.00     0.000 C 
BRANCH  14  15
ATOM     15  C   UNL     1      -8.299   3.028  -9.773  1.00  0.00     0.000 C 
BRANCH  15  16
ATOM     16  C   UNL     1      -6.960   3.773  -9.577  1.00  0.00     0.000 C 
BRANCH  16  17
ATOM     17  C   UNL     1      -7.118   5.278  -9.265  1.00  0.00     0.000 C 
BRANCH  17  18
ATOM     18  C   UNL     1      -8.435   5.873  -9.793  1.00  0.00     0.000 C 
BRANCH  18  19
ATOM     19  C   UNL     1      -8.720   7.232  -9.142  1.00  0.00     0.000 C 
BRANCH  19  20
ATOM     20  C   UNL     1      -9.682   7.088  -7.955  1.00  0.00     0.006 C 
BRANCH  20  21
ATOM     21  C   UNL     1      -9.799   8.384  -7.139  1.00  0.00     0.053 C 
BRANCH  21  22
ATOM     22  C   UNL     1      -9.017   8.310  -5.863  1.00  0.00     0.041 C 
ATOM     23  O   UNL     1      -8.917   9.318  -5.118  1.00  0.00    -0.550 OA
ATOM     24  O   UNL     1      -8.382   7.127  -5.506  1.00  0.00    -0.550 OA
ENDBRANCH  21  22
ENDBRANCH  20  21
ENDBRANCH  19  20
ENDBRANCH  18  19
ENDBRANCH  17  18
ENDBRANCH  16  17
ENDBRANCH  15  16
ENDBRANCH  14  15
ENDBRANCH  13  14
ENDBRANCH   1  13
TORSDOF 20
ENDMDL
MODEL 2
REMARK VINA RESULT:    -2.644      3.174      8.371
REMARK INTER + INTRA:          -7.795
REMARK INTER:                  -6.021
REMARK INTRA:                  -1.774
REMARK UNBOUND:                -2.060
REMARK SMILES CCCCCCCCCCCCCCCCCCCCCC(=O)[O-]
REMARK SMILES IDX 12 1 11 2 10 3 9 4 8 5 7 6 6 7 5 8 4 9 3 10 2 11 1 12 13 13
REMARK SMILES IDX 14 14 15 15 16 16 17 17 18 18 19 19 20 20 21 21 22 22 23 23
REMARK SMILES IDX 24 24
REMARK H PARENT
REMARK Flexibility Score: inf
ROOT
ATOM      1  C   UNL     1      -9.703   5.916  -4.423  1.00  0.00     0.000 C 
ENDROOT
BRANCH   1   2
ATOM      2  C   UNL     1      -8.899   6.932  -5.267  1.00  0.00     0.000 C 
BRANCH   2   3
ATOM      3  C   UNL     1      -9.497   8.359  -5.273  1.00  0.00     0.000 C 
BRANCH   3   4
ATOM      4  C   UNL     1      -9.475   9.015  -6.665  1.00  0.00    -0.000 C 
BRANCH   4   5
ATOM      5  C   UNL     1      -8.132   9.708  -6.958  1.00  0.00    -0.000 C 
BRANCH   5   6
ATOM      6  C   UNL     1      -7.213   8.868  -7.860  1.00  0.00    -0.000 C 
BRANCH   6   7
ATOM      7  C   UNL     1      -7.543   9.104  -9.341  1.00  0.00    -0.000 C 
BRANCH   7   8
ATOM      8  C   UNL     1      -8.594   8.122  -9.883  1.00  0.00    -0.000 C 
BRANCH   8   9
ATOM      9  C   UNL     1      -8.356   6.649  -9.503  1.00  0.00    -0.000 C 
BRANCH   9  10
ATOM     10  C   UNL     1      -9.605   5.986  -8.890  1.00  0.00    -0.000 C 
BRANCH  10  11
ATOM     11  C   UNL     1      -9.406   4.484  -8.621  1.00  0.00    -0.003 C 
ATOM     12  C   UNL     1      -7.972   4.139  -8.222  1.00  0.00     0.004 C 
ENDBRANCH  10  11
ENDBRANCH   9  10
ENDBRANCH   8   9
ENDBRANCH   7   8
ENDBRANCH   6   7
ENDBRANCH   5   6
ENDBRANCH   4   5
ENDBRANCH   3   4
ENDBRANCH   2   3
ENDBRANCH   1   2
BRANCH   1  13
ATOM     13  C   UNL     1     -10.096   4.645  -5.193  1.00  0.00     0.000 C 
BRANCH  13  14
ATOM     14  C   UNL     1      -9.891   3.364  -4.359  1.00  0.00     0.000 C 
BRANCH  14  15
ATOM     15  C   UNL     1      -9.242   2.237  -5.180  1.00  0.00     0.000 C 
BRANCH  15  16
ATOM     16  C   UNL     1      -8.322   1.312  -4.352  1.00  0.00     0.000 C 
BRANCH  16  17
ATOM     17  C   UNL     1      -7.382   2.064  -3.384  1.00  0.00     0.000 C 
BRANCH  17  18
ATOM     18  C   UNL     1      -5.943   1.518  -3.388  1.00  0.00     0.000 C 
BRANCH  18  19
ATOM     19  C   UNL     1      -5.244   1.812  -2.055  1.00  0.00     0.000 C 
BRANCH  19  20
ATOM     20  C   UNL     1      -6.117   2.697  -1.154  1.00  0.00     0.006 C 
BRANCH  20  21
ATOM     21  C   UNL     1      -5.322   3.304   0.012  1.00  0.00     0.053 C 
BRANCH  21  22
ATOM     22  C   UNL     1      -5.163   2.335   1.142  1.00  0.00     0.041 C 
ATOM     23  O   UNL     1      -5.115   1.098   0.918  1.00  0.00    -0.550 OA
ATOM     24  O   UNL     1      -5.088   2.798   2.450  1.00  0.00    -0.550 OA
ENDBRANCH  21  22
ENDBRANCH  20  21
ENDBRANCH  19  20
ENDBRANCH  18  19
ENDBRANCH  17  18
ENDBRANCH  16  17
ENDBRANCH  15  16
ENDBRANCH  14  15
ENDBRANCH  13  14
ENDBRANCH   1  13
TORSDOF 20
ENDMDL
MODEL 3
REMARK VINA RESULT:    -2.629      3.008      7.979
REMARK INTER + INTRA:          -7.763
REMARK INTER:                  -5.736
REMARK INTRA:                  -2.027
REMARK UNBOUND:                -2.060
REMARK SMILES CCCCCCCCCCCCCCCCCCCCCC(=O)[O-]
REMARK SMILES IDX 12 1 11 2 10 3 9 4 8 5 7 6 6 7 5 8 4 9 3 10 2 11 1 12 13 13
REMARK SMILES IDX 14 14 15 15 16 16 17 17 18 18 19 19 20 20 21 21 22 22 23 23
REMARK SMILES IDX 24 24
REMARK H PARENT
REMARK Flexibility Score: inf
ROOT
ATOM      1  C   UNL     1      -8.015   2.760  -8.232  1.00  0.00     0.000 C 
ENDROOT
BRANCH   1   2
ATOM      2  C   UNL     1      -7.587   3.652  -9.421  1.00  0.00     0.000 C 
BRANCH   2   3
ATOM      3  C   UNL     1      -7.216   5.099  -9.022  1.00  0.00     0.000 C 
BRANCH   3   4
ATOM      4  C   UNL     1      -8.326   5.808  -8.225  1.00  0.00    -0.000 C 
BRANCH   4   5
ATOM      5  C   UNL     1      -7.824   6.327  -6.866  1.00  0.00    -0.000 C 
BRANCH   5   6
ATOM      6  C   UNL     1      -8.822   7.279  -6.187  1.00  0.00    -0.000 C 
BRANCH   6   7
ATOM      7  C   UNL     1      -9.230   8.410  -7.143  1.00  0.00    -0.000 C 
BRANCH   7   8
ATOM      8  C   UNL     1      -8.375   9.676  -6.972  1.00  0.00    -0.000 C 
BRANCH   8   9
ATOM      9  C   UNL     1      -7.095   9.708  -7.826  1.00  0.00    -0.000 C 
BRANCH   9  10
ATOM     10  C   UNL     1      -7.346   9.283  -9.287  1.00  0.00    -0.000 C 
BRANCH  10  11
ATOM     11  C   UNL     1      -6.112   8.631  -9.933  1.00  0.00    -0.003 C 
ATOM     12  C   UNL     1      -4.807   9.330  -9.556  1.00  0.00     0.004 C 
ENDBRANCH  10  11
ENDBRANCH   9  10
ENDBRANCH   8   9
ENDBRANCH   7   8
ENDBRANCH   6   7
ENDBRANCH   5   6
ENDBRANCH   4   5
ENDBRANCH   3   4
ENDBRANCH   2   3
ENDBRANCH   1   2
BRANCH   1  13
ATOM     13  C   UNL     1      -9.457   2.238  -8.338  1.00  0.00     0.000 C 
BRANCH  13  14
ATOM     14  C   UNL     1      -9.988   1.699  -6.994  1.00  0.00     0.000 C 
BRANCH  14  15
ATOM     15  C   UNL     1      -9.111   0.563  -6.440  1.00  0.00     0.000 C 
BRANCH  15  16
ATOM     16  C   UNL     1      -8.823   0.680  -4.926  1.00  0.00     0.000 C 
BRANCH  16  17
ATOM     17  C   UNL     1      -8.973   2.111  -4.366  1.00  0.00     0.000 C 
BRANCH  17  18
ATOM     18  C   UNL     1      -7.741   2.588  -3.578  1.00  0.00     0.000 C 
BRANCH  18  19
ATOM     19  C   UNL     1      -6.675   1.487  -3.513  1.00  0.00     0.000 C 
BRANCH  19  20
ATOM     20  C   UNL     1      -5.509   1.896  -2.601  1.00  0.00     0.006 C 
BRANCH  20  21
ATOM     21  C   UNL     1      -5.980   2.697  -1.378  1.00  0.00     0.053 C 
BRANCH  21  22
ATOM     22  C   UNL     1      -5.382   2.175  -0.108  1.00  0.00     0.041 C 
ATOM     23  O   UNL     1      -4.704   1.116  -0.112  1.00  0.00    -0.550 OA
ATOM     24  O   UNL     1      -5.591   2.851   1.088  1.00  0.00    -0.550 OA
ENDBRANCH  21  22
ENDBRANCH  20  21
ENDBRANCH  19  20
ENDBRANCH  18  19
ENDBRANCH  17  18
ENDBRANCH  16  17
ENDBRANCH  15  16
ENDBRANCH  14  15
ENDBRANCH  13  14
ENDBRANCH   1  13
TORSDOF 20
ENDMDL
MODEL 4
REMARK VINA RESULT:    -2.530      2.854      7.784
REMARK INTER + INTRA:          -7.548
REMARK INTER:                  -4.852
REMARK INTRA:                  -2.696
REMARK UNBOUND:                -2.060
REMARK SMILES CCCCCCCCCCCCCCCCCCCCCC(=O)[O-]
REMARK SMILES IDX 12 1 11 2 10 3 9 4 8 5 7 6 6 7 5 8 4 9 3 10 2 11 1 12 13 13
REMARK SMILES IDX 14 14 15 15 16 16 17 17 18 18 19 19 20 20 21 21 22 22 23 23
REMARK SMILES IDX 24 24
REMARK H PARENT
REMARK Flexibility Score: inf
ROOT
ATOM      1  C   UNL     1      -8.788   4.751  -6.718  1.00  0.00     0.000 C 
ENDROOT
BRANCH   1   2
ATOM      2  C   UNL     1      -9.522   6.008  -6.194  1.00  0.00     0.000 C 
BRANCH   2   3
ATOM      3  C   UNL     1      -8.664   6.896  -5.263  1.00  0.00     0.000 C 
BRANCH   3   4
ATOM      4  C   UNL     1      -9.413   8.145  -4.764  1.00  0.00    -0.000 C 
BRANCH   4   5
ATOM      5  C   UNL     1      -9.673   9.155  -5.896  1.00  0.00    -0.000 C 
BRANCH   5   6
ATOM      6  C   UNL     1      -8.402   9.502  -6.688  1.00  0.00    -0.000 C 
BRANCH   6   7
ATOM      7  C   UNL     1      -8.759  10.011  -8.093  1.00  0.00    -0.000 C 
BRANCH   7   8
ATOM      8  C   UNL     1     -10.066   9.408  -8.633  1.00  0.00    -0.000 C 
BRANCH   8   9
ATOM      9  C   UNL     1      -9.904   8.553  -9.902  1.00  0.00    -0.000 C 
BRANCH   9  10
ATOM     10  C   UNL     1      -9.960   7.040  -9.609  1.00  0.00    -0.000 C 
BRANCH  10  11
ATOM     11  C   UNL     1      -8.689   6.303 -10.064  1.00  0.00    -0.003 C 
ATOM     12  C   UNL     1      -7.416   6.884  -9.450  1.00  0.00     0.004 C 
ENDBRANCH  10  11
ENDBRANCH   9  10
ENDBRANCH   8   9
ENDBRANCH   7   8
ENDBRANCH   6   7
ENDBRANCH   5   6
ENDBRANCH   4   5
ENDBRANCH   3   4
ENDBRANCH   2   3
ENDBRANCH   1   2
BRANCH   1  13
ATOM     13  C   UNL     1      -9.718   3.722  -7.379  1.00  0.00     0.000 C 
BRANCH  13  14
ATOM     14  C   UNL     1      -9.009   2.912  -8.483  1.00  0.00     0.000 C 
BRANCH  14  15
ATOM     15  C   UNL     1      -9.897   1.780  -9.031  1.00  0.00     0.000 C 
BRANCH  15  16
ATOM     16  C   UNL     1     -10.121   0.624  -8.031  1.00  0.00     0.000 C 
BRANCH  16  17
ATOM     17  C   UNL     1      -8.894   0.312  -7.145  1.00  0.00     0.000 C 
BRANCH  17  18
ATOM     18  C   UNL     1      -9.254   0.088  -5.666  1.00  0.00     0.000 C 
BRANCH  18  19
ATOM     19  C   UNL     1      -8.948   1.340  -4.835  1.00  0.00     0.000 C 
BRANCH  19  20
ATOM     20  C   UNL     1      -7.608   1.204  -4.098  1.00  0.00     0.006 C 
BRANCH  20  21
ATOM     21  C   UNL     1      -7.399   2.316  -3.060  1.00  0.00     0.053 C 
BRANCH  21  22
ATOM     22  C   UNL     1      -6.077   2.188  -2.366  1.00  0.00     0.041 C 
ATOM     23  O   UNL     1      -5.916   2.658  -1.211  1.00  0.00    -0.550 OA
ATOM     24  O   UNL     1      -5.014   1.564  -3.008  1.00  0.00    -0.550 OA
ENDBRANCH  21  22
ENDBRANCH  20  21
ENDBRANCH  19  20
ENDBRANCH  18  19
ENDBRANCH  17  18
ENDBRANCH  16  17
ENDBRANCH  15  16
ENDBRANCH  14  15
ENDBRANCH  13  14
ENDBRANCH   1  13
TORSDOF 20
ENDMDL
MODEL 5
REMARK VINA RESULT:    -2.470      1.305      2.391
REMARK INTER + INTRA:          -7.418
REMARK INTER:                  -6.188
REMARK INTRA:                  -1.231
REMARK UNBOUND:                -2.060
REMARK SMILES CCCCCCCCCCCCCCCCCCCCCC(=O)[O-]
REMARK SMILES IDX 12 1 11 2 10 3 9 4 8 5 7 6 6 7 5 8 4 9 3 10 2 11 1 12 13 13
REMARK SMILES IDX 14 14 15 15 16 16 17 17 18 18 19 19 20 20 21 21 22 22 23 23
REMARK SMILES IDX 24 24
REMARK H PARENT
REMARK Flexibility Score: inf
ROOT
ATOM      1  C   UNL     1      -9.217   3.083  -8.887  1.00  0.00     0.000 C 
ENDROOT
BRANCH   1   2
ATOM      2  C   UNL     1      -9.783   2.589  -7.535  1.00  0.00     0.000 C 
BRANCH   2   3
ATOM      3  C   UNL     1     -10.015   1.061  -7.470  1.00  0.00     0.000 C 
BRANCH   3   4
ATOM      4  C   UNL     1      -9.969   0.506  -6.034  1.00  0.00    -0.000 C 
BRANCH   4   5
ATOM      5  C   UNL     1      -9.456   1.549  -5.026  1.00  0.00    -0.000 C 
BRANCH   5   6
ATOM      6  C   UNL     1      -8.057   1.214  -4.482  1.00  0.00    -0.000 C 
BRANCH   6   7
ATOM      7  C   UNL     1      -7.628   2.236  -3.420  1.00  0.00    -0.000 C 
BRANCH   7   8
ATOM      8  C   UNL     1      -6.266   1.907  -2.788  1.00  0.00    -0.000 C 
BRANCH   8   9
ATOM      9  C   UNL     1      -5.847   2.840  -1.638  1.00  0.00    -0.000 C 
BRANCH   9  10
ATOM     10  C   UNL     1      -5.531   2.073  -0.338  1.00  0.00    -0.000 C 
BRANCH  10  11
ATOM     11  C   UNL     1      -5.830   2.901   0.924  1.00  0.00    -0.003 C 
ATOM     12  C   UNL     1      -4.961   2.499   2.115  1.00  0.00     0.004 C 
ENDBRANCH  10  11
ENDBRANCH   9  10
ENDBRANCH   8   9
ENDBRANCH   7   8
ENDBRANCH   6   7
ENDBRANCH   5   6
ENDBRANCH   4   5
ENDBRANCH   3   4
ENDBRANCH   2   3
ENDBRANCH   1   2
BRANCH   1  13
ATOM     13  C   UNL     1      -7.871   3.815  -8.763  1.00  0.00     0.000 C 
BRANCH  13  14
ATOM     14  C   UNL     1      -7.579   4.720  -9.977  1.00  0.00     0.000 C 
BRANCH  14  15
ATOM     15  C   UNL     1      -6.878   6.026  -9.569  1.00  0.00     0.000 C 
BRANCH  15  16
ATOM     16  C   UNL     1      -7.642   6.836  -8.497  1.00  0.00     0.000 C 
BRANCH  16  17
ATOM     17  C   UNL     1      -7.872   8.316  -8.874  1.00  0.00     0.000 C 
BRANCH  17  18
ATOM     18  C   UNL     1      -7.895   9.256  -7.656  1.00  0.00     0.000 C 
BRANCH  18  19
ATOM     19  C   UNL     1      -9.250   9.965  -7.538  1.00  0.00     0.000 C 
BRANCH  19  20
ATOM     20  C   UNL     1     -10.058   9.425  -6.350  1.00  0.00     0.006 C 
BRANCH  20  21
ATOM     21  C   UNL     1      -9.181   9.183  -5.112  1.00  0.00     0.053 C 
BRANCH  21  22
ATOM     22  C   UNL     1      -9.385   7.812  -4.546  1.00  0.00     0.041 C 
ATOM     23  O   UNL     1     -10.107   7.643  -3.529  1.00  0.00    -0.550 OA
ATOM     24  O   UNL     1      -8.760   6.718  -5.132  1.00  0.00    -0.550 OA
ENDBRANCH  21  22
ENDBRANCH  20  21
ENDBRANCH  19  20
ENDBRANCH  18  19
ENDBRANCH  17  18
ENDBRANCH  16  17
ENDBRANCH  15  16
ENDBRANCH  14  15
ENDBRANCH  13  14
ENDBRANCH   1  13
TORSDOF 20
ENDMDL
MODEL 6
REMARK VINA RESULT:    -2.336      2.870      7.241
REMARK INTER + INTRA:          -7.128
REMARK INTER:                  -4.477
REMARK INTRA:                  -2.651
REMARK UNBOUND:                -2.060
REMARK SMILES CCCCCCCCCCCCCCCCCCCCCC(=O)[O-]
REMARK SMILES IDX 12 1 11 2 10 3 9 4 8 5 7 6 6 7 5 8 4 9 3 10 2 11 1 12 13 13
REMARK SMILES IDX 14 14 15 15 16 16 17 17 18 18 19 19 20 20 21 21 22 22 23 23
REMARK SMILES IDX 24 24
REMARK H PARENT
REMARK Flexibility Score: inf
ROOT
ATOM      1  C   UNL     1      -9.338   4.276  -7.874  1.00  0.00     0.000 C 
ENDROOT
BRANCH   1   2
ATOM      2  C   UNL     1      -7.844   4.291  -8.275  1.00  0.00     0.000 C 
BRANCH   2   3
ATOM      3  C   UNL     1      -7.510   5.266  -9.428  1.00  0.00     0.000 C 
BRANCH   3   4
ATOM      4  C   UNL     1      -8.440   6.492  -9.467  1.00  0.00    -0.000 C 
BRANCH   4   5
ATOM      5  C   UNL     1      -7.665   7.800  -9.706  1.00  0.00    -0.000 C 
BRANCH   5   6
ATOM      6  C   UNL     1      -8.589   9.009  -9.926  1.00  0.00    -0.000 C 
BRANCH   6   7
ATOM      7  C   UNL     1      -8.468  10.005  -8.763  1.00  0.00    -0.000 C 
BRANCH   7   8
ATOM      8  C   UNL     1      -7.818   9.388  -7.513  1.00  0.00    -0.000 C 
BRANCH   8   9
ATOM      9  C   UNL     1      -8.716   9.372  -6.263  1.00  0.00    -0.000 C 
BRANCH   9  10
ATOM     10  C   UNL     1     -10.021   8.580  -6.480  1.00  0.00    -0.000 C 
BRANCH  10  11
ATOM     11  C   UNL     1     -10.001   7.206  -5.790  1.00  0.00    -0.003 C 
ATOM     12  C   UNL     1      -8.623   6.839  -5.241  1.00  0.00     0.004 C 
ENDBRANCH  10  11
ENDBRANCH   9  10
ENDBRANCH   8   9
ENDBRANCH   7   8
ENDBRANCH   6   7
ENDBRANCH   5   6
ENDBRANCH   4   5
ENDBRANCH   3   4
ENDBRANCH   2   3
ENDBRANCH   1   2
BRANCH   1  13
ATOM     13  C   UNL     1     -10.047   2.946  -8.179  1.00  0.00     0.000 C 
BRANCH  13  14
ATOM     14  C   UNL     1      -9.173   1.993  -9.019  1.00  0.00     0.000 C 
BRANCH  14  15
ATOM     15  C   UNL     1      -9.368   0.522  -8.614  1.00  0.00     0.000 C 
BRANCH  15  16
ATOM     16  C   UNL     1     -10.125   0.337  -7.279  1.00  0.00     0.000 C 
BRANCH  16  17
ATOM     17  C   UNL     1      -9.414  -0.598  -6.277  1.00  0.00     0.000 C 
BRANCH  17  18
ATOM     18  C   UNL     1      -9.219   0.034  -4.888  1.00  0.00     0.000 C 
BRANCH  18  19
ATOM     19  C   UNL     1      -9.573   1.527  -4.913  1.00  0.00     0.000 C 
BRANCH  19  20
ATOM     20  C   UNL     1      -8.344   2.393  -4.604  1.00  0.00     0.006 C 
BRANCH  20  21
ATOM     21  C   UNL     1      -8.091   2.528  -3.095  1.00  0.00     0.053 C 
BRANCH  21  22
ATOM     22  C   UNL     1      -6.685   2.163  -2.732  1.00  0.00     0.041 C 
ATOM     23  O   UNL     1      -6.194   2.534  -1.635  1.00  0.00    -0.550 OA
ATOM     24  O   UNL     1      -5.907   1.426  -3.617  1.00  0.00    -0.550 OA
ENDBRANCH  21  22
ENDBRANCH  20  21
ENDBRANCH  19  20
ENDBRANCH  18  19
ENDBRANCH  17  18
ENDBRANCH  16  17
ENDBRANCH  15  16
ENDBRANCH  14  15
ENDBRANCH  13  14
ENDBRANCH   1  13
TORSDOF 20
ENDMDL
MODEL 7
REMARK VINA RESULT:    -2.328      2.966      7.790
REMARK INTER + INTRA:          -7.110
REMARK INTER:                  -5.279
REMARK INTRA:                  -1.831
REMARK UNBOUND:                -2.060
REMARK SMILES CCCCCCCCCCCCCCCCCCCCCC(=O)[O-]
REMARK SMILES IDX 12 1 11 2 10 3 9 4 8 5 7 6 6 7 5 8 4 9 3 10 2 11 1 12 13 13
REMARK SMILES IDX 14 14 15 15 16 16 17 17 18 18 19 19 20 20 21 21 22 22 23 23
REMARK SMILES IDX 24 24
REMARK H PARENT
REMARK Flexibility Score: inf
ROOT
ATOM      1  C   UNL     1      -9.727   1.040  -8.190  1.00  0.00     0.000 C 
ENDROOT
BRANCH   1   2
ATOM      2  C   UNL     1      -9.040   1.862  -9.305  1.00  0.00     0.000 C 
BRANCH   2   3
ATOM      3  C   UNL     1      -9.097   3.392  -9.086  1.00  0.00     0.000 C 
BRANCH   3   4
ATOM      4  C   UNL     1      -8.771   3.806  -7.639  1.00  0.00    -0.000 C 
BRANCH   4   5
ATOM      5  C   UNL     1      -8.173   5.222  -7.562  1.00  0.00    -0.000 C 
BRANCH   5   6
ATOM      6  C   UNL     1      -8.404   6.037  -8.846  1.00  0.00    -0.000 C 
BRANCH   6   7
ATOM      7  C   UNL     1      -9.384   7.190  -8.587  1.00  0.00    -0.000 C 
BRANCH   7   8
ATOM      8  C   UNL     1      -8.829   8.555  -9.026  1.00  0.00    -0.000 C 
BRANCH   8   9
ATOM      9  C   UNL     1      -7.415   8.873  -8.507  1.00  0.00    -0.000 C 
BRANCH   9  10
ATOM     10  C   UNL     1      -7.431   9.772  -7.254  1.00  0.00    -0.000 C 
BRANCH  10  11
ATOM     11  C   UNL     1      -8.850   9.984  -6.697  1.00  0.00    -0.003 C 
ATOM     12  C   UNL     1      -9.107   9.194  -5.415  1.00  0.00     0.004 C 
ENDBRANCH  10  11
ENDBRANCH   9  10
ENDBRANCH   8   9
ENDBRANCH   7   8
ENDBRANCH   6   7
ENDBRANCH   5   6
ENDBRANCH   4   5
ENDBRANCH   3   4
ENDBRANCH   2   3
ENDBRANCH   1   2
BRANCH   1  13
ATOM     13  C   UNL     1      -8.786   0.053  -7.481  1.00  0.00     0.000 C 
BRANCH  13  14
ATOM     14  C   UNL     1      -8.984   0.046  -5.952  1.00  0.00     0.000 C 
BRANCH  14  15
ATOM     15  C   UNL     1     -10.125   0.980  -5.512  1.00  0.00     0.000 C 
BRANCH  15  16
ATOM     16  C   UNL     1      -9.836   1.742  -4.199  1.00  0.00     0.000 C 
BRANCH  16  17
ATOM     17  C   UNL     1      -8.634   2.708  -4.285  1.00  0.00     0.000 C 
BRANCH  17  18
ATOM     18  C   UNL     1      -7.711   2.640  -3.056  1.00  0.00     0.000 C 
BRANCH  18  19
ATOM     19  C   UNL     1      -6.617   1.583  -3.253  1.00  0.00     0.000 C 
BRANCH  19  20
ATOM     20  C   UNL     1      -5.402   1.869  -2.360  1.00  0.00     0.006 C 
BRANCH  20  21
ATOM     21  C   UNL     1      -5.784   2.634  -1.084  1.00  0.00     0.053 C 
BRANCH  21  22
ATOM     22  C   UNL     1      -5.219   1.987   0.143  1.00  0.00     0.041 C 
ATOM     23  O   UNL     1      -4.571   0.913   0.055  1.00  0.00    -0.550 OA
ATOM     24  O   UNL     1      -5.426   2.563   1.390  1.00  0.00    -0.550 OA
ENDBRANCH  21  22
ENDBRANCH  20  21
ENDBRANCH  19  20
ENDBRANCH  18  19
ENDBRANCH  17  18
ENDBRANCH  16  17
ENDBRANCH  15  16
ENDBRANCH  14  15
ENDBRANCH  13  14
ENDBRANCH   1  13
TORSDOF 20
ENDMDL
MODEL 8
REMARK VINA RESULT:    -2.266      2.594      7.750
REMARK INTER + INTRA:          -6.974
REMARK INTER:                  -5.321
REMARK INTRA:                  -1.653
REMARK UNBOUND:                -2.060
REMARK SMILES CCCCCCCCCCCCCCCCCCCCCC(=O)[O-]
REMARK SMILES IDX 12 1 11 2 10 3 9 4 8 5 7 6 6 7 5 8 4 9 3 10 2 11 1 12 13 13
REMARK SMILES IDX 14 14 15 15 16 16 17 17 18 18 19 19 20 20 21 21 22 22 23 23
REMARK SMILES IDX 24 24
REMARK H PARENT
REMARK Flexibility Score: inf
ROOT
ATOM      1  C   UNL     1      -8.798   2.755  -8.589  1.00  0.00     0.000 C 
ENDROOT
BRANCH   1   2
ATOM      2  C   UNL     1      -8.082   3.442  -9.775  1.00  0.00     0.000 C 
BRANCH   2   3
ATOM      3  C   UNL     1      -7.088   4.551  -9.354  1.00  0.00     0.000 C 
BRANCH   3   4
ATOM      4  C   UNL     1      -7.391   5.911 -10.007  1.00  0.00    -0.000 C 
BRANCH   4   5
ATOM      5  C   UNL     1      -7.502   7.041  -8.969  1.00  0.00    -0.000 C 
BRANCH   5   6
ATOM      6  C   UNL     1      -8.899   7.684  -8.934  1.00  0.00    -0.000 C 
BRANCH   6   7
ATOM      7  C   UNL     1      -8.795   9.214  -9.010  1.00  0.00    -0.000 C 
BRANCH   7   8
ATOM      8  C   UNL     1      -9.007   9.895  -7.648  1.00  0.00    -0.000 C 
BRANCH   8   9
ATOM      9  C   UNL     1      -9.816   9.067  -6.633  1.00  0.00    -0.000 C 
BRANCH   9  10
ATOM     10  C   UNL     1      -9.258   9.177  -5.200  1.00  0.00    -0.000 C 
BRANCH  10  11
ATOM     11  C   UNL     1      -9.177   7.814  -4.491  1.00  0.00    -0.003 C 
ATOM     12  C   UNL     1      -8.576   6.722  -5.375  1.00  0.00     0.004 C 
ENDBRANCH  10  11
ENDBRANCH   9  10
ENDBRANCH   8   9
ENDBRANCH   7   8
ENDBRANCH   6   7
ENDBRANCH   5   6
ENDBRANCH   4   5
ENDBRANCH   3   4
ENDBRANCH   2   3
ENDBRANCH   1   2
BRANCH   1  13
ATOM     13  C   UNL     1      -9.258   3.730  -7.494  1.00  0.00     0.000 C 
BRANCH  13  14
ATOM     14  C   UNL     1      -9.543   3.020  -6.155  1.00  0.00     0.000 C 
BRANCH  14  15
ATOM     15  C   UNL     1      -9.548   1.489  -6.302  1.00  0.00     0.000 C 
BRANCH  15  16
ATOM     16  C   UNL     1      -9.159   0.737  -5.010  1.00  0.00     0.000 C 
BRANCH  16  17
ATOM     17  C   UNL     1      -8.593   1.648  -3.898  1.00  0.00     0.000 C 
BRANCH  17  18
ATOM     18  C   UNL     1      -7.066   1.546  -3.748  1.00  0.00     0.000 C 
BRANCH  18  19
ATOM     19  C   UNL     1      -6.580   2.363  -2.544  1.00  0.00     0.000 C 
BRANCH  19  20
ATOM     20  C   UNL     1      -5.220   1.858  -2.043  1.00  0.00     0.006 C 
BRANCH  20  21
ATOM     21  C   UNL     1      -5.266   1.422  -0.571  1.00  0.00     0.053 C 
BRANCH  21  22
ATOM     22  C   UNL     1      -5.201   2.594   0.359  1.00  0.00     0.041 C 
ATOM     23  O   UNL     1      -5.151   2.418   1.603  1.00  0.00    -0.550 OA
ATOM     24  O   UNL     1      -5.215   3.887  -0.151  1.00  0.00    -0.550 OA
ENDBRANCH  21  22
ENDBRANCH  20  21
ENDBRANCH  19  20
ENDBRANCH  18  19
ENDBRANCH  17  18
ENDBRANCH  16  17
ENDBRANCH  15  16
ENDBRANCH  14  15
ENDBRANCH  13  14
ENDBRANCH   1  13
TORSDOF 20
ENDMDL
MODEL 9
REMARK VINA RESULT:    -2.215      2.542      3.347
REMARK INTER + INTRA:          -6.865
REMARK INTER:                  -5.899
REMARK INTRA:                  -0.966
REMARK UNBOUND:                -2.060
REMARK SMILES CCCCCCCCCCCCCCCCCCCCCC(=O)[O-]
REMARK SMILES IDX 12 1 11 2 10 3 9 4 8 5 7 6 6 7 5 8 4 9 3 10 2 11 1 12 13 13
REMARK SMILES IDX 14 14 15 15 16 16 17 17 18 18 19 19 20 20 21 21 22 22 23 23
REMARK SMILES IDX 24 24
REMARK H PARENT
REMARK Flexibility Score: inf
ROOT
ATOM      1  C   UNL     1     -10.116   2.953  -6.631  1.00  0.00     0.000 C 
ENDROOT
BRANCH   1   2
ATOM      2  C   UNL     1      -9.041   2.101  -7.346  1.00  0.00     0.000 C 
BRANCH   2   3
ATOM      3  C   UNL     1      -9.001   0.624  -6.889  1.00  0.00     0.000 C 
BRANCH   3   4
ATOM      4  C   UNL     1      -9.506   0.425  -5.449  1.00  0.00    -0.000 C 
BRANCH   4   5
ATOM      5  C   UNL     1      -8.459   0.850  -4.404  1.00  0.00    -0.000 C 
BRANCH   5   6
ATOM      6  C   UNL     1      -8.720   2.256  -3.838  1.00  0.00    -0.000 C 
BRANCH   6   7
ATOM      7  C   UNL     1      -7.596   2.672  -2.878  1.00  0.00    -0.000 C 
BRANCH   7   8
ATOM      8  C   UNL     1      -6.325   1.822  -3.040  1.00  0.00    -0.000 C 
BRANCH   8   9
ATOM      9  C   UNL     1      -5.432   1.753  -1.788  1.00  0.00    -0.000 C 
BRANCH   9  10
ATOM     10  C   UNL     1      -5.555   3.010  -0.903  1.00  0.00    -0.000 C 
BRANCH  10  11
ATOM     11  C   UNL     1      -5.919   2.673   0.553  1.00  0.00    -0.003 C 
ATOM     12  C   UNL     1      -4.692   2.531   1.453  1.00  0.00     0.004 C 
ENDBRANCH  10  11
ENDBRANCH   9  10
ENDBRANCH   8   9
ENDBRANCH   7   8
ENDBRANCH   6   7
ENDBRANCH   5   6
ENDBRANCH   4   5
ENDBRANCH   3   4
ENDBRANCH   2   3
ENDBRANCH   1   2
BRANCH   1  13
ATOM     13  C   UNL     1     -10.080   4.441  -7.011  1.00  0.00     0.000 C 
BRANCH  13  14
ATOM     14  C   UNL     1      -9.263   5.284  -6.011  1.00  0.00     0.000 C 
BRANCH  14  15
ATOM     15  C   UNL     1      -9.341   6.789  -6.324  1.00  0.00     0.000 C 
BRANCH  15  16
ATOM     16  C   UNL     1      -8.233   7.287  -7.278  1.00  0.00     0.000 C 
BRANCH  16  17
ATOM     17  C   UNL     1      -7.761   6.228  -8.300  1.00  0.00     0.000 C 
BRANCH  17  18
ATOM     18  C   UNL     1      -7.375   6.828  -9.662  1.00  0.00     0.000 C 
BRANCH  18  19
ATOM     19  C   UNL     1      -7.902   8.263  -9.796  1.00  0.00     0.000 C 
BRANCH  19  20
ATOM     20  C   UNL     1      -6.766   9.242 -10.125  1.00  0.00     0.006 C 
BRANCH  20  21
ATOM     21  C   UNL     1      -6.108   9.816  -8.861  1.00  0.00     0.053 C 
BRANCH  21  22
ATOM     22  C   UNL     1      -4.616   9.862  -8.983  1.00  0.00     0.041 C 
ATOM     23  O   UNL     1      -4.072   9.968 -10.112  1.00  0.00    -0.550 OA
ATOM     24  O   UNL     1      -3.823   9.767  -7.846  1.00  0.00    -0.550 OA
ENDBRANCH  21  22
ENDBRANCH  20  21
ENDBRANCH  19  20
ENDBRANCH  18  19
ENDBRANCH  17  18
ENDBRANCH  16  17
ENDBRANCH  15  16
ENDBRANCH  14  15
ENDBRANCH  13  14
ENDBRANCH   1  13
TORSDOF 20
ENDMDL
