MODEL 1
REMARK VINA RESULT:    -3.344      0.000      0.000
REMARK INTER + INTRA:          -4.038
REMARK INTER:                  -4.029
REMARK INTRA:                  -0.010
REMARK UNBOUND:                -0.010
REMARK SMILES CCCCCO
REMARK SMILES IDX 4 1 3 2 2 3 1 4 5 5 6 6
REMARK H PARENT 6 7
REMARK Flexibility Score: inf
ROOT
ATOM      1  C   UNL     1      21.899  22.858  22.727  1.00  0.00     0.028 C 
ENDROOT
BRANCH   1   2
ATOM      2  C   UNL     1      21.000  22.749  23.966  1.00  0.00     0.002 C 
BRANCH   2   3
ATOM      3  C   UNL     1      21.124  23.998  24.846  1.00  0.00    -0.003 C 
ATOM      4  C   UNL     1      19.810  24.770  24.896  1.00  0.00     0.004 C 
ENDBRANCH   2   3
ENDBRANCH   1   2
BRANCH   1   5
ATOM      5  C   UNL     1      21.908  21.559  21.917  1.00  0.00     0.156 C 
BRANCH   5   6
ATOM      6  O   UNL     1      23.071  21.482  21.140  1.00  0.00    -0.396 OA
ATOM      7  H   UNL     1      23.729  20.972  21.680  1.00  0.00     0.210 HD
ENDBRANCH   5   6
ENDBRANCH   1   5
TORSDOF 4
ENDMDL
MODEL 2
REMARK VINA RESULT:    -3.212      8.521      9.248
REMARK INTER + INTRA:          -3.879
REMARK INTER:                  -3.870
REMARK INTRA:                  -0.009
REMARK UNBOUND:                -0.010
REMARK SMILES CCCCCO
REMARK SMILES IDX 4 1 3 2 2 3 1 4 5 5 6 6
REMARK H PARENT 6 7
REMARK Flexibility Score: inf
ROOT
ATOM      1  C   UNL     1      29.222  24.838  21.112  1.00  0.00     0.028 C 
ENDROOT
BRANCH   1   2
ATOM      2  C   UNL     1      29.757  25.759  22.217  1.00  0.00     0.002 C 
BRANCH   2   3
ATOM      3  C   UNL     1      31.017  25.169  22.860  1.00  0.00    -0.003 C 
ATOM      4  C   UNL     1      31.997  26.267  23.263  1.00  0.00     0.004 C 
ENDBRANCH   2   3
ENDBRANCH   1   2
BRANCH   1   5
ATOM      5  C   UNL     1      28.641  25.635  19.943  1.00  0.00     0.156 C 
BRANCH   5   6
ATOM      6  O   UNL     1      27.409  26.196  20.305  1.00  0.00    -0.396 OA
ATOM      7  H   UNL     1      27.138  26.776  19.547  1.00  0.00     0.210 HD
ENDBRANCH   5   6
ENDBRANCH   1   5
TORSDOF 4
ENDMDL
MODEL 3
REMARK VINA RESULT:    -3.181      2.116      3.225
REMARK INTER + INTRA:          -3.842
REMARK INTER:                  -3.809
REMARK INTRA:                  -0.033
REMARK UNBOUND:                -0.010
REMARK SMILES CCCCCO
REMARK SMILES IDX 4 1 3 2 2 3 1 4 5 5 6 6
REMARK H PARENT 6 7
REMARK Flexibility Score: inf
ROOT
ATOM      1  C   UNL     1      22.997  23.368  22.473  1.00  0.00     0.028 C 
ENDROOT
BRANCH   1   2
ATOM      2  C   UNL     1      21.785  23.092  23.374  1.00  0.00     0.002 C 
BRANCH   2   3
ATOM      3  C   UNL     1      21.249  21.673  23.152  1.00  0.00    -0.003 C 
ATOM      4  C   UNL     1      21.652  21.138  21.782  1.00  0.00     0.004 C 
ENDBRANCH   2   3
ENDBRANCH   1   2
BRANCH   1   5
ATOM      5  C   UNL     1      24.168  23.955  23.264  1.00  0.00     0.156 C 
BRANCH   5   6
ATOM      6  O   UNL     1      25.363  23.790  22.551  1.00  0.00    -0.396 OA
ATOM      7  H   UNL     1      26.094  23.993  23.191  1.00  0.00     0.210 HD
ENDBRANCH   5   6
ENDBRANCH   1   5
TORSDOF 4
ENDMDL
MODEL 4
REMARK VINA RESULT:    -3.152      8.632      9.026
REMARK INTER + INTRA:          -3.807
REMARK INTER:                  -3.798
REMARK INTRA:                  -0.009
REMARK UNBOUND:                -0.010
REMARK SMILES CCCCCO
REMARK SMILES IDX 4 1 3 2 2 3 1 4 5 5 6 6
REMARK H PARENT 6 7
REMARK Flexibility Score: inf
ROOT
ATOM      1  C   UNL     1      28.663  25.881  20.004  1.00  0.00     0.028 C 
ENDROOT
BRANCH   1   2
ATOM      2  C   UNL     1      29.111  25.023  21.195  1.00  0.00     0.002 C 
BRANCH   2   3
ATOM      3  C   UNL     1      29.665  25.899  22.325  1.00  0.00    -0.003 C 
ATOM      4  C   UNL     1      30.981  25.344  22.859  1.00  0.00     0.004 C 
ENDBRANCH   2   3
ENDBRANCH   1   2
BRANCH   1   5
ATOM      5  C   UNL     1      28.703  25.094  18.693  1.00  0.00     0.156 C 
BRANCH   5   6
ATOM      6  O   UNL     1      28.907  25.964  17.613  1.00  0.00    -0.396 OA
ATOM      7  H   UNL     1      28.050  26.445  17.482  1.00  0.00     0.210 HD
ENDBRANCH   5   6
ENDBRANCH   1   5
TORSDOF 4
ENDMDL
MODEL 5
REMARK VINA RESULT:    -3.108      7.175      8.254
REMARK INTER + INTRA:          -3.754
REMARK INTER:                  -3.738
REMARK INTRA:                  -0.015
REMARK UNBOUND:                -0.010
REMARK SMILES CCCCCO
REMARK SMILES IDX 4 1 3 2 2 3 1 4 5 5 6 6
REMARK H PARENT 6 7
REMARK Flexibility Score: inf
ROOT
ATOM      1  C   UNL     1      27.919  26.260  22.336  1.00  0.00     0.028 C 
ENDROOT
BRANCH   1   2
ATOM      2  C   UNL     1      28.415  25.329  21.221  1.00  0.00     0.002 C 
BRANCH   2   3
ATOM      3  C   UNL     1      28.735  26.120  19.948  1.00  0.00    -0.003 C 
ATOM      4  C   UNL     1      28.749  25.212  18.723  1.00  0.00     0.004 C 
ENDBRANCH   2   3
ENDBRANCH   1   2
BRANCH   1   5
ATOM      5  C   UNL     1      26.410  26.128  22.555  1.00  0.00     0.156 C 
BRANCH   5   6
ATOM      6  O   UNL     1      25.852  27.380  22.845  1.00  0.00    -0.396 OA
ATOM      7  H   UNL     1      24.888  27.310  22.620  1.00  0.00     0.210 HD
ENDBRANCH   5   6
ENDBRANCH   1   5
TORSDOF 4
ENDMDL
MODEL 6
REMARK VINA RESULT:    -3.032      2.336      3.894
REMARK INTER + INTRA:          -3.662
REMARK INTER:                  -3.635
REMARK INTRA:                  -0.027
REMARK UNBOUND:                -0.010
REMARK SMILES CCCCCO
REMARK SMILES IDX 4 1 3 2 2 3 1 4 5 5 6 6
REMARK H PARENT 6 7
REMARK Flexibility Score: inf
ROOT
ATOM      1  C   UNL     1      21.121  22.703  23.773  1.00  0.00     0.028 C 
ENDROOT
BRANCH   1   2
ATOM      2  C   UNL     1      22.203  22.973  22.717  1.00  0.00     0.002 C 
BRANCH   2   3
ATOM      3  C   UNL     1      22.292  21.817  21.715  1.00  0.00    -0.003 C 
ATOM      4  C   UNL     1      21.193  20.788  21.960  1.00  0.00     0.004 C 
ENDBRANCH   2   3
ENDBRANCH   1   2
BRANCH   1   5
ATOM      5  C   UNL     1      21.093  23.793  24.846  1.00  0.00     0.156 C 
BRANCH   5   6
ATOM      6  O   UNL     1      20.348  24.892  24.400  1.00  0.00    -0.396 OA
ATOM      7  H   UNL     1      19.416  24.733  24.700  1.00  0.00     0.210 HD
ENDBRANCH   5   6
ENDBRANCH   1   5
TORSDOF 4
ENDMDL
MODEL 7
REMARK VINA RESULT:    -2.948     14.734     15.354
REMARK INTER + INTRA:          -3.560
REMARK INTER:                  -3.528
REMARK INTRA:                  -0.033
REMARK UNBOUND:                -0.010
REMARK SMILES CCCCCO
REMARK SMILES IDX 4 1 3 2 2 3 1 4 5 5 6 6
REMARK H PARENT 6 7
REMARK Flexibility Score: inf
ROOT
ATOM      1  C   UNL     1      15.949  14.091  12.308  1.00  0.00     0.028 C 
ENDROOT
BRANCH   1   2
ATOM      2  C   UNL     1      16.238  13.552  13.716  1.00  0.00     0.002 C 
BRANCH   2   3
ATOM      3  C   UNL     1      14.997  12.876  14.310  1.00  0.00    -0.003 C 
ATOM      4  C   UNL     1      13.719  13.578  13.863  1.00  0.00     0.004 C 
ENDBRANCH   2   3
ENDBRANCH   1   2
BRANCH   1   5
ATOM      5  C   UNL     1      16.259  13.052  11.229  1.00  0.00     0.156 C 
BRANCH   5   6
ATOM      6  O   UNL     1      17.563  13.227  10.748  1.00  0.00    -0.396 OA
ATOM      7  H   UNL     1      18.165  12.856  11.444  1.00  0.00     0.210 HD
ENDBRANCH   5   6
ENDBRANCH   1   5
TORSDOF 4
ENDMDL
MODEL 8
REMARK VINA RESULT:    -2.922      1.918      2.845
REMARK INTER + INTRA:          -3.529
REMARK INTER:                  -3.483
REMARK INTRA:                  -0.046
REMARK UNBOUND:                -0.010
REMARK SMILES CCCCCO
REMARK SMILES IDX 4 1 3 2 2 3 1 4 5 5 6 6
REMARK H PARENT 6 7
REMARK Flexibility Score: inf
ROOT
ATOM      1  C   UNL     1      21.187  22.319  23.365  1.00  0.00     0.028 C 
ENDROOT
BRANCH   1   2
ATOM      2  C   UNL     1      22.197  23.457  23.564  1.00  0.00     0.002 C 
BRANCH   2   3
ATOM      3  C   UNL     1      23.337  23.364  22.543  1.00  0.00    -0.003 C 
ATOM      4  C   UNL     1      24.571  24.122  23.024  1.00  0.00     0.004 C 
ENDBRANCH   2   3
ENDBRANCH   1   2
BRANCH   1   5
ATOM      5  C   UNL     1      21.589  21.401  22.208  1.00  0.00     0.156 C 
BRANCH   5   6
ATOM      6  O   UNL     1      20.785  20.254  22.199  1.00  0.00    -0.396 OA
ATOM      7  H   UNL     1      21.367  19.512  21.892  1.00  0.00     0.210 HD
ENDBRANCH   5   6
ENDBRANCH   1   5
TORSDOF 4
ENDMDL
MODEL 9
REMARK VINA RESULT:    -2.912      7.324      7.853
REMARK INTER + INTRA:          -3.517
REMARK INTER:                  -3.507
REMARK INTRA:                  -0.010
REMARK UNBOUND:                -0.010
REMARK SMILES CCCCCO
REMARK SMILES IDX 4 1 3 2 2 3 1 4 5 5 6 6
REMARK H PARENT 6 7
REMARK Flexibility Score: inf
ROOT
ATOM      1  C   UNL     1      28.739  26.084  20.037  1.00  0.00     0.028 C 
ENDROOT
BRANCH   1   2
ATOM      2  C   UNL     1      28.274  25.335  21.294  1.00  0.00     0.002 C 
BRANCH   2   3
ATOM      3  C   UNL     1      27.715  26.309  22.337  1.00  0.00    -0.003 C 
ATOM      4  C   UNL     1      26.265  25.978  22.678  1.00  0.00     0.004 C 
ENDBRANCH   2   3
ENDBRANCH   1   2
BRANCH   1   5
ATOM      5  C   UNL     1      28.799  25.162  18.818  1.00  0.00     0.156 C 
BRANCH   5   6
ATOM      6  O   UNL     1      28.882  25.919  17.642  1.00  0.00    -0.396 OA
ATOM      7  H   UNL     1      28.555  25.331  16.913  1.00  0.00     0.210 HD
ENDBRANCH   5   6
ENDBRANCH   1   5
TORSDOF 4
ENDMDL
