MODEL 1
REMARK VINA RESULT:     8.814      0.000      0.000
REMARK INTER + INTRA:          10.574
REMARK INTER:                  10.360
REMARK INTRA:                   0.215
REMARK UNBOUND:                 0.215
REMARK SMILES C=C(C)[C@@H]1CC[C@]2(CO)CC[C@]3(C)[C@@H](CC[C@@H]4[C@]5(C)CC[C@H](O)C(C)(C)[C@@H]5CC[C@]43C)[C@H]12
REMARK SMILES IDX 4 1 5 2 6 3 7 4 32 5 14 6 15 7 16 8 17 9 18 10 20 11 21 12
REMARK SMILES IDX 22 13 24 14 27 15 28 16 29 17 30 18 12 19 11 20 10 21 13 22
REMARK SMILES IDX 31 23 25 24 26 25 19 26 2 27 3 28 1 29 8 30 9 31 23 33
REMARK H PARENT 9 32 23 34
REMARK Flexibility Score: inf
ROOT
ATOM      1  C   UNL     1      24.368  18.553   5.869  1.00  0.00     0.018 C 
ATOM      2  C   UNL     1      25.846  18.840   5.609  1.00  0.00     0.009 C 
ATOM      3  C   UNL     1      26.084  18.545   4.144  1.00  0.00     0.010 C 
ATOM      4  C   UNL     1      25.102  17.414   3.760  1.00  0.00    -0.003 C 
ATOM      5  C   UNL     1      23.941  17.473   4.813  1.00  0.00     0.008 C 
ATOM      6  C   UNL     1      22.496  17.633   4.206  1.00  0.00    -0.000 C 
ATOM      7  C   UNL     1      21.378  17.547   5.283  1.00  0.00     0.005 C 
ATOM      8  C   UNL     1      20.792  16.154   5.496  1.00  0.00     0.005 C 
ATOM      9  C   UNL     1      20.257  15.567   4.168  1.00  0.00     0.002 C 
ATOM     10  C   UNL     1      19.168  14.399   4.359  1.00  0.00    -0.026 C 
ATOM     11  C   UNL     1      19.555  13.440   5.537  1.00  0.00     0.010 C 
ATOM     12  C   UNL     1      18.686  12.183   5.662  1.00  0.00     0.033 C 
ATOM     13  C   UNL     1      18.639  11.383   4.359  1.00  0.00     0.120 C 
ATOM     14  C   UNL     1      18.096  12.224   3.164  1.00  0.00    -0.006 C 
ATOM     15  C   UNL     1      18.900  13.594   2.999  1.00  0.00     0.003 C 
ATOM     16  C   UNL     1      20.172  13.427   2.123  1.00  0.00     0.005 C 
ATOM     17  C   UNL     1      20.887  14.755   1.876  1.00  0.00     0.008 C 
ATOM     18  C   UNL     1      21.464  15.373   3.171  1.00  0.00    -0.024 C 
ATOM     19  C   UNL     1      22.165  16.816   2.869  1.00  0.00    -0.024 C 
ATOM     20  C   UNL     1      23.451  16.662   1.966  1.00  0.00     0.008 C 
ATOM     21  C   UNL     1      24.574  17.642   2.319  1.00  0.00     0.010 C 
ATOM     22  C   UNL     1      21.217  17.755   2.033  1.00  0.00     0.012 C 
ATOM     23  C   UNL     1      22.512  14.357   3.739  1.00  0.00     0.012 C 
ATOM     24  C   UNL     1      16.577  12.495   3.354  1.00  0.00     0.014 C 
ATOM     25  C   UNL     1      18.167  11.343   1.880  1.00  0.00     0.014 C 
ATOM     26  C   UNL     1      17.834  15.123   4.779  1.00  0.00     0.012 C 
ENDROOT
BRANCH   1  27
ATOM     27  C   UNL     1      23.568  19.865   5.935  1.00  0.00    -0.077 C 
ATOM     28  C   UNL     1      22.425  20.072   6.898  1.00  0.00     0.039 C 
ATOM     29  C   UNL     1      23.815  20.841   5.044  1.00  0.00     0.008 C 
ENDBRANCH   1  27
BRANCH   4  30
ATOM     30  C   UNL     1      25.869  16.059   3.870  1.00  0.00     0.163 C 
BRANCH  30  31
ATOM     31  O   UNL     1      26.077  15.494   2.603  1.00  0.00    -0.396 OA
ATOM     32  H   UNL     1      25.238  15.637   2.092  1.00  0.00     0.210 HD
ENDBRANCH  30  31
ENDBRANCH   4  30
BRANCH  13  33
ATOM     33  O   UNL     1      19.933  10.896   4.090  1.00  0.00    -0.393 OA
ATOM     34  H   UNL     1      20.409  10.814   4.958  1.00  0.00     0.210 HD
ENDBRANCH  13  33
TORSDOF 4
ENDMDL
MODEL 2
REMARK VINA RESULT:     9.073      2.403      7.071
REMARK INTER + INTRA:          10.879
REMARK INTER:                   9.533
REMARK INTRA:                   1.346
REMARK UNBOUND:                 0.215
REMARK SMILES C=C(C)[C@@H]1CC[C@]2(CO)CC[C@]3(C)[C@@H](CC[C@@H]4[C@]5(C)CC[C@H](O)C(C)(C)[C@@H]5CC[C@]43C)[C@H]12
REMARK SMILES IDX 4 1 5 2 6 3 7 4 32 5 14 6 15 7 16 8 17 9 18 10 20 11 21 12
REMARK SMILES IDX 22 13 24 14 27 15 28 16 29 17 30 18 12 19 11 20 10 21 13 22
REMARK SMILES IDX 31 23 25 24 26 25 19 26 2 27 3 28 1 29 8 30 9 31 23 33
REMARK H PARENT 9 32 23 34
REMARK Flexibility Score: inf
ROOT
ATOM      1  C   UNL     1      23.902  12.694   3.591  1.00  0.00     0.018 C 
ATOM      2  C   UNL     1      23.137  11.424   3.223  1.00  0.00     0.009 C 
ATOM      3  C   UNL     1      21.846  11.880   2.577  1.00  0.00     0.010 C 
ATOM      4  C   UNL     1      21.480  13.230   3.236  1.00  0.00    -0.003 C 
ATOM      5  C   UNL     1      22.819  13.809   3.811  1.00  0.00     0.008 C 
ATOM      6  C   UNL     1      23.197  15.250   3.300  1.00  0.00    -0.000 C 
ATOM      7  C   UNL     1      24.457  15.827   4.006  1.00  0.00     0.005 C 
ATOM      8  C   UNL     1      24.173  16.681   5.239  1.00  0.00     0.005 C 
ATOM      9  C   UNL     1      23.209  17.843   4.900  1.00  0.00     0.002 C 
ATOM     10  C   UNL     1      23.276  19.074   5.934  1.00  0.00    -0.026 C 
ATOM     11  C   UNL     1      23.406  18.573   7.414  1.00  0.00     0.010 C 
ATOM     12  C   UNL     1      23.272  19.665   8.482  1.00  0.00     0.033 C 
ATOM     13  C   UNL     1      21.973  20.460   8.334  1.00  0.00     0.120 C 
ATOM     14  C   UNL     1      21.848  21.138   6.936  1.00  0.00    -0.006 C 
ATOM     15  C   UNL     1      22.045  20.084   5.753  1.00  0.00     0.003 C 
ATOM     16  C   UNL     1      20.718  19.372   5.372  1.00  0.00     0.005 C 
ATOM     17  C   UNL     1      20.880  18.440   4.172  1.00  0.00     0.008 C 
ATOM     18  C   UNL     1      21.817  17.244   4.467  1.00  0.00    -0.024 C 
ATOM     19  C   UNL     1      22.007  16.310   3.142  1.00  0.00    -0.024 C 
ATOM     20  C   UNL     1      20.660  15.593   2.735  1.00  0.00     0.008 C 
ATOM     21  C   UNL     1      20.858  14.179   2.180  1.00  0.00     0.010 C 
ATOM     22  C   UNL     1      22.383  17.170   1.878  1.00  0.00     0.012 C 
ATOM     23  C   UNL     1      21.164  16.425   5.632  1.00  0.00     0.012 C 
ATOM     24  C   UNL     1      22.875  22.300   6.816  1.00  0.00     0.014 C 
ATOM     25  C   UNL     1      20.462  21.848   6.864  1.00  0.00     0.014 C 
ATOM     26  C   UNL     1      24.607  19.845   5.594  1.00  0.00     0.012 C 
ENDROOT
BRANCH   1  27
ATOM     27  C   UNL     1      25.027  12.960   2.575  1.00  0.00    -0.077 C 
ATOM     28  C   UNL     1      25.216  14.298   1.903  1.00  0.00     0.039 C 
ATOM     29  C   UNL     1      25.822  11.950   2.182  1.00  0.00     0.008 C 
ENDBRANCH   1  27
BRANCH   4  30
ATOM     30  C   UNL     1      20.472  12.938   4.392  1.00  0.00     0.163 C 
BRANCH  30  31
ATOM     31  O   UNL     1      19.213  12.585   3.886  1.00  0.00    -0.396 OA
ATOM     32  H   UNL     1      18.634  12.414   4.674  1.00  0.00     0.210 HD
ENDBRANCH  30  31
ENDBRANCH   4  30
BRANCH  13  33
ATOM     33  O   UNL     1      20.891  19.591   8.574  1.00  0.00    -0.393 OA
ATOM     34  H   UNL     1      20.059  20.131   8.535  1.00  0.00     0.210 HD
ENDBRANCH  13  33
TORSDOF 4
ENDMDL
