MODEL 1
REMARK VINA RESULT:    -5.425      0.000      0.000
REMARK INTER + INTRA:         -13.321
REMARK INTER:                 -10.499
REMARK INTRA:                  -2.822
REMARK UNBOUND:                -2.822
REMARK SMILES CCCCCC=CCC=CCCCCCCCCOC(C)=O
REMARK SMILES IDX 12 1 11 2 10 3 9 4 8 5 7 6 6 7 5 8 4 9 3 10 2 11 1 12 13 13
REMARK SMILES IDX 14 14 15 15 16 16 17 17 18 18 19 19 20 20 22 21 21 22
REMARK H PARENT
REMARK Flexibility Score: inf
ROOT
ATOM      1  C   UNL     1      31.254  -1.225  16.795  1.00  0.00     0.004 C 
ENDROOT
BRANCH   1   2
ATOM      2  C   UNL     1      32.117  -1.733  17.957  1.00  0.00     0.027 C 
BRANCH   2   3
ATOM      3  C   UNL     1      33.553  -1.916  17.544  1.00  0.00    -0.031 C 
ATOM      4  C   UNL     1      34.563  -1.678  18.395  1.00  0.00    -0.027 C 
BRANCH   4   5
ATOM      5  C   UNL     1      35.997  -1.768  17.959  1.00  0.00     0.054 C 
BRANCH   5   6
ATOM      6  C   UNL     1      36.621  -0.395  17.939  1.00  0.00    -0.027 C 
ATOM      7  C   UNL     1      36.894   0.325  16.833  1.00  0.00    -0.031 C 
BRANCH   7   8
ATOM      8  C   UNL     1      36.692  -0.136  15.410  1.00  0.00     0.027 C 
BRANCH   8   9
ATOM      9  C   UNL     1      35.342   0.330  14.847  1.00  0.00     0.004 C 
BRANCH   9  10
ATOM     10  C   UNL     1      34.882   1.665  15.460  1.00  0.00     0.000 C 
BRANCH  10  11
ATOM     11  C   UNL     1      33.505   1.560  16.134  1.00  0.00    -0.003 C 
ATOM     12  C   UNL     1      33.548   1.895  17.626  1.00  0.00     0.004 C 
ENDBRANCH  10  11
ENDBRANCH   9  10
ENDBRANCH   8   9
ENDBRANCH   7   8
ENDBRANCH   5   6
ENDBRANCH   4   5
ENDBRANCH   2   3
ENDBRANCH   1   2
BRANCH   1  13
ATOM     13  C   UNL     1      30.065  -0.381  17.281  1.00  0.00     0.000 C 
BRANCH  13  14
ATOM     14  C   UNL     1      29.676  -0.675  18.741  1.00  0.00     0.000 C 
BRANCH  14  15
ATOM     15  C   UNL     1      28.288  -0.162  19.166  1.00  0.00     0.000 C 
BRANCH  15  16
ATOM     16  C   UNL     1      27.685  -0.964  20.333  1.00  0.00     0.003 C 
BRANCH  16  17
ATOM     17  C   UNL     1      28.593  -2.117  20.799  1.00  0.00     0.042 C 
BRANCH  17  18
ATOM     18  C   UNL     1      27.896  -3.487  20.781  1.00  0.00     0.233 C 
BRANCH  18  19
ATOM     19  O   UNL     1      28.011  -4.121  19.509  1.00  0.00    -0.466 OA
BRANCH  19  20
ATOM     20  C   UNL     1      29.237  -4.471  18.931  1.00  0.00     0.302 C 
ATOM     21  O   UNL     1      30.183  -4.914  19.640  1.00  0.00    -0.253 OA
ATOM     22  C   UNL     1      29.403  -4.375  17.453  1.00  0.00     0.139 C 
ENDBRANCH  19  20
ENDBRANCH  18  19
ENDBRANCH  17  18
ENDBRANCH  16  17
ENDBRANCH  15  16
ENDBRANCH  14  15
ENDBRANCH  13  14
ENDBRANCH   1  13
TORSDOF 16
ENDMDL
MODEL 2
REMARK VINA RESULT:    -5.342      1.614      3.378
REMARK INTER + INTRA:         -13.161
REMARK INTER:                 -10.296
REMARK INTRA:                  -2.865
REMARK UNBOUND:                -2.822
REMARK SMILES CCCCCC=CCC=CCCCCCCCCOC(C)=O
REMARK SMILES IDX 12 1 11 2 10 3 9 4 8 5 7 6 6 7 5 8 4 9 3 10 2 11 1 12 13 13
REMARK SMILES IDX 14 14 15 15 16 16 17 17 18 18 19 19 20 20 22 21 21 22
REMARK H PARENT
REMARK Flexibility Score: inf
ROOT
ATOM      1  C   UNL     1      31.309  -1.493  16.893  1.00  0.00     0.004 C 
ENDROOT
BRANCH   1   2
ATOM      2  C   UNL     1      32.068  -0.908  18.092  1.00  0.00     0.027 C 
BRANCH   2   3
ATOM      3  C   UNL     1      32.783   0.366  17.729  1.00  0.00    -0.031 C 
ATOM      4  C   UNL     1      33.014   0.700  16.450  1.00  0.00    -0.027 C 
BRANCH   4   5
ATOM      5  C   UNL     1      33.809   1.921  16.087  1.00  0.00     0.054 C 
BRANCH   5   6
ATOM      6  C   UNL     1      35.024   1.530  15.283  1.00  0.00    -0.027 C 
ATOM      7  C   UNL     1      36.284   1.459  15.752  1.00  0.00    -0.031 C 
BRANCH   7   8
ATOM      8  C   UNL     1      36.727   1.825  17.148  1.00  0.00     0.027 C 
BRANCH   8   9
ATOM      9  C   UNL     1      36.511   0.668  18.135  1.00  0.00     0.004 C 
BRANCH   9  10
ATOM     10  C   UNL     1      36.977  -0.682  17.563  1.00  0.00     0.000 C 
BRANCH  10  11
ATOM     11  C   UNL     1      35.893  -1.768  17.660  1.00  0.00    -0.003 C 
ATOM     12  C   UNL     1      35.341  -2.178  16.294  1.00  0.00     0.004 C 
ENDBRANCH  10  11
ENDBRANCH   9  10
ENDBRANCH   8   9
ENDBRANCH   7   8
ENDBRANCH   5   6
ENDBRANCH   4   5
ENDBRANCH   2   3
ENDBRANCH   1   2
BRANCH   1  13
ATOM     13  C   UNL     1      30.529  -2.764  17.265  1.00  0.00     0.000 C 
BRANCH  13  14
ATOM     14  C   UNL     1      30.415  -2.978  18.785  1.00  0.00     0.000 C 
BRANCH  14  15
ATOM     15  C   UNL     1      29.396  -4.044  19.224  1.00  0.00     0.000 C 
BRANCH  15  16
ATOM     16  C   UNL     1      28.565  -3.612  20.446  1.00  0.00     0.003 C 
BRANCH  16  17
ATOM     17  C   UNL     1      28.812  -2.148  20.849  1.00  0.00     0.042 C 
BRANCH  17  18
ATOM     18  C   UNL     1      27.610  -1.229  20.576  1.00  0.00     0.233 C 
BRANCH  18  19
ATOM     19  O   UNL     1      27.086  -1.422  19.263  1.00  0.00    -0.466 OA
BRANCH  19  20
ATOM     20  C   UNL     1      27.597  -0.780  18.129  1.00  0.00     0.302 C 
ATOM     21  O   UNL     1      27.300  -1.182  16.970  1.00  0.00    -0.253 OA
ATOM     22  C   UNL     1      28.453   0.429  18.296  1.00  0.00     0.139 C 
ENDBRANCH  19  20
ENDBRANCH  18  19
ENDBRANCH  17  18
ENDBRANCH  16  17
ENDBRANCH  15  16
ENDBRANCH  14  15
ENDBRANCH  13  14
ENDBRANCH   1  13
TORSDOF 16
ENDMDL
MODEL 3
REMARK VINA RESULT:    -5.319      3.957      8.480
REMARK INTER + INTRA:         -13.115
REMARK INTER:                 -10.934
REMARK INTRA:                  -2.181
REMARK UNBOUND:                -2.822
REMARK SMILES CCCCCC=CCC=CCCCCCCCCOC(C)=O
REMARK SMILES IDX 12 1 11 2 10 3 9 4 8 5 7 6 6 7 5 8 4 9 3 10 2 11 1 12 13 13
REMARK SMILES IDX 14 14 15 15 16 16 17 17 18 18 19 19 20 20 22 21 21 22
REMARK H PARENT
REMARK Flexibility Score: inf
ROOT
ATOM      1  C   UNL     1      33.729   1.919  17.392  1.00  0.00     0.004 C 
ENDROOT
BRANCH   1   2
ATOM      2  C   UNL     1      33.284   0.568  17.967  1.00  0.00     0.027 C 
BRANCH   2   3
ATOM      3  C   UNL     1      31.993   0.099  17.350  1.00  0.00    -0.031 C 
ATOM      4  C   UNL     1      31.861  -1.142  16.858  1.00  0.00    -0.027 C 
BRANCH   4   5
ATOM      5  C   UNL     1      30.608  -1.581  16.157  1.00  0.00     0.054 C 
BRANCH   5   6
ATOM      6  C   UNL     1      29.991  -2.752  16.880  1.00  0.00    -0.027 C 
ATOM      7  C   UNL     1      28.675  -3.031  16.941  1.00  0.00    -0.031 C 
BRANCH   7   8
ATOM      8  C   UNL     1      27.568  -2.186  16.357  1.00  0.00     0.027 C 
BRANCH   8   9
ATOM      9  C   UNL     1      26.938  -1.266  17.413  1.00  0.00     0.004 C 
BRANCH   9  10
ATOM     10  C   UNL     1      27.571   0.136  17.420  1.00  0.00     0.000 C 
BRANCH  10  11
ATOM     11  C   UNL     1      28.527   0.345  18.604  1.00  0.00    -0.003 C 
ATOM     12  C   UNL     1      28.281  -0.643  19.746  1.00  0.00     0.004 C 
ENDBRANCH  10  11
ENDBRANCH   9  10
ENDBRANCH   8   9
ENDBRANCH   7   8
ENDBRANCH   5   6
ENDBRANCH   4   5
ENDBRANCH   2   3
ENDBRANCH   1   2
BRANCH   1  13
ATOM     13  C   UNL     1      33.925   1.866  15.869  1.00  0.00     0.000 C 
BRANCH  13  14
ATOM     14  C   UNL     1      35.367   1.519  15.460  1.00  0.00     0.000 C 
BRANCH  14  15
ATOM     15  C   UNL     1      35.589   0.066  15.002  1.00  0.00     0.000 C 
BRANCH  15  16
ATOM     16  C   UNL     1      36.058  -0.856  16.142  1.00  0.00     0.003 C 
BRANCH  16  17
ATOM     17  C   UNL     1      37.592  -0.945  16.247  1.00  0.00     0.042 C 
BRANCH  17  18
ATOM     18  C   UNL     1      38.226   0.271  16.943  1.00  0.00     0.233 C 
BRANCH  18  19
ATOM     19  O   UNL     1      39.349   0.767  16.216  1.00  0.00    -0.466 OA
BRANCH  19  20
ATOM     20  C   UNL     1      39.236   1.491  15.023  1.00  0.00     0.302 C 
ATOM     21  O   UNL     1      39.281   0.905  13.906  1.00  0.00    -0.253 OA
ATOM     22  C   UNL     1      39.001   2.961  15.080  1.00  0.00     0.139 C 
ENDBRANCH  19  20
ENDBRANCH  18  19
ENDBRANCH  17  18
ENDBRANCH  16  17
ENDBRANCH  15  16
ENDBRANCH  14  15
ENDBRANCH  13  14
ENDBRANCH   1  13
TORSDOF 16
ENDMDL
MODEL 4
REMARK VINA RESULT:    -5.301      3.420      8.272
REMARK INTER + INTRA:         -13.081
REMARK INTER:                 -10.859
REMARK INTRA:                  -2.222
REMARK UNBOUND:                -2.822
REMARK SMILES CCCCCC=CCC=CCCCCCCCCOC(C)=O
REMARK SMILES IDX 12 1 11 2 10 3 9 4 8 5 7 6 6 7 5 8 4 9 3 10 2 11 1 12 13 13
REMARK SMILES IDX 14 14 15 15 16 16 17 17 18 18 19 19 20 20 22 21 21 22
REMARK H PARENT
REMARK Flexibility Score: inf
ROOT
ATOM      1  C   UNL     1      34.128   1.895  16.942  1.00  0.00     0.004 C 
ENDROOT
BRANCH   1   2
ATOM      2  C   UNL     1      33.449   1.151  18.100  1.00  0.00     0.027 C 
BRANCH   2   3
ATOM      3  C   UNL     1      32.386   0.206  17.607  1.00  0.00    -0.031 C 
ATOM      4  C   UNL     1      32.114  -0.939  18.250  1.00  0.00    -0.027 C 
BRANCH   4   5
ATOM      5  C   UNL     1      31.122  -1.928  17.709  1.00  0.00     0.054 C 
BRANCH   5   6
ATOM      6  C   UNL     1      29.725  -1.371  17.808  1.00  0.00    -0.027 C 
ATOM      7  C   UNL     1      28.950  -1.387  18.910  1.00  0.00    -0.031 C 
BRANCH   7   8
ATOM      8  C   UNL     1      29.309  -2.029  20.229  1.00  0.00     0.027 C 
BRANCH   8   9
ATOM      9  C   UNL     1      28.593  -3.374  20.420  1.00  0.00     0.004 C 
BRANCH   9  10
ATOM     10  C   UNL     1      29.303  -4.525  19.687  1.00  0.00     0.000 C 
BRANCH  10  11
ATOM     11  C   UNL     1      28.413  -5.180  18.618  1.00  0.00    -0.003 C 
ATOM     12  C   UNL     1      28.984  -5.043  17.206  1.00  0.00     0.004 C 
ENDBRANCH  10  11
ENDBRANCH   9  10
ENDBRANCH   8   9
ENDBRANCH   7   8
ENDBRANCH   5   6
ENDBRANCH   4   5
ENDBRANCH   2   3
ENDBRANCH   1   2
BRANCH   1  13
ATOM     13  C   UNL     1      33.909   1.190  15.593  1.00  0.00     0.000 C 
BRANCH  13  14
ATOM     14  C   UNL     1      35.213   0.992  14.800  1.00  0.00     0.000 C 
BRANCH  14  15
ATOM     15  C   UNL     1      35.730  -0.457  14.737  1.00  0.00     0.000 C 
BRANCH  15  16
ATOM     16  C   UNL     1      35.331  -1.290  15.968  1.00  0.00     0.003 C 
BRANCH  16  17
ATOM     17  C   UNL     1      36.507  -1.536  16.930  1.00  0.00     0.042 C 
BRANCH  17  18
ATOM     18  C   UNL     1      37.155  -0.240  17.444  1.00  0.00     0.233 C 
BRANCH  18  19
ATOM     19  O   UNL     1      38.579  -0.298  17.373  1.00  0.00    -0.466 OA
BRANCH  19  20
ATOM     20  C   UNL     1      39.292  -0.266  16.169  1.00  0.00     0.302 C 
ATOM     21  O   UNL     1      40.070  -1.209  15.853  1.00  0.00    -0.253 OA
ATOM     22  C   UNL     1      39.081   0.867  15.224  1.00  0.00     0.139 C 
ENDBRANCH  19  20
ENDBRANCH  18  19
ENDBRANCH  17  18
ENDBRANCH  16  17
ENDBRANCH  15  16
ENDBRANCH  14  15
ENDBRANCH  13  14
ENDBRANCH   1  13
TORSDOF 16
ENDMDL
MODEL 5
REMARK VINA RESULT:    -5.263      1.242      2.800
REMARK INTER + INTRA:         -13.007
REMARK INTER:                 -10.126
REMARK INTRA:                  -2.881
REMARK UNBOUND:                -2.822
REMARK SMILES CCCCCC=CCC=CCCCCCCCCOC(C)=O
REMARK SMILES IDX 12 1 11 2 10 3 9 4 8 5 7 6 6 7 5 8 4 9 3 10 2 11 1 12 13 13
REMARK SMILES IDX 14 14 15 15 16 16 17 17 18 18 19 19 20 20 22 21 21 22
REMARK H PARENT
REMARK Flexibility Score: inf
ROOT
ATOM      1  C   UNL     1      30.779  -2.402  17.063  1.00  0.00     0.004 C 
ENDROOT
BRANCH   1   2
ATOM      2  C   UNL     1      31.771  -1.598  17.914  1.00  0.00     0.027 C 
BRANCH   2   3
ATOM      3  C   UNL     1      32.197  -0.330  17.223  1.00  0.00    -0.031 C 
ATOM      4  C   UNL     1      32.992   0.565  17.829  1.00  0.00    -0.027 C 
BRANCH   4   5
ATOM      5  C   UNL     1      33.341   1.873  17.180  1.00  0.00     0.054 C 
BRANCH   5   6
ATOM      6  C   UNL     1      33.842   1.639  15.777  1.00  0.00    -0.027 C 
ATOM      7  C   UNL     1      35.131   1.466  15.423  1.00  0.00    -0.031 C 
BRANCH   7   8
ATOM      8  C   UNL     1      36.317   1.544  16.353  1.00  0.00     0.027 C 
BRANCH   8   9
ATOM      9  C   UNL     1      36.937   0.161  16.601  1.00  0.00     0.004 C 
BRANCH   9  10
ATOM     10  C   UNL     1      36.478  -0.456  17.934  1.00  0.00     0.000 C 
BRANCH  10  11
ATOM     11  C   UNL     1      35.784  -1.814  17.746  1.00  0.00    -0.003 C 
ATOM     12  C   UNL     1      35.357  -2.066  16.299  1.00  0.00     0.004 C 
ENDBRANCH  10  11
ENDBRANCH   9  10
ENDBRANCH   8   9
ENDBRANCH   7   8
ENDBRANCH   5   6
ENDBRANCH   4   5
ENDBRANCH   2   3
ENDBRANCH   1   2
BRANCH   1  13
ATOM     13  C   UNL     1      30.119  -1.541  15.973  1.00  0.00     0.000 C 
BRANCH  13  14
ATOM     14  C   UNL     1      28.695  -1.090  16.343  1.00  0.00     0.000 C 
BRANCH  14  15
ATOM     15  C   UNL     1      28.591   0.317  16.959  1.00  0.00     0.000 C 
BRANCH  15  16
ATOM     16  C   UNL     1      28.025   0.304  18.391  1.00  0.00     0.003 C 
BRANCH  16  17
ATOM     17  C   UNL     1      27.957  -1.111  18.993  1.00  0.00     0.042 C 
BRANCH  17  18
ATOM     18  C   UNL     1      28.865  -1.297  20.220  1.00  0.00     0.233 C 
BRANCH  18  19
ATOM     19  O   UNL     1      29.324  -2.642  20.338  1.00  0.00    -0.466 OA
BRANCH  19  20
ATOM     20  C   UNL     1      28.485  -3.756  20.213  1.00  0.00     0.302 C 
ATOM     21  O   UNL     1      27.506  -3.918  20.993  1.00  0.00    -0.253 OA
ATOM     22  C   UNL     1      28.717  -4.726  19.106  1.00  0.00     0.139 C 
ENDBRANCH  19  20
ENDBRANCH  18  19
ENDBRANCH  17  18
ENDBRANCH  16  17
ENDBRANCH  15  16
ENDBRANCH  14  15
ENDBRANCH  13  14
ENDBRANCH   1  13
TORSDOF 16
ENDMDL
MODEL 6
REMARK VINA RESULT:    -5.250      3.931      8.823
REMARK INTER + INTRA:         -12.983
REMARK INTER:                 -10.972
REMARK INTRA:                  -2.010
REMARK UNBOUND:                -2.822
REMARK SMILES CCCCCC=CCC=CCCCCCCCCOC(C)=O
REMARK SMILES IDX 12 1 11 2 10 3 9 4 8 5 7 6 6 7 5 8 4 9 3 10 2 11 1 12 13 13
REMARK SMILES IDX 14 14 15 15 16 16 17 17 18 18 19 19 20 20 22 21 21 22
REMARK H PARENT
REMARK Flexibility Score: inf
ROOT
ATOM      1  C   UNL     1      32.577  -0.683  16.630  1.00  0.00     0.004 C 
ENDROOT
BRANCH   1   2
ATOM      2  C   UNL     1      32.146  -1.532  17.834  1.00  0.00     0.027 C 
BRANCH   2   3
ATOM      3  C   UNL     1      30.671  -1.830  17.805  1.00  0.00    -0.031 C 
ATOM      4  C   UNL     1      29.887  -1.395  16.807  1.00  0.00    -0.027 C 
BRANCH   4   5
ATOM      5  C   UNL     1      28.402  -1.609  16.823  1.00  0.00     0.054 C 
BRANCH   5   6
ATOM      6  C   UNL     1      27.961  -2.291  15.553  1.00  0.00    -0.027 C 
ATOM      7  C   UNL     1      27.376  -3.502  15.477  1.00  0.00    -0.031 C 
BRANCH   7   8
ATOM      8  C   UNL     1      27.118  -4.430  16.639  1.00  0.00     0.027 C 
BRANCH   8   9
ATOM      9  C   UNL     1      28.327  -5.332  16.926  1.00  0.00     0.004 C 
BRANCH   9  10
ATOM     10  C   UNL     1      28.979  -5.021  18.284  1.00  0.00     0.000 C 
BRANCH  10  11
ATOM     11  C   UNL     1      27.981  -4.437  19.296  1.00  0.00    -0.003 C 
ATOM     12  C   UNL     1      28.666  -3.673  20.431  1.00  0.00     0.004 C 
ENDBRANCH  10  11
ENDBRANCH   9  10
ENDBRANCH   8   9
ENDBRANCH   7   8
ENDBRANCH   5   6
ENDBRANCH   4   5
ENDBRANCH   2   3
ENDBRANCH   1   2
BRANCH   1  13
ATOM     13  C   UNL     1      33.115   0.693  17.053  1.00  0.00     0.000 C 
BRANCH  13  14
ATOM     14  C   UNL     1      33.629   1.528  15.867  1.00  0.00     0.000 C 
BRANCH  14  15
ATOM     15  C   UNL     1      35.161   1.589  15.721  1.00  0.00     0.000 C 
BRANCH  15  16
ATOM     16  C   UNL     1      35.873   1.959  17.034  1.00  0.00     0.003 C 
BRANCH  16  17
ATOM     17  C   UNL     1      36.774   0.828  17.565  1.00  0.00     0.042 C 
BRANCH  17  18
ATOM     18  C   UNL     1      37.586   0.128  16.463  1.00  0.00     0.233 C 
BRANCH  18  19
ATOM     19  O   UNL     1      38.834   0.778  16.233  1.00  0.00    -0.466 OA
BRANCH  19  20
ATOM     20  C   UNL     1      39.115   1.520  15.079  1.00  0.00     0.302 C 
ATOM     21  O   UNL     1      39.372   0.942  13.987  1.00  0.00    -0.253 OA
ATOM     22  C   UNL     1      39.052   3.008  15.133  1.00  0.00     0.139 C 
ENDBRANCH  19  20
ENDBRANCH  18  19
ENDBRANCH  17  18
ENDBRANCH  16  17
ENDBRANCH  15  16
ENDBRANCH  14  15
ENDBRANCH  13  14
ENDBRANCH   1  13
TORSDOF 16
ENDMDL
MODEL 7
REMARK VINA RESULT:    -5.235      2.795      7.668
REMARK INTER + INTRA:         -12.953
REMARK INTER:                 -10.245
REMARK INTRA:                  -2.709
REMARK UNBOUND:                -2.822
REMARK SMILES CCCCCC=CCC=CCCCCCCCCOC(C)=O
REMARK SMILES IDX 12 1 11 2 10 3 9 4 8 5 7 6 6 7 5 8 4 9 3 10 2 11 1 12 13 13
REMARK SMILES IDX 14 14 15 15 16 16 17 17 18 18 19 19 20 20 22 21 21 22
REMARK H PARENT
REMARK Flexibility Score: inf
ROOT
ATOM      1  C   UNL     1      32.489  -0.799  16.660  1.00  0.00     0.004 C 
ENDROOT
BRANCH   1   2
ATOM      2  C   UNL     1      30.977  -1.015  16.805  1.00  0.00     0.027 C 
BRANCH   2   3
ATOM      3  C   UNL     1      30.665  -2.308  17.510  1.00  0.00    -0.031 C 
ATOM      4  C   UNL     1      29.777  -3.182  17.012  1.00  0.00    -0.027 C 
BRANCH   4   5
ATOM      5  C   UNL     1      29.394  -4.426  17.760  1.00  0.00     0.054 C 
BRANCH   5   6
ATOM      6  C   UNL     1      29.652  -4.247  19.235  1.00  0.00    -0.027 C 
ATOM      7  C   UNL     1      28.729  -3.905  20.155  1.00  0.00    -0.031 C 
BRANCH   7   8
ATOM      8  C   UNL     1      27.285  -3.569  19.872  1.00  0.00     0.027 C 
BRANCH   8   9
ATOM      9  C   UNL     1      27.073  -2.057  19.715  1.00  0.00     0.004 C 
BRANCH   9  10
ATOM     10  C   UNL     1      26.693  -1.666  18.276  1.00  0.00     0.000 C 
BRANCH  10  11
ATOM     11  C   UNL     1      27.307  -0.324  17.848  1.00  0.00    -0.003 C 
ATOM     12  C   UNL     1      28.158   0.315  18.946  1.00  0.00     0.004 C 
ENDBRANCH  10  11
ENDBRANCH   9  10
ENDBRANCH   8   9
ENDBRANCH   7   8
ENDBRANCH   5   6
ENDBRANCH   4   5
ENDBRANCH   2   3
ENDBRANCH   1   2
BRANCH   1  13
ATOM     13  C   UNL     1      33.255  -1.189  17.934  1.00  0.00     0.000 C 
BRANCH  13  14
ATOM     14  C   UNL     1      34.118  -0.043  18.492  1.00  0.00     0.000 C 
BRANCH  14  15
ATOM     15  C   UNL     1      33.895   1.329  17.829  1.00  0.00     0.000 C 
BRANCH  15  16
ATOM     16  C   UNL     1      35.212   2.058  17.504  1.00  0.00     0.003 C 
BRANCH  16  17
ATOM     17  C   UNL     1      36.458   1.226  17.856  1.00  0.00     0.042 C 
BRANCH  17  18
ATOM     18  C   UNL     1      37.425   1.048  16.674  1.00  0.00     0.233 C 
BRANCH  18  19
ATOM     19  O   UNL     1      37.452  -0.302  16.213  1.00  0.00    -0.466 OA
BRANCH  19  20
ATOM     20  C   UNL     1      36.364  -0.925  15.590  1.00  0.00     0.302 C 
ATOM     21  O   UNL     1      35.987  -2.076  15.947  1.00  0.00    -0.253 OA
ATOM     22  C   UNL     1      35.607  -0.192  14.536  1.00  0.00     0.139 C 
ENDBRANCH  19  20
ENDBRANCH  18  19
ENDBRANCH  17  18
ENDBRANCH  16  17
ENDBRANCH  15  16
ENDBRANCH  14  15
ENDBRANCH  13  14
ENDBRANCH   1  13
TORSDOF 16
ENDMDL
MODEL 8
REMARK VINA RESULT:    -5.202      3.550      8.482
REMARK INTER + INTRA:         -12.889
REMARK INTER:                 -10.549
REMARK INTRA:                  -2.340
REMARK UNBOUND:                -2.822
REMARK SMILES CCCCCC=CCC=CCCCCCCCCOC(C)=O
REMARK SMILES IDX 12 1 11 2 10 3 9 4 8 5 7 6 6 7 5 8 4 9 3 10 2 11 1 12 13 13
REMARK SMILES IDX 14 14 15 15 16 16 17 17 18 18 19 19 20 20 22 21 21 22
REMARK H PARENT
REMARK Flexibility Score: inf
ROOT
ATOM      1  C   UNL     1      31.322  -1.394  17.009  1.00  0.00     0.004 C 
ENDROOT
BRANCH   1   2
ATOM      2  C   UNL     1      30.198  -0.392  17.303  1.00  0.00     0.027 C 
BRANCH   2   3
ATOM      3  C   UNL     1      29.486  -0.716  18.589  1.00  0.00    -0.031 C 
ATOM      4  C   UNL     1      30.093  -1.397  19.574  1.00  0.00    -0.027 C 
BRANCH   4   5
ATOM      5  C   UNL     1      29.357  -1.804  20.817  1.00  0.00     0.054 C 
BRANCH   5   6
ATOM      6  C   UNL     1      27.869  -1.725  20.591  1.00  0.00    -0.027 C 
ATOM      7  C   UNL     1      27.026  -2.775  20.545  1.00  0.00    -0.031 C 
BRANCH   7   8
ATOM      8  C   UNL     1      27.424  -4.228  20.643  1.00  0.00     0.027 C 
BRANCH   8   9
ATOM      9  C   UNL     1      27.637  -4.854  19.257  1.00  0.00     0.004 C 
BRANCH   9  10
ATOM     10  C   UNL     1      29.124  -4.926  18.870  1.00  0.00     0.000 C 
BRANCH  10  11
ATOM     11  C   UNL     1      29.377  -4.494  17.417  1.00  0.00    -0.003 C 
ATOM     12  C   UNL     1      28.183  -3.764  16.800  1.00  0.00     0.004 C 
ENDBRANCH  10  11
ENDBRANCH   9  10
ENDBRANCH   8   9
ENDBRANCH   7   8
ENDBRANCH   5   6
ENDBRANCH   4   5
ENDBRANCH   2   3
ENDBRANCH   1   2
BRANCH   1  13
ATOM     13  C   UNL     1      32.629  -0.695  16.602  1.00  0.00     0.000 C 
BRANCH  13  14
ATOM     14  C   UNL     1      32.837   0.655  17.311  1.00  0.00     0.000 C 
BRANCH  14  15
ATOM     15  C   UNL     1      33.853   0.639  18.468  1.00  0.00     0.000 C 
BRANCH  15  16
ATOM     16  C   UNL     1      34.905  -0.475  18.328  1.00  0.00     0.003 C 
BRANCH  16  17
ATOM     17  C   UNL     1      35.945  -0.181  17.232  1.00  0.00     0.042 C 
BRANCH  17  18
ATOM     18  C   UNL     1      36.622   1.191  17.387  1.00  0.00     0.233 C 
BRANCH  18  19
ATOM     19  O   UNL     1      37.163   1.655  16.151  1.00  0.00    -0.466 OA
BRANCH  19  20
ATOM     20  C   UNL     1      38.526   1.903  15.952  1.00  0.00     0.302 C 
ATOM     21  O   UNL     1      39.402   1.169  16.489  1.00  0.00    -0.253 OA
ATOM     22  C   UNL     1      38.943   3.012  15.048  1.00  0.00     0.139 C 
ENDBRANCH  19  20
ENDBRANCH  18  19
ENDBRANCH  17  18
ENDBRANCH  16  17
ENDBRANCH  15  16
ENDBRANCH  14  15
ENDBRANCH  13  14
ENDBRANCH   1  13
TORSDOF 16
ENDMDL
MODEL 9
REMARK VINA RESULT:    -5.192      1.963      3.628
REMARK INTER + INTRA:         -12.871
REMARK INTER:                 -10.112
REMARK INTRA:                  -2.759
REMARK UNBOUND:                -2.822
REMARK SMILES CCCCCC=CCC=CCCCCCCCCOC(C)=O
REMARK SMILES IDX 12 1 11 2 10 3 9 4 8 5 7 6 6 7 5 8 4 9 3 10 2 11 1 12 13 13
REMARK SMILES IDX 14 14 15 15 16 16 17 17 18 18 19 19 20 20 22 21 21 22
REMARK H PARENT
REMARK Flexibility Score: inf
ROOT
ATOM      1  C   UNL     1      31.870  -1.064  18.196  1.00  0.00     0.004 C 
ENDROOT
BRANCH   1   2
ATOM      2  C   UNL     1      31.835   0.208  17.338  1.00  0.00     0.027 C 
BRANCH   2   3
ATOM      3  C   UNL     1      33.204   0.814  17.185  1.00  0.00    -0.031 C 
ATOM      4  C   UNL     1      33.484   1.673  16.194  1.00  0.00    -0.027 C 
BRANCH   4   5
ATOM      5  C   UNL     1      34.871   2.205  15.982  1.00  0.00     0.054 C 
BRANCH   5   6
ATOM      6  C   UNL     1      35.682   2.061  17.244  1.00  0.00    -0.027 C 
ATOM      7  C   UNL     1      36.868   1.429  17.346  1.00  0.00    -0.031 C 
BRANCH   7   8
ATOM      8  C   UNL     1      37.571   0.690  16.234  1.00  0.00     0.027 C 
BRANCH   8   9
ATOM      9  C   UNL     1      37.378  -0.829  16.349  1.00  0.00     0.004 C 
BRANCH   9  10
ATOM     10  C   UNL     1      36.083  -1.307  15.668  1.00  0.00     0.000 C 
BRANCH  10  11
ATOM     11  C   UNL     1      35.220  -2.181  16.593  1.00  0.00    -0.003 C 
ATOM     12  C   UNL     1      35.489  -1.920  18.076  1.00  0.00     0.004 C 
ENDBRANCH  10  11
ENDBRANCH   9  10
ENDBRANCH   8   9
ENDBRANCH   7   8
ENDBRANCH   5   6
ENDBRANCH   4   5
ENDBRANCH   2   3
ENDBRANCH   1   2
BRANCH   1  13
ATOM     13  C   UNL     1      31.129  -2.234  17.530  1.00  0.00     0.000 C 
BRANCH  13  14
ATOM     14  C   UNL     1      30.310  -1.805  16.300  1.00  0.00     0.000 C 
BRANCH  14  15
ATOM     15  C   UNL     1      28.879  -2.370  16.233  1.00  0.00     0.000 C 
BRANCH  15  16
ATOM     16  C   UNL     1      28.694  -3.634  17.090  1.00  0.00     0.003 C 
BRANCH  16  17
ATOM     17  C   UNL     1      27.708  -3.428  18.255  1.00  0.00     0.042 C 
BRANCH  17  18
ATOM     18  C   UNL     1      26.535  -2.499  17.903  1.00  0.00     0.233 C 
BRANCH  18  19
ATOM     19  O   UNL     1      26.425  -1.416  18.825  1.00  0.00    -0.466 OA
BRANCH  19  20
ATOM     20  C   UNL     1      26.993  -0.155  18.603  1.00  0.00     0.302 C 
ATOM     21  O   UNL     1      26.321   0.772  18.072  1.00  0.00    -0.253 OA
ATOM     22  C   UNL     1      28.388   0.108  19.054  1.00  0.00     0.139 C 
ENDBRANCH  19  20
ENDBRANCH  18  19
ENDBRANCH  17  18
ENDBRANCH  16  17
ENDBRANCH  15  16
ENDBRANCH  14  15
ENDBRANCH  13  14
ENDBRANCH   1  13
TORSDOF 16
ENDMDL
