MODEL 1
REMARK VINA RESULT:    -5.810      0.000      0.000
REMARK INTER + INTRA:          -6.708
REMARK INTER:                  -6.659
REMARK INTRA:                  -0.049
REMARK UNBOUND:                -0.049
REMARK SMILES O=C([O-])c1cc(O)c(O)c(O)c1
REMARK SMILES IDX 4 1 5 2 12 3 6 4 10 5 8 6 2 7 1 8 3 9 7 10 11 12 9 14
REMARK H PARENT 7 11 11 13 9 15
REMARK Flexibility Score: inf
ROOT
ATOM      1  C   UNL     1      29.204  57.489  -6.899  1.00  0.00     0.005 A 
ATOM      2  C   UNL     1      29.503  58.818  -7.253  1.00  0.00     0.060 A 
ATOM      3  C   UNL     1      28.531  56.674  -7.824  1.00  0.00     0.060 A 
ATOM      4  C   UNL     1      29.139  59.320  -8.509  1.00  0.00     0.162 A 
ATOM      5  C   UNL     1      28.164  57.173  -9.082  1.00  0.00     0.162 A 
ATOM      6  C   UNL     1      28.468  58.501  -9.425  1.00  0.00     0.200 A 
ENDROOT
BRANCH   1   7
ATOM      7  C   UNL     1      29.589  56.957  -5.574  1.00  0.00     0.072 C 
ATOM      8  O   UNL     1      28.801  56.218  -4.925  1.00  0.00    -0.545 OA
ATOM      9  O   UNL     1      30.828  57.265  -5.024  1.00  0.00    -0.545 OA
ENDBRANCH   1   7
BRANCH   4  10
ATOM     10  O   UNL     1      29.438  60.637  -8.854  1.00  0.00    -0.504 OA
ATOM     11  H   UNL     1      30.392  60.978  -8.871  1.00  0.00     0.293 HD
ENDBRANCH   4  10
BRANCH   5  12
ATOM     12  O   UNL     1      27.497  56.353  -9.992  1.00  0.00    -0.504 OA
ATOM     13  H   UNL     1      28.000  55.731 -10.615  1.00  0.00     0.293 HD
ENDBRANCH   5  12
BRANCH   6  14
ATOM     14  O   UNL     1      28.112  59.019 -10.671  1.00  0.00    -0.502 OA
ATOM     15  H   UNL     1      27.461  58.545 -11.286  1.00  0.00     0.293 HD
ENDBRANCH   6  14
TORSDOF 4
ENDMDL
MODEL 2
REMARK VINA RESULT:    -5.785      0.109      2.424
REMARK INTER + INTRA:          -6.679
REMARK INTER:                  -6.631
REMARK INTRA:                  -0.048
REMARK UNBOUND:                -0.049
REMARK SMILES O=C([O-])c1cc(O)c(O)c(O)c1
REMARK SMILES IDX 4 1 5 2 12 3 6 4 10 5 8 6 2 7 1 8 3 9 7 10 11 12 9 14
REMARK H PARENT 7 11 11 13 9 15
REMARK Flexibility Score: inf
ROOT
ATOM      1  C   UNL     1      29.175  57.522  -6.991  1.00  0.00     0.005 A 
ATOM      2  C   UNL     1      28.496  56.718  -7.924  1.00  0.00     0.060 A 
ATOM      3  C   UNL     1      29.484  58.849  -7.331  1.00  0.00     0.060 A 
ATOM      4  C   UNL     1      28.130  57.233  -9.175  1.00  0.00     0.162 A 
ATOM      5  C   UNL     1      29.120  59.368  -8.582  1.00  0.00     0.162 A 
ATOM      6  C   UNL     1      28.442  58.557  -9.507  1.00  0.00     0.200 A 
ENDROOT
BRANCH   1   7
ATOM      7  C   UNL     1      29.561  56.981  -5.669  1.00  0.00     0.072 C 
ATOM      8  O   UNL     1      28.747  56.299  -4.992  1.00  0.00    -0.545 OA
ATOM      9  O   UNL     1      30.831  57.217  -5.155  1.00  0.00    -0.545 OA
ENDBRANCH   1   7
BRANCH   4  10
ATOM     10  O   UNL     1      27.458  56.432 -10.096  1.00  0.00    -0.504 OA
ATOM     11  H   UNL     1      26.447  56.430 -10.159  1.00  0.00     0.293 HD
ENDBRANCH   4  10
BRANCH   5  12
ATOM     12  O   UNL     1      29.432  60.688  -8.909  1.00  0.00    -0.504 OA
ATOM     13  H   UNL     1      29.489  61.411  -8.201  1.00  0.00     0.293 HD
ENDBRANCH   5  12
BRANCH   6  14
ATOM     14  O   UNL     1      28.070  59.051 -10.758  1.00  0.00    -0.502 OA
ATOM     15  H   UNL     1      28.430  59.927 -11.120  1.00  0.00     0.293 HD
ENDBRANCH   6  14
TORSDOF 4
ENDMDL
MODEL 3
REMARK VINA RESULT:    -5.773      1.190      4.201
REMARK INTER + INTRA:          -6.666
REMARK INTER:                  -6.617
REMARK INTRA:                  -0.050
REMARK UNBOUND:                -0.049
REMARK SMILES O=C([O-])c1cc(O)c(O)c(O)c1
REMARK SMILES IDX 4 1 5 2 12 3 6 4 10 5 8 6 2 7 1 8 3 9 7 10 11 12 9 14
REMARK H PARENT 7 11 11 13 9 15
REMARK Flexibility Score: inf
ROOT
ATOM      1  C   UNL     1      28.884  57.744  -7.777  1.00  0.00     0.005 A 
ATOM      2  C   UNL     1      29.692  58.841  -7.429  1.00  0.00     0.060 A 
ATOM      3  C   UNL     1      28.742  56.685  -6.865  1.00  0.00     0.060 A 
ATOM      4  C   UNL     1      30.346  58.880  -6.190  1.00  0.00     0.162 A 
ATOM      5  C   UNL     1      29.395  56.720  -5.624  1.00  0.00     0.162 A 
ATOM      6  C   UNL     1      30.201  57.820  -5.287  1.00  0.00     0.200 A 
ENDROOT
BRANCH   1   7
ATOM      7  C   UNL     1      28.192  57.702  -9.084  1.00  0.00     0.072 C 
ATOM      8  O   UNL     1      28.070  56.616  -9.711  1.00  0.00    -0.545 OA
ATOM      9  O   UNL     1      27.667  58.862  -9.640  1.00  0.00    -0.545 OA
ENDBRANCH   1   7
BRANCH   4  10
ATOM     10  O   UNL     1      31.146  59.969  -5.851  1.00  0.00    -0.504 OA
ATOM     11  H   UNL     1      30.748  60.878  -5.648  1.00  0.00     0.293 HD
ENDBRANCH   4  10
BRANCH   5  12
ATOM     12  O   UNL     1      29.247  55.663  -4.727  1.00  0.00    -0.504 OA
ATOM     13  H   UNL     1      30.031  55.301  -4.197  1.00  0.00     0.293 HD
ENDBRANCH   5  12
BRANCH   6  14
ATOM     14  O   UNL     1      30.860  57.876  -4.058  1.00  0.00    -0.502 OA
ATOM     15  H   UNL     1      31.401  57.097  -3.701  1.00  0.00     0.293 HD
ENDBRANCH   6  14
TORSDOF 4
ENDMDL
MODEL 4
REMARK VINA RESULT:    -5.752      1.197      4.782
REMARK INTER + INTRA:          -6.641
REMARK INTER:                  -6.592
REMARK INTRA:                  -0.050
REMARK UNBOUND:                -0.049
REMARK SMILES O=C([O-])c1cc(O)c(O)c(O)c1
REMARK SMILES IDX 4 1 5 2 12 3 6 4 10 5 8 6 2 7 1 8 3 9 7 10 11 12 9 14
REMARK H PARENT 7 11 11 13 9 15
REMARK Flexibility Score: inf
ROOT
ATOM      1  C   UNL     1      28.867  57.712  -7.748  1.00  0.00     0.005 A 
ATOM      2  C   UNL     1      28.729  56.666  -6.818  1.00  0.00     0.060 A 
ATOM      3  C   UNL     1      29.657  58.823  -7.412  1.00  0.00     0.060 A 
ATOM      4  C   UNL     1      29.372  56.729  -5.574  1.00  0.00     0.162 A 
ATOM      5  C   UNL     1      30.302  58.891  -6.168  1.00  0.00     0.162 A 
ATOM      6  C   UNL     1      30.158  57.841  -5.246  1.00  0.00     0.200 A 
ENDROOT
BRANCH   1   7
ATOM      7  C   UNL     1      28.190  57.646  -9.062  1.00  0.00     0.072 C 
ATOM      8  O   UNL     1      28.085  56.551  -9.676  1.00  0.00    -0.545 OA
ATOM      9  O   UNL     1      27.658  58.794  -9.638  1.00  0.00    -0.545 OA
ENDBRANCH   1   7
BRANCH   4  10
ATOM     10  O   UNL     1      29.232  55.690  -4.656  1.00  0.00    -0.504 OA
ATOM     11  H   UNL     1      29.828  55.619  -3.840  1.00  0.00     0.293 HD
ENDBRANCH   4  10
BRANCH   5  12
ATOM     12  O   UNL     1      31.084  60.000  -5.846  1.00  0.00    -0.504 OA
ATOM     13  H   UNL     1      31.784  60.360  -6.485  1.00  0.00     0.293 HD
ENDBRANCH   5  12
BRANCH   6  14
ATOM     14  O   UNL     1      30.790  57.886  -4.003  1.00  0.00    -0.502 OA
ATOM     15  H   UNL     1      30.269  57.920  -3.134  1.00  0.00     0.293 HD
ENDBRANCH   6  14
TORSDOF 4
ENDMDL
MODEL 5
REMARK VINA RESULT:    -5.133     19.502     20.325
REMARK INTER + INTRA:          -5.932
REMARK INTER:                  -5.881
REMARK INTRA:                  -0.050
REMARK UNBOUND:                -0.049
REMARK SMILES O=C([O-])c1cc(O)c(O)c(O)c1
REMARK SMILES IDX 4 1 5 2 12 3 6 4 10 5 8 6 2 7 1 8 3 9 7 10 11 12 9 14
REMARK H PARENT 7 11 11 13 9 15
REMARK Flexibility Score: inf
ROOT
ATOM      1  C   UNL     1      41.004  60.581   7.936  1.00  0.00     0.005 A 
ATOM      2  C   UNL     1      42.219  59.919   7.684  1.00  0.00     0.060 A 
ATOM      3  C   UNL     1      39.862  59.821   8.237  1.00  0.00     0.060 A 
ATOM      4  C   UNL     1      42.291  58.520   7.732  1.00  0.00     0.162 A 
ATOM      5  C   UNL     1      39.930  58.421   8.286  1.00  0.00     0.162 A 
ATOM      6  C   UNL     1      41.148  57.769   8.032  1.00  0.00     0.200 A 
ENDROOT
BRANCH   1   7
ATOM      7  C   UNL     1      40.926  62.058   7.886  1.00  0.00     0.072 C 
ATOM      8  O   UNL     1      40.123  62.685   8.627  1.00  0.00    -0.545 OA
ATOM      9  O   UNL     1      41.741  62.777   7.018  1.00  0.00    -0.545 OA
ENDBRANCH   1   7
BRANCH   4  10
ATOM     10  O   UNL     1      43.497  57.869   7.481  1.00  0.00    -0.504 OA
ATOM     11  H   UNL     1      43.538  57.025   6.921  1.00  0.00     0.293 HD
ENDBRANCH   4  10
BRANCH   5  12
ATOM     12  O   UNL     1      38.789  57.677   8.586  1.00  0.00    -0.504 OA
ATOM     13  H   UNL     1      38.849  56.711   8.889  1.00  0.00     0.293 HD
ENDBRANCH   5  12
BRANCH   6  14
ATOM     14  O   UNL     1      41.239  56.377   8.075  1.00  0.00    -0.502 OA
ATOM     15  H   UNL     1      41.986  55.900   8.567  1.00  0.00     0.293 HD
ENDBRANCH   6  14
TORSDOF 4
ENDMDL
MODEL 6
REMARK VINA RESULT:    -5.087     19.531     20.433
REMARK INTER + INTRA:          -5.880
REMARK INTER:                  -5.829
REMARK INTRA:                  -0.050
REMARK UNBOUND:                -0.049
REMARK SMILES O=C([O-])c1cc(O)c(O)c(O)c1
REMARK SMILES IDX 4 1 5 2 12 3 6 4 10 5 8 6 2 7 1 8 3 9 7 10 11 12 9 14
REMARK H PARENT 7 11 11 13 9 15
REMARK Flexibility Score: inf
ROOT
ATOM      1  C   UNL     1      41.038  60.553   7.937  1.00  0.00     0.005 A 
ATOM      2  C   UNL     1      39.892  59.794   8.234  1.00  0.00     0.060 A 
ATOM      3  C   UNL     1      42.256  59.890   7.718  1.00  0.00     0.060 A 
ATOM      4  C   UNL     1      39.962  58.397   8.310  1.00  0.00     0.162 A 
ATOM      5  C   UNL     1      42.332  58.492   7.793  1.00  0.00     0.162 A 
ATOM      6  C   UNL     1      41.181  57.743   8.091  1.00  0.00     0.200 A 
ENDROOT
BRANCH   1   7
ATOM      7  C   UNL     1      40.965  62.029   7.855  1.00  0.00     0.072 C 
ATOM      8  O   UNL     1      41.682  62.663   7.037  1.00  0.00    -0.545 OA
ATOM      9  O   UNL     1      40.101  62.737   8.682  1.00  0.00    -0.545 OA
ENDBRANCH   1   7
BRANCH   4  10
ATOM     10  O   UNL     1      38.824  57.650   8.605  1.00  0.00    -0.504 OA
ATOM     11  H   UNL     1      38.871  56.809   9.169  1.00  0.00     0.293 HD
ENDBRANCH   4  10
BRANCH   5  12
ATOM     12  O   UNL     1      43.548  57.845   7.574  1.00  0.00    -0.504 OA
ATOM     13  H   UNL     1      44.139  57.550   8.343  1.00  0.00     0.293 HD
ENDBRANCH   5  12
BRANCH   6  14
ATOM     14  O   UNL     1      41.232  56.351   8.172  1.00  0.00    -0.502 OA
ATOM     15  H   UNL     1      41.922  55.868   8.737  1.00  0.00     0.293 HD
ENDBRANCH   6  14
TORSDOF 4
ENDMDL
MODEL 7
REMARK VINA RESULT:    -5.076      1.434      4.910
REMARK INTER + INTRA:          -5.867
REMARK INTER:                  -5.818
REMARK INTRA:                  -0.048
REMARK UNBOUND:                -0.049
REMARK SMILES O=C([O-])c1cc(O)c(O)c(O)c1
REMARK SMILES IDX 4 1 5 2 12 3 6 4 10 5 8 6 2 7 1 8 3 9 7 10 11 12 9 14
REMARK H PARENT 7 11 11 13 9 15
REMARK Flexibility Score: inf
ROOT
ATOM      1  C   UNL     1      28.486  59.117  -9.336  1.00  0.00     0.005 A 
ATOM      2  C   UNL     1      28.104  57.771  -9.199  1.00  0.00     0.060 A 
ATOM      3  C   UNL     1      29.254  59.715  -8.323  1.00  0.00     0.060 A 
ATOM      4  C   UNL     1      28.485  57.034  -8.070  1.00  0.00     0.162 A 
ATOM      5  C   UNL     1      29.638  58.981  -7.192  1.00  0.00     0.162 A 
ATOM      6  C   UNL     1      29.251  57.636  -7.064  1.00  0.00     0.200 A 
ENDROOT
BRANCH   1   7
ATOM      7  C   UNL     1      28.085  59.897 -10.528  1.00  0.00     0.072 C 
ATOM      8  O   UNL     1      28.917  60.631 -11.125  1.00  0.00    -0.545 OA
ATOM      9  O   UNL     1      26.782  59.829 -11.007  1.00  0.00    -0.545 OA
ENDBRANCH   1   7
BRANCH   4  10
ATOM     10  O   UNL     1      28.104  55.700  -7.938  1.00  0.00    -0.504 OA
ATOM     11  H   UNL     1      28.250  55.188  -7.076  1.00  0.00     0.293 HD
ENDBRANCH   4  10
BRANCH   5  12
ATOM     12  O   UNL     1      30.401  59.585  -6.193  1.00  0.00    -0.504 OA
ATOM     13  H   UNL     1      30.727  60.541  -6.278  1.00  0.00     0.293 HD
ENDBRANCH   5  12
BRANCH   6  14
ATOM     14  O   UNL     1      29.621  56.887  -5.947  1.00  0.00    -0.502 OA
ATOM     15  H   UNL     1      28.992  56.221  -5.512  1.00  0.00     0.293 HD
ENDBRANCH   6  14
TORSDOF 4
ENDMDL
MODEL 8
REMARK VINA RESULT:    -4.758      6.133      7.928
REMARK INTER + INTRA:          -5.502
REMARK INTER:                  -5.450
REMARK INTRA:                  -0.052
REMARK UNBOUND:                -0.049
REMARK SMILES O=C([O-])c1cc(O)c(O)c(O)c1
REMARK SMILES IDX 4 1 5 2 12 3 6 4 10 5 8 6 2 7 1 8 3 9 7 10 11 12 9 14
REMARK H PARENT 7 11 11 13 9 15
REMARK Flexibility Score: inf
ROOT
ATOM      1  C   UNL     1      29.581  58.731  -0.584  1.00  0.00     0.005 A 
ATOM      2  C   UNL     1      29.781  59.061  -1.937  1.00  0.00     0.060 A 
ATOM      3  C   UNL     1      30.660  58.833   0.309  1.00  0.00     0.060 A 
ATOM      4  C   UNL     1      31.037  59.488  -2.388  1.00  0.00     0.162 A 
ATOM      5  C   UNL     1      31.919  59.260  -0.138  1.00  0.00     0.162 A 
ATOM      6  C   UNL     1      32.108  59.587  -1.492  1.00  0.00     0.200 A 
ENDROOT
BRANCH   1   7
ATOM      7  C   UNL     1      28.255  58.281  -0.106  1.00  0.00     0.072 C 
ATOM      8  O   UNL     1      27.385  57.871  -0.919  1.00  0.00    -0.545 OA
ATOM      9  O   UNL     1      27.951  58.304   1.250  1.00  0.00    -0.545 OA
ENDBRANCH   1   7
BRANCH   4  10
ATOM     10  O   UNL     1      31.229  59.814  -3.729  1.00  0.00    -0.504 OA
ATOM     11  H   UNL     1      31.990  60.413  -4.026  1.00  0.00     0.293 HD
ENDBRANCH   4  10
BRANCH   5  12
ATOM     12  O   UNL     1      32.983  59.358   0.758  1.00  0.00    -0.504 OA
ATOM     13  H   UNL     1      33.085  60.154   1.377  1.00  0.00     0.293 HD
ENDBRANCH   5  12
BRANCH   6  14
ATOM     14  O   UNL     1      33.352  60.014  -1.960  1.00  0.00    -0.502 OA
ATOM     15  H   UNL     1      33.549  60.118  -2.948  1.00  0.00     0.293 HD
ENDBRANCH   6  14
TORSDOF 4
ENDMDL
MODEL 9
REMARK VINA RESULT:    -4.727      6.242      7.954
REMARK INTER + INTRA:          -5.466
REMARK INTER:                  -5.417
REMARK INTRA:                  -0.050
REMARK UNBOUND:                -0.049
REMARK SMILES O=C([O-])c1cc(O)c(O)c(O)c1
REMARK SMILES IDX 4 1 5 2 12 3 6 4 10 5 8 6 2 7 1 8 3 9 7 10 11 12 9 14
REMARK H PARENT 7 11 11 13 9 15
REMARK Flexibility Score: inf
ROOT
ATOM      1  C   UNL     1      29.610  58.768  -0.347  1.00  0.00     0.005 A 
ATOM      2  C   UNL     1      30.760  58.829   0.462  1.00  0.00     0.060 A 
ATOM      3  C   UNL     1      29.711  59.124  -1.702  1.00  0.00     0.060 A 
ATOM      4  C   UNL     1      31.988  59.238  -0.075  1.00  0.00     0.162 A 
ATOM      5  C   UNL     1      30.938  59.534  -2.243  1.00  0.00     0.162 A 
ATOM      6  C   UNL     1      32.080  59.592  -1.426  1.00  0.00     0.200 A 
ENDROOT
BRANCH   1   7
ATOM      7  C   UNL     1      28.313  58.336   0.218  1.00  0.00     0.072 C 
ATOM      8  O   UNL     1      27.517  57.637  -0.463  1.00  0.00    -0.545 OA
ATOM      9  O   UNL     1      27.953  58.696   1.511  1.00  0.00    -0.545 OA
ENDBRANCH   1   7
BRANCH   4  10
ATOM     10  O   UNL     1      33.123  59.297   0.731  1.00  0.00    -0.504 OA
ATOM     11  H   UNL     1      33.948  58.745   0.528  1.00  0.00     0.293 HD
ENDBRANCH   4  10
BRANCH   5  12
ATOM     12  O   UNL     1      31.026  59.885  -3.590  1.00  0.00    -0.504 OA
ATOM     13  H   UNL     1      31.208  59.194  -4.308  1.00  0.00     0.293 HD
ENDBRANCH   5  12
BRANCH   6  14
ATOM     14  O   UNL     1      33.311  59.997  -1.943  1.00  0.00    -0.502 OA
ATOM     15  H   UNL     1      33.709  59.581  -2.777  1.00  0.00     0.293 HD
ENDBRANCH   6  14
TORSDOF 4
ENDMDL
