MODEL 1
REMARK VINA RESULT:    -4.077      0.000      0.000
REMARK INTER + INTRA:          -4.717
REMARK INTER:                  -4.673
REMARK INTRA:                  -0.045
REMARK UNBOUND:                -0.045
REMARK SMILES O=C([O-])c1cc(O)c(O)c(O)c1
REMARK SMILES IDX 4 1 5 2 12 3 6 4 10 5 8 6 2 7 1 8 3 9 7 10 11 12 9 14
REMARK H PARENT 7 11 11 13 9 15
REMARK Flexibility Score: inf
ROOT
ATOM      1  C   UNL     1       1.211   7.596   2.774  1.00  0.00     0.005 A 
ATOM      2  C   UNL     1       2.530   7.554   3.249  1.00  0.00     0.060 A 
ATOM      3  C   UNL     1       0.929   7.078   1.500  1.00  0.00     0.060 A 
ATOM      4  C   UNL     1       3.553   7.006   2.469  1.00  0.00     0.162 A 
ATOM      5  C   UNL     1       1.942   6.526   0.706  1.00  0.00     0.162 A 
ATOM      6  C   UNL     1       3.270   6.486   1.193  1.00  0.00     0.200 A 
ENDROOT
BRANCH   1   7
ATOM      7  C   UNL     1       0.135   8.178   3.607  1.00  0.00     0.072 C 
ATOM      8  O   UNL     1      -0.434   7.487   4.494  1.00  0.00    -0.545 OA
ATOM      9  O   UNL     1      -0.261   9.498   3.424  1.00  0.00    -0.545 OA
ENDBRANCH   1   7
BRANCH   4  10
ATOM     10  O   UNL     1       4.849   6.985   2.985  1.00  0.00    -0.504 OA
ATOM     11  H   UNL     1       5.240   6.165   3.433  1.00  0.00     0.293 HD
ENDBRANCH   4  10
BRANCH   5  12
ATOM     12  O   UNL     1       1.582   6.031  -0.550  1.00  0.00    -0.504 OA
ATOM     13  H   UNL     1       2.238   5.657  -1.221  1.00  0.00     0.293 HD
ENDBRANCH   5  12
BRANCH   6  14
ATOM     14  O   UNL     1       4.322   5.948   0.446  1.00  0.00    -0.502 OA
ATOM     15  H   UNL     1       4.367   5.961  -0.562  1.00  0.00     0.293 HD
ENDBRANCH   6  14
TORSDOF 4
ENDMDL
MODEL 2
REMARK VINA RESULT:    -4.011      0.098      2.447
REMARK INTER + INTRA:          -4.642
REMARK INTER:                  -4.598
REMARK INTRA:                  -0.045
REMARK UNBOUND:                -0.045
REMARK SMILES O=C([O-])c1cc(O)c(O)c(O)c1
REMARK SMILES IDX 4 1 5 2 12 3 6 4 10 5 8 6 2 7 1 8 3 9 7 10 11 12 9 14
REMARK H PARENT 7 11 11 13 9 15
REMARK Flexibility Score: inf
ROOT
ATOM      1  C   UNL     1       1.197   7.609   2.866  1.00  0.00     0.005 A 
ATOM      2  C   UNL     1       0.910   7.104   1.589  1.00  0.00     0.060 A 
ATOM      3  C   UNL     1       2.522   7.572   3.331  1.00  0.00     0.060 A 
ATOM      4  C   UNL     1       1.923   6.570   0.787  1.00  0.00     0.162 A 
ATOM      5  C   UNL     1       3.548   7.042   2.541  1.00  0.00     0.162 A 
ATOM      6  C   UNL     1       3.250   6.534   1.253  1.00  0.00     0.200 A 
ENDROOT
BRANCH   1   7
ATOM      7  C   UNL     1       0.117   8.171   3.707  1.00  0.00     0.072 C 
ATOM      8  O   UNL     1      -0.414   7.478   4.616  1.00  0.00    -0.545 OA
ATOM      9  O   UNL     1      -0.327   9.473   3.507  1.00  0.00    -0.545 OA
ENDBRANCH   1   7
BRANCH   4  10
ATOM     10  O   UNL     1       1.589   6.080  -0.475  1.00  0.00    -0.504 OA
ATOM     11  H   UNL     1       1.648   5.095  -0.706  1.00  0.00     0.293 HD
ENDBRANCH   4  10
BRANCH   5  12
ATOM     12  O   UNL     1       4.840   7.041   3.073  1.00  0.00    -0.504 OA
ATOM     13  H   UNL     1       5.069   7.354   4.005  1.00  0.00     0.293 HD
ENDBRANCH   5  12
BRANCH   6  14
ATOM     14  O   UNL     1       4.233   5.993   0.420  1.00  0.00    -0.502 OA
ATOM     15  H   UNL     1       4.440   6.332  -0.509  1.00  0.00     0.293 HD
ENDBRANCH   6  14
TORSDOF 4
ENDMDL
MODEL 3
REMARK VINA RESULT:    -3.884     14.006     16.081
REMARK INTER + INTRA:          -4.497
REMARK INTER:                  -4.449
REMARK INTRA:                  -0.048
REMARK UNBOUND:                -0.045
REMARK SMILES O=C([O-])c1cc(O)c(O)c(O)c1
REMARK SMILES IDX 4 1 5 2 12 3 6 4 10 5 8 6 2 7 1 8 3 9 7 10 11 12 9 14
REMARK H PARENT 7 11 11 13 9 15
REMARK Flexibility Score: inf
ROOT
ATOM      1  C   UNL     1       4.992  -5.418  -7.212  1.00  0.00     0.005 A 
ATOM      2  C   UNL     1       3.746  -5.733  -7.773  1.00  0.00     0.060 A 
ATOM      3  C   UNL     1       5.323  -4.070  -6.999  1.00  0.00     0.060 A 
ATOM      4  C   UNL     1       2.843  -4.722  -8.119  1.00  0.00     0.162 A 
ATOM      5  C   UNL     1       4.431  -3.047  -7.340  1.00  0.00     0.162 A 
ATOM      6  C   UNL     1       3.175  -3.372  -7.906  1.00  0.00     0.200 A 
ENDROOT
BRANCH   1   7
ATOM      7  C   UNL     1       5.941  -6.495  -6.849  1.00  0.00     0.072 C 
ATOM      8  O   UNL     1       6.199  -7.422  -7.663  1.00  0.00    -0.545 OA
ATOM      9  O   UNL     1       6.562  -6.498  -5.606  1.00  0.00    -0.545 OA
ENDBRANCH   1   7
BRANCH   4  10
ATOM     10  O   UNL     1       1.615  -5.084  -8.674  1.00  0.00    -0.504 OA
ATOM     11  H   UNL     1       1.535  -5.455  -9.613  1.00  0.00     0.293 HD
ENDBRANCH   4  10
BRANCH   5  12
ATOM     12  O   UNL     1       4.832  -1.731  -7.098  1.00  0.00    -0.504 OA
ATOM     13  H   UNL     1       5.655  -1.306  -7.501  1.00  0.00     0.293 HD
ENDBRANCH   5  12
BRANCH   6  14
ATOM     14  O   UNL     1       2.243  -2.394  -8.265  1.00  0.00    -0.502 OA
ATOM     15  H   UNL     1       2.480  -1.526  -8.724  1.00  0.00     0.293 HD
ENDBRANCH   6  14
TORSDOF 4
ENDMDL
MODEL 4
REMARK VINA RESULT:    -3.841     14.049     15.936
REMARK INTER + INTRA:          -4.447
REMARK INTER:                  -4.401
REMARK INTRA:                  -0.047
REMARK UNBOUND:                -0.045
REMARK SMILES O=C([O-])c1cc(O)c(O)c(O)c1
REMARK SMILES IDX 4 1 5 2 12 3 6 4 10 5 8 6 2 7 1 8 3 9 7 10 11 12 9 14
REMARK H PARENT 7 11 11 13 9 15
REMARK Flexibility Score: inf
ROOT
ATOM      1  C   UNL     1       5.027  -5.369  -7.243  1.00  0.00     0.005 A 
ATOM      2  C   UNL     1       5.336  -4.011  -7.073  1.00  0.00     0.060 A 
ATOM      3  C   UNL     1       3.776  -5.722  -7.775  1.00  0.00     0.060 A 
ATOM      4  C   UNL     1       4.416  -3.020  -7.426  1.00  0.00     0.162 A 
ATOM      5  C   UNL     1       2.843  -4.741  -8.133  1.00  0.00     0.162 A 
ATOM      6  C   UNL     1       3.163  -3.374  -7.959  1.00  0.00     0.200 A 
ENDROOT
BRANCH   1   7
ATOM      7  C   UNL     1       6.009  -6.411  -6.866  1.00  0.00     0.072 C 
ATOM      8  O   UNL     1       6.404  -7.256  -7.713  1.00  0.00    -0.545 OA
ATOM      9  O   UNL     1       6.509  -6.471  -5.571  1.00  0.00    -0.545 OA
ENDBRANCH   1   7
BRANCH   4  10
ATOM     10  O   UNL     1       4.768  -1.683  -7.239  1.00  0.00    -0.504 OA
ATOM     11  H   UNL     1       5.287  -1.159  -7.934  1.00  0.00     0.293 HD
ENDBRANCH   4  10
BRANCH   5  12
ATOM     12  O   UNL     1       1.622  -5.172  -8.656  1.00  0.00    -0.504 OA
ATOM     13  H   UNL     1       0.739  -5.094  -8.172  1.00  0.00     0.293 HD
ENDBRANCH   5  12
BRANCH   6  14
ATOM     14  O   UNL     1       2.272  -2.351  -8.299  1.00  0.00    -0.502 OA
ATOM     15  H   UNL     1       1.548  -2.438  -8.996  1.00  0.00     0.293 HD
ENDBRANCH   6  14
TORSDOF 4
ENDMDL
MODEL 5
REMARK VINA RESULT:    -3.805      1.527      4.835
REMARK INTER + INTRA:          -4.405
REMARK INTER:                  -4.360
REMARK INTRA:                  -0.046
REMARK UNBOUND:                -0.045
REMARK SMILES O=C([O-])c1cc(O)c(O)c(O)c1
REMARK SMILES IDX 4 1 5 2 12 3 6 4 10 5 8 6 2 7 1 8 3 9 7 10 11 12 9 14
REMARK H PARENT 7 11 11 13 9 15
REMARK Flexibility Score: inf
ROOT
ATOM      1  C   UNL     1       3.862   6.316   1.573  1.00  0.00     0.005 A 
ATOM      2  C   UNL     1       2.725   6.244   0.756  1.00  0.00     0.060 A 
ATOM      3  C   UNL     1       3.758   6.925   2.834  1.00  0.00     0.060 A 
ATOM      4  C   UNL     1       1.503   6.771   1.185  1.00  0.00     0.162 A 
ATOM      5  C   UNL     1       2.542   7.458   3.279  1.00  0.00     0.162 A 
ATOM      6  C   UNL     1       1.399   7.381   2.448  1.00  0.00     0.200 A 
ENDROOT
BRANCH   1   7
ATOM      7  C   UNL     1       5.152   5.756   1.109  1.00  0.00     0.072 C 
ATOM      8  O   UNL     1       5.664   4.761   1.689  1.00  0.00    -0.545 OA
ATOM      9  O   UNL     1       5.816   6.319   0.026  1.00  0.00    -0.545 OA
ENDBRANCH   1   7
BRANCH   4  10
ATOM     10  O   UNL     1       0.399   6.676   0.337  1.00  0.00    -0.504 OA
ATOM     11  H   UNL     1      -0.552   6.658   0.688  1.00  0.00     0.293 HD
ENDBRANCH   4  10
BRANCH   5  12
ATOM     12  O   UNL     1       2.519   8.047   4.545  1.00  0.00    -0.504 OA
ATOM     13  H   UNL     1       2.084   7.631   5.356  1.00  0.00     0.293 HD
ENDBRANCH   5  12
BRANCH   6  14
ATOM     14  O   UNL     1       0.159   7.895   2.838  1.00  0.00    -0.502 OA
ATOM     15  H   UNL     1      -0.077   8.152   3.786  1.00  0.00     0.293 HD
ENDBRANCH   6  14
TORSDOF 4
ENDMDL
MODEL 6
REMARK VINA RESULT:    -3.761      1.507      4.194
REMARK INTER + INTRA:          -4.355
REMARK INTER:                  -4.310
REMARK INTRA:                  -0.046
REMARK UNBOUND:                -0.045
REMARK SMILES O=C([O-])c1cc(O)c(O)c(O)c1
REMARK SMILES IDX 4 1 5 2 12 3 6 4 10 5 8 6 2 7 1 8 3 9 7 10 11 12 9 14
REMARK H PARENT 7 11 11 13 9 15
REMARK Flexibility Score: inf
ROOT
ATOM      1  C   UNL     1       3.851   6.388   1.587  1.00  0.00     0.005 A 
ATOM      2  C   UNL     1       3.772   6.978   2.857  1.00  0.00     0.060 A 
ATOM      3  C   UNL     1       2.704   6.356   0.778  1.00  0.00     0.060 A 
ATOM      4  C   UNL     1       2.570   7.527   3.316  1.00  0.00     0.162 A 
ATOM      5  C   UNL     1       1.493   6.901   1.222  1.00  0.00     0.162 A 
ATOM      6  C   UNL     1       1.421   7.495   2.505  1.00  0.00     0.200 A 
ENDROOT
BRANCH   1   7
ATOM      7  C   UNL     1       5.127   5.810   1.111  1.00  0.00     0.072 C 
ATOM      8  O   UNL     1       5.634   4.812   1.690  1.00  0.00    -0.545 OA
ATOM      9  O   UNL     1       5.785   6.359   0.017  1.00  0.00    -0.545 OA
ENDBRANCH   1   7
BRANCH   4  10
ATOM     10  O   UNL     1       2.540   8.102   4.587  1.00  0.00    -0.504 OA
ATOM     11  H   UNL     1       2.343   7.561   5.421  1.00  0.00     0.293 HD
ENDBRANCH   4  10
BRANCH   5  12
ATOM     12  O   UNL     1       0.397   6.832   0.359  1.00  0.00    -0.504 OA
ATOM     13  H   UNL     1       0.210   6.054  -0.258  1.00  0.00     0.293 HD
ENDBRANCH   5  12
BRANCH   6  14
ATOM     14  O   UNL     1       0.241   8.055   3.002  1.00  0.00    -0.502 OA
ATOM     15  H   UNL     1      -0.669   7.625   2.922  1.00  0.00     0.293 HD
ENDBRANCH   6  14
TORSDOF 4
ENDMDL
MODEL 7
REMARK VINA RESULT:    -3.671     14.305     16.375
REMARK INTER + INTRA:          -4.252
REMARK INTER:                  -4.202
REMARK INTRA:                  -0.051
REMARK UNBOUND:                -0.045
REMARK SMILES O=C([O-])c1cc(O)c(O)c(O)c1
REMARK SMILES IDX 4 1 5 2 12 3 6 4 10 5 8 6 2 7 1 8 3 9 7 10 11 12 9 14
REMARK H PARENT 7 11 11 13 9 15
REMARK Flexibility Score: inf
ROOT
ATOM      1  C   UNL     1       2.225  -5.498  -8.769  1.00  0.00     0.005 A 
ATOM      2  C   UNL     1       1.884  -4.183  -9.114  1.00  0.00     0.060 A 
ATOM      3  C   UNL     1       3.287  -5.715  -7.876  1.00  0.00     0.060 A 
ATOM      4  C   UNL     1       2.589  -3.099  -8.582  1.00  0.00     0.162 A 
ATOM      5  C   UNL     1       4.003  -4.641  -7.334  1.00  0.00     0.162 A 
ATOM      6  C   UNL     1       3.653  -3.317  -7.687  1.00  0.00     0.200 A 
ENDROOT
BRANCH   1   7
ATOM      7  C   UNL     1       1.473  -6.639  -9.339  1.00  0.00     0.072 C 
ATOM      8  O   UNL     1       2.037  -7.750  -9.523  1.00  0.00    -0.545 OA
ATOM      9  O   UNL     1       0.132  -6.499  -9.678  1.00  0.00    -0.545 OA
ENDBRANCH   1   7
BRANCH   4  10
ATOM     10  O   UNL     1       2.214  -1.808  -8.955  1.00  0.00    -0.504 OA
ATOM     11  H   UNL     1       1.836  -1.599  -9.871  1.00  0.00     0.293 HD
ENDBRANCH   4  10
BRANCH   5  12
ATOM     12  O   UNL     1       5.046  -4.938  -6.453  1.00  0.00    -0.504 OA
ATOM     13  H   UNL     1       5.139  -5.814  -5.959  1.00  0.00     0.293 HD
ENDBRANCH   5  12
BRANCH   6  14
ATOM     14  O   UNL     1       4.331  -2.205  -7.178  1.00  0.00    -0.502 OA
ATOM     15  H   UNL     1       4.923  -2.227  -6.360  1.00  0.00     0.293 HD
ENDBRANCH   6  14
TORSDOF 4
ENDMDL
MODEL 8
REMARK VINA RESULT:    -3.655     14.259     16.261
REMARK INTER + INTRA:          -4.234
REMARK INTER:                  -4.183
REMARK INTRA:                  -0.051
REMARK UNBOUND:                -0.045
REMARK SMILES O=C([O-])c1cc(O)c(O)c(O)c1
REMARK SMILES IDX 4 1 5 2 12 3 6 4 10 5 8 6 2 7 1 8 3 9 7 10 11 12 9 14
REMARK H PARENT 7 11 11 13 9 15
REMARK Flexibility Score: inf
ROOT
ATOM      1  C   UNL     1       2.382  -5.539  -8.731  1.00  0.00     0.005 A 
ATOM      2  C   UNL     1       3.427  -5.717  -7.813  1.00  0.00     0.060 A 
ATOM      3  C   UNL     1       2.007  -4.235  -9.092  1.00  0.00     0.060 A 
ATOM      4  C   UNL     1       4.089  -4.615  -7.261  1.00  0.00     0.162 A 
ATOM      5  C   UNL     1       2.659  -3.121  -8.550  1.00  0.00     0.162 A 
ATOM      6  C   UNL     1       3.713  -3.309  -7.624  1.00  0.00     0.200 A 
ENDROOT
BRANCH   1   7
ATOM      7  C   UNL     1       1.688  -6.712  -9.309  1.00  0.00     0.072 C 
ATOM      8  O   UNL     1       2.273  -7.825  -9.394  1.00  0.00    -0.545 OA
ATOM      9  O   UNL     1       0.380  -6.603  -9.765  1.00  0.00    -0.545 OA
ENDBRANCH   1   7
BRANCH   4  10
ATOM     10  O   UNL     1       5.122  -4.842  -6.352  1.00  0.00    -0.504 OA
ATOM     11  H   UNL     1       5.226  -5.722  -5.861  1.00  0.00     0.293 HD
ENDBRANCH   4  10
BRANCH   5  12
ATOM     12  O   UNL     1       2.228  -1.857  -8.959  1.00  0.00    -0.504 OA
ATOM     13  H   UNL     1       2.074  -1.081  -8.332  1.00  0.00     0.293 HD
ENDBRANCH   5  12
BRANCH   6  14
ATOM     14  O   UNL     1       4.400  -2.236  -7.049  1.00  0.00    -0.502 OA
ATOM     15  H   UNL     1       5.258  -1.850  -7.415  1.00  0.00     0.293 HD
ENDBRANCH   6  14
TORSDOF 4
ENDMDL
MODEL 9
REMARK VINA RESULT:    -3.636      1.353      4.692
REMARK INTER + INTRA:          -4.212
REMARK INTER:                  -4.159
REMARK INTRA:                  -0.053
REMARK UNBOUND:                -0.045
REMARK SMILES O=C([O-])c1cc(O)c(O)c(O)c1
REMARK SMILES IDX 4 1 5 2 12 3 6 4 10 5 8 6 2 7 1 8 3 9 7 10 11 12 9 14
REMARK H PARENT 7 11 11 13 9 15
REMARK Flexibility Score: inf
ROOT
ATOM      1  C   UNL     1       2.454   6.781   2.156  1.00  0.00     0.005 A 
ATOM      2  C   UNL     1       1.107   6.746   2.545  1.00  0.00     0.060 A 
ATOM      3  C   UNL     1       3.406   7.309   3.044  1.00  0.00     0.060 A 
ATOM      4  C   UNL     1       0.712   7.229   3.797  1.00  0.00     0.162 A 
ATOM      5  C   UNL     1       3.027   7.796   4.301  1.00  0.00     0.162 A 
ATOM      6  C   UNL     1       1.666   7.756   4.686  1.00  0.00     0.200 A 
ENDROOT
BRANCH   1   7
ATOM      7  C   UNL     1       2.862   6.269   0.829  1.00  0.00     0.072 C 
ATOM      8  O   UNL     1       4.048   6.407   0.426  1.00  0.00    -0.545 OA
ATOM      9  O   UNL     1       1.942   5.627   0.008  1.00  0.00    -0.545 OA
ENDBRANCH   1   7
BRANCH   4  10
ATOM     10  O   UNL     1      -0.639   7.172   4.139  1.00  0.00    -0.504 OA
ATOM     11  H   UNL     1      -1.005   6.485   4.788  1.00  0.00     0.293 HD
ENDBRANCH   4  10
BRANCH   5  12
ATOM     12  O   UNL     1       4.032   8.304   5.127  1.00  0.00    -0.504 OA
ATOM     13  H   UNL     1       3.860   8.789   5.996  1.00  0.00     0.293 HD
ENDBRANCH   5  12
BRANCH   6  14
ATOM     14  O   UNL     1       1.228   8.228   5.927  1.00  0.00    -0.502 OA
ATOM     15  H   UNL     1       0.286   8.538   6.116  1.00  0.00     0.293 HD
ENDBRANCH   6  14
TORSDOF 4
ENDMDL
