MODEL 1
REMARK VINA RESULT:    -4.587      0.000      0.000
REMARK INTER + INTRA:          -4.721
REMARK INTER:                  -4.721
REMARK INTRA:                   0.000
REMARK UNBOUND:                 0.000
REMARK SMILES Oc1ccc2[nH]ccc2c1
REMARK SMILES IDX 3 1 4 2 5 3 9 4 8 5 7 6 6 7 10 8 2 9 1 11
REMARK H PARENT 6 10 1 12
REMARK Flexibility Score: inf
ROOT
ATOM      1  C   UNL     1     127.331 134.189 118.472  1.00  0.00     0.048 A 
ATOM      2  C   UNL     1     127.342 135.009 119.616  1.00  0.00     0.030 A 
ATOM      3  C   UNL     1     128.381 135.927 119.747  1.00  0.00     0.046 A 
ATOM      4  C   UNL     1     129.367 136.040 118.802  1.00  0.00     0.003 A 
ATOM      5  C   UNL     1     130.232 137.025 119.224  1.00  0.00     0.028 A 
ATOM      6  C   UNL     1     129.712 137.471 120.436  1.00  0.00     0.083 A 
ATOM      7  N   UNL     1     128.582 136.796 120.751  1.00  0.00    -0.361 N 
ATOM      8  C   UNL     1     129.385 135.244 117.658  1.00  0.00     0.056 A 
ATOM      9  C   UNL     1     128.346 134.303 117.494  1.00  0.00     0.116 A 
ATOM     10  H   UNL     1     127.990 136.928 121.601  1.00  0.00     0.166 HD
ENDROOT
BRANCH   9  11
ATOM     11  O   UNL     1     128.311 133.480 116.371  1.00  0.00    -0.508 OA
ATOM     12  H   UNL     1     129.144 133.295 115.826  1.00  0.00     0.293 HD
ENDBRANCH   9  11
TORSDOF 1
ENDMDL
MODEL 2
REMARK VINA RESULT:    -4.532      1.213      2.038
REMARK INTER + INTRA:          -4.664
REMARK INTER:                  -4.664
REMARK INTRA:                   0.000
REMARK UNBOUND:                 0.000
REMARK SMILES Oc1ccc2[nH]ccc2c1
REMARK SMILES IDX 3 1 4 2 5 3 9 4 8 5 7 6 6 7 10 8 2 9 1 11
REMARK H PARENT 6 10 1 12
REMARK Flexibility Score: inf
ROOT
ATOM      1  C   UNL     1     128.417 134.154 117.301  1.00  0.00     0.048 A 
ATOM      2  C   UNL     1     129.468 135.070 117.490  1.00  0.00     0.030 A 
ATOM      3  C   UNL     1     129.441 135.863 118.636  1.00  0.00     0.046 A 
ATOM      4  C   UNL     1     128.430 135.765 119.555  1.00  0.00     0.003 A 
ATOM      5  C   UNL     1     128.695 136.673 120.557  1.00  0.00     0.028 A 
ATOM      6  C   UNL     1     129.884 137.291 120.182  1.00  0.00     0.083 A 
ATOM      7  N   UNL     1     130.335 136.793 119.007  1.00  0.00    -0.361 N 
ATOM      8  C   UNL     1     127.376 134.868 119.398  1.00  0.00     0.056 A 
ATOM      9  C   UNL     1     127.373 134.050 118.248  1.00  0.00     0.116 A 
ATOM     10  H   UNL     1     131.202 137.076 118.498  1.00  0.00     0.166 HD
ENDROOT
BRANCH   9  11
ATOM     11  O   UNL     1     126.344 133.134 118.037  1.00  0.00    -0.508 OA
ATOM     12  H   UNL     1     125.786 132.781 118.804  1.00  0.00     0.293 HD
ENDBRANCH   9  11
TORSDOF 1
ENDMDL
MODEL 3
REMARK VINA RESULT:    -4.484      9.764     10.742
REMARK INTER + INTRA:          -4.615
REMARK INTER:                  -4.615
REMARK INTRA:                   0.000
REMARK UNBOUND:                 0.000
REMARK SMILES Oc1ccc2[nH]ccc2c1
REMARK SMILES IDX 3 1 4 2 5 3 9 4 8 5 7 6 6 7 10 8 2 9 1 11
REMARK H PARENT 6 10 1 12
REMARK Flexibility Score: inf
ROOT
ATOM      1  C   UNL     1     137.149 132.750 126.652  1.00  0.00     0.048 A 
ATOM      2  C   UNL     1     138.089 133.515 125.935  1.00  0.00     0.030 A 
ATOM      3  C   UNL     1     137.608 134.399 124.971  1.00  0.00     0.046 A 
ATOM      4  C   UNL     1     136.268 134.529 124.719  1.00  0.00     0.003 A 
ATOM      5  C   UNL     1     136.126 135.471 123.723  1.00  0.00     0.028 A 
ATOM      6  C   UNL     1     137.423 135.873 123.416  1.00  0.00     0.083 A 
ATOM      7  N   UNL     1     138.325 135.214 124.181  1.00  0.00    -0.361 N 
ATOM      8  C   UNL     1     135.312 133.788 125.410  1.00  0.00     0.056 A 
ATOM      9  C   UNL     1     135.766 132.883 126.394  1.00  0.00     0.116 A 
ATOM     10  H   UNL     1     139.363 135.322 124.158  1.00  0.00     0.166 HD
ENDROOT
BRANCH   9  11
ATOM     11  O   UNL     1     134.857 132.115 127.118  1.00  0.00    -0.508 OA
ATOM     12  H   UNL     1     134.076 132.539 127.604  1.00  0.00     0.293 HD
ENDBRANCH   9  11
TORSDOF 1
ENDMDL
MODEL 4
REMARK VINA RESULT:    -4.453      9.921     10.887
REMARK INTER + INTRA:          -4.583
REMARK INTER:                  -4.583
REMARK INTRA:                   0.000
REMARK UNBOUND:                 0.000
REMARK SMILES Oc1ccc2[nH]ccc2c1
REMARK SMILES IDX 3 1 4 2 5 3 9 4 8 5 7 6 6 7 10 8 2 9 1 11
REMARK H PARENT 6 10 1 12
REMARK Flexibility Score: inf
ROOT
ATOM      1  C   UNL     1     137.132 132.418 127.066  1.00  0.00     0.048 A 
ATOM      2  C   UNL     1     137.090 133.071 125.820  1.00  0.00     0.030 A 
ATOM      3  C   UNL     1     135.853 133.520 125.362  1.00  0.00     0.046 A 
ATOM      4  C   UNL     1     134.707 133.336 126.090  1.00  0.00     0.003 A 
ATOM      5  C   UNL     1     133.669 133.886 125.369  1.00  0.00     0.028 A 
ATOM      6  C   UNL     1     134.257 134.387 124.211  1.00  0.00     0.083 A 
ATOM      7  N   UNL     1     135.591 134.160 124.211  1.00  0.00    -0.361 N 
ATOM      8  C   UNL     1     134.713 132.694 127.326  1.00  0.00     0.056 A 
ATOM      9  C   UNL     1     135.951 132.228 127.819  1.00  0.00     0.116 A 
ATOM     10  H   UNL     1     136.273 134.430 123.468  1.00  0.00     0.166 HD
ENDROOT
BRANCH   9  11
ATOM     11  O   UNL     1     136.020 131.578 129.049  1.00  0.00    -0.508 OA
ATOM     12  H   UNL     1     136.279 132.072 129.894  1.00  0.00     0.293 HD
ENDBRANCH   9  11
TORSDOF 1
ENDMDL
MODEL 5
REMARK VINA RESULT:    -4.384     10.169     11.024
REMARK INTER + INTRA:          -4.512
REMARK INTER:                  -4.512
REMARK INTRA:                   0.000
REMARK UNBOUND:                 0.000
REMARK SMILES Oc1ccc2[nH]ccc2c1
REMARK SMILES IDX 3 1 4 2 5 3 9 4 8 5 7 6 6 7 10 8 2 9 1 11
REMARK H PARENT 6 10 1 12
REMARK Flexibility Score: inf
ROOT
ATOM      1  C   UNL     1     134.539 132.629 127.247  1.00  0.00     0.048 A 
ATOM      2  C   UNL     1     134.428 133.427 126.093  1.00  0.00     0.030 A 
ATOM      3  C   UNL     1     135.603 133.924 125.531  1.00  0.00     0.046 A 
ATOM      4  C   UNL     1     136.831 133.653 126.074  1.00  0.00     0.003 A 
ATOM      5  C   UNL     1     137.775 134.284 125.293  1.00  0.00     0.028 A 
ATOM      6  C   UNL     1     137.049 134.921 124.291  1.00  0.00     0.083 A 
ATOM      7  N   UNL     1     135.723 134.699 124.441  1.00  0.00    -0.361 N 
ATOM      8  C   UNL     1     136.975 132.866 127.215  1.00  0.00     0.056 A 
ATOM      9  C   UNL     1     135.805 132.347 127.809  1.00  0.00     0.116 A 
ATOM     10  H   UNL     1     134.954 135.057 123.832  1.00  0.00     0.166 HD
ENDROOT
BRANCH   9  11
ATOM     11  O   UNL     1     135.886 131.554 128.951  1.00  0.00    -0.508 OA
ATOM     12  H   UNL     1     136.335 130.646 128.933  1.00  0.00     0.293 HD
ENDBRANCH   9  11
TORSDOF 1
ENDMDL
MODEL 6
REMARK VINA RESULT:    -4.348      9.472     10.390
REMARK INTER + INTRA:          -4.475
REMARK INTER:                  -4.475
REMARK INTRA:                   0.000
REMARK UNBOUND:                 0.000
REMARK SMILES Oc1ccc2[nH]ccc2c1
REMARK SMILES IDX 3 1 4 2 5 3 9 4 8 5 7 6 6 7 10 8 2 9 1 11
REMARK H PARENT 6 10 1 12
REMARK Flexibility Score: inf
ROOT
ATOM      1  C   UNL     1     135.398 135.082 123.591  1.00  0.00     0.048 A 
ATOM      2  C   UNL     1     135.103 134.018 124.462  1.00  0.00     0.030 A 
ATOM      3  C   UNL     1     136.134 133.526 125.260  1.00  0.00     0.046 A 
ATOM      4  C   UNL     1     137.398 134.051 125.208  1.00  0.00     0.003 A 
ATOM      5  C   UNL     1     138.172 133.352 126.108  1.00  0.00     0.028 A 
ATOM      6  C   UNL     1     137.313 132.413 126.674  1.00  0.00     0.083 A 
ATOM      7  N   UNL     1     136.070 132.523 126.152  1.00  0.00    -0.361 N 
ATOM      8  C   UNL     1     137.723 135.105 124.358  1.00  0.00     0.056 A 
ATOM      9  C   UNL     1     136.702 135.628 123.536  1.00  0.00     0.116 A 
ATOM     10  H   UNL     1     135.234 131.946 126.395  1.00  0.00     0.166 HD
ENDROOT
BRANCH   9  11
ATOM     11  O   UNL     1     136.967 136.682 122.664  1.00  0.00    -0.508 OA
ATOM     12  H   UNL     1     137.398 136.525 121.761  1.00  0.00     0.293 HD
ENDBRANCH   9  11
TORSDOF 1
ENDMDL
MODEL 7
REMARK VINA RESULT:    -4.338      9.167     10.072
REMARK INTER + INTRA:          -4.465
REMARK INTER:                  -4.465
REMARK INTRA:                   0.000
REMARK UNBOUND:                 0.000
REMARK SMILES Oc1ccc2[nH]ccc2c1
REMARK SMILES IDX 3 1 4 2 5 3 9 4 8 5 7 6 6 7 10 8 2 9 1 11
REMARK H PARENT 6 10 1 12
REMARK Flexibility Score: inf
ROOT
ATOM      1  C   UNL     1     134.924 133.518 124.986  1.00  0.00     0.048 A 
ATOM      2  C   UNL     1     135.014 134.497 123.979  1.00  0.00     0.030 A 
ATOM      3  C   UNL     1     136.244 135.121 123.787  1.00  0.00     0.046 A 
ATOM      4  C   UNL     1     137.339 134.803 124.547  1.00  0.00     0.003 A 
ATOM      5  C   UNL     1     138.384 135.589 124.113  1.00  0.00     0.028 A 
ATOM      6  C   UNL     1     137.854 136.363 123.085  1.00  0.00     0.083 A 
ATOM      7  N   UNL     1     136.546 136.074 122.890  1.00  0.00    -0.361 N 
ATOM      8  C   UNL     1     137.284 133.839 125.551  1.00  0.00     0.056 A 
ATOM      9  C   UNL     1     136.052 133.187 125.771  1.00  0.00     0.116 A 
ATOM     10  H   UNL     1     135.907 136.506 122.186  1.00  0.00     0.166 HD
ENDROOT
BRANCH   9  11
ATOM     11  O   UNL     1     135.936 132.214 126.761  1.00  0.00    -0.508 OA
ATOM     12  H   UNL     1     136.161 132.415 127.728  1.00  0.00     0.293 HD
ENDBRANCH   9  11
TORSDOF 1
ENDMDL
MODEL 8
REMARK VINA RESULT:    -4.322      2.479      3.934
REMARK INTER + INTRA:          -4.448
REMARK INTER:                  -4.448
REMARK INTRA:                   0.000
REMARK UNBOUND:                 0.000
REMARK SMILES Oc1ccc2[nH]ccc2c1
REMARK SMILES IDX 3 1 4 2 5 3 9 4 8 5 7 6 6 7 10 8 2 9 1 11
REMARK H PARENT 6 10 1 12
REMARK Flexibility Score: inf
ROOT
ATOM      1  C   UNL     1     129.636 135.847 118.111  1.00  0.00     0.048 A 
ATOM      2  C   UNL     1     128.979 134.704 117.619  1.00  0.00     0.030 A 
ATOM      3  C   UNL     1     127.732 134.389 118.154  1.00  0.00     0.046 A 
ATOM      4  C   UNL     1     127.153 135.158 119.129  1.00  0.00     0.003 A 
ATOM      5  C   UNL     1     125.939 134.584 119.439  1.00  0.00     0.028 A 
ATOM      6  C   UNL     1     125.844 133.467 118.613  1.00  0.00     0.083 A 
ATOM      7  N   UNL     1     126.942 133.352 117.831  1.00  0.00    -0.361 N 
ATOM      8  C   UNL     1     127.775 136.295 119.638  1.00  0.00     0.056 A 
ATOM      9  C   UNL     1     129.040 136.642 119.117  1.00  0.00     0.116 A 
ATOM     10  H   UNL     1     127.132 132.609 117.122  1.00  0.00     0.166 HD
ENDROOT
BRANCH   9  11
ATOM     11  O   UNL     1     129.712 137.769 119.587  1.00  0.00    -0.508 OA
ATOM     12  H   UNL     1     130.709 137.755 119.761  1.00  0.00     0.293 HD
ENDBRANCH   9  11
TORSDOF 1
ENDMDL
MODEL 9
REMARK VINA RESULT:    -4.258      2.354      3.569
REMARK INTER + INTRA:          -4.383
REMARK INTER:                  -4.383
REMARK INTRA:                   0.000
REMARK UNBOUND:                 0.000
REMARK SMILES Oc1ccc2[nH]ccc2c1
REMARK SMILES IDX 3 1 4 2 5 3 9 4 8 5 7 6 6 7 10 8 2 9 1 11
REMARK H PARENT 6 10 1 12
REMARK Flexibility Score: inf
ROOT
ATOM      1  C   UNL     1     128.763 137.496 119.747  1.00  0.00     0.048 A 
ATOM      2  C   UNL     1     127.476 136.979 119.510  1.00  0.00     0.030 A 
ATOM      3  C   UNL     1     127.360 135.895 118.643  1.00  0.00     0.046 A 
ATOM      4  C   UNL     1     128.455 135.340 118.035  1.00  0.00     0.003 A 
ATOM      5  C   UNL     1     128.007 134.299 117.250  1.00  0.00     0.028 A 
ATOM      6  C   UNL     1     126.627 134.278 117.429  1.00  0.00     0.083 A 
ATOM      7  N   UNL     1     126.237 135.255 118.280  1.00  0.00    -0.361 N 
ATOM      8  C   UNL     1     129.743 135.826 118.249  1.00  0.00     0.056 A 
ATOM      9  C   UNL     1     129.895 136.925 119.122  1.00  0.00     0.116 A 
ATOM     10  H   UNL     1     125.262 135.464 118.589  1.00  0.00     0.166 HD
ENDROOT
BRANCH   9  11
ATOM     11  O   UNL     1     131.158 137.455 119.375  1.00  0.00    -0.508 OA
ATOM     12  H   UNL     1     131.905 137.387 118.694  1.00  0.00     0.293 HD
ENDBRANCH   9  11
TORSDOF 1
ENDMDL
