MODEL 1
REMARK VINA RESULT:    -3.933      0.000      0.000
REMARK INTER + INTRA:          -4.393
REMARK INTER:                  -4.393
REMARK INTRA:                   0.000
REMARK UNBOUND:                 0.000
REMARK SMILES Oc1cc(O)c2c(ccc3ccc(O)c(O)c32)c1
REMARK SMILES IDX 9 1 8 2 7 3 18 4 2 5 3 6 4 7 6 8 17 9 10 10 11 11 12 12
REMARK SMILES IDX 13 13 15 14 16 15 1 17 5 19 14 21
REMARK H PARENT 16 16 1 18 5 20 14 22
REMARK Flexibility Score: inf
ROOT
ATOM      1  C   UNL     1     163.623 153.969 148.426  1.00  0.00     0.009 A 
ATOM      2  C   UNL     1     164.546 152.959 148.192  1.00  0.00     0.009 A 
ATOM      3  C   UNL     1     165.916 153.244 148.160  1.00  0.00    -0.010 A 
ATOM      4  C   UNL     1     166.830 152.192 147.998  1.00  0.00     0.055 A 
ATOM      5  C   UNL     1     168.200 152.427 148.094  1.00  0.00     0.119 A 
ATOM      6  C   UNL     1     168.661 153.705 148.412  1.00  0.00     0.093 A 
ATOM      7  C   UNL     1     167.763 154.765 148.600  1.00  0.00     0.127 A 
ATOM      8  C   UNL     1     166.376 154.579 148.339  1.00  0.00     0.035 A 
ATOM      9  C   UNL     1     165.411 155.640 148.350  1.00  0.00     0.039 A 
ATOM     10  C   UNL     1     164.036 155.303 148.497  1.00  0.00    -0.014 A 
ATOM     11  C   UNL     1     163.076 156.309 148.669  1.00  0.00     0.013 A 
ATOM     12  C   UNL     1     163.449 157.647 148.641  1.00  0.00     0.051 A 
ATOM     13  C   UNL     1     164.763 158.009 148.351  1.00  0.00     0.158 A 
ATOM     14  C   UNL     1     165.733 157.008 148.111  1.00  0.00     0.166 A 
ENDROOT
BRANCH  14  15
ATOM     15  O   UNL     1     166.956 157.342 147.524  1.00  0.00    -0.504 OA
ATOM     16  H   UNL     1     167.814 157.464 148.043  1.00  0.00     0.293 HD
ENDBRANCH  14  15
BRANCH   5  17
ATOM     17  O   UNL     1     169.092 151.373 147.907  1.00  0.00    -0.508 OA
ATOM     18  H   UNL     1     169.456 150.843 148.690  1.00  0.00     0.293 HD
ENDBRANCH   5  17
BRANCH   7  19
ATOM     19  O   UNL     1     168.249 155.957 149.136  1.00  0.00    -0.507 OA
ATOM     20  H   UNL     1     167.689 156.540 149.745  1.00  0.00     0.293 HD
ENDBRANCH   7  19
BRANCH  13  21
ATOM     21  O   UNL     1     165.070 159.370 148.299  1.00  0.00    -0.504 OA
ATOM     22  H   UNL     1     165.936 159.761 148.642  1.00  0.00     0.293 HD
ENDBRANCH  13  21
TORSDOF 4
ENDMDL
MODEL 2
REMARK VINA RESULT:    -3.906      0.954      4.927
REMARK INTER + INTRA:          -4.362
REMARK INTER:                  -4.362
REMARK INTRA:                   0.000
REMARK UNBOUND:                 0.000
REMARK SMILES Oc1cc(O)c2c(ccc3ccc(O)c(O)c32)c1
REMARK SMILES IDX 9 1 8 2 7 3 18 4 2 5 3 6 4 7 6 8 17 9 10 10 11 11 12 12
REMARK SMILES IDX 13 13 15 14 16 15 1 17 5 19 14 21
REMARK H PARENT 16 16 1 18 5 20 14 22
REMARK Flexibility Score: inf
ROOT
ATOM      1  C   UNL     1     164.593 152.860 148.283  1.00  0.00     0.009 A 
ATOM      2  C   UNL     1     163.642 153.847 148.505  1.00  0.00     0.009 A 
ATOM      3  C   UNL     1     164.016 155.195 148.545  1.00  0.00    -0.010 A 
ATOM      4  C   UNL     1     163.025 156.176 148.695  1.00  0.00     0.055 A 
ATOM      5  C   UNL     1     163.352 157.527 148.607  1.00  0.00     0.119 A 
ATOM      6  C   UNL     1     164.662 157.904 148.309  1.00  0.00     0.093 A 
ATOM      7  C   UNL     1     165.662 156.938 148.134  1.00  0.00     0.127 A 
ATOM      8  C   UNL     1     165.382 155.566 148.388  1.00  0.00     0.035 A 
ATOM      9  C   UNL     1     166.377 154.534 148.390  1.00  0.00     0.039 A 
ATOM     10  C   UNL     1     165.953 153.184 148.233  1.00  0.00    -0.014 A 
ATOM     11  C   UNL     1     166.895 152.160 148.074  1.00  0.00     0.013 A 
ATOM     12  C   UNL     1     168.255 152.444 148.122  1.00  0.00     0.051 A 
ATOM     13  C   UNL     1     168.698 153.731 148.422  1.00  0.00     0.158 A 
ATOM     14  C   UNL     1     167.759 154.764 148.651  1.00  0.00     0.166 A 
ENDROOT
BRANCH  14  15
ATOM     15  O   UNL     1     168.165 155.961 149.246  1.00  0.00    -0.504 OA
ATOM     16  H   UNL     1     168.707 156.670 148.772  1.00  0.00     0.293 HD
ENDBRANCH  14  15
BRANCH   5  17
ATOM     17  O   UNL     1     162.356 158.487 148.781  1.00  0.00    -0.508 OA
ATOM     18  H   UNL     1     161.931 158.650 149.687  1.00  0.00     0.293 HD
ENDBRANCH   5  17
BRANCH   7  19
ATOM     19  O   UNL     1     166.892 157.346 147.618  1.00  0.00    -0.507 OA
ATOM     20  H   UNL     1     167.240 158.289 147.744  1.00  0.00     0.293 HD
ENDBRANCH   7  19
BRANCH  13  21
ATOM     21  O   UNL     1     170.075 153.947 148.495  1.00  0.00    -0.504 OA
ATOM     22  H   UNL     1     170.705 153.804 147.718  1.00  0.00     0.293 HD
ENDBRANCH  13  21
TORSDOF 4
ENDMDL
MODEL 3
REMARK VINA RESULT:    -3.888      9.498     11.659
REMARK INTER + INTRA:          -4.342
REMARK INTER:                  -4.342
REMARK INTRA:                   0.000
REMARK UNBOUND:                 0.000
REMARK SMILES Oc1cc(O)c2c(ccc3ccc(O)c(O)c32)c1
REMARK SMILES IDX 9 1 8 2 7 3 18 4 2 5 3 6 4 7 6 8 17 9 10 10 11 11 12 12
REMARK SMILES IDX 13 13 15 14 16 15 1 17 5 19 14 21
REMARK H PARENT 16 16 1 18 5 20 14 22
REMARK Flexibility Score: inf
ROOT
ATOM      1  C   UNL     1     166.045 163.623 148.397  1.00  0.00     0.009 A 
ATOM      2  C   UNL     1     167.043 164.554 148.138  1.00  0.00     0.009 A 
ATOM      3  C   UNL     1     166.748 165.922 148.122  1.00  0.00    -0.010 A 
ATOM      4  C   UNL     1     167.789 166.844 147.934  1.00  0.00     0.055 A 
ATOM      5  C   UNL     1     167.547 168.211 148.044  1.00  0.00     0.119 A 
ATOM      6  C   UNL     1     166.277 168.663 148.402  1.00  0.00     0.093 A 
ATOM      7  C   UNL     1     165.229 167.756 148.616  1.00  0.00     0.127 A 
ATOM      8  C   UNL     1     165.415 166.372 148.343  1.00  0.00     0.035 A 
ATOM      9  C   UNL     1     164.362 165.400 148.379  1.00  0.00     0.039 A 
ATOM     10  C   UNL     1     164.711 164.027 148.509  1.00  0.00    -0.014 A 
ATOM     11  C   UNL     1     163.717 163.060 148.704  1.00  0.00     0.013 A 
ATOM     12  C   UNL     1     162.376 163.424 148.718  1.00  0.00     0.051 A 
ATOM     13  C   UNL     1     161.998 164.737 148.445  1.00  0.00     0.158 A 
ATOM     14  C   UNL     1     162.986 165.715 148.181  1.00  0.00     0.166 A 
ENDROOT
BRANCH  14  15
ATOM     15  O   UNL     1     162.626 166.939 147.611  1.00  0.00    -0.504 OA
ATOM     16  H   UNL     1     163.192 167.774 147.669  1.00  0.00     0.293 HD
ENDBRANCH  14  15
BRANCH   5  17
ATOM     17  O   UNL     1     168.590 169.112 147.832  1.00  0.00    -0.508 OA
ATOM     18  H   UNL     1     169.312 168.932 147.143  1.00  0.00     0.293 HD
ENDBRANCH   5  17
BRANCH   7  19
ATOM     19  O   UNL     1     164.050 168.232 149.189  1.00  0.00    -0.507 OA
ATOM     20  H   UNL     1     163.260 167.626 149.374  1.00  0.00     0.293 HD
ENDBRANCH   7  19
BRANCH  13  21
ATOM     21  O   UNL     1     160.634 165.035 148.434  1.00  0.00    -0.504 OA
ATOM     22  H   UNL     1     160.033 164.871 147.639  1.00  0.00     0.293 HD
ENDBRANCH  13  21
TORSDOF 4
ENDMDL
MODEL 4
REMARK VINA RESULT:    -3.871      7.510     10.449
REMARK INTER + INTRA:          -4.323
REMARK INTER:                  -4.323
REMARK INTRA:                   0.000
REMARK UNBOUND:                 0.000
REMARK SMILES Oc1cc(O)c2c(ccc3ccc(O)c(O)c32)c1
REMARK SMILES IDX 9 1 8 2 7 3 18 4 2 5 3 6 4 7 6 8 17 9 10 10 11 11 12 12
REMARK SMILES IDX 13 13 15 14 16 15 1 17 5 19 14 21
REMARK H PARENT 16 16 1 18 5 20 14 22
REMARK Flexibility Score: inf
ROOT
ATOM      1  C   UNL     1     169.819 163.920 148.617  1.00  0.00     0.009 A 
ATOM      2  C   UNL     1     169.001 162.917 149.120  1.00  0.00     0.009 A 
ATOM      3  C   UNL     1     167.609 163.048 149.073  1.00  0.00    -0.010 A 
ATOM      4  C   UNL     1     166.806 161.987 149.519  1.00  0.00     0.055 A 
ATOM      5  C   UNL     1     165.422 162.037 149.363  1.00  0.00     0.119 A 
ATOM      6  C   UNL     1     164.838 163.121 148.706  1.00  0.00     0.093 A 
ATOM      7  C   UNL     1     165.626 164.180 148.234  1.00  0.00     0.127 A 
ATOM      8  C   UNL     1     167.016 164.226 148.535  1.00  0.00     0.035 A 
ATOM      9  C   UNL     1     167.864 165.342 148.233  1.00  0.00     0.039 A 
ATOM     10  C   UNL     1     169.270 165.131 148.183  1.00  0.00    -0.014 A 
ATOM     11  C   UNL     1     170.123 166.150 147.742  1.00  0.00     0.013 A 
ATOM     12  C   UNL     1     169.611 167.396 147.401  1.00  0.00     0.051 A 
ATOM     13  C   UNL     1     168.258 167.677 147.582  1.00  0.00     0.158 A 
ATOM     14  C   UNL     1     167.393 166.680 148.088  1.00  0.00     0.166 A 
ENDROOT
BRANCH  14  15
ATOM     15  O   UNL     1     166.124 167.026 148.561  1.00  0.00    -0.504 OA
ATOM     16  H   UNL     1     165.725 167.950 148.476  1.00  0.00     0.293 HD
ENDBRANCH  14  15
BRANCH   5  17
ATOM     17  O   UNL     1     164.641 160.983 149.832  1.00  0.00    -0.508 OA
ATOM     18  H   UNL     1     164.133 161.050 150.708  1.00  0.00     0.293 HD
ENDBRANCH   5  17
BRANCH   7  19
ATOM     19  O   UNL     1     165.032 165.120 147.392  1.00  0.00    -0.507 OA
ATOM     20  H   UNL     1     164.131 165.534 147.600  1.00  0.00     0.293 HD
ENDBRANCH   7  19
BRANCH  13  21
ATOM     21  O   UNL     1     167.809 168.959 147.258  1.00  0.00    -0.504 OA
ATOM     22  H   UNL     1     168.265 169.805 147.568  1.00  0.00     0.293 HD
ENDBRANCH  13  21
TORSDOF 4
ENDMDL
MODEL 5
REMARK VINA RESULT:    -3.851      9.683     11.824
REMARK INTER + INTRA:          -4.301
REMARK INTER:                  -4.301
REMARK INTRA:                   0.000
REMARK UNBOUND:                 0.000
REMARK SMILES Oc1cc(O)c2c(ccc3ccc(O)c(O)c32)c1
REMARK SMILES IDX 9 1 8 2 7 3 18 4 2 5 3 6 4 7 6 8 17 9 10 10 11 11 12 12
REMARK SMILES IDX 13 13 15 14 16 15 1 17 5 19 14 21
REMARK H PARENT 16 16 1 18 5 20 14 22
REMARK Flexibility Score: inf
ROOT
ATOM      1  C   UNL     1     153.705 156.373 148.330  1.00  0.00     0.009 A 
ATOM      2  C   UNL     1     152.731 155.421 148.061  1.00  0.00     0.009 A 
ATOM      3  C   UNL     1     153.053 154.059 148.061  1.00  0.00    -0.010 A 
ATOM      4  C   UNL     1     152.034 153.115 147.862  1.00  0.00     0.055 A 
ATOM      5  C   UNL     1     152.301 151.754 147.986  1.00  0.00     0.119 A 
ATOM      6  C   UNL     1     153.573 151.330 148.370  1.00  0.00     0.093 A 
ATOM      7  C   UNL     1     154.599 152.259 148.595  1.00  0.00     0.127 A 
ATOM      8  C   UNL     1     154.390 153.637 148.308  1.00  0.00     0.035 A 
ATOM      9  C   UNL     1     155.423 154.630 148.356  1.00  0.00     0.039 A 
ATOM     10  C   UNL     1     155.045 155.997 148.469  1.00  0.00    -0.014 A 
ATOM     11  C   UNL     1     156.016 156.985 148.675  1.00  0.00     0.013 A 
ATOM     12  C   UNL     1     157.363 156.648 148.715  1.00  0.00     0.051 A 
ATOM     13  C   UNL     1     157.772 155.340 148.459  1.00  0.00     0.158 A 
ATOM     14  C   UNL     1     156.809 154.342 148.185  1.00  0.00     0.166 A 
ENDROOT
BRANCH  14  15
ATOM     15  O   UNL     1     157.203 153.121 147.631  1.00  0.00    -0.504 OA
ATOM     16  H   UNL     1     157.163 152.913 146.643  1.00  0.00     0.293 HD
ENDBRANCH  14  15
BRANCH   5  17
ATOM     17  O   UNL     1     151.280 150.831 147.762  1.00  0.00    -0.508 OA
ATOM     18  H   UNL     1     150.384 150.909 148.230  1.00  0.00     0.293 HD
ENDBRANCH   5  17
BRANCH   7  19
ATOM     19  O   UNL     1     155.777 151.811 149.193  1.00  0.00    -0.507 OA
ATOM     20  H   UNL     1     156.681 152.199 148.954  1.00  0.00     0.293 HD
ENDBRANCH   7  19
BRANCH  13  21
ATOM     21  O   UNL     1     159.142 155.070 148.475  1.00  0.00    -0.504 OA
ATOM     22  H   UNL     1     159.678 154.952 149.323  1.00  0.00     0.293 HD
ENDBRANCH  13  21
TORSDOF 4
ENDMDL
MODEL 6
REMARK VINA RESULT:    -3.845      8.871     11.514
REMARK INTER + INTRA:          -4.295
REMARK INTER:                  -4.295
REMARK INTRA:                   0.000
REMARK UNBOUND:                 0.000
REMARK SMILES Oc1cc(O)c2c(ccc3ccc(O)c(O)c32)c1
REMARK SMILES IDX 9 1 8 2 7 3 18 4 2 5 3 6 4 7 6 8 17 9 10 10 11 11 12 12
REMARK SMILES IDX 13 13 15 14 16 15 1 17 5 19 14 21
REMARK H PARENT 16 16 1 18 5 20 14 22
REMARK Flexibility Score: inf
ROOT
ATOM      1  C   UNL     1     167.132 164.640 148.305  1.00  0.00     0.009 A 
ATOM      2  C   UNL     1     166.151 163.686 148.540  1.00  0.00     0.009 A 
ATOM      3  C   UNL     1     164.800 164.051 148.572  1.00  0.00    -0.010 A 
ATOM      4  C   UNL     1     163.825 163.055 148.736  1.00  0.00     0.055 A 
ATOM      5  C   UNL     1     162.472 163.372 148.640  1.00  0.00     0.119 A 
ATOM      6  C   UNL     1     162.087 164.674 148.320  1.00  0.00     0.093 A 
ATOM      7  C   UNL     1     163.047 165.678 148.130  1.00  0.00     0.127 A 
ATOM      8  C   UNL     1     164.420 165.411 148.391  1.00  0.00     0.035 A 
ATOM      9  C   UNL     1     165.446 166.413 148.378  1.00  0.00     0.039 A 
ATOM     10  C   UNL     1     166.798 165.996 148.232  1.00  0.00    -0.014 A 
ATOM     11  C   UNL     1     167.816 166.943 148.058  1.00  0.00     0.013 A 
ATOM     12  C   UNL     1     167.523 168.301 148.084  1.00  0.00     0.051 A 
ATOM     13  C   UNL     1     166.233 168.740 148.374  1.00  0.00     0.158 A 
ATOM     14  C   UNL     1     165.205 167.798 148.616  1.00  0.00     0.166 A 
ENDROOT
BRANCH  14  15
ATOM     15  O   UNL     1     164.004 168.205 149.202  1.00  0.00    -0.504 OA
ATOM     16  H   UNL     1     163.186 167.617 149.276  1.00  0.00     0.293 HD
ENDBRANCH  14  15
BRANCH   5  17
ATOM     17  O   UNL     1     161.519 162.372 148.829  1.00  0.00    -0.508 OA
ATOM     18  H   UNL     1     161.678 161.423 148.511  1.00  0.00     0.293 HD
ENDBRANCH   5  17
BRANCH   7  19
ATOM     19  O   UNL     1     162.631 166.896 147.592  1.00  0.00    -0.507 OA
ATOM     20  H   UNL     1     161.656 167.093 147.400  1.00  0.00     0.293 HD
ENDBRANCH   7  19
BRANCH  13  21
ATOM     21  O   UNL     1     166.007 170.117 148.423  1.00  0.00    -0.504 OA
ATOM     22  H   UNL     1     165.492 170.571 149.164  1.00  0.00     0.293 HD
ENDBRANCH  13  21
TORSDOF 4
ENDMDL
MODEL 7
REMARK VINA RESULT:    -3.787      9.426     11.751
REMARK INTER + INTRA:          -4.230
REMARK INTER:                  -4.230
REMARK INTRA:                   0.000
REMARK UNBOUND:                 0.000
REMARK SMILES Oc1cc(O)c2c(ccc3ccc(O)c(O)c32)c1
REMARK SMILES IDX 9 1 8 2 7 3 18 4 2 5 3 6 4 7 6 8 17 9 10 10 11 11 12 12
REMARK SMILES IDX 13 13 15 14 16 15 1 17 5 19 14 21
REMARK H PARENT 16 16 1 18 5 20 14 22
REMARK Flexibility Score: inf
ROOT
ATOM      1  C   UNL     1     152.832 155.370 148.307  1.00  0.00     0.009 A 
ATOM      2  C   UNL     1     153.817 156.323 148.530  1.00  0.00     0.009 A 
ATOM      3  C   UNL     1     155.166 155.953 148.565  1.00  0.00    -0.010 A 
ATOM      4  C   UNL     1     156.145 156.947 148.715  1.00  0.00     0.055 A 
ATOM      5  C   UNL     1     157.497 156.625 148.622  1.00  0.00     0.119 A 
ATOM      6  C   UNL     1     157.877 155.317 148.318  1.00  0.00     0.093 A 
ATOM      7  C   UNL     1     156.914 154.314 148.143  1.00  0.00     0.127 A 
ATOM      8  C   UNL     1     155.541 154.589 148.401  1.00  0.00     0.035 A 
ATOM      9  C   UNL     1     154.512 153.591 148.403  1.00  0.00     0.039 A 
ATOM     10  C   UNL     1     153.161 154.011 148.251  1.00  0.00    -0.014 A 
ATOM     11  C   UNL     1     152.139 153.066 148.091  1.00  0.00     0.013 A 
ATOM     12  C   UNL     1     152.428 151.707 148.134  1.00  0.00     0.051 A 
ATOM     13  C   UNL     1     153.717 151.267 148.429  1.00  0.00     0.158 A 
ATOM     14  C   UNL     1     154.748 152.209 148.657  1.00  0.00     0.166 A 
ENDROOT
BRANCH  14  15
ATOM     15  O   UNL     1     155.948 151.804 149.248  1.00  0.00    -0.504 OA
ATOM     16  H   UNL     1     156.667 152.444 149.555  1.00  0.00     0.293 HD
ENDBRANCH  14  15
BRANCH   5  17
ATOM     17  O   UNL     1     158.454 157.623 148.797  1.00  0.00    -0.508 OA
ATOM     18  H   UNL     1     158.390 158.289 149.558  1.00  0.00     0.293 HD
ENDBRANCH   5  17
BRANCH   7  19
ATOM     19  O   UNL     1     157.324 153.088 147.620  1.00  0.00    -0.507 OA
ATOM     20  H   UNL     1     157.338 152.906 146.624  1.00  0.00     0.293 HD
ENDBRANCH   7  19
BRANCH  13  21
ATOM     21  O   UNL     1     153.937 149.890 148.496  1.00  0.00    -0.504 OA
ATOM     22  H   UNL     1     154.227 149.412 149.337  1.00  0.00     0.293 HD
ENDBRANCH  13  21
TORSDOF 4
ENDMDL
MODEL 8
REMARK VINA RESULT:    -3.769      2.311      3.091
REMARK INTER + INTRA:          -4.210
REMARK INTER:                  -4.210
REMARK INTRA:                   0.000
REMARK UNBOUND:                 0.000
REMARK SMILES Oc1cc(O)c2c(ccc3ccc(O)c(O)c32)c1
REMARK SMILES IDX 9 1 8 2 7 3 18 4 2 5 3 6 4 7 6 8 17 9 10 10 11 11 12 12
REMARK SMILES IDX 13 13 15 14 16 15 1 17 5 19 14 21
REMARK H PARENT 16 16 1 18 5 20 14 22
REMARK Flexibility Score: inf
ROOT
ATOM      1  C   UNL     1     163.517 150.490 149.213  1.00  0.00     0.009 A 
ATOM      2  C   UNL     1     164.685 149.875 148.781  1.00  0.00     0.009 A 
ATOM      3  C   UNL     1     165.772 150.642 148.350  1.00  0.00    -0.010 A 
ATOM      4  C   UNL     1     166.966 149.997 147.991  1.00  0.00     0.055 A 
ATOM      5  C   UNL     1     168.104 150.740 147.685  1.00  0.00     0.119 A 
ATOM      6  C   UNL     1     168.072 152.131 147.793  1.00  0.00     0.093 A 
ATOM      7  C   UNL     1     166.895 152.793 148.171  1.00  0.00     0.127 A 
ATOM      8  C   UNL     1     165.683 152.063 148.322  1.00  0.00     0.035 A 
ATOM      9  C   UNL     1     164.405 152.673 148.548  1.00  0.00     0.039 A 
ATOM     10  C   UNL     1     163.361 151.875 149.095  1.00  0.00    -0.014 A 
ATOM     11  C   UNL     1     162.148 152.463 149.477  1.00  0.00     0.013 A 
ATOM     12  C   UNL     1     161.931 153.820 149.276  1.00  0.00     0.051 A 
ATOM     13  C   UNL     1     162.878 154.595 148.608  1.00  0.00     0.158 A 
ATOM     14  C   UNL     1     164.081 154.005 148.157  1.00  0.00     0.166 A 
ENDROOT
BRANCH  14  15
ATOM     15  O   UNL     1     164.887 154.674 147.233  1.00  0.00    -0.504 OA
ATOM     16  H   UNL     1     164.555 155.021 146.344  1.00  0.00     0.293 HD
ENDBRANCH  14  15
BRANCH   5  17
ATOM     17  O   UNL     1     169.273 150.081 147.309  1.00  0.00    -0.508 OA
ATOM     18  H   UNL     1     169.386 149.083 147.450  1.00  0.00     0.293 HD
ENDBRANCH   5  17
BRANCH   7  19
ATOM     19  O   UNL     1     166.972 154.149 148.485  1.00  0.00    -0.507 OA
ATOM     20  H   UNL     1     166.464 154.549 149.264  1.00  0.00     0.293 HD
ENDBRANCH   7  19
BRANCH  13  21
ATOM     21  O   UNL     1     162.587 155.945 148.401  1.00  0.00    -0.504 OA
ATOM     22  H   UNL     1     163.136 156.700 148.789  1.00  0.00     0.293 HD
ENDBRANCH  13  21
TORSDOF 4
ENDMDL
MODEL 9
REMARK VINA RESULT:    -3.767      1.937      5.479
REMARK INTER + INTRA:          -4.207
REMARK INTER:                  -4.207
REMARK INTRA:                   0.000
REMARK UNBOUND:                 0.000
REMARK SMILES Oc1cc(O)c2c(ccc3ccc(O)c(O)c32)c1
REMARK SMILES IDX 9 1 8 2 7 3 18 4 2 5 3 6 4 7 6 8 17 9 10 10 11 11 12 12
REMARK SMILES IDX 13 13 15 14 16 15 1 17 5 19 14 21
REMARK H PARENT 16 16 1 18 5 20 14 22
REMARK Flexibility Score: inf
ROOT
ATOM      1  C   UNL     1     169.138 154.410 148.765  1.00  0.00     0.009 A 
ATOM      2  C   UNL     1     168.969 155.788 148.789  1.00  0.00     0.009 A 
ATOM      3  C   UNL     1     167.696 156.348 148.640  1.00  0.00    -0.010 A 
ATOM      4  C   UNL     1     167.545 157.740 148.744  1.00  0.00     0.055 A 
ATOM      5  C   UNL     1     166.275 158.313 148.731  1.00  0.00     0.119 A 
ATOM      6  C   UNL     1     165.147 157.494 148.674  1.00  0.00     0.093 A 
ATOM      7  C   UNL     1     165.277 156.101 148.591  1.00  0.00     0.127 A 
ATOM      8  C   UNL     1     166.563 155.512 148.433  1.00  0.00     0.035 A 
ATOM      9  C   UNL     1     166.778 154.117 148.181  1.00  0.00     0.039 A 
ATOM     10  C   UNL     1     168.063 153.570 148.456  1.00  0.00    -0.014 A 
ATOM     11  C   UNL     1     168.276 152.187 148.374  1.00  0.00     0.013 A 
ATOM     12  C   UNL     1     167.249 151.342 147.971  1.00  0.00     0.051 A 
ATOM     13  C   UNL     1     166.026 151.865 147.554  1.00  0.00     0.158 A 
ATOM     14  C   UNL     1     165.816 153.263 147.568  1.00  0.00     0.166 A 
ENDROOT
BRANCH  14  15
ATOM     15  O   UNL     1     164.736 153.817 146.876  1.00  0.00    -0.504 OA
ATOM     16  H   UNL     1     163.906 153.299 146.621  1.00  0.00     0.293 HD
ENDBRANCH  14  15
BRANCH   5  17
ATOM     17  O   UNL     1     166.147 159.698 148.813  1.00  0.00    -0.508 OA
ATOM     18  H   UNL     1     165.545 160.134 149.503  1.00  0.00     0.293 HD
ENDBRANCH   5  17
BRANCH   7  19
ATOM     19  O   UNL     1     164.135 155.319 148.766  1.00  0.00    -0.507 OA
ATOM     20  H   UNL     1     163.311 155.671 149.239  1.00  0.00     0.293 HD
ENDBRANCH   7  19
BRANCH  13  21
ATOM     21  O   UNL     1     165.046 150.968 147.122  1.00  0.00    -0.504 OA
ATOM     22  H   UNL     1     164.940 150.679 146.161  1.00  0.00     0.293 HD
ENDBRANCH  13  21
TORSDOF 4
ENDMDL
