MODEL 1
REMARK VINA RESULT:    -5.151      0.000      0.000
REMARK INTER + INTRA:          -6.734
REMARK INTER:                  -6.355
REMARK INTRA:                  -0.379
REMARK UNBOUND:                -0.379
REMARK SMILES Oc1cc(O)c2cc(O)c(-c3cc(O)c(O)c(O)c3)[o+]c2c1
REMARK SMILES IDX 10 1 20 2 21 3 22 4 2 5 3 6 4 7 6 8 7 9 8 10 11 11 12 12
REMARK SMILES IDX 13 13 19 14 15 15 17 16 14 17 16 19 18 21 9 23 1 25 5 27
REMARK H PARENT 14 18 16 20 18 22 9 24 1 26 5 28
REMARK Flexibility Score: inf
ROOT
ATOM      1  C   UNL     1      54.213   7.188 -48.268  1.00  0.00     0.402 A 
ATOM      2  O   UNL     1      53.786   8.158 -49.072  1.00  0.00    -0.202 OA
ATOM      3  C   UNL     1      53.784   8.058 -50.398  1.00  0.00     0.368 A 
ATOM      4  C   UNL     1      53.318   9.134 -51.159  1.00  0.00     0.162 A 
ATOM      5  C   UNL     1      53.307   9.056 -52.555  1.00  0.00     0.128 A 
ATOM      6  C   UNL     1      53.766   7.901 -53.191  1.00  0.00     0.093 A 
ATOM      7  C   UNL     1      54.237   6.810 -52.451  1.00  0.00     0.136 A 
ATOM      8  C   UNL     1      54.248   6.882 -51.034  1.00  0.00     0.125 A 
ATOM      9  C   UNL     1      54.691   5.833 -50.211  1.00  0.00     0.078 A 
ATOM     10  C   UNL     1      54.667   5.976 -48.821  1.00  0.00     0.223 A 
ENDROOT
BRANCH   1  11
ATOM     11  C   UNL     1      54.176   7.423 -46.806  1.00  0.00     0.091 A 
ATOM     12  C   UNL     1      53.059   7.060 -46.035  1.00  0.00     0.068 A 
ATOM     13  C   UNL     1      53.052   7.269 -44.649  1.00  0.00     0.162 A 
ATOM     14  C   UNL     1      55.300   7.967 -46.166  1.00  0.00     0.068 A 
ATOM     15  C   UNL     1      54.173   7.836 -44.020  1.00  0.00     0.200 A 
ATOM     16  C   UNL     1      55.300   8.182 -44.784  1.00  0.00     0.162 A 
BRANCH  13  17
ATOM     17  O   UNL     1      51.936   6.910 -43.895  1.00  0.00    -0.504 OA
ATOM     18  H   UNL     1      51.903   6.041 -43.373  1.00  0.00     0.293 HD
ENDBRANCH  13  17
BRANCH  15  19
ATOM     19  O   UNL     1      54.181   8.056 -42.642  1.00  0.00    -0.502 OA
ATOM     20  H   UNL     1      54.375   8.967 -42.242  1.00  0.00     0.293 HD
ENDBRANCH  15  19
BRANCH  16  21
ATOM     21  O   UNL     1      56.431   8.739 -44.188  1.00  0.00    -0.504 OA
ATOM     22  H   UNL     1      56.635   8.620 -43.203  1.00  0.00     0.293 HD
ENDBRANCH  16  21
ENDBRANCH   1  11
BRANCH  10  23
ATOM     23  O   UNL     1      55.059   4.916 -48.002  1.00  0.00    -0.500 OA
ATOM     24  H   UNL     1      54.386   4.375 -47.472  1.00  0.00     0.294 HD
ENDBRANCH  10  23
BRANCH   5  25
ATOM     25  O   UNL     1      52.843  10.125 -53.321  1.00  0.00    -0.507 OA
ATOM     26  H   UNL     1      52.565  10.002 -54.288  1.00  0.00     0.293 HD
ENDBRANCH   5  25
BRANCH   7  27
ATOM     27  O   UNL     1      54.681   5.692 -53.164  1.00  0.00    -0.507 OA
ATOM     28  H   UNL     1      54.592   5.580 -54.163  1.00  0.00     0.293 HD
ENDBRANCH   7  27
TORSDOF 7
ENDMDL
MODEL 2
REMARK VINA RESULT:    -5.073      1.901      7.585
REMARK INTER + INTRA:          -6.639
REMARK INTER:                  -6.261
REMARK INTRA:                  -0.377
REMARK UNBOUND:                -0.379
REMARK SMILES Oc1cc(O)c2cc(O)c(-c3cc(O)c(O)c(O)c3)[o+]c2c1
REMARK SMILES IDX 10 1 20 2 21 3 22 4 2 5 3 6 4 7 6 8 7 9 8 10 11 11 12 12
REMARK SMILES IDX 13 13 19 14 15 15 17 16 14 17 16 19 18 21 9 23 1 25 5 27
REMARK H PARENT 14 18 16 20 18 22 9 24 1 26 5 28
REMARK Flexibility Score: inf
ROOT
ATOM      1  C   UNL     1      54.174   7.365 -46.020  1.00  0.00     0.402 A 
ATOM      2  O   UNL     1      55.101   7.974 -45.287  1.00  0.00    -0.202 OA
ATOM      3  C   UNL     1      55.111   7.951 -43.957  1.00  0.00     0.368 A 
ATOM      4  C   UNL     1      56.128   8.624 -43.274  1.00  0.00     0.162 A 
ATOM      5  C   UNL     1      56.159   8.620 -41.876  1.00  0.00     0.128 A 
ATOM      6  C   UNL     1      55.171   7.942 -41.160  1.00  0.00     0.093 A 
ATOM      7  C   UNL     1      54.142   7.260 -41.822  1.00  0.00     0.136 A 
ATOM      8  C   UNL     1      54.106   7.259 -43.240  1.00  0.00     0.125 A 
ATOM      9  C   UNL     1      53.121   6.593 -43.987  1.00  0.00     0.078 A 
ATOM     10  C   UNL     1      53.154   6.633 -45.384  1.00  0.00     0.223 A 
ENDROOT
BRANCH   1  11
ATOM     11  C   UNL     1      54.266   7.471 -47.495  1.00  0.00     0.091 A 
ATOM     12  C   UNL     1      55.026   6.561 -48.248  1.00  0.00     0.068 A 
ATOM     13  C   UNL     1      55.082   6.664 -49.645  1.00  0.00     0.162 A 
ATOM     14  C   UNL     1      53.534   8.466 -48.162  1.00  0.00     0.068 A 
ATOM     15  C   UNL     1      54.364   7.678 -50.302  1.00  0.00     0.200 A 
ATOM     16  C   UNL     1      53.586   8.578 -49.554  1.00  0.00     0.162 A 
BRANCH  13  17
ATOM     17  O   UNL     1      55.844   5.759 -50.382  1.00  0.00    -0.504 OA
ATOM     18  H   UNL     1      55.547   5.432 -51.294  1.00  0.00     0.293 HD
ENDBRANCH  13  17
BRANCH  15  19
ATOM     19  O   UNL     1      54.413   7.798 -51.692  1.00  0.00    -0.502 OA
ATOM     20  H   UNL     1      55.074   7.277 -52.256  1.00  0.00     0.293 HD
ENDBRANCH  15  19
BRANCH  16  21
ATOM     21  O   UNL     1      52.856   9.589 -50.178  1.00  0.00    -0.504 OA
ATOM     22  H   UNL     1      51.892   9.462 -50.462  1.00  0.00     0.293 HD
ENDBRANCH  16  21
ENDBRANCH   1  11
BRANCH  10  23
ATOM     23  O   UNL     1      52.204   5.930 -46.127  1.00  0.00    -0.500 OA
ATOM     24  H   UNL     1      52.280   5.835 -47.133  1.00  0.00     0.294 HD
ENDBRANCH  10  23
BRANCH   5  25
ATOM     25  O   UNL     1      57.170   9.288 -41.188  1.00  0.00    -0.507 OA
ATOM     26  H   UNL     1      57.944   9.725 -41.675  1.00  0.00     0.293 HD
ENDBRANCH   5  25
BRANCH   7  27
ATOM     27  O   UNL     1      53.189   6.609 -41.032  1.00  0.00    -0.507 OA
ATOM     28  H   UNL     1      53.088   5.606 -40.972  1.00  0.00     0.293 HD
ENDBRANCH   7  27
TORSDOF 7
ENDMDL
MODEL 3
REMARK VINA RESULT:    -5.021      1.823      2.459
REMARK INTER + INTRA:          -6.575
REMARK INTER:                  -6.206
REMARK INTRA:                  -0.368
REMARK UNBOUND:                -0.379
REMARK SMILES Oc1cc(O)c2cc(O)c(-c3cc(O)c(O)c(O)c3)[o+]c2c1
REMARK SMILES IDX 10 1 20 2 21 3 22 4 2 5 3 6 4 7 6 8 7 9 8 10 11 11 12 12
REMARK SMILES IDX 13 13 19 14 15 15 17 16 14 17 16 19 18 21 9 23 1 25 5 27
REMARK H PARENT 14 18 16 20 18 22 9 24 1 26 5 28
REMARK Flexibility Score: inf
ROOT
ATOM      1  C   UNL     1      54.943   7.092 -45.933  1.00  0.00     0.402 A 
ATOM      2  O   UNL     1      54.238   7.851 -46.768  1.00  0.00    -0.202 OA
ATOM      3  C   UNL     1      54.268   7.706 -48.089  1.00  0.00     0.368 A 
ATOM      4  C   UNL     1      53.493   8.555 -48.884  1.00  0.00     0.162 A 
ATOM      5  C   UNL     1      53.509   8.425 -50.276  1.00  0.00     0.128 A 
ATOM      6  C   UNL     1      54.302   7.445 -50.874  1.00  0.00     0.093 A 
ATOM      7  C   UNL     1      55.088   6.582 -50.100  1.00  0.00     0.136 A 
ATOM      8  C   UNL     1      55.074   6.707 -48.687  1.00  0.00     0.125 A 
ATOM      9  C   UNL     1      55.818   5.879 -47.831  1.00  0.00     0.078 A 
ATOM     10  C   UNL     1      55.749   6.060 -46.447  1.00  0.00     0.223 A 
ENDROOT
BRANCH   1  11
ATOM     11  C   UNL     1      54.833   7.359 -44.481  1.00  0.00     0.091 A 
ATOM     12  C   UNL     1      53.792   6.811 -43.713  1.00  0.00     0.068 A 
ATOM     13  C   UNL     1      53.718   7.056 -42.335  1.00  0.00     0.162 A 
ATOM     14  C   UNL     1      55.819   8.128 -43.844  1.00  0.00     0.068 A 
ATOM     15  C   UNL     1      54.697   7.847 -41.710  1.00  0.00     0.200 A 
ATOM     16  C   UNL     1      55.752   8.380 -42.471  1.00  0.00     0.162 A 
BRANCH  13  17
ATOM     17  O   UNL     1      52.677   6.512 -41.583  1.00  0.00    -0.504 OA
ATOM     18  H   UNL     1      52.793   5.653 -41.058  1.00  0.00     0.293 HD
ENDBRANCH  13  17
BRANCH  15  19
ATOM     19  O   UNL     1      54.636   8.106 -40.340  1.00  0.00    -0.502 OA
ATOM     20  H   UNL     1      54.193   8.938 -39.967  1.00  0.00     0.293 HD
ENDBRANCH  15  19
BRANCH  16  21
ATOM     21  O   UNL     1      56.743   9.162 -41.879  1.00  0.00    -0.504 OA
ATOM     22  H   UNL     1      57.583   8.758 -41.481  1.00  0.00     0.293 HD
ENDBRANCH  16  21
ENDBRANCH   1  11
BRANCH  10  23
ATOM     23  O   UNL     1      56.450   5.205 -45.594  1.00  0.00    -0.500 OA
ATOM     24  H   UNL     1      57.354   5.457 -45.212  1.00  0.00     0.294 HD
ENDBRANCH  10  23
BRANCH   5  25
ATOM     25  O   UNL     1      52.738   9.268 -51.075  1.00  0.00    -0.507 OA
ATOM     26  H   UNL     1      53.165   9.947 -51.695  1.00  0.00     0.293 HD
ENDBRANCH   5  25
BRANCH   7  27
ATOM     27  O   UNL     1      55.856   5.630 -50.776  1.00  0.00    -0.507 OA
ATOM     28  H   UNL     1      55.667   4.638 -50.775  1.00  0.00     0.293 HD
ENDBRANCH   7  27
TORSDOF 7
ENDMDL
MODEL 4
REMARK VINA RESULT:    -5.010      1.182      7.231
REMARK INTER + INTRA:          -6.561
REMARK INTER:                  -6.184
REMARK INTRA:                  -0.377
REMARK UNBOUND:                -0.379
REMARK SMILES Oc1cc(O)c2cc(O)c(-c3cc(O)c(O)c(O)c3)[o+]c2c1
REMARK SMILES IDX 10 1 20 2 21 3 22 4 2 5 3 6 4 7 6 8 7 9 8 10 11 11 12 12
REMARK SMILES IDX 13 13 19 14 15 15 17 16 14 17 16 19 18 21 9 23 1 25 5 27
REMARK H PARENT 14 18 16 20 18 22 9 24 1 26 5 28
REMARK Flexibility Score: inf
ROOT
ATOM      1  C   UNL     1      53.179   7.553 -48.945  1.00  0.00     0.402 A 
ATOM      2  O   UNL     1      54.187   7.805 -48.114  1.00  0.00    -0.202 OA
ATOM      3  C   UNL     1      54.068   7.768 -46.790  1.00  0.00     0.368 A 
ATOM      4  C   UNL     1      55.185   8.050 -46.000  1.00  0.00     0.162 A 
ATOM      5  C   UNL     1      55.086   8.022 -44.605  1.00  0.00     0.128 A 
ATOM      6  C   UNL     1      53.866   7.713 -44.001  1.00  0.00     0.093 A 
ATOM      7  C   UNL     1      52.733   7.426 -44.771  1.00  0.00     0.136 A 
ATOM      8  C   UNL     1      52.827   7.451 -46.186  1.00  0.00     0.125 A 
ATOM      9  C   UNL     1      51.748   7.165 -47.038  1.00  0.00     0.078 A 
ATOM     10  C   UNL     1      51.920   7.204 -48.424  1.00  0.00     0.223 A 
ENDROOT
BRANCH   1  11
ATOM     11  C   UNL     1      53.435   7.636 -50.402  1.00  0.00     0.091 A 
ATOM     12  C   UNL     1      53.919   6.532 -51.123  1.00  0.00     0.068 A 
ATOM     13  C   UNL     1      54.133   6.623 -52.506  1.00  0.00     0.162 A 
ATOM     14  C   UNL     1      53.136   8.823 -51.088  1.00  0.00     0.068 A 
ATOM     15  C   UNL     1      53.852   7.822 -53.181  1.00  0.00     0.200 A 
ATOM     16  C   UNL     1      53.349   8.923 -52.467  1.00  0.00     0.162 A 
BRANCH  13  17
ATOM     17  O   UNL     1      54.618   5.523 -53.211  1.00  0.00    -0.504 OA
ATOM     18  H   UNL     1      54.828   5.576 -54.202  1.00  0.00     0.293 HD
ENDBRANCH  13  17
BRANCH  15  19
ATOM     19  O   UNL     1      54.064   7.932 -54.556  1.00  0.00    -0.502 OA
ATOM     20  H   UNL     1      53.471   8.500 -55.150  1.00  0.00     0.293 HD
ENDBRANCH  15  19
BRANCH  16  21
ATOM     21  O   UNL     1      53.053  10.125 -53.110  1.00  0.00    -0.504 OA
ATOM     22  H   UNL     1      53.535  10.988 -52.888  1.00  0.00     0.293 HD
ENDBRANCH  16  21
ENDBRANCH   1  11
BRANCH  10  23
ATOM     23  O   UNL     1      50.861   6.871 -49.271  1.00  0.00    -0.500 OA
ATOM     24  H   UNL     1      50.917   7.006 -50.273  1.00  0.00     0.294 HD
ENDBRANCH  10  23
BRANCH   5  25
ATOM     25  O   UNL     1      56.196   8.302 -43.810  1.00  0.00    -0.507 OA
ATOM     26  H   UNL     1      56.748   9.142 -43.947  1.00  0.00     0.293 HD
ENDBRANCH   5  25
BRANCH   7  27
ATOM     27  O   UNL     1      51.549   7.128 -44.089  1.00  0.00    -0.507 OA
ATOM     28  H   UNL     1      51.014   7.798 -43.556  1.00  0.00     0.293 HD
ENDBRANCH   7  27
TORSDOF 7
ENDMDL
MODEL 5
REMARK VINA RESULT:    -4.949      9.584     12.796
REMARK INTER + INTRA:          -6.486
REMARK INTER:                  -6.108
REMARK INTRA:                  -0.378
REMARK UNBOUND:                -0.379
REMARK SMILES Oc1cc(O)c2cc(O)c(-c3cc(O)c(O)c(O)c3)[o+]c2c1
REMARK SMILES IDX 10 1 20 2 21 3 22 4 2 5 3 6 4 7 6 8 7 9 8 10 11 11 12 12
REMARK SMILES IDX 13 13 19 14 15 15 17 16 14 17 16 19 18 21 9 23 1 25 5 27
REMARK H PARENT 14 18 16 20 18 22 9 24 1 26 5 28
REMARK Flexibility Score: inf
ROOT
ATOM      1  C   UNL     1      56.525  -2.205 -51.912  1.00  0.00     0.402 A 
ATOM      2  O   UNL     1      57.558  -3.040 -51.831  1.00  0.00    -0.202 OA
ATOM      3  C   UNL     1      58.595  -2.841 -51.024  1.00  0.00     0.368 A 
ATOM      4  C   UNL     1      59.635  -3.775 -51.012  1.00  0.00     0.162 A 
ATOM      5  C   UNL     1      60.740  -3.588 -50.176  1.00  0.00     0.128 A 
ATOM      6  C   UNL     1      60.805  -2.464 -49.350  1.00  0.00     0.093 A 
ATOM      7  C   UNL     1      59.776  -1.515 -49.343  1.00  0.00     0.136 A 
ATOM      8  C   UNL     1      58.651  -1.700 -50.189  1.00  0.00     0.125 A 
ATOM      9  C   UNL     1      57.568  -0.807 -50.239  1.00  0.00     0.078 A 
ATOM     10  C   UNL     1      56.492  -1.060 -51.095  1.00  0.00     0.223 A 
ENDROOT
BRANCH   1  11
ATOM     11  C   UNL     1      55.432  -2.531 -52.857  1.00  0.00     0.091 A 
ATOM     12  C   UNL     1      54.353  -3.344 -52.475  1.00  0.00     0.068 A 
ATOM     13  C   UNL     1      53.317  -3.623 -53.378  1.00  0.00     0.162 A 
ATOM     14  C   UNL     1      55.445  -1.971 -54.144  1.00  0.00     0.068 A 
ATOM     15  C   UNL     1      53.348  -3.077 -54.672  1.00  0.00     0.200 A 
ATOM     16  C   UNL     1      54.417  -2.245 -55.051  1.00  0.00     0.162 A 
BRANCH  13  17
ATOM     17  O   UNL     1      52.253  -4.436 -52.990  1.00  0.00    -0.504 OA
ATOM     18  H   UNL     1      52.295  -5.004 -52.151  1.00  0.00     0.293 HD
ENDBRANCH  13  17
BRANCH  15  19
ATOM     19  O   UNL     1      52.328  -3.347 -55.585  1.00  0.00    -0.502 OA
ATOM     20  H   UNL     1      51.596  -4.021 -55.392  1.00  0.00     0.293 HD
ENDBRANCH  15  19
BRANCH  16  21
ATOM     21  O   UNL     1      54.473  -1.682 -56.326  1.00  0.00    -0.504 OA
ATOM     22  H   UNL     1      54.829  -0.747 -56.487  1.00  0.00     0.293 HD
ENDBRANCH  16  21
ENDBRANCH   1  11
BRANCH  10  23
ATOM     23  O   UNL     1      55.392  -0.200 -51.109  1.00  0.00    -0.500 OA
ATOM     24  H   UNL     1      54.967   0.134 -50.252  1.00  0.00     0.294 HD
ENDBRANCH  10  23
BRANCH   5  25
ATOM     25  O   UNL     1      61.780  -4.515 -50.158  1.00  0.00    -0.507 OA
ATOM     26  H   UNL     1      61.609  -5.507 -50.281  1.00  0.00     0.293 HD
ENDBRANCH   5  25
BRANCH   7  27
ATOM     27  O   UNL     1      59.919  -0.416 -48.490  1.00  0.00    -0.507 OA
ATOM     28  H   UNL     1      59.619   0.522 -48.713  1.00  0.00     0.293 HD
ENDBRANCH   7  27
TORSDOF 7
ENDMDL
MODEL 6
REMARK VINA RESULT:    -4.936      1.264      2.726
REMARK INTER + INTRA:          -6.469
REMARK INTER:                  -6.106
REMARK INTRA:                  -0.364
REMARK UNBOUND:                -0.379
REMARK SMILES Oc1cc(O)c2cc(O)c(-c3cc(O)c(O)c(O)c3)[o+]c2c1
REMARK SMILES IDX 10 1 20 2 21 3 22 4 2 5 3 6 4 7 6 8 7 9 8 10 11 11 12 12
REMARK SMILES IDX 13 13 19 14 15 15 17 16 14 17 16 19 18 21 9 23 1 25 5 27
REMARK H PARENT 14 18 16 20 18 22 9 24 1 26 5 28
REMARK Flexibility Score: inf
ROOT
ATOM      1  C   UNL     1      53.844   7.581 -48.976  1.00  0.00     0.402 A 
ATOM      2  O   UNL     1      54.403   6.514 -49.538  1.00  0.00    -0.202 OA
ATOM      3  C   UNL     1      54.436   6.314 -50.852  1.00  0.00     0.368 A 
ATOM      4  C   UNL     1      55.045   5.159 -51.349  1.00  0.00     0.162 A 
ATOM      5  C   UNL     1      55.090   4.923 -52.727  1.00  0.00     0.128 A 
ATOM      6  C   UNL     1      54.523   5.844 -53.609  1.00  0.00     0.093 A 
ATOM      7  C   UNL     1      53.906   7.009 -53.136  1.00  0.00     0.136 A 
ATOM      8  C   UNL     1      53.860   7.255 -51.740  1.00  0.00     0.125 A 
ATOM      9  C   UNL     1      53.275   8.401 -51.177  1.00  0.00     0.078 A 
ATOM     10  C   UNL     1      53.272   8.576 -49.790  1.00  0.00     0.223 A 
ENDROOT
BRANCH   1  11
ATOM     11  C   UNL     1      53.863   7.686 -47.498  1.00  0.00     0.091 A 
ATOM     12  C   UNL     1      52.732   7.369 -46.728  1.00  0.00     0.068 A 
ATOM     13  C   UNL     1      52.777   7.452 -45.329  1.00  0.00     0.162 A 
ATOM     14  C   UNL     1      55.051   8.055 -46.849  1.00  0.00     0.068 A 
ATOM     15  C   UNL     1      53.964   7.844 -44.688  1.00  0.00     0.200 A 
ATOM     16  C   UNL     1      55.104   8.143 -45.454  1.00  0.00     0.162 A 
BRANCH  13  17
ATOM     17  O   UNL     1      51.646   7.141 -44.575  1.00  0.00    -0.504 OA
ATOM     18  H   UNL     1      51.593   6.293 -44.021  1.00  0.00     0.293 HD
ENDBRANCH  13  17
BRANCH  15  19
ATOM     19  O   UNL     1      54.025   7.938 -43.297  1.00  0.00    -0.502 OA
ATOM     20  H   UNL     1      54.865   8.230 -42.812  1.00  0.00     0.293 HD
ENDBRANCH  15  19
BRANCH  16  21
ATOM     21  O   UNL     1      56.299   8.527 -44.847  1.00  0.00    -0.504 OA
ATOM     22  H   UNL     1      57.179   8.537 -45.348  1.00  0.00     0.293 HD
ENDBRANCH  16  21
ENDBRANCH   1  11
BRANCH  10  23
ATOM     23  O   UNL     1      52.735   9.739 -49.233  1.00  0.00    -0.500 OA
ATOM     24  H   UNL     1      52.578  10.572 -49.788  1.00  0.00     0.294 HD
ENDBRANCH  10  23
BRANCH   5  25
ATOM     25  O   UNL     1      55.697   3.773 -53.229  1.00  0.00    -0.507 OA
ATOM     26  H   UNL     1      55.959   3.003 -52.623  1.00  0.00     0.293 HD
ENDBRANCH   5  25
BRANCH   7  27
ATOM     27  O   UNL     1      53.359   7.878 -54.084  1.00  0.00    -0.507 OA
ATOM     28  H   UNL     1      52.489   8.376 -53.967  1.00  0.00     0.293 HD
ENDBRANCH   7  27
TORSDOF 7
ENDMDL
MODEL 7
REMARK VINA RESULT:    -4.936      1.953      7.740
REMARK INTER + INTRA:          -6.469
REMARK INTER:                  -6.142
REMARK INTRA:                  -0.327
REMARK UNBOUND:                -0.379
REMARK SMILES Oc1cc(O)c2cc(O)c(-c3cc(O)c(O)c(O)c3)[o+]c2c1
REMARK SMILES IDX 10 1 20 2 21 3 22 4 2 5 3 6 4 7 6 8 7 9 8 10 11 11 12 12
REMARK SMILES IDX 13 13 19 14 15 15 17 16 14 17 16 19 18 21 9 23 1 25 5 27
REMARK H PARENT 14 18 16 20 18 22 9 24 1 26 5 28
REMARK Flexibility Score: inf
ROOT
ATOM      1  C   UNL     1      54.426   7.435 -45.651  1.00  0.00     0.402 A 
ATOM      2  O   UNL     1      53.377   6.890 -45.041  1.00  0.00    -0.202 OA
ATOM      3  C   UNL     1      53.244   6.845 -43.719  1.00  0.00     0.368 A 
ATOM      4  C   UNL     1      52.106   6.248 -43.171  1.00  0.00     0.162 A 
ATOM      5  C   UNL     1      51.943   6.185 -41.783  1.00  0.00     0.128 A 
ATOM      6  C   UNL     1      52.922   6.718 -40.943  1.00  0.00     0.093 A 
ATOM      7  C   UNL     1      54.071   7.321 -41.468  1.00  0.00     0.136 A 
ATOM      8  C   UNL     1      54.241   7.391 -42.874  1.00  0.00     0.125 A 
ATOM      9  C   UNL     1      55.354   7.987 -43.489  1.00  0.00     0.078 A 
ATOM     10  C   UNL     1      55.449   8.022 -44.884  1.00  0.00     0.223 A 
ENDROOT
BRANCH   1  11
ATOM     11  C   UNL     1      54.464   7.415 -47.132  1.00  0.00     0.091 A 
ATOM     12  C   UNL     1      55.334   6.562 -47.830  1.00  0.00     0.068 A 
ATOM     13  C   UNL     1      55.339   6.542 -49.232  1.00  0.00     0.162 A 
ATOM     14  C   UNL     1      53.573   8.223 -47.855  1.00  0.00     0.068 A 
ATOM     15  C   UNL     1      54.459   7.370 -49.948  1.00  0.00     0.200 A 
ATOM     16  C   UNL     1      53.572   8.211 -49.253  1.00  0.00     0.162 A 
BRANCH  13  17
ATOM     17  O   UNL     1      56.211   5.695 -49.915  1.00  0.00    -0.504 OA
ATOM     18  H   UNL     1      55.966   4.733 -50.122  1.00  0.00     0.293 HD
ENDBRANCH  13  17
BRANCH  15  19
ATOM     19  O   UNL     1      54.454   7.367 -51.344  1.00  0.00    -0.502 OA
ATOM     20  H   UNL     1      53.598   7.448 -51.880  1.00  0.00     0.293 HD
ENDBRANCH  15  19
BRANCH  16  21
ATOM     21  O   UNL     1      52.682   9.040 -49.935  1.00  0.00    -0.504 OA
ATOM     22  H   UNL     1      52.976   9.629 -50.705  1.00  0.00     0.293 HD
ENDBRANCH  16  21
ENDBRANCH   1  11
BRANCH  10  23
ATOM     23  O   UNL     1      56.530   8.659 -45.496  1.00  0.00    -0.500 OA
ATOM     24  H   UNL     1      57.036   9.407 -45.037  1.00  0.00     0.294 HD
ENDBRANCH  10  23
BRANCH   5  25
ATOM     25  O   UNL     1      50.810   5.592 -41.229  1.00  0.00    -0.507 OA
ATOM     26  H   UNL     1      49.914   6.066 -41.221  1.00  0.00     0.293 HD
ENDBRANCH   5  25
BRANCH   7  27
ATOM     27  O   UNL     1      55.005   7.827 -40.559  1.00  0.00    -0.507 OA
ATOM     28  H   UNL     1      56.006   7.771 -40.678  1.00  0.00     0.293 HD
ENDBRANCH   7  27
TORSDOF 7
ENDMDL
MODEL 8
REMARK VINA RESULT:    -4.879      1.258      3.254
REMARK INTER + INTRA:          -6.399
REMARK INTER:                  -6.056
REMARK INTRA:                  -0.342
REMARK UNBOUND:                -0.379
REMARK SMILES Oc1cc(O)c2cc(O)c(-c3cc(O)c(O)c(O)c3)[o+]c2c1
REMARK SMILES IDX 10 1 20 2 21 3 22 4 2 5 3 6 4 7 6 8 7 9 8 10 11 11 12 12
REMARK SMILES IDX 13 13 19 14 15 15 17 16 14 17 16 19 18 21 9 23 1 25 5 27
REMARK H PARENT 14 18 16 20 18 22 9 24 1 26 5 28
REMARK Flexibility Score: inf
ROOT
ATOM      1  C   UNL     1      53.876   7.581 -49.018  1.00  0.00     0.402 A 
ATOM      2  O   UNL     1      54.439   6.532 -49.611  1.00  0.00    -0.202 OA
ATOM      3  C   UNL     1      54.450   6.358 -50.929  1.00  0.00     0.368 A 
ATOM      4  C   UNL     1      55.065   5.220 -51.459  1.00  0.00     0.162 A 
ATOM      5  C   UNL     1      55.087   5.011 -52.841  1.00  0.00     0.128 A 
ATOM      6  C   UNL     1      54.492   5.941 -53.695  1.00  0.00     0.093 A 
ATOM      7  C   UNL     1      53.870   7.089 -53.189  1.00  0.00     0.136 A 
ATOM      8  C   UNL     1      53.845   7.308 -51.788  1.00  0.00     0.125 A 
ATOM      9  C   UNL     1      53.256   8.435 -51.192  1.00  0.00     0.078 A 
ATOM     10  C   UNL     1      53.277   8.584 -49.803  1.00  0.00     0.223 A 
ENDROOT
BRANCH   1  11
ATOM     11  C   UNL     1      53.921   7.658 -47.540  1.00  0.00     0.091 A 
ATOM     12  C   UNL     1      55.075   8.085 -46.864  1.00  0.00     0.068 A 
ATOM     13  C   UNL     1      55.090   8.173 -45.464  1.00  0.00     0.162 A 
ATOM     14  C   UNL     1      52.769   7.352 -46.799  1.00  0.00     0.068 A 
ATOM     15  C   UNL     1      53.939   7.843 -44.729  1.00  0.00     0.200 A 
ATOM     16  C   UNL     1      52.775   7.434 -45.403  1.00  0.00     0.162 A 
BRANCH  13  17
ATOM     17  O   UNL     1      56.244   8.592 -44.803  1.00  0.00    -0.504 OA
ATOM     18  H   UNL     1      57.022   7.963 -44.640  1.00  0.00     0.293 HD
ENDBRANCH  13  17
BRANCH  15  19
ATOM     19  O   UNL     1      53.938   7.919 -43.336  1.00  0.00    -0.502 OA
ATOM     20  H   UNL     1      53.601   8.736 -42.840  1.00  0.00     0.293 HD
ENDBRANCH  15  19
BRANCH  16  21
ATOM     21  O   UNL     1      51.615   7.107 -44.702  1.00  0.00    -0.504 OA
ATOM     22  H   UNL     1      50.730   6.945 -45.169  1.00  0.00     0.293 HD
ENDBRANCH  16  21
ENDBRANCH   1  11
BRANCH  10  23
ATOM     23  O   UNL     1      52.736   9.728 -49.213  1.00  0.00    -0.500 OA
ATOM     24  H   UNL     1      51.867  10.135 -49.539  1.00  0.00     0.294 HD
ENDBRANCH  10  23
BRANCH   5  25
ATOM     25  O   UNL     1      55.699   3.879 -53.377  1.00  0.00    -0.507 OA
ATOM     26  H   UNL     1      55.375   3.460 -54.242  1.00  0.00     0.293 HD
ENDBRANCH   5  25
BRANCH   7  27
ATOM     27  O   UNL     1      53.295   7.969 -54.111  1.00  0.00    -0.507 OA
ATOM     28  H   UNL     1      53.782   8.739 -54.545  1.00  0.00     0.293 HD
ENDBRANCH   7  27
TORSDOF 7
ENDMDL
MODEL 9
REMARK VINA RESULT:    -4.830      1.912      2.435
REMARK INTER + INTRA:          -6.339
REMARK INTER:                  -5.955
REMARK INTRA:                  -0.384
REMARK UNBOUND:                -0.379
REMARK SMILES Oc1cc(O)c2cc(O)c(-c3cc(O)c(O)c(O)c3)[o+]c2c1
REMARK SMILES IDX 10 1 20 2 21 3 22 4 2 5 3 6 4 7 6 8 7 9 8 10 11 11 12 12
REMARK SMILES IDX 13 13 19 14 15 15 17 16 14 17 16 19 18 21 9 23 1 25 5 27
REMARK H PARENT 14 18 16 20 18 22 9 24 1 26 5 28
REMARK Flexibility Score: inf
ROOT
ATOM      1  C   UNL     1      53.433   7.082 -48.469  1.00  0.00     0.402 A 
ATOM      2  O   UNL     1      53.969   7.884 -49.386  1.00  0.00    -0.202 OA
ATOM      3  C   UNL     1      53.431   8.084 -50.585  1.00  0.00     0.368 A 
ATOM      4  C   UNL     1      54.070   8.944 -51.481  1.00  0.00     0.162 A 
ATOM      5  C   UNL     1      53.527   9.169 -52.750  1.00  0.00     0.128 A 
ATOM      6  C   UNL     1      52.343   8.531 -53.123  1.00  0.00     0.093 A 
ATOM      7  C   UNL     1      51.684   7.664 -52.243  1.00  0.00     0.136 A 
ATOM      8  C   UNL     1      52.228   7.434 -50.953  1.00  0.00     0.125 A 
ATOM      9  C   UNL     1      51.630   6.592 -50.001  1.00  0.00     0.078 A 
ATOM     10  C   UNL     1      52.224   6.419 -48.748  1.00  0.00     0.223 A 
ENDROOT
BRANCH   1  11
ATOM     11  C   UNL     1      54.133   6.934 -47.173  1.00  0.00     0.091 A 
ATOM     12  C   UNL     1      55.083   5.921 -46.965  1.00  0.00     0.068 A 
ATOM     13  C   UNL     1      55.752   5.811 -45.738  1.00  0.00     0.162 A 
ATOM     14  C   UNL     1      53.886   7.859 -46.146  1.00  0.00     0.068 A 
ATOM     15  C   UNL     1      55.481   6.727 -44.708  1.00  0.00     0.200 A 
ATOM     16  C   UNL     1      54.546   7.756 -44.918  1.00  0.00     0.162 A 
BRANCH  13  17
ATOM     17  O   UNL     1      56.689   4.797 -45.541  1.00  0.00    -0.504 OA
ATOM     18  H   UNL     1      57.036   4.237 -46.311  1.00  0.00     0.293 HD
ENDBRANCH  13  17
BRANCH  15  19
ATOM     19  O   UNL     1      56.134   6.630 -43.478  1.00  0.00    -0.502 OA
ATOM     20  H   UNL     1      57.014   6.138 -43.371  1.00  0.00     0.293 HD
ENDBRANCH  15  19
BRANCH  16  21
ATOM     21  O   UNL     1      54.261   8.685 -43.918  1.00  0.00    -0.504 OA
ATOM     22  H   UNL     1      53.587   9.430 -44.050  1.00  0.00     0.293 HD
ENDBRANCH  16  21
ENDBRANCH   1  11
BRANCH  10  23
ATOM     23  O   UNL     1      51.604   5.623 -47.784  1.00  0.00    -0.500 OA
ATOM     24  H   UNL     1      51.861   4.652 -47.649  1.00  0.00     0.294 HD
ENDBRANCH  10  23
BRANCH   5  25
ATOM     25  O   UNL     1      54.159  10.026 -53.650  1.00  0.00    -0.507 OA
ATOM     26  H   UNL     1      54.969   9.731 -54.183  1.00  0.00     0.293 HD
ENDBRANCH   5  25
BRANCH   7  27
ATOM     27  O   UNL     1      50.505   7.062 -52.694  1.00  0.00    -0.507 OA
ATOM     28  H   UNL     1      49.976   7.374 -53.495  1.00  0.00     0.293 HD
ENDBRANCH   7  27
TORSDOF 7
ENDMDL
