MODEL 1
REMARK VINA RESULT:    -3.645      0.000      0.000
REMARK INTER + INTRA:          -7.287
REMARK INTER:                  -5.669
REMARK INTRA:                  -1.618
REMARK UNBOUND:                -1.618
REMARK SMILES COc1cc(CNC(=O)CCCCC=CC(C)C)ccc1O
REMARK SMILES IDX 11 1 12 2 13 3 14 4 15 5 16 6 17 7 18 8 10 9 8 10 9 11 7 12
REMARK SMILES IDX 6 14 5 15 4 16 19 17 3 18 20 19 21 20 2 21 1 22 22 23
REMARK H PARENT 7 13 22 24
REMARK Flexibility Score: inf
ROOT
ATOM      1  C   UNL     1     128.201 117.815 110.014  1.00  0.00     0.010 C 
ENDROOT
BRANCH   1   2
ATOM      2  C   UNL     1     127.776 118.461 108.688  1.00  0.00     0.005 C 
BRANCH   2   3
ATOM      3  C   UNL     1     126.313 118.927 108.702  1.00  0.00     0.027 C 
BRANCH   3   4
ATOM      4  C   UNL     1     125.706 118.750 110.066  1.00  0.00    -0.031 C 
ATOM      5  C   UNL     1     124.466 118.254 110.224  1.00  0.00    -0.028 C 
BRANCH   5   6
ATOM      6  C   UNL     1     123.825 118.069 111.581  1.00  0.00     0.005 C 
ATOM      7  C   UNL     1     122.294 118.077 111.484  1.00  0.00     0.012 C 
ATOM      8  C   UNL     1     124.325 119.117 112.581  1.00  0.00     0.012 C 
ENDBRANCH   5   6
ENDBRANCH   3   4
ENDBRANCH   2   3
ENDBRANCH   1   2
BRANCH   1   9
ATOM      9  C   UNL     1     129.517 117.034 109.895  1.00  0.00     0.100 C 
BRANCH   9  10
ATOM     10  C   UNL     1     129.246 115.563 109.949  1.00  0.00     0.220 C 
ATOM     11  O   UNL     1     130.115 114.757 109.517  1.00  0.00    -0.275 OA
ATOM     12  N   UNL     1     127.983 115.080 110.426  1.00  0.00    -0.352 N 
ATOM     13  H   UNL     1     127.297 115.768 110.815  1.00  0.00     0.163 HD
BRANCH  12  14
ATOM     14  C   UNL     1     127.513 113.724 110.161  1.00  0.00     0.151 C 
BRANCH  14  15
ATOM     15  C   UNL     1     126.211 113.778 109.409  1.00  0.00    -0.025 A 
ATOM     16  C   UNL     1     125.559 112.592 109.039  1.00  0.00     0.056 A 
ATOM     17  C   UNL     1     125.683 115.013 109.002  1.00  0.00     0.009 A 
ATOM     18  C   UNL     1     124.372 112.635 108.280  1.00  0.00     0.160 A 
ATOM     19  C   UNL     1     124.505 115.061 108.257  1.00  0.00     0.050 A 
ATOM     20  C   UNL     1     123.847 113.878 107.896  1.00  0.00     0.157 A 
BRANCH  18  21
ATOM     21  O   UNL     1     123.693 111.471 107.888  1.00  0.00    -0.493 OA
ATOM     22  C   UNL     1     122.862 110.695 108.746  1.00  0.00     0.278 C 
ENDBRANCH  18  21
BRANCH  20  23
ATOM     23  O   UNL     1     122.671 113.928 107.149  1.00  0.00    -0.504 OA
ATOM     24  H   UNL     1     122.212 114.807 106.941  1.00  0.00     0.293 HD
ENDBRANCH  20  23
ENDBRANCH  14  15
ENDBRANCH  12  14
ENDBRANCH   9  10
ENDBRANCH   1   9
TORSDOF 10
ENDMDL
MODEL 2
REMARK VINA RESULT:    -3.542     14.412     17.313
REMARK INTER + INTRA:          -7.127
REMARK INTER:                  -5.575
REMARK INTRA:                  -1.552
REMARK UNBOUND:                -1.618
REMARK SMILES COc1cc(CNC(=O)CCCCC=CC(C)C)ccc1O
REMARK SMILES IDX 11 1 12 2 13 3 14 4 15 5 16 6 17 7 18 8 10 9 8 10 9 11 7 12
REMARK SMILES IDX 6 14 5 15 4 16 19 17 3 18 20 19 21 20 2 21 1 22 22 23
REMARK H PARENT 7 13 22 24
REMARK Flexibility Score: inf
ROOT
ATOM      1  C   UNL     1     117.341 103.726 122.259  1.00  0.00     0.010 C 
ENDROOT
BRANCH   1   2
ATOM      2  C   UNL     1     118.321 103.682 121.078  1.00  0.00     0.005 C 
BRANCH   2   3
ATOM      3  C   UNL     1     119.726 103.225 121.495  1.00  0.00     0.027 C 
BRANCH   3   4
ATOM      4  C   UNL     1     120.770 104.199 121.024  1.00  0.00    -0.031 C 
ATOM      5  C   UNL     1     122.020 103.800 120.729  1.00  0.00    -0.028 C 
BRANCH   5   6
ATOM      6  C   UNL     1     123.094 104.754 120.257  1.00  0.00     0.005 C 
ATOM      7  C   UNL     1     124.118 105.037 121.363  1.00  0.00     0.012 C 
ATOM      8  C   UNL     1     122.485 106.053 119.716  1.00  0.00     0.012 C 
ENDBRANCH   5   6
ENDBRANCH   3   4
ENDBRANCH   2   3
ENDBRANCH   1   2
BRANCH   1   9
ATOM      9  C   UNL     1     117.749 104.751 123.326  1.00  0.00     0.100 C 
BRANCH   9  10
ATOM     10  C   UNL     1     117.922 106.100 122.700  1.00  0.00     0.220 C 
ATOM     11  O   UNL     1     116.951 106.633 122.097  1.00  0.00    -0.275 OA
ATOM     12  N   UNL     1     119.202 106.748 122.730  1.00  0.00    -0.352 N 
ATOM     13  H   UNL     1     119.978 106.302 123.271  1.00  0.00     0.163 HD
BRANCH  12  14
ATOM     14  C   UNL     1     119.538 107.855 121.840  1.00  0.00     0.151 C 
BRANCH  14  15
ATOM     15  C   UNL     1     120.918 108.361 122.163  1.00  0.00    -0.025 A 
ATOM     16  C   UNL     1     121.388 109.550 121.584  1.00  0.00     0.056 A 
ATOM     17  C   UNL     1     121.773 107.605 122.979  1.00  0.00     0.009 A 
ATOM     18  C   UNL     1     122.701 109.996 121.831  1.00  0.00     0.160 A 
ATOM     19  C   UNL     1     123.072 108.046 123.233  1.00  0.00     0.050 A 
ATOM     20  C   UNL     1     123.538 109.238 122.664  1.00  0.00     0.157 A 
BRANCH  18  21
ATOM     21  O   UNL     1     123.208 111.177 121.268  1.00  0.00    -0.493 OA
ATOM     22  C   UNL     1     123.002 112.480 121.806  1.00  0.00     0.278 C 
ENDBRANCH  18  21
BRANCH  20  23
ATOM     23  O   UNL     1     124.838 109.677 122.917  1.00  0.00    -0.504 OA
ATOM     24  H   UNL     1     125.029 110.401 123.600  1.00  0.00     0.293 HD
ENDBRANCH  20  23
ENDBRANCH  14  15
ENDBRANCH  12  14
ENDBRANCH   9  10
ENDBRANCH   1   9
TORSDOF 10
ENDMDL
MODEL 3
REMARK VINA RESULT:    -3.520     14.174     16.245
REMARK INTER + INTRA:          -7.092
REMARK INTER:                  -5.344
REMARK INTRA:                  -1.748
REMARK UNBOUND:                -1.618
REMARK SMILES COc1cc(CNC(=O)CCCCC=CC(C)C)ccc1O
REMARK SMILES IDX 11 1 12 2 13 3 14 4 15 5 16 6 17 7 18 8 10 9 8 10 9 11 7 12
REMARK SMILES IDX 6 14 5 15 4 16 19 17 3 18 20 19 21 20 2 21 1 22 22 23
REMARK H PARENT 7 13 22 24
REMARK Flexibility Score: inf
ROOT
ATOM      1  C   UNL     1     119.449 110.086 120.795  1.00  0.00     0.010 C 
ENDROOT
BRANCH   1   2
ATOM      2  C   UNL     1     119.285 108.906 119.827  1.00  0.00     0.005 C 
BRANCH   2   3
ATOM      3  C   UNL     1     117.925 108.208 119.973  1.00  0.00     0.027 C 
BRANCH   3   4
ATOM      4  C   UNL     1     117.721 107.721 121.380  1.00  0.00    -0.031 C 
ATOM      5  C   UNL     1     117.100 106.555 121.636  1.00  0.00    -0.028 C 
BRANCH   5   6
ATOM      6  C   UNL     1     116.875 106.039 123.040  1.00  0.00     0.005 C 
ATOM      7  C   UNL     1     117.492 104.648 123.232  1.00  0.00     0.012 C 
ATOM      8  C   UNL     1     115.385 106.041 123.401  1.00  0.00     0.012 C 
ENDBRANCH   5   6
ENDBRANCH   3   4
ENDBRANCH   2   3
ENDBRANCH   1   2
BRANCH   1   9
ATOM      9  C   UNL     1     120.804 110.790 120.643  1.00  0.00     0.100 C 
BRANCH   9  10
ATOM     10  C   UNL     1     121.843 110.083 121.459  1.00  0.00     0.220 C 
ATOM     11  O   UNL     1     123.041 110.081 121.067  1.00  0.00    -0.275 OA
ATOM     12  N   UNL     1     121.463 109.359 122.637  1.00  0.00    -0.352 N 
ATOM     13  H   UNL     1     120.470 109.411 122.959  1.00  0.00     0.163 HD
BRANCH  12  14
ATOM     14  C   UNL     1     122.330 108.359 123.253  1.00  0.00     0.151 C 
BRANCH  14  15
ATOM     15  C   UNL     1     122.213 107.060 122.504  1.00  0.00    -0.025 A 
ATOM     16  C   UNL     1     123.353 106.462 121.944  1.00  0.00     0.056 A 
ATOM     17  C   UNL     1     120.953 106.480 122.291  1.00  0.00     0.009 A 
ATOM     18  C   UNL     1     123.241 105.279 121.187  1.00  0.00     0.160 A 
ATOM     19  C   UNL     1     120.838 105.304 121.548  1.00  0.00     0.050 A 
ATOM     20  C   UNL     1     121.977 104.702 120.998  1.00  0.00     0.157 A 
BRANCH  18  21
ATOM     21  O   UNL     1     124.357 104.654 120.609  1.00  0.00    -0.493 OA
ATOM     22  C   UNL     1     125.255 103.798 121.309  1.00  0.00     0.278 C 
ENDBRANCH  18  21
BRANCH  20  23
ATOM     23  O   UNL     1     121.860 103.527 120.254  1.00  0.00    -0.504 OA
ATOM     24  H   UNL     1     121.751 102.625 120.702  1.00  0.00     0.293 HD
ENDBRANCH  20  23
ENDBRANCH  14  15
ENDBRANCH  12  14
ENDBRANCH   9  10
ENDBRANCH   1   9
TORSDOF 10
ENDMDL
MODEL 4
REMARK VINA RESULT:    -3.508     12.807     15.303
REMARK INTER + INTRA:          -7.074
REMARK INTER:                  -4.733
REMARK INTRA:                  -2.341
REMARK UNBOUND:                -1.618
REMARK SMILES COc1cc(CNC(=O)CCCCC=CC(C)C)ccc1O
REMARK SMILES IDX 11 1 12 2 13 3 14 4 15 5 16 6 17 7 18 8 10 9 8 10 9 11 7 12
REMARK SMILES IDX 6 14 5 15 4 16 19 17 3 18 20 19 21 20 2 21 1 22 22 23
REMARK H PARENT 7 13 22 24
REMARK Flexibility Score: inf
ROOT
ATOM      1  C   UNL     1     121.254 107.218 117.802  1.00  0.00     0.010 C 
ENDROOT
BRANCH   1   2
ATOM      2  C   UNL     1     122.330 108.312 117.776  1.00  0.00     0.005 C 
BRANCH   2   3
ATOM      3  C   UNL     1     123.421 108.091 118.833  1.00  0.00     0.027 C 
BRANCH   3   4
ATOM      4  C   UNL     1     123.120 106.880 119.671  1.00  0.00    -0.031 C 
ATOM      5  C   UNL     1     124.087 106.237 120.348  1.00  0.00    -0.028 C 
BRANCH   5   6
ATOM      6  C   UNL     1     123.818 105.014 121.196  1.00  0.00     0.005 C 
ATOM      7  C   UNL     1     125.002 104.040 121.168  1.00  0.00     0.012 C 
ATOM      8  C   UNL     1     122.517 104.320 120.776  1.00  0.00     0.012 C 
ENDBRANCH   5   6
ENDBRANCH   3   4
ENDBRANCH   2   3
ENDBRANCH   1   2
BRANCH   1   9
ATOM      9  C   UNL     1     119.838 107.777 117.610  1.00  0.00     0.100 C 
BRANCH   9  10
ATOM     10  C   UNL     1     119.350 108.386 118.888  1.00  0.00     0.220 C 
ATOM     11  O   UNL     1     118.845 109.541 118.871  1.00  0.00    -0.275 OA
ATOM     12  N   UNL     1     119.519 107.686 120.129  1.00  0.00    -0.352 N 
ATOM     13  H   UNL     1     119.905 106.714 120.108  1.00  0.00     0.163 HD
BRANCH  12  14
ATOM     14  C   UNL     1     119.420 108.355 121.423  1.00  0.00     0.151 C 
BRANCH  14  15
ATOM     15  C   UNL     1     120.799 108.689 121.925  1.00  0.00    -0.025 A 
ATOM     16  C   UNL     1     121.457 109.840 121.467  1.00  0.00     0.056 A 
ATOM     17  C   UNL     1     121.466 107.809 122.790  1.00  0.00     0.009 A 
ATOM     18  C   UNL     1     122.773 110.126 121.884  1.00  0.00     0.160 A 
ATOM     19  C   UNL     1     122.766 108.091 123.212  1.00  0.00     0.050 A 
ATOM     20  C   UNL     1     123.420 109.245 122.763  1.00  0.00     0.157 A 
BRANCH  18  21
ATOM     21  O   UNL     1     123.466 111.265 121.445  1.00  0.00    -0.493 OA
ATOM     22  C   UNL     1     123.051 112.605 121.692  1.00  0.00     0.278 C 
ENDBRANCH  18  21
BRANCH  20  23
ATOM     23  O   UNL     1     124.720 109.525 123.184  1.00  0.00    -0.504 OA
ATOM     24  H   UNL     1     125.264 110.269 122.765  1.00  0.00     0.293 HD
ENDBRANCH  20  23
ENDBRANCH  14  15
ENDBRANCH  12  14
ENDBRANCH   9  10
ENDBRANCH   1   9
TORSDOF 10
ENDMDL
MODEL 5
REMARK VINA RESULT:    -3.419      2.461      5.439
REMARK INTER + INTRA:          -6.935
REMARK INTER:                  -4.780
REMARK INTRA:                  -2.155
REMARK UNBOUND:                -1.618
REMARK SMILES COc1cc(CNC(=O)CCCCC=CC(C)C)ccc1O
REMARK SMILES IDX 11 1 12 2 13 3 14 4 15 5 16 6 17 7 18 8 10 9 8 10 9 11 7 12
REMARK SMILES IDX 6 14 5 15 4 16 19 17 3 18 20 19 21 20 2 21 1 22 22 23
REMARK H PARENT 7 13 22 24
REMARK Flexibility Score: inf
ROOT
ATOM      1  C   UNL     1     127.618 113.163 111.453  1.00  0.00     0.010 C 
ENDROOT
BRANCH   1   2
ATOM      2  C   UNL     1     126.678 112.467 110.458  1.00  0.00     0.005 C 
BRANCH   2   3
ATOM      3  C   UNL     1     125.268 112.256 111.029  1.00  0.00     0.027 C 
BRANCH   3   4
ATOM      4  C   UNL     1     124.499 111.261 110.205  1.00  0.00    -0.031 C 
ATOM      5  C   UNL     1     124.905 110.907 108.972  1.00  0.00    -0.028 C 
BRANCH   5   6
ATOM      6  C   UNL     1     124.152 109.914 108.116  1.00  0.00     0.005 C 
ATOM      7  C   UNL     1     122.755 109.632 108.682  1.00  0.00     0.012 C 
ATOM      8  C   UNL     1     124.950 108.618 107.934  1.00  0.00     0.012 C 
ENDBRANCH   5   6
ENDBRANCH   3   4
ENDBRANCH   2   3
ENDBRANCH   1   2
BRANCH   1   9
ATOM      9  C   UNL     1     128.313 114.390 110.848  1.00  0.00     0.100 C 
BRANCH   9  10
ATOM     10  C   UNL     1     127.311 115.474 110.596  1.00  0.00     0.220 C 
ATOM     11  O   UNL     1     126.807 116.091 111.574  1.00  0.00    -0.275 OA
ATOM     12  N   UNL     1     126.881 115.760 109.258  1.00  0.00    -0.352 N 
ATOM     13  H   UNL     1     127.344 115.260 108.465  1.00  0.00     0.163 HD
BRANCH  12  14
ATOM     14  C   UNL     1     125.664 116.515 108.972  1.00  0.00     0.151 C 
BRANCH  14  15
ATOM     15  C   UNL     1     124.501 115.569 108.847  1.00  0.00    -0.025 A 
ATOM     16  C   UNL     1     123.559 115.467 109.882  1.00  0.00     0.056 A 
ATOM     17  C   UNL     1     124.396 114.725 107.731  1.00  0.00     0.009 A 
ATOM     18  C   UNL     1     122.503 114.537 109.798  1.00  0.00     0.160 A 
ATOM     19  C   UNL     1     123.348 113.808 107.640  1.00  0.00     0.050 A 
ATOM     20  C   UNL     1     122.401 113.713 108.668  1.00  0.00     0.157 A 
BRANCH  18  21
ATOM     21  O   UNL     1     121.543 114.403 110.814  1.00  0.00    -0.493 OA
ATOM     22  C   UNL     1     121.743 113.670 112.019  1.00  0.00     0.278 C 
ENDBRANCH  18  21
BRANCH  20  23
ATOM     23  O   UNL     1     121.355 112.795 108.577  1.00  0.00    -0.504 OA
ATOM     24  H   UNL     1     120.730 112.782 107.779  1.00  0.00     0.293 HD
ENDBRANCH  20  23
ENDBRANCH  14  15
ENDBRANCH  12  14
ENDBRANCH   9  10
ENDBRANCH   1   9
TORSDOF 10
ENDMDL
MODEL 6
REMARK VINA RESULT:    -3.394     13.390     16.047
REMARK INTER + INTRA:          -6.897
REMARK INTER:                  -4.677
REMARK INTRA:                  -2.220
REMARK UNBOUND:                -1.618
REMARK SMILES COc1cc(CNC(=O)CCCCC=CC(C)C)ccc1O
REMARK SMILES IDX 11 1 12 2 13 3 14 4 15 5 16 6 17 7 18 8 10 9 8 10 9 11 7 12
REMARK SMILES IDX 6 14 5 15 4 16 19 17 3 18 20 19 21 20 2 21 1 22 22 23
REMARK H PARENT 7 13 22 24
REMARK Flexibility Score: inf
ROOT
ATOM      1  C   UNL     1     118.414 106.217 122.410  1.00  0.00     0.010 C 
ENDROOT
BRANCH   1   2
ATOM      2  C   UNL     1     119.731 105.490 122.718  1.00  0.00     0.005 C 
BRANCH   2   3
ATOM      3  C   UNL     1     120.272 104.714 121.508  1.00  0.00     0.027 C 
BRANCH   3   4
ATOM      4  C   UNL     1     121.693 105.103 121.213  1.00  0.00    -0.031 C 
ATOM      5  C   UNL     1     121.985 106.177 120.458  1.00  0.00    -0.028 C 
BRANCH   5   6
ATOM      6  C   UNL     1     123.403 106.592 120.139  1.00  0.00     0.005 C 
ATOM      7  C   UNL     1     123.442 107.647 119.026  1.00  0.00     0.012 C 
ATOM      8  C   UNL     1     124.272 105.379 119.786  1.00  0.00     0.012 C 
ENDBRANCH   5   6
ENDBRANCH   3   4
ENDBRANCH   2   3
ENDBRANCH   1   2
BRANCH   1   9
ATOM      9  C   UNL     1     118.126 106.305 120.905  1.00  0.00     0.100 C 
BRANCH   9  10
ATOM     10  C   UNL     1     118.596 107.622 120.369  1.00  0.00     0.220 C 
ATOM     11  O   UNL     1     118.813 107.745 119.133  1.00  0.00    -0.275 OA
ATOM     12  N   UNL     1     118.860 108.710 121.264  1.00  0.00    -0.352 N 
ATOM     13  H   UNL     1     118.634 108.592 122.279  1.00  0.00     0.163 HD
BRANCH  12  14
ATOM     14  C   UNL     1     119.660 109.868 120.873  1.00  0.00     0.151 C 
BRANCH  14  15
ATOM     15  C   UNL     1     121.020 109.780 121.511  1.00  0.00    -0.025 A 
ATOM     16  C   UNL     1     122.077 110.568 121.030  1.00  0.00     0.056 A 
ATOM     17  C   UNL     1     121.260 108.851 122.534  1.00  0.00     0.009 A 
ATOM     18  C   UNL     1     123.369 110.445 121.580  1.00  0.00     0.160 A 
ATOM     19  C   UNL     1     122.536 108.730 123.087  1.00  0.00     0.050 A 
ATOM     20  C   UNL     1     123.589 109.524 122.615  1.00  0.00     0.157 A 
BRANCH  18  21
ATOM     21  O   UNL     1     124.452 111.213 121.124  1.00  0.00    -0.493 OA
ATOM     22  C   UNL     1     124.707 112.558 121.515  1.00  0.00     0.278 C 
ENDBRANCH  18  21
BRANCH  20  23
ATOM     23  O   UNL     1     124.864 109.401 123.167  1.00  0.00    -0.504 OA
ATOM     24  H   UNL     1     125.642 109.957 122.833  1.00  0.00     0.293 HD
ENDBRANCH  20  23
ENDBRANCH  14  15
ENDBRANCH  12  14
ENDBRANCH   9  10
ENDBRANCH   1   9
TORSDOF 10
ENDMDL
MODEL 7
REMARK VINA RESULT:    -3.376     13.204     15.094
REMARK INTER + INTRA:          -6.869
REMARK INTER:                  -4.414
REMARK INTRA:                  -2.455
REMARK UNBOUND:                -1.618
REMARK SMILES COc1cc(CNC(=O)CCCCC=CC(C)C)ccc1O
REMARK SMILES IDX 11 1 12 2 13 3 14 4 15 5 16 6 17 7 18 8 10 9 8 10 9 11 7 12
REMARK SMILES IDX 6 14 5 15 4 16 19 17 3 18 20 19 21 20 2 21 1 22 22 23
REMARK H PARENT 7 13 22 24
REMARK Flexibility Score: inf
ROOT
ATOM      1  C   UNL     1     122.075 110.378 119.738  1.00  0.00     0.010 C 
ENDROOT
BRANCH   1   2
ATOM      2  C   UNL     1     122.840 109.225 119.072  1.00  0.00     0.005 C 
BRANCH   2   3
ATOM      3  C   UNL     1     121.932 108.034 118.732  1.00  0.00     0.027 C 
BRANCH   3   4
ATOM      4  C   UNL     1     120.581 108.189 119.372  1.00  0.00    -0.031 C 
ATOM      5  C   UNL     1     119.503 107.538 118.901  1.00  0.00    -0.028 C 
BRANCH   5   6
ATOM      6  C   UNL     1     118.129 107.675 119.518  1.00  0.00     0.005 C 
ATOM      7  C   UNL     1     118.158 108.581 120.755  1.00  0.00     0.012 C 
ATOM      8  C   UNL     1     117.527 106.304 119.847  1.00  0.00     0.012 C 
ENDBRANCH   5   6
ENDBRANCH   3   4
ENDBRANCH   2   3
ENDBRANCH   1   2
BRANCH   1   9
ATOM      9  C   UNL     1     122.892 111.072 120.835  1.00  0.00     0.100 C 
BRANCH   9  10
ATOM     10  C   UNL     1     123.019 110.174 122.026  1.00  0.00     0.220 C 
ATOM     11  O   UNL     1     124.151 110.003 122.555  1.00  0.00    -0.275 OA
ATOM     12  N   UNL     1     121.873 109.464 122.517  1.00  0.00    -0.352 N 
ATOM     13  H   UNL     1     120.941 109.655 122.084  1.00  0.00     0.163 HD
BRANCH  12  14
ATOM     14  C   UNL     1     121.990 108.312 123.406  1.00  0.00     0.151 C 
BRANCH  14  15
ATOM     15  C   UNL     1     121.942 107.043 122.599  1.00  0.00    -0.025 A 
ATOM     16  C   UNL     1     123.102 106.556 121.978  1.00  0.00     0.056 A 
ATOM     17  C   UNL     1     120.720 106.385 122.394  1.00  0.00     0.009 A 
ATOM     18  C   UNL     1     123.051 105.405 121.168  1.00  0.00     0.160 A 
ATOM     19  C   UNL     1     120.665 105.239 121.598  1.00  0.00     0.050 A 
ATOM     20  C   UNL     1     121.825 104.747 120.987  1.00  0.00     0.157 A 
BRANCH  18  21
ATOM     21  O   UNL     1     124.189 104.890 120.528  1.00  0.00    -0.493 OA
ATOM     22  C   UNL     1     125.128 104.010 121.138  1.00  0.00     0.278 C 
ENDBRANCH  18  21
BRANCH  20  23
ATOM     23  O   UNL     1     121.768 103.603 120.191  1.00  0.00    -0.504 OA
ATOM     24  H   UNL     1     122.431 102.845 120.305  1.00  0.00     0.293 HD
ENDBRANCH  20  23
ENDBRANCH  14  15
ENDBRANCH  12  14
ENDBRANCH   9  10
ENDBRANCH   1   9
TORSDOF 10
ENDMDL
MODEL 8
REMARK VINA RESULT:    -3.371     13.984     16.149
REMARK INTER + INTRA:          -6.860
REMARK INTER:                  -6.100
REMARK INTRA:                  -0.760
REMARK UNBOUND:                -1.618
REMARK SMILES COc1cc(CNC(=O)CCCCC=CC(C)C)ccc1O
REMARK SMILES IDX 11 1 12 2 13 3 14 4 15 5 16 6 17 7 18 8 10 9 8 10 9 11 7 12
REMARK SMILES IDX 6 14 5 15 4 16 19 17 3 18 20 19 21 20 2 21 1 22 22 23
REMARK H PARENT 7 13 22 24
REMARK Flexibility Score: inf
ROOT
ATOM      1  C   UNL     1     116.964 110.741 120.568  1.00  0.00     0.010 C 
ENDROOT
BRANCH   1   2
ATOM      2  C   UNL     1     116.019 111.932 120.358  1.00  0.00     0.005 C 
BRANCH   2   3
ATOM      3  C   UNL     1     114.550 111.573 120.624  1.00  0.00     0.027 C 
BRANCH   3   4
ATOM      4  C   UNL     1     114.004 112.363 121.780  1.00  0.00    -0.031 C 
ATOM      5  C   UNL     1     114.652 113.437 122.265  1.00  0.00    -0.028 C 
BRANCH   5   6
ATOM      6  C   UNL     1     114.132 114.250 123.429  1.00  0.00     0.005 C 
ATOM      7  C   UNL     1     113.009 115.199 122.994  1.00  0.00     0.012 C 
ATOM      8  C   UNL     1     115.266 115.013 124.125  1.00  0.00     0.012 C 
ENDBRANCH   5   6
ENDBRANCH   3   4
ENDBRANCH   2   3
ENDBRANCH   1   2
BRANCH   1   9
ATOM      9  C   UNL     1     116.407 109.436 119.984  1.00  0.00     0.100 C 
BRANCH   9  10
ATOM     10  C   UNL     1     117.267 108.282 120.396  1.00  0.00     0.220 C 
ATOM     11  O   UNL     1     116.824 107.107 120.277  1.00  0.00    -0.275 OA
ATOM     12  N   UNL     1     118.554 108.517 120.984  1.00  0.00    -0.352 N 
ATOM     13  H   UNL     1     118.911 109.498 121.034  1.00  0.00     0.163 HD
BRANCH  12  14
ATOM     14  C   UNL     1     119.268 107.491 121.739  1.00  0.00     0.151 C 
BRANCH  14  15
ATOM     15  C   UNL     1     120.632 108.000 122.117  1.00  0.00    -0.025 A 
ATOM     16  C   UNL     1     120.997 109.324 121.828  1.00  0.00     0.056 A 
ATOM     17  C   UNL     1     121.575 107.132 122.686  1.00  0.00     0.009 A 
ATOM     18  C   UNL     1     122.295 109.788 122.121  1.00  0.00     0.160 A 
ATOM     19  C   UNL     1     122.860 107.588 122.986  1.00  0.00     0.050 A 
ATOM     20  C   UNL     1     123.221 108.913 122.707  1.00  0.00     0.157 A 
BRANCH  18  21
ATOM     21  O   UNL     1     122.698 111.104 121.844  1.00  0.00    -0.493 OA
ATOM     22  C   UNL     1     121.928 112.043 121.101  1.00  0.00     0.278 C 
ENDBRANCH  18  21
BRANCH  20  23
ATOM     23  O   UNL     1     124.506 109.368 123.005  1.00  0.00    -0.504 OA
ATOM     24  H   UNL     1     124.738 110.354 122.976  1.00  0.00     0.293 HD
ENDBRANCH  20  23
ENDBRANCH  14  15
ENDBRANCH  12  14
ENDBRANCH   9  10
ENDBRANCH   1   9
TORSDOF 10
ENDMDL
MODEL 9
REMARK VINA RESULT:    -3.370      1.764      2.892
REMARK INTER + INTRA:          -6.859
REMARK INTER:                  -5.340
REMARK INTRA:                  -1.520
REMARK UNBOUND:                -1.618
REMARK SMILES COc1cc(CNC(=O)CCCCC=CC(C)C)ccc1O
REMARK SMILES IDX 11 1 12 2 13 3 14 4 15 5 16 6 17 7 18 8 10 9 8 10 9 11 7 12
REMARK SMILES IDX 6 14 5 15 4 16 19 17 3 18 20 19 21 20 2 21 1 22 22 23
REMARK H PARENT 7 13 22 24
REMARK Flexibility Score: inf
ROOT
ATOM      1  C   UNL     1     129.500 116.709 110.794  1.00  0.00     0.010 C 
ENDROOT
BRANCH   1   2
ATOM      2  C   UNL     1     130.311 117.722 109.974  1.00  0.00     0.005 C 
BRANCH   2   3
ATOM      3  C   UNL     1     129.443 118.855 109.410  1.00  0.00     0.027 C 
BRANCH   3   4
ATOM      4  C   UNL     1     127.984 118.584 109.650  1.00  0.00    -0.031 C 
ATOM      5  C   UNL     1     127.144 118.311 108.636  1.00  0.00    -0.028 C 
BRANCH   5   6
ATOM      6  C   UNL     1     125.672 118.039 108.843  1.00  0.00     0.005 C 
ATOM      7  C   UNL     1     125.231 118.391 110.269  1.00  0.00     0.012 C 
ATOM      8  C   UNL     1     125.319 116.588 108.494  1.00  0.00     0.012 C 
ENDBRANCH   5   6
ENDBRANCH   3   4
ENDBRANCH   2   3
ENDBRANCH   1   2
BRANCH   1   9
ATOM      9  C   UNL     1     129.276 115.388 110.046  1.00  0.00     0.100 C 
BRANCH   9  10
ATOM     10  C   UNL     1     127.949 114.804 110.423  1.00  0.00     0.220 C 
ATOM     11  O   UNL     1     127.220 115.410 111.254  1.00  0.00    -0.275 OA
ATOM     12  N   UNL     1     127.545 113.534 109.893  1.00  0.00    -0.352 N 
ATOM     13  H   UNL     1     128.152 113.074 109.176  1.00  0.00     0.163 HD
BRANCH  12  14
ATOM     14  C   UNL     1     126.472 112.744 110.489  1.00  0.00     0.151 C 
BRANCH  14  15
ATOM     15  C   UNL     1     125.175 113.043 109.788  1.00  0.00    -0.025 A 
ATOM     16  C   UNL     1     124.154 113.737 110.455  1.00  0.00     0.056 A 
ATOM     17  C   UNL     1     124.948 112.558 108.491  1.00  0.00     0.009 A 
ATOM     18  C   UNL     1     122.914 113.963 109.827  1.00  0.00     0.160 A 
ATOM     19  C   UNL     1     123.723 112.786 107.861  1.00  0.00     0.050 A 
ATOM     20  C   UNL     1     122.708 113.488 108.523  1.00  0.00     0.157 A 
BRANCH  18  21
ATOM     21  O   UNL     1     121.868 114.650 110.463  1.00  0.00    -0.493 OA
ATOM     22  C   UNL     1     121.853 114.994 111.845  1.00  0.00     0.278 C 
ENDBRANCH  18  21
BRANCH  20  23
ATOM     23  O   UNL     1     121.484 113.714 107.893  1.00  0.00    -0.504 OA
ATOM     24  H   UNL     1     121.396 114.372 107.127  1.00  0.00     0.293 HD
ENDBRANCH  20  23
ENDBRANCH  14  15
ENDBRANCH  12  14
ENDBRANCH   9  10
ENDBRANCH   1   9
TORSDOF 10
ENDMDL
