MODEL 1
REMARK VINA RESULT:     3.837      0.000      0.000
REMARK INTER + INTRA:           5.308
REMARK INTER:                   5.631
REMARK INTRA:                  -0.323
REMARK UNBOUND:                -0.323
REMARK SMILES O=C([O-])CCCCCCCC(=O)[O-]
REMARK SMILES IDX 7 1 6 2 5 3 4 4 2 5 1 6 3 7 8 8 9 9 10 10 11 11 12 12 13 13
REMARK H PARENT
REMARK Flexibility Score: inf
ROOT
ATOM      1  C   UNL     1      26.764  43.528   4.617  1.00  0.00     0.000 C 
ENDROOT
BRANCH   1   2
ATOM      2  C   UNL     1      27.494  44.816   4.204  1.00  0.00     0.000 C 
BRANCH   2   3
ATOM      3  C   UNL     1      27.313  45.954   5.219  1.00  0.00     0.006 C 
BRANCH   3   4
ATOM      4  C   UNL     1      26.484  45.489   6.419  1.00  0.00     0.053 C 
BRANCH   4   5
ATOM      5  C   UNL     1      26.188  46.639   7.330  1.00  0.00     0.041 C 
ATOM      6  O   UNL     1      27.078  47.494   7.581  1.00  0.00    -0.550 OA
ATOM      7  O   UNL     1      24.914  46.795   7.861  1.00  0.00    -0.550 OA
ENDBRANCH   4   5
ENDBRANCH   3   4
ENDBRANCH   2   3
ENDBRANCH   1   2
BRANCH   1   8
ATOM      8  C   UNL     1      25.499  43.271   3.780  1.00  0.00     0.000 C 
BRANCH   8   9
ATOM      9  C   UNL     1      24.689  42.060   4.280  1.00  0.00     0.006 C 
BRANCH   9  10
ATOM     10  C   UNL     1      23.165  42.258   4.246  1.00  0.00     0.053 C 
BRANCH  10  11
ATOM     11  C   UNL     1      22.663  42.525   2.860  1.00  0.00     0.041 C 
ATOM     12  O   UNL     1      21.899  43.501   2.640  1.00  0.00    -0.550 OA
ATOM     13  O   UNL     1      23.011  41.674   1.818  1.00  0.00    -0.550 OA
ENDBRANCH  10  11
ENDBRANCH   9  10
ENDBRANCH   8   9
ENDBRANCH   1   8
TORSDOF 8
ENDMDL
MODEL 2
REMARK VINA RESULT:     3.929      0.127      6.020
REMARK INTER + INTRA:           5.444
REMARK INTER:                   5.745
REMARK INTRA:                  -0.301
REMARK UNBOUND:                -0.323
REMARK SMILES O=C([O-])CCCCCCCC(=O)[O-]
REMARK SMILES IDX 7 1 6 2 5 3 4 4 2 5 1 6 3 7 8 8 9 9 10 10 11 11 12 12 13 13
REMARK H PARENT
REMARK Flexibility Score: inf
ROOT
ATOM      1  C   UNL     1      26.709  43.432   4.622  1.00  0.00     0.000 C 
ENDROOT
BRANCH   1   2
ATOM      2  C   UNL     1      25.381  43.265   3.865  1.00  0.00     0.000 C 
BRANCH   2   3
ATOM      3  C   UNL     1      24.639  41.976   4.246  1.00  0.00     0.006 C 
BRANCH   3   4
ATOM      4  C   UNL     1      23.124  42.202   4.263  1.00  0.00     0.053 C 
BRANCH   4   5
ATOM      5  C   UNL     1      22.628  42.537   2.892  1.00  0.00     0.041 C 
ATOM      6  O   UNL     1      21.921  43.563   2.708  1.00  0.00    -0.550 OA
ATOM      7  O   UNL     1      22.988  41.745   1.809  1.00  0.00    -0.550 OA
ENDBRANCH   4   5
ENDBRANCH   3   4
ENDBRANCH   2   3
ENDBRANCH   1   2
BRANCH   1   8
ATOM      8  C   UNL     1      27.445  44.729   4.244  1.00  0.00     0.000 C 
BRANCH   8   9
ATOM      9  C   UNL     1      27.248  45.850   5.282  1.00  0.00     0.006 C 
BRANCH   9  10
ATOM     10  C   UNL     1      26.373  45.457   6.483  1.00  0.00     0.053 C 
BRANCH  10  11
ATOM     11  C   UNL     1      26.020  46.637   7.335  1.00  0.00     0.041 C 
ATOM     12  O   UNL     1      26.891  47.506   7.605  1.00  0.00    -0.550 OA
ATOM     13  O   UNL     1      24.739  46.760   7.858  1.00  0.00    -0.550 OA
ENDBRANCH  10  11
ENDBRANCH   9  10
ENDBRANCH   8   9
ENDBRANCH   1   8
TORSDOF 8
ENDMDL
MODEL 3
REMARK VINA RESULT:     5.180      1.419      2.130
REMARK INTER + INTRA:           7.280
REMARK INTER:                   7.679
REMARK INTRA:                  -0.400
REMARK UNBOUND:                -0.323
REMARK SMILES O=C([O-])CCCCCCCC(=O)[O-]
REMARK SMILES IDX 7 1 6 2 5 3 4 4 2 5 1 6 3 7 8 8 9 9 10 10 11 11 12 12 13 13
REMARK H PARENT
REMARK Flexibility Score: inf
ROOT
ATOM      1  C   UNL     1      26.977  44.989   5.399  1.00  0.00     0.000 C 
ENDROOT
BRANCH   1   2
ATOM      2  C   UNL     1      27.289  46.489   5.535  1.00  0.00     0.000 C 
BRANCH   2   3
ATOM      3  C   UNL     1      26.868  47.062   6.897  1.00  0.00     0.006 C 
BRANCH   3   4
ATOM      4  C   UNL     1      26.001  46.063   7.666  1.00  0.00     0.053 C 
BRANCH   4   5
ATOM      5  C   UNL     1      24.711  46.698   8.082  1.00  0.00     0.041 C 
ATOM      6  O   UNL     1      24.308  47.745   7.511  1.00  0.00    -0.550 OA
ATOM      7  O   UNL     1      23.930  46.105   9.066  1.00  0.00    -0.550 OA
ENDBRANCH   4   5
ENDBRANCH   3   4
ENDBRANCH   2   3
ENDBRANCH   1   2
BRANCH   1   8
ATOM      8  C   UNL     1      27.385  44.424   4.028  1.00  0.00     0.000 C 
BRANCH   8   9
ATOM      9  C   UNL     1      26.267  43.592   3.371  1.00  0.00     0.006 C 
BRANCH   9  10
ATOM     10  C   UNL     1      25.327  42.893   4.366  1.00  0.00     0.053 C 
BRANCH  10  11
ATOM     11  C   UNL     1      24.057  42.437   3.716  1.00  0.00     0.041 C 
ATOM     12  O   UNL     1      24.012  42.255   2.471  1.00  0.00    -0.550 OA
ATOM     13  O   UNL     1      22.913  42.245   4.481  1.00  0.00    -0.550 OA
ENDBRANCH  10  11
ENDBRANCH   9  10
ENDBRANCH   8   9
ENDBRANCH   1   8
TORSDOF 8
ENDMDL
MODEL 4
REMARK VINA RESULT:     5.589     13.873     16.060
REMARK INTER + INTRA:           7.880
REMARK INTER:                   7.942
REMARK INTRA:                  -0.062
REMARK UNBOUND:                -0.323
REMARK SMILES O=C([O-])CCCCCCCC(=O)[O-]
REMARK SMILES IDX 7 1 6 2 5 3 4 4 2 5 1 6 3 7 8 8 9 9 10 10 11 11 12 12 13 13
REMARK H PARENT
REMARK Flexibility Score: inf
ROOT
ATOM      1  C   UNL     1      40.568  44.476  12.020  1.00  0.00     0.000 C 
ENDROOT
BRANCH   1   2
ATOM      2  C   UNL     1      39.475  44.804  10.990  1.00  0.00     0.000 C 
BRANCH   2   3
ATOM      3  C   UNL     1      38.113  45.093  11.639  1.00  0.00     0.006 C 
BRANCH   3   4
ATOM      4  C   UNL     1      37.022  45.251  10.576  1.00  0.00     0.053 C 
BRANCH   4   5
ATOM      5  C   UNL     1      35.777  45.818  11.181  1.00  0.00     0.041 C 
ATOM      6  O   UNL     1      34.759  45.092  11.331  1.00  0.00    -0.550 OA
ATOM      7  O   UNL     1      35.757  47.133  11.627  1.00  0.00    -0.550 OA
ENDBRANCH   4   5
ENDBRANCH   3   4
ENDBRANCH   2   3
ENDBRANCH   1   2
BRANCH   1   8
ATOM      8  C   UNL     1      41.941  44.241  11.369  1.00  0.00     0.000 C 
BRANCH   8   9
ATOM      9  C   UNL     1      42.120  42.797  10.864  1.00  0.00     0.006 C 
BRANCH   9  10
ATOM     10  C   UNL     1      41.414  42.498   9.532  1.00  0.00     0.053 C 
BRANCH  10  11
ATOM     11  C   UNL     1      41.885  41.214   8.920  1.00  0.00     0.041 C 
ATOM     12  O   UNL     1      42.110  41.148   7.683  1.00  0.00    -0.550 OA
ATOM     13  O   UNL     1      42.042  40.083   9.710  1.00  0.00    -0.550 OA
ENDBRANCH  10  11
ENDBRANCH   9  10
ENDBRANCH   8   9
ENDBRANCH   1   8
TORSDOF 8
ENDMDL
MODEL 5
REMARK VINA RESULT:     6.238      4.030      6.236
REMARK INTER + INTRA:           8.832
REMARK INTER:                   9.186
REMARK INTRA:                  -0.354
REMARK UNBOUND:                -0.323
REMARK SMILES O=C([O-])CCCCCCCC(=O)[O-]
REMARK SMILES IDX 7 1 6 2 5 3 4 4 2 5 1 6 3 7 8 8 9 9 10 10 11 11 12 12 13 13
REMARK H PARENT
REMARK Flexibility Score: inf
ROOT
ATOM      1  C   UNL     1      28.544  44.238   3.948  1.00  0.00     0.000 C 
ENDROOT
BRANCH   1   2
ATOM      2  C   UNL     1      27.102  44.717   4.182  1.00  0.00     0.000 C 
BRANCH   2   3
ATOM      3  C   UNL     1      26.117  43.556   4.390  1.00  0.00     0.006 C 
BRANCH   3   4
ATOM      4  C   UNL     1      25.513  43.106   3.057  1.00  0.00     0.053 C 
BRANCH   4   5
ATOM      5  C   UNL     1      24.209  42.407   3.281  1.00  0.00     0.041 C 
ATOM      6  O   UNL     1      23.865  42.065   4.443  1.00  0.00    -0.550 OA
ATOM      7  O   UNL     1      23.350  42.180   2.213  1.00  0.00    -0.550 OA
ENDBRANCH   4   5
ENDBRANCH   3   4
ENDBRANCH   2   3
ENDBRANCH   1   2
BRANCH   1   8
ATOM      8  C   UNL     1      29.099  44.681   2.584  1.00  0.00     0.000 C 
BRANCH   8   9
ATOM      9  C   UNL     1      29.299  43.504   1.611  1.00  0.00     0.006 C 
BRANCH   9  10
ATOM     10  C   UNL     1      30.073  43.860   0.332  1.00  0.00     0.053 C 
BRANCH  10  11
ATOM     11  C   UNL     1      30.213  42.687  -0.588  1.00  0.00     0.041 C 
ATOM     12  O   UNL     1      30.937  41.709  -0.264  1.00  0.00    -0.550 OA
ATOM     13  O   UNL     1      29.570  42.689  -1.820  1.00  0.00    -0.550 OA
ENDBRANCH  10  11
ENDBRANCH   9  10
ENDBRANCH   8   9
ENDBRANCH   1   8
TORSDOF 8
ENDMDL
MODEL 6
REMARK VINA RESULT:     6.446      2.529      5.932
REMARK INTER + INTRA:           9.138
REMARK INTER:                   9.013
REMARK INTRA:                   0.125
REMARK UNBOUND:                -0.323
REMARK SMILES O=C([O-])CCCCCCCC(=O)[O-]
REMARK SMILES IDX 7 1 6 2 5 3 4 4 2 5 1 6 3 7 8 8 9 9 10 10 11 11 12 12 13 13
REMARK H PARENT
REMARK Flexibility Score: inf
ROOT
ATOM      1  C   UNL     1      26.433  43.316   4.841  1.00  0.00     0.000 C 
ENDROOT
BRANCH   1   2
ATOM      2  C   UNL     1      25.116  43.172   4.061  1.00  0.00     0.000 C 
BRANCH   2   3
ATOM      3  C   UNL     1      24.342  41.898   4.432  1.00  0.00     0.006 C 
BRANCH   3   4
ATOM      4  C   UNL     1      22.833  42.111   4.285  1.00  0.00     0.053 C 
BRANCH   4   5
ATOM      5  C   UNL     1      22.498  42.548   2.893  1.00  0.00     0.041 C 
ATOM      6  O   UNL     1      21.895  43.637   2.700  1.00  0.00    -0.550 OA
ATOM      7  O   UNL     1      22.895  41.778   1.808  1.00  0.00    -0.550 OA
ENDBRANCH   4   5
ENDBRANCH   3   4
ENDBRANCH   2   3
ENDBRANCH   1   2
BRANCH   1   8
ATOM      8  C   UNL     1      26.514  44.639   5.622  1.00  0.00     0.000 C 
BRANCH   8   9
ATOM      9  C   UNL     1      27.446  45.668   4.954  1.00  0.00     0.006 C 
BRANCH   9  10
ATOM     10  C   UNL     1      27.666  45.443   3.450  1.00  0.00     0.053 C 
BRANCH  10  11
ATOM     11  C   UNL     1      28.899  44.638   3.176  1.00  0.00     0.041 C 
ATOM     12  O   UNL     1      29.373  44.582   2.011  1.00  0.00    -0.550 OA
ATOM     13  O   UNL     1      29.505  43.922   4.200  1.00  0.00    -0.550 OA
ENDBRANCH  10  11
ENDBRANCH   9  10
ENDBRANCH   8   9
ENDBRANCH   1   8
TORSDOF 8
ENDMDL
