MODEL 1
REMARK VINA RESULT:    -4.417      0.000      0.000
REMARK INTER + INTRA:          -7.985
REMARK INTER:                  -6.999
REMARK INTRA:                  -0.986
REMARK UNBOUND:                -0.986
REMARK SMILES CCCCCCCCCCCC(=O)[O-]
REMARK SMILES IDX 7 1 8 2 9 3 10 4 11 5 12 6 13 7 14 8 6 9 5 10 4 11 3 12 2 13
REMARK SMILES IDX 1 14
REMARK H PARENT
REMARK Flexibility Score: inf
ROOT
ATOM      1  C   UNL     1      12.025  13.743 -18.560  1.00  0.00     0.000 C 
ENDROOT
BRANCH   1   2
ATOM      2  C   UNL     1      13.215  13.644 -17.598  1.00  0.00     0.000 C 
BRANCH   2   3
ATOM      3  C   UNL     1      14.227  14.765 -17.857  1.00  0.00     0.000 C 
BRANCH   3   4
ATOM      4  C   UNL     1      15.024  15.093 -16.589  1.00  0.00     0.006 C 
BRANCH   4   5
ATOM      5  C   UNL     1      16.388  15.695 -16.936  1.00  0.00     0.053 C 
BRANCH   5   6
ATOM      6  C   UNL     1      17.212  14.715 -17.708  1.00  0.00     0.041 C 
ATOM      7  O   UNL     1      17.662  13.682 -17.145  1.00  0.00    -0.550 OA
ATOM      8  O   UNL     1      17.525  14.964 -19.038  1.00  0.00    -0.550 OA
ENDBRANCH   5   6
ENDBRANCH   4   5
ENDBRANCH   3   4
ENDBRANCH   2   3
ENDBRANCH   1   2
BRANCH   1   9
ATOM      9  C   UNL     1      11.208  12.445 -18.560  1.00  0.00     0.000 C 
BRANCH   9  10
ATOM     10  C   UNL     1      11.249  11.770 -19.939  1.00  0.00    -0.000 C 
BRANCH  10  11
ATOM     11  C   UNL     1      12.628  11.175 -20.273  1.00  0.00    -0.000 C 
BRANCH  11  12
ATOM     12  C   UNL     1      13.113  11.421 -21.717  1.00  0.00    -0.000 C 
BRANCH  12  13
ATOM     13  C   UNL     1      14.001  12.663 -21.901  1.00  0.00    -0.003 C 
ATOM     14  C   UNL     1      15.155  12.724 -20.902  1.00  0.00     0.004 C 
ENDBRANCH  12  13
ENDBRANCH  11  12
ENDBRANCH  10  11
ENDBRANCH   9  10
ENDBRANCH   1   9
TORSDOF 10
ENDMDL
MODEL 2
REMARK VINA RESULT:    -4.399      1.820      3.321
REMARK INTER + INTRA:          -7.956
REMARK INTER:                  -7.130
REMARK INTRA:                  -0.826
REMARK UNBOUND:                -0.986
REMARK SMILES CCCCCCCCCCCC(=O)[O-]
REMARK SMILES IDX 7 1 8 2 9 3 10 4 11 5 12 6 13 7 14 8 6 9 5 10 4 11 3 12 2 13
REMARK SMILES IDX 1 14
REMARK H PARENT
REMARK Flexibility Score: inf
ROOT
ATOM      1  C   UNL     1      14.908  13.745 -19.974  1.00  0.00     0.000 C 
ENDROOT
BRANCH   1   2
ATOM      2  C   UNL     1      16.289  13.111 -20.178  1.00  0.00     0.000 C 
BRANCH   2   3
ATOM      3  C   UNL     1      17.405  14.081 -19.773  1.00  0.00     0.000 C 
BRANCH   3   4
ATOM      4  C   UNL     1      17.083  14.766 -18.440  1.00  0.00     0.006 C 
BRANCH   4   5
ATOM      5  C   UNL     1      17.482  13.879 -17.256  1.00  0.00     0.053 C 
BRANCH   5   6
ATOM      6  C   UNL     1      16.346  13.751 -16.292  1.00  0.00     0.041 C 
ATOM      7  O   UNL     1      15.376  14.552 -16.345  1.00  0.00    -0.550 OA
ATOM      8  O   UNL     1      16.379  12.776 -15.304  1.00  0.00    -0.550 OA
ENDBRANCH   5   6
ENDBRANCH   4   5
ENDBRANCH   3   4
ENDBRANCH   2   3
ENDBRANCH   1   2
BRANCH   1   9
ATOM      9  C   UNL     1      14.035  13.577 -21.224  1.00  0.00     0.000 C 
BRANCH   9  10
ATOM     10  C   UNL     1      14.249  12.195 -21.862  1.00  0.00    -0.000 C 
BRANCH  10  11
ATOM     11  C   UNL     1      13.044  11.256 -21.672  1.00  0.00    -0.000 C 
BRANCH  11  12
ATOM     12  C   UNL     1      12.477  11.202 -20.239  1.00  0.00    -0.000 C 
BRANCH  12  13
ATOM     13  C   UNL     1      10.986  11.563 -20.117  1.00  0.00    -0.003 C 
ATOM     14  C   UNL     1      10.713  12.610 -19.039  1.00  0.00     0.004 C 
ENDBRANCH  12  13
ENDBRANCH  11  12
ENDBRANCH  10  11
ENDBRANCH   9  10
ENDBRANCH   1   9
TORSDOF 10
ENDMDL
MODEL 3
REMARK VINA RESULT:    -4.305      2.139      5.116
REMARK INTER + INTRA:          -7.808
REMARK INTER:                  -6.994
REMARK INTRA:                  -0.813
REMARK UNBOUND:                -0.986
REMARK SMILES CCCCCCCCCCCC(=O)[O-]
REMARK SMILES IDX 7 1 8 2 9 3 10 4 11 5 12 6 13 7 14 8 6 9 5 10 4 11 3 12 2 13
REMARK SMILES IDX 1 14
REMARK H PARENT
REMARK Flexibility Score: inf
ROOT
ATOM      1  C   UNL     1      12.179  13.196 -18.002  1.00  0.00     0.000 C 
ENDROOT
BRANCH   1   2
ATOM      2  C   UNL     1      11.315  13.146 -19.268  1.00  0.00     0.000 C 
BRANCH   2   3
ATOM      3  C   UNL     1      11.342  11.749 -19.898  1.00  0.00     0.000 C 
BRANCH   3   4
ATOM      4  C   UNL     1      12.775  11.327 -20.242  1.00  0.00     0.006 C 
BRANCH   4   5
ATOM      5  C   UNL     1      13.030  11.424 -21.749  1.00  0.00     0.053 C 
BRANCH   5   6
ATOM      6  C   UNL     1      13.971  12.546 -22.050  1.00  0.00     0.041 C 
ATOM      7  O   UNL     1      15.215  12.355 -22.022  1.00  0.00    -0.550 OA
ATOM      8  O   UNL     1      13.476  13.816 -22.316  1.00  0.00    -0.550 OA
ENDBRANCH   5   6
ENDBRANCH   4   5
ENDBRANCH   3   4
ENDBRANCH   2   3
ENDBRANCH   1   2
BRANCH   1   9
ATOM      9  C   UNL     1      13.002  14.490 -17.949  1.00  0.00     0.000 C 
BRANCH   9  10
ATOM     10  C   UNL     1      14.389  14.286 -18.579  1.00  0.00    -0.000 C 
BRANCH  10  11
ATOM     11  C   UNL     1      15.529  14.849 -17.713  1.00  0.00    -0.000 C 
BRANCH  11  12
ATOM     12  C   UNL     1      16.923  14.257 -18.002  1.00  0.00    -0.000 C 
BRANCH  12  13
ATOM     13  C   UNL     1      17.527  13.428 -16.854  1.00  0.00    -0.003 C 
ATOM     14  C   UNL     1      16.541  13.183 -15.714  1.00  0.00     0.004 C 
ENDBRANCH  12  13
ENDBRANCH  11  12
ENDBRANCH  10  11
ENDBRANCH   9  10
ENDBRANCH   1   9
TORSDOF 10
ENDMDL
MODEL 4
REMARK VINA RESULT:    -4.304      1.501      3.256
REMARK INTER + INTRA:          -7.806
REMARK INTER:                  -6.385
REMARK INTRA:                  -1.421
REMARK UNBOUND:                -0.986
REMARK SMILES CCCCCCCCCCCC(=O)[O-]
REMARK SMILES IDX 7 1 8 2 9 3 10 4 11 5 12 6 13 7 14 8 6 9 5 10 4 11 3 12 2 13
REMARK SMILES IDX 1 14
REMARK H PARENT
REMARK Flexibility Score: inf
ROOT
ATOM      1  C   UNL     1      13.975  12.598 -20.874  1.00  0.00     0.000 C 
ENDROOT
BRANCH   1   2
ATOM      2  C   UNL     1      13.412  13.890 -21.479  1.00  0.00     0.000 C 
BRANCH   2   3
ATOM      3  C   UNL     1      13.454  15.037 -20.464  1.00  0.00     0.000 C 
BRANCH   3   4
ATOM      4  C   UNL     1      14.297  14.661 -19.240  1.00  0.00     0.006 C 
BRANCH   4   5
ATOM      5  C   UNL     1      15.562  15.521 -19.158  1.00  0.00     0.053 C 
BRANCH   5   6
ATOM      6  C   UNL     1      16.761  14.666 -18.896  1.00  0.00     0.041 C 
ATOM      7  O   UNL     1      17.127  13.811 -19.745  1.00  0.00    -0.550 OA
ATOM      8  O   UNL     1      17.447  14.779 -17.695  1.00  0.00    -0.550 OA
ENDBRANCH   5   6
ENDBRANCH   4   5
ENDBRANCH   3   4
ENDBRANCH   2   3
ENDBRANCH   1   2
BRANCH   1   9
ATOM      9  C   UNL     1      13.092  11.395 -21.226  1.00  0.00     0.000 C 
BRANCH   9  10
ATOM     10  C   UNL     1      11.810  11.387 -20.379  1.00  0.00    -0.000 C 
BRANCH  10  11
ATOM     11  C   UNL     1      12.071  11.701 -18.895  1.00  0.00    -0.000 C 
BRANCH  11  12
ATOM     12  C   UNL     1      10.984  12.550 -18.206  1.00  0.00    -0.000 C 
BRANCH  12  13
ATOM     13  C   UNL     1      10.215  13.501 -19.139  1.00  0.00    -0.003 C 
ATOM     14  C   UNL     1      10.108  14.921 -18.585  1.00  0.00     0.004 C 
ENDBRANCH  12  13
ENDBRANCH  11  12
ENDBRANCH  10  11
ENDBRANCH   9  10
ENDBRANCH   1   9
TORSDOF 10
ENDMDL
MODEL 5
REMARK VINA RESULT:    -4.239      2.873      5.586
REMARK INTER + INTRA:          -7.703
REMARK INTER:                  -6.665
REMARK INTRA:                  -1.038
REMARK UNBOUND:                -0.986
REMARK SMILES CCCCCCCCCCCC(=O)[O-]
REMARK SMILES IDX 7 1 8 2 9 3 10 4 11 5 12 6 13 7 14 8 6 9 5 10 4 11 3 12 2 13
REMARK SMILES IDX 1 14
REMARK H PARENT
REMARK Flexibility Score: inf
ROOT
ATOM      1  C   UNL     1      13.412  14.031 -21.552  1.00  0.00     0.000 C 
ENDROOT
BRANCH   1   2
ATOM      2  C   UNL     1      14.163  12.698 -21.442  1.00  0.00     0.000 C 
BRANCH   2   3
ATOM      3  C   UNL     1      13.204  11.512 -21.592  1.00  0.00     0.000 C 
BRANCH   3   4
ATOM      4  C   UNL     1      12.620  11.101 -20.236  1.00  0.00     0.006 C 
BRANCH   4   5
ATOM      5  C   UNL     1      11.128  11.437 -20.155  1.00  0.00     0.053 C 
BRANCH   5   6
ATOM      6  C   UNL     1      10.869  12.410 -19.049  1.00  0.00     0.041 C 
ATOM      7  O   UNL     1      11.211  12.134 -17.869  1.00  0.00    -0.550 OA
ATOM      8  O   UNL     1      10.207  13.602 -19.312  1.00  0.00    -0.550 OA
ENDBRANCH   5   6
ENDBRANCH   4   5
ENDBRANCH   3   4
ENDBRANCH   2   3
ENDBRANCH   1   2
BRANCH   1   9
ATOM      9  C   UNL     1      13.445  14.793 -20.221  1.00  0.00     0.000 C 
BRANCH   9  10
ATOM     10  C   UNL     1      14.437  14.146 -19.243  1.00  0.00    -0.000 C 
BRANCH  10  11
ATOM     11  C   UNL     1      14.018  14.308 -17.771  1.00  0.00    -0.000 C 
BRANCH  11  12
ATOM     12  C   UNL     1      15.104  14.891 -16.843  1.00  0.00    -0.000 C 
BRANCH  12  13
ATOM     13  C   UNL     1      16.147  13.876 -16.347  1.00  0.00    -0.003 C 
ATOM     14  C   UNL     1      17.454  13.931 -17.136  1.00  0.00     0.004 C 
ENDBRANCH  12  13
ENDBRANCH  11  12
ENDBRANCH  10  11
ENDBRANCH   9  10
ENDBRANCH   1   9
TORSDOF 10
ENDMDL
MODEL 6
REMARK VINA RESULT:    -4.236      2.333      5.275
REMARK INTER + INTRA:          -7.699
REMARK INTER:                  -6.332
REMARK INTRA:                  -1.367
REMARK UNBOUND:                -0.986
REMARK SMILES CCCCCCCCCCCC(=O)[O-]
REMARK SMILES IDX 7 1 8 2 9 3 10 4 11 5 12 6 13 7 14 8 6 9 5 10 4 11 3 12 2 13
REMARK SMILES IDX 1 14
REMARK H PARENT
REMARK Flexibility Score: inf
ROOT
ATOM      1  C   UNL     1      13.162  15.868 -16.380  1.00  0.00     0.000 C 
ENDROOT
BRANCH   1   2
ATOM      2  C   UNL     1      13.131  15.796 -17.911  1.00  0.00     0.000 C 
BRANCH   2   3
ATOM      3  C   UNL     1      13.460  14.382 -18.402  1.00  0.00     0.000 C 
BRANCH   3   4
ATOM      4  C   UNL     1      14.226  14.424 -19.729  1.00  0.00     0.006 C 
BRANCH   4   5
ATOM      5  C   UNL     1      13.535  13.564 -20.791  1.00  0.00     0.053 C 
BRANCH   5   6
ATOM      6  C   UNL     1      14.371  12.369 -21.124  1.00  0.00     0.041 C 
ATOM      7  O   UNL     1      13.835  11.237 -21.256  1.00  0.00    -0.550 OA
ATOM      8  O   UNL     1      15.749  12.495 -21.241  1.00  0.00    -0.550 OA
ENDBRANCH   5   6
ENDBRANCH   4   5
ENDBRANCH   3   4
ENDBRANCH   2   3
ENDBRANCH   1   2
BRANCH   1   9
ATOM      9  C   UNL     1      13.996  17.064 -15.902  1.00  0.00     0.000 C 
BRANCH   9  10
ATOM     10  C   UNL     1      15.136  17.367 -16.887  1.00  0.00    -0.000 C 
BRANCH  10  11
ATOM     11  C   UNL     1      16.430  16.603 -16.559  1.00  0.00    -0.000 C 
BRANCH  11  12
ATOM     12  C   UNL     1      16.960  15.698 -17.690  1.00  0.00    -0.000 C 
BRANCH  12  13
ATOM     13  C   UNL     1      17.136  14.218 -17.309  1.00  0.00    -0.003 C 
ATOM     14  C   UNL     1      16.305  13.812 -16.094  1.00  0.00     0.004 C 
ENDBRANCH  12  13
ENDBRANCH  11  12
ENDBRANCH  10  11
ENDBRANCH   9  10
ENDBRANCH   1   9
TORSDOF 10
ENDMDL
MODEL 7
REMARK VINA RESULT:    -4.224      2.959      5.968
REMARK INTER + INTRA:          -7.679
REMARK INTER:                  -6.954
REMARK INTRA:                  -0.724
REMARK UNBOUND:                -0.986
REMARK SMILES CCCCCCCCCCCC(=O)[O-]
REMARK SMILES IDX 7 1 8 2 9 3 10 4 11 5 12 6 13 7 14 8 6 9 5 10 4 11 3 12 2 13
REMARK SMILES IDX 1 14
REMARK H PARENT
REMARK Flexibility Score: inf
ROOT
ATOM      1  C   UNL     1      15.579  12.461 -21.751  1.00  0.00     0.000 C 
ENDROOT
BRANCH   1   2
ATOM      2  C   UNL     1      14.094  12.671 -21.432  1.00  0.00     0.000 C 
BRANCH   2   3
ATOM      3  C   UNL     1      13.334  11.341 -21.449  1.00  0.00     0.000 C 
BRANCH   3   4
ATOM      4  C   UNL     1      12.335  11.263 -20.289  1.00  0.00     0.006 C 
BRANCH   4   5
ATOM      5  C   UNL     1      12.384  12.532 -19.434  1.00  0.00     0.053 C 
BRANCH   5   6
ATOM      6  C   UNL     1      11.002  13.049 -19.184  1.00  0.00     0.041 C 
ATOM      7  O   UNL     1      10.001  12.405 -19.593  1.00  0.00    -0.550 OA
ATOM      8  O   UNL     1      10.821  14.267 -18.542  1.00  0.00    -0.550 OA
ENDBRANCH   5   6
ENDBRANCH   4   5
ENDBRANCH   3   4
ENDBRANCH   2   3
ENDBRANCH   1   2
BRANCH   1   9
ATOM      9  C   UNL     1      16.444  12.654 -20.499  1.00  0.00     0.000 C 
BRANCH   9  10
ATOM     10  C   UNL     1      15.965  13.863 -19.681  1.00  0.00    -0.000 C 
BRANCH  10  11
ATOM     11  C   UNL     1      17.124  14.665 -19.063  1.00  0.00    -0.000 C 
BRANCH  11  12
ATOM     12  C   UNL     1      17.251  14.554 -17.530  1.00  0.00    -0.000 C 
BRANCH  12  13
ATOM     13  C   UNL     1      16.481  15.624 -16.736  1.00  0.00    -0.003 C 
ATOM     14  C   UNL     1      16.381  16.957 -17.475  1.00  0.00     0.004 C 
ENDBRANCH  12  13
ENDBRANCH  11  12
ENDBRANCH  10  11
ENDBRANCH   9  10
ENDBRANCH   1   9
TORSDOF 10
ENDMDL
MODEL 8
REMARK VINA RESULT:    -4.214      3.717      5.869
REMARK INTER + INTRA:          -7.664
REMARK INTER:                  -6.229
REMARK INTRA:                  -1.435
REMARK UNBOUND:                -0.986
REMARK SMILES CCCCCCCCCCCC(=O)[O-]
REMARK SMILES IDX 7 1 8 2 9 3 10 4 11 5 12 6 13 7 14 8 6 9 5 10 4 11 3 12 2 13
REMARK SMILES IDX 1 14
REMARK H PARENT
REMARK Flexibility Score: inf
ROOT
ATOM      1  C   UNL     1      15.686  17.407 -17.654  1.00  0.00     0.000 C 
ENDROOT
BRANCH   1   2
ATOM      2  C   UNL     1      14.294  17.838 -17.178  1.00  0.00     0.000 C 
BRANCH   2   3
ATOM      3  C   UNL     1      14.064  17.440 -15.716  1.00  0.00     0.000 C 
BRANCH   3   4
ATOM      4  C   UNL     1      12.705  16.752 -15.539  1.00  0.00     0.006 C 
BRANCH   4   5
ATOM      5  C   UNL     1      11.809  16.982 -16.760  1.00  0.00     0.053 C 
BRANCH   5   6
ATOM      6  C   UNL     1      10.500  16.279 -16.589  1.00  0.00     0.041 C 
ATOM      7  O   UNL     1      10.163  15.365 -17.387  1.00  0.00    -0.550 OA
ATOM      8  O   UNL     1       9.631  16.664 -15.577  1.00  0.00    -0.550 OA
ENDBRANCH   5   6
ENDBRANCH   4   5
ENDBRANCH   3   4
ENDBRANCH   2   3
ENDBRANCH   1   2
BRANCH   1   9
ATOM      9  C   UNL     1      16.397  16.565 -16.586  1.00  0.00     0.000 C 
BRANCH   9  10
ATOM     10  C   UNL     1      16.598  15.121 -17.069  1.00  0.00    -0.000 C 
BRANCH  10  11
ATOM     11  C   UNL     1      16.080  14.076 -16.065  1.00  0.00    -0.000 C 
BRANCH  11  12
ATOM     12  C   UNL     1      14.593  13.699 -16.223  1.00  0.00    -0.000 C 
BRANCH  12  13
ATOM     13  C   UNL     1      13.968  14.076 -17.578  1.00  0.00    -0.003 C 
ATOM     14  C   UNL     1      12.752  13.222 -17.930  1.00  0.00     0.004 C 
ENDBRANCH  12  13
ENDBRANCH  11  12
ENDBRANCH  10  11
ENDBRANCH   9  10
ENDBRANCH   1   9
TORSDOF 10
ENDMDL
MODEL 9
REMARK VINA RESULT:    -4.164      1.171      2.259
REMARK INTER + INTRA:          -7.585
REMARK INTER:                  -6.358
REMARK INTRA:                  -1.226
REMARK UNBOUND:                -0.986
REMARK SMILES CCCCCCCCCCCC(=O)[O-]
REMARK SMILES IDX 7 1 8 2 9 3 10 4 11 5 12 6 13 7 14 8 6 9 5 10 4 11 3 12 2 13
REMARK SMILES IDX 1 14
REMARK H PARENT
REMARK Flexibility Score: inf
ROOT
ATOM      1  C   UNL     1      12.172  14.981 -18.940  1.00  0.00     0.000 C 
ENDROOT
BRANCH   1   2
ATOM      2  C   UNL     1      12.651  14.351 -17.627  1.00  0.00     0.000 C 
BRANCH   2   3
ATOM      3  C   UNL     1      14.141  13.998 -17.697  1.00  0.00     0.000 C 
BRANCH   3   4
ATOM      4  C   UNL     1      14.892  14.527 -16.470  1.00  0.00     0.006 C 
BRANCH   4   5
ATOM      5  C   UNL     1      15.990  15.513 -16.879  1.00  0.00     0.053 C 
BRANCH   5   6
ATOM      6  C   UNL     1      17.109  14.795 -17.564  1.00  0.00     0.041 C 
ATOM      7  O   UNL     1      17.462  15.133 -18.725  1.00  0.00    -0.550 OA
ATOM      8  O   UNL     1      17.732  13.723 -16.941  1.00  0.00    -0.550 OA
ENDBRANCH   5   6
ENDBRANCH   4   5
ENDBRANCH   3   4
ENDBRANCH   2   3
ENDBRANCH   1   2
BRANCH   1   9
ATOM      9  C   UNL     1      13.336  15.156 -19.924  1.00  0.00     0.000 C 
BRANCH   9  10
ATOM     10  C   UNL     1      12.850  15.042 -21.377  1.00  0.00    -0.000 C 
BRANCH  10  11
ATOM     11  C   UNL     1      13.486  13.860 -22.130  1.00  0.00    -0.000 C 
BRANCH  11  12
ATOM     12  C   UNL     1      14.099  12.767 -21.231  1.00  0.00    -0.000 C 
BRANCH  12  13
ATOM     13  C   UNL     1      13.337  11.430 -21.223  1.00  0.00    -0.003 C 
ATOM     14  C   UNL     1      12.135  11.436 -20.280  1.00  0.00     0.004 C 
ENDBRANCH  12  13
ENDBRANCH  11  12
ENDBRANCH  10  11
ENDBRANCH   9  10
ENDBRANCH   1   9
TORSDOF 10
ENDMDL
