MODEL 1
REMARK VINA RESULT:    21.856      0.000      0.000
REMARK INTER + INTRA:          23.134
REMARK INTER:                  23.134
REMARK INTRA:                   0.000
REMARK UNBOUND:                 0.000
REMARK SMILES CC1(C)[C@@H](O)CC[C@@]2(C)[C@H]1CC[C@@]1(C)[C@H]2C=CC2=C(O)C(=O)C(=O)[C@@]21C
REMARK SMILES IDX 1 1 2 2 10 3 11 4 12 5 13 6 15 7 8 8 7 9 6 10 4 11 9 12
REMARK SMILES IDX 16 13 17 14 18 15 19 16 21 17 22 18 23 19 24 20 25 21 26 22
REMARK SMILES IDX 14 23 3 24 5 25 20 27
REMARK H PARENT 5 26 20 28
REMARK Flexibility Score: inf
ROOT
ATOM      1  C   UNL     1       5.397  14.836  15.765  1.00  0.00     0.014 C 
ATOM      2  C   UNL     1       4.203  15.725  15.310  1.00  0.00    -0.006 C 
ATOM      3  C   UNL     1       4.326  17.148  15.997  1.00  0.00     0.004 C 
ATOM      4  C   UNL     1       4.446  17.115  17.549  1.00  0.00     0.005 C 
ATOM      5  C   UNL     1       4.479  18.502  18.230  1.00  0.00     0.009 C 
ATOM      6  C   UNL     1       4.820  19.686  17.281  1.00  0.00    -0.009 C 
ATOM      7  C   UNL     1       3.713  19.703  16.154  1.00  0.00     0.025 C 
ATOM      8  C   UNL     1       3.371  18.283  15.463  1.00  0.00    -0.022 C 
ATOM      9  C   UNL     1       3.531  18.340  13.911  1.00  0.00     0.010 C 
ATOM     10  C   UNL     1       3.380  16.981  13.206  1.00  0.00     0.033 C 
ATOM     11  C   UNL     1       4.336  15.913  13.764  1.00  0.00     0.120 C 
ATOM     12  C   UNL     1       1.880  17.968  15.792  1.00  0.00     0.012 C 
ATOM     13  C   UNL     1       3.859  20.925  15.242  1.00  0.00    -0.022 C 
ATOM     14  C   UNL     1       4.371  22.085  15.681  1.00  0.00     0.005 C 
ATOM     15  C   UNL     1       4.966  22.181  17.028  1.00  0.00     0.012 C 
ATOM     16  C   UNL     1       5.948  23.026  17.370  1.00  0.00     0.171 C 
ATOM     17  C   UNL     1       6.569  22.578  18.597  1.00  0.00     0.264 C 
ATOM     18  O   UNL     1       7.530  23.135  19.190  1.00  0.00    -0.282 OA
ATOM     19  C   UNL     1       5.920  21.347  18.989  1.00  0.00     0.217 C 
ATOM     20  O   UNL     1       6.235  20.651  19.990  1.00  0.00    -0.289 OA
ATOM     21  C   UNL     1       4.765  21.080  18.054  1.00  0.00     0.069 C 
ATOM     22  C   UNL     1       3.465  21.377  18.849  1.00  0.00     0.026 C 
ATOM     23  C   UNL     1       6.258  19.503  16.663  1.00  0.00     0.013 C 
ATOM     24  C   UNL     1       2.896  14.949  15.661  1.00  0.00     0.014 C 
ENDROOT
BRANCH  11  25
ATOM     25  O   UNL     1       4.110  14.692  13.102  1.00  0.00    -0.393 OA
ATOM     26  H   UNL     1       3.861  14.027  13.797  1.00  0.00     0.210 HD
ENDBRANCH  11  25
BRANCH  16  27
ATOM     27  O   UNL     1       6.392  24.119  16.627  1.00  0.00    -0.504 OA
ATOM     28  H   UNL     1       7.291  24.555  16.788  1.00  0.00     0.293 HD
ENDBRANCH  16  27
TORSDOF 2
ENDMDL
MODEL 2
REMARK VINA RESULT:    23.518      1.492      1.858
REMARK INTER + INTRA:          24.893
REMARK INTER:                  24.893
REMARK INTRA:                   0.000
REMARK UNBOUND:                 0.000
REMARK SMILES CC1(C)[C@@H](O)CC[C@@]2(C)[C@H]1CC[C@@]1(C)[C@H]2C=CC2=C(O)C(=O)C(=O)[C@@]21C
REMARK SMILES IDX 1 1 2 2 10 3 11 4 12 5 13 6 15 7 8 8 7 9 6 10 4 11 9 12
REMARK SMILES IDX 16 13 17 14 18 15 19 16 21 17 22 18 23 19 24 20 25 21 26 22
REMARK SMILES IDX 14 23 3 24 5 25 20 27
REMARK H PARENT 5 26 20 28
REMARK Flexibility Score: inf
ROOT
ATOM      1  C   UNL     1       6.433  15.386  15.322  1.00  0.00     0.014 C 
ATOM      2  C   UNL     1       4.927  15.566  14.971  1.00  0.00    -0.006 C 
ATOM      3  C   UNL     1       4.429  16.962  15.531  1.00  0.00     0.004 C 
ATOM      4  C   UNL     1       4.685  17.185  17.050  1.00  0.00     0.005 C 
ATOM      5  C   UNL     1       4.124  18.508  17.619  1.00  0.00     0.009 C 
ATOM      6  C   UNL     1       3.786  19.586  16.550  1.00  0.00    -0.009 C 
ATOM      7  C   UNL     1       2.707  18.953  15.586  1.00  0.00     0.025 C 
ATOM      8  C   UNL     1       3.011  17.458  15.051  1.00  0.00    -0.022 C 
ATOM      9  C   UNL     1       2.990  17.384  13.492  1.00  0.00     0.010 C 
ATOM     10  C   UNL     1       3.433  16.030  12.913  1.00  0.00     0.033 C 
ATOM     11  C   UNL     1       4.822  15.596  13.411  1.00  0.00     0.120 C 
ATOM     12  C   UNL     1       1.877  16.542  15.602  1.00  0.00     0.012 C 
ATOM     13  C   UNL     1       2.184  19.979  14.577  1.00  0.00    -0.022 C 
ATOM     14  C   UNL     1       2.128  21.291  14.858  1.00  0.00     0.005 C 
ATOM     15  C   UNL     1       2.724  21.818  16.100  1.00  0.00     0.012 C 
ATOM     16  C   UNL     1       3.221  23.054  16.245  1.00  0.00     0.171 C 
ATOM     17  C   UNL     1       4.084  23.098  17.405  1.00  0.00     0.264 C 
ATOM     18  O   UNL     1       4.720  24.102  17.820  1.00  0.00    -0.282 OA
ATOM     19  C   UNL     1       4.124  21.767  17.969  1.00  0.00     0.217 C 
ATOM     20  O   UNL     1       4.814  21.425  18.965  1.00  0.00    -0.289 OA
ATOM     21  C   UNL     1       3.152  20.887  17.221  1.00  0.00     0.069 C 
ATOM     22  C   UNL     1       1.939  20.655  18.162  1.00  0.00     0.026 C 
ATOM     23  C   UNL     1       5.082  20.003  15.757  1.00  0.00     0.013 C 
ATOM     24  C   UNL     1       4.172  14.331  15.551  1.00  0.00     0.014 C 
ENDROOT
BRANCH  11  25
ATOM     25  O   UNL     1       5.137  14.334  12.876  1.00  0.00    -0.393 OA
ATOM     26  H   UNL     1       6.013  14.424  12.417  1.00  0.00     0.210 HD
ENDBRANCH  11  25
BRANCH  16  27
ATOM     27  O   UNL     1       3.035  24.124  15.372  1.00  0.00    -0.504 OA
ATOM     28  H   UNL     1       2.219  24.205  14.778  1.00  0.00     0.293 HD
ENDBRANCH  16  27
TORSDOF 2
ENDMDL
