MODEL 1
REMARK VINA RESULT:    -5.250      0.000      0.000
REMARK INTER + INTRA:          -7.740
REMARK INTER:                  -7.092
REMARK INTRA:                  -0.648
REMARK UNBOUND:                -0.648
REMARK SMILES CC(=O)CCC=C(C)CCC=C(C)C
REMARK SMILES IDX 7 1 6 2 8 3 9 4 10 5 11 6 13 7 12 8 14 9 5 10 4 11 2 12 3 13
REMARK SMILES IDX 1 14
REMARK H PARENT
REMARK Flexibility Score: inf
ROOT
ATOM      1  C   UNL     1      -0.185  -5.101   4.891  1.00  0.00    -0.077 C 
ATOM      2  C   UNL     1      -0.604  -6.371   4.697  1.00  0.00    -0.028 C 
ATOM      3  C   UNL     1      -0.577  -3.990   3.945  1.00  0.00     0.039 C 
ENDROOT
BRANCH   1   4
ATOM      4  C   UNL     1       0.696  -4.783   6.082  1.00  0.00     0.034 C 
BRANCH   4   5
ATOM      5  C   UNL     1       1.177  -6.056   6.795  1.00  0.00     0.032 C 
BRANCH   5   6
ATOM      6  C   UNL     1       0.640  -6.144   8.204  1.00  0.00    -0.028 C 
ATOM      7  C   UNL     1       2.685  -7.286   9.094  1.00  0.00     0.039 C 
ATOM      8  C   UNL     1       1.317  -6.666   9.252  1.00  0.00    -0.080 C 
ATOM      9  C   UNL     1       0.667  -6.638  10.611  1.00  0.00     0.039 C 
ENDBRANCH   5   6
ENDBRANCH   4   5
ENDBRANCH   1   4
BRANCH   2  10
ATOM     10  C   UNL     1      -1.489  -6.781   3.543  1.00  0.00     0.035 C 
BRANCH  10  11
ATOM     11  C   UNL     1      -2.777  -7.464   4.019  1.00  0.00     0.079 C 
BRANCH  11  12
ATOM     12  C   UNL     1      -4.006  -6.761   3.501  1.00  0.00     0.130 C 
ATOM     13  O   UNL     1      -5.103  -7.281   3.646  1.00  0.00    -0.300 OA
ATOM     14  C   UNL     1      -3.914  -5.438   2.801  1.00  0.00     0.087 C 
ENDBRANCH  11  12
ENDBRANCH  10  11
ENDBRANCH   2  10
TORSDOF 6
ENDMDL
MODEL 2
REMARK VINA RESULT:    -5.223      9.629     11.949
REMARK INTER + INTRA:          -7.703
REMARK INTER:                  -7.331
REMARK INTRA:                  -0.372
REMARK UNBOUND:                -0.648
REMARK SMILES CC(=O)CCC=C(C)CCC=C(C)C
REMARK SMILES IDX 7 1 6 2 8 3 9 4 10 5 11 6 13 7 12 8 14 9 5 10 4 11 2 12 3 13
REMARK SMILES IDX 1 14
REMARK H PARENT
REMARK Flexibility Score: inf
ROOT
ATOM      1  C   UNL     1      -4.206  -3.926  15.635  1.00  0.00    -0.077 C 
ATOM      2  C   UNL     1      -3.452  -2.827  15.412  1.00  0.00    -0.028 C 
ATOM      3  C   UNL     1      -4.790  -4.216  16.998  1.00  0.00     0.039 C 
ENDROOT
BRANCH   1   4
ATOM      4  C   UNL     1      -4.471  -4.889  14.495  1.00  0.00     0.034 C 
BRANCH   4   5
ATOM      5  C   UNL     1      -5.881  -4.712  13.911  1.00  0.00     0.032 C 
BRANCH   5   6
ATOM      6  C   UNL     1      -6.784  -5.869  14.268  1.00  0.00    -0.028 C 
ATOM      7  C   UNL     1      -5.826  -7.379  12.513  1.00  0.00     0.039 C 
ATOM      8  C   UNL     1      -6.750  -7.081  13.671  1.00  0.00    -0.080 C 
ATOM      9  C   UNL     1      -7.682  -8.154  14.172  1.00  0.00     0.039 C 
ENDBRANCH   5   6
ENDBRANCH   4   5
ENDBRANCH   1   4
BRANCH   2  10
ATOM     10  C   UNL     1      -3.141  -1.808  16.483  1.00  0.00     0.035 C 
BRANCH  10  11
ATOM     11  C   UNL     1      -3.123  -0.378  15.931  1.00  0.00     0.079 C 
BRANCH  11  12
ATOM     12  C   UNL     1      -4.512   0.199  15.829  1.00  0.00     0.130 C 
ATOM     13  O   UNL     1      -5.461  -0.434  16.270  1.00  0.00    -0.300 OA
ATOM     14  C   UNL     1      -4.760   1.532  15.187  1.00  0.00     0.087 C 
ENDBRANCH  11  12
ENDBRANCH  10  11
ENDBRANCH   2  10
TORSDOF 6
ENDMDL
MODEL 3
REMARK VINA RESULT:    -5.216      5.235      7.424
REMARK INTER + INTRA:          -7.693
REMARK INTER:                  -7.169
REMARK INTRA:                  -0.524
REMARK UNBOUND:                -0.648
REMARK SMILES CC(=O)CCC=C(C)CCC=C(C)C
REMARK SMILES IDX 7 1 6 2 8 3 9 4 10 5 11 6 13 7 12 8 14 9 5 10 4 11 2 12 3 13
REMARK SMILES IDX 1 14
REMARK H PARENT
REMARK Flexibility Score: inf
ROOT
ATOM      1  C   UNL     1      -2.078  -5.312  11.910  1.00  0.00    -0.077 C 
ATOM      2  C   UNL     1      -3.348  -5.720  12.126  1.00  0.00    -0.028 C 
ATOM      3  C   UNL     1      -1.731  -3.846  11.803  1.00  0.00     0.039 C 
ENDROOT
BRANCH   1   4
ATOM      4  C   UNL     1      -0.978  -6.345  11.773  1.00  0.00     0.034 C 
BRANCH   4   5
ATOM      5  C   UNL     1       0.414  -5.697  11.729  1.00  0.00     0.032 C 
BRANCH   5   6
ATOM      6  C   UNL     1       1.423  -6.587  11.041  1.00  0.00    -0.028 C 
ATOM      7  C   UNL     1       1.028  -5.577   8.783  1.00  0.00     0.039 C 
ATOM      8  C   UNL     1       1.731  -6.524   9.726  1.00  0.00    -0.080 C 
ATOM      9  C   UNL     1       2.798  -7.446   9.195  1.00  0.00     0.039 C 
ENDBRANCH   5   6
ENDBRANCH   4   5
ENDBRANCH   1   4
BRANCH   2  10
ATOM     10  C   UNL     1      -4.507  -4.765  12.283  1.00  0.00     0.035 C 
BRANCH  10  11
ATOM     11  C   UNL     1      -5.848  -5.422  11.934  1.00  0.00     0.079 C 
BRANCH  11  12
ATOM     12  C   UNL     1      -6.596  -5.856  13.169  1.00  0.00     0.130 C 
ATOM     13  O   UNL     1      -7.190  -5.022  13.836  1.00  0.00    -0.300 OA
ATOM     14  C   UNL     1      -6.619  -7.291  13.605  1.00  0.00     0.087 C 
ENDBRANCH  11  12
ENDBRANCH  10  11
ENDBRANCH   2  10
TORSDOF 6
ENDMDL
MODEL 4
REMARK VINA RESULT:    -5.201     14.173     16.701
REMARK INTER + INTRA:          -7.674
REMARK INTER:                  -7.250
REMARK INTRA:                  -0.424
REMARK UNBOUND:                -0.648
REMARK SMILES CC(=O)CCC=C(C)CCC=C(C)C
REMARK SMILES IDX 7 1 6 2 8 3 9 4 10 5 11 6 13 7 12 8 14 9 5 10 4 11 2 12 3 13
REMARK SMILES IDX 1 14
REMARK H PARENT
REMARK Flexibility Score: inf
ROOT
ATOM      1  C   UNL     1       3.476   3.650  15.876  1.00  0.00    -0.077 C 
ATOM      2  C   UNL     1       3.518   4.845  16.504  1.00  0.00    -0.028 C 
ATOM      3  C   UNL     1       2.857   2.438  16.532  1.00  0.00     0.039 C 
ENDROOT
BRANCH   1   4
ATOM      4  C   UNL     1       4.062   3.521  14.484  1.00  0.00     0.034 C 
BRANCH   4   5
ATOM      5  C   UNL     1       4.355   4.891  13.856  1.00  0.00     0.032 C 
BRANCH   5   6
ATOM      6  C   UNL     1       3.867   4.967  12.428  1.00  0.00    -0.028 C 
ATOM      7  C   UNL     1       5.424   6.831  11.816  1.00  0.00     0.039 C 
ATOM      8  C   UNL     1       4.358   5.811  11.493  1.00  0.00    -0.080 C 
ATOM      9  C   UNL     1       3.802   5.734  10.095  1.00  0.00     0.039 C 
ENDBRANCH   5   6
ENDBRANCH   4   5
ENDBRANCH   1   4
BRANCH   2  10
ATOM     10  C   UNL     1       2.953   5.072  17.887  1.00  0.00     0.035 C 
BRANCH  10  11
ATOM     11  C   UNL     1       2.723   6.559  18.180  1.00  0.00     0.079 C 
BRANCH  11  12
ATOM     12  C   UNL     1       1.440   6.788  18.937  1.00  0.00     0.130 C 
ATOM     13  O   UNL     1       1.144   6.042  19.860  1.00  0.00    -0.300 OA
ATOM     14  C   UNL     1       0.508   7.907  18.576  1.00  0.00     0.087 C 
ENDBRANCH  11  12
ENDBRANCH  10  11
ENDBRANCH   2  10
TORSDOF 6
ENDMDL
MODEL 5
REMARK VINA RESULT:    -5.038      8.039     10.768
REMARK INTER + INTRA:          -7.453
REMARK INTER:                  -6.632
REMARK INTRA:                  -0.822
REMARK UNBOUND:                -0.648
REMARK SMILES CC(=O)CCC=C(C)CCC=C(C)C
REMARK SMILES IDX 7 1 6 2 8 3 9 4 10 5 11 6 13 7 12 8 14 9 5 10 4 11 2 12 3 13
REMARK SMILES IDX 1 14
REMARK H PARENT
REMARK Flexibility Score: inf
ROOT
ATOM      1  C   UNL     1      -3.372  -4.574  12.504  1.00  0.00    -0.077 C 
ATOM      2  C   UNL     1      -3.854  -4.317  13.739  1.00  0.00    -0.028 C 
ATOM      3  C   UNL     1      -2.364  -3.660  11.847  1.00  0.00     0.039 C 
ENDROOT
BRANCH   1   4
ATOM      4  C   UNL     1      -3.849  -5.806  11.761  1.00  0.00     0.034 C 
BRANCH   4   5
ATOM      5  C   UNL     1      -5.381  -5.862  11.670  1.00  0.00     0.032 C 
BRANCH   5   6
ATOM      6  C   UNL     1      -5.936  -7.099  12.337  1.00  0.00    -0.028 C 
ATOM      7  C   UNL     1      -7.143  -5.807  14.112  1.00  0.00     0.039 C 
ATOM      8  C   UNL     1      -6.752  -7.089  13.415  1.00  0.00    -0.080 C 
ATOM      9  C   UNL     1      -7.265  -8.405  13.938  1.00  0.00     0.039 C 
ENDBRANCH   5   6
ENDBRANCH   4   5
ENDBRANCH   1   4
BRANCH   2  10
ATOM     10  C   UNL     1      -3.432  -3.119  14.558  1.00  0.00     0.035 C 
BRANCH  10  11
ATOM     11  C   UNL     1      -4.530  -2.669  15.529  1.00  0.00     0.079 C 
BRANCH  11  12
ATOM     12  C   UNL     1      -4.282  -3.176  16.927  1.00  0.00     0.130 C 
ATOM     13  O   UNL     1      -3.767  -2.436  17.754  1.00  0.00    -0.300 OA
ATOM     14  C   UNL     1      -4.642  -4.576  17.327  1.00  0.00     0.087 C 
ENDBRANCH  11  12
ENDBRANCH  10  11
ENDBRANCH   2  10
TORSDOF 6
ENDMDL
MODEL 6
REMARK VINA RESULT:    -5.008      2.080      4.215
REMARK INTER + INTRA:          -7.412
REMARK INTER:                  -6.916
REMARK INTRA:                  -0.496
REMARK UNBOUND:                -0.648
REMARK SMILES CC(=O)CCC=C(C)CCC=C(C)C
REMARK SMILES IDX 7 1 6 2 8 3 9 4 10 5 11 6 13 7 12 8 14 9 5 10 4 11 2 12 3 13
REMARK SMILES IDX 1 14
REMARK H PARENT
REMARK Flexibility Score: inf
ROOT
ATOM      1  C   UNL     1      -3.275  -7.461   3.790  1.00  0.00    -0.077 C 
ATOM      2  C   UNL     1      -4.008  -6.465   3.247  1.00  0.00    -0.028 C 
ATOM      3  C   UNL     1      -3.918  -8.543   4.628  1.00  0.00     0.039 C 
ENDROOT
BRANCH   1   4
ATOM      4  C   UNL     1      -1.779  -7.498   3.556  1.00  0.00     0.034 C 
BRANCH   4   5
ATOM      5  C   UNL     1      -1.103  -6.179   3.960  1.00  0.00     0.032 C 
BRANCH   5   6
ATOM      6  C   UNL     1      -0.196  -6.360   5.155  1.00  0.00    -0.028 C 
ATOM      7  C   UNL     1       0.303  -3.914   5.361  1.00  0.00     0.039 C 
ATOM      8  C   UNL     1       0.418  -5.351   5.812  1.00  0.00    -0.080 C 
ATOM      9  C   UNL     1       1.254  -5.685   7.020  1.00  0.00     0.039 C 
ENDBRANCH   5   6
ENDBRANCH   4   5
ENDBRANCH   1   4
BRANCH   2  10
ATOM     10  C   UNL     1      -5.504  -6.350   3.420  1.00  0.00     0.035 C 
BRANCH  10  11
ATOM     11  C   UNL     1      -5.934  -4.927   3.796  1.00  0.00     0.079 C 
BRANCH  11  12
ATOM     12  C   UNL     1      -6.661  -4.246   2.664  1.00  0.00     0.130 C 
ATOM     13  O   UNL     1      -6.275  -3.154   2.271  1.00  0.00    -0.300 OA
ATOM     14  C   UNL     1      -7.858  -4.874   2.013  1.00  0.00     0.087 C 
ENDBRANCH  11  12
ENDBRANCH  10  11
ENDBRANCH   2  10
TORSDOF 6
ENDMDL
MODEL 7
REMARK VINA RESULT:    -4.912      2.326      6.541
REMARK INTER + INTRA:          -7.283
REMARK INTER:                  -6.676
REMARK INTRA:                  -0.606
REMARK UNBOUND:                -0.648
REMARK SMILES CC(=O)CCC=C(C)CCC=C(C)C
REMARK SMILES IDX 7 1 6 2 8 3 9 4 10 5 11 6 13 7 12 8 14 9 5 10 4 11 2 12 3 13
REMARK SMILES IDX 1 14
REMARK H PARENT
REMARK Flexibility Score: inf
ROOT
ATOM      1  C   UNL     1      -0.208  -5.765   4.926  1.00  0.00    -0.077 C 
ATOM      2  C   UNL     1       0.613  -6.126   5.936  1.00  0.00    -0.028 C 
ATOM      3  C   UNL     1      -0.317  -4.327   4.477  1.00  0.00     0.039 C 
ENDROOT
BRANCH   1   4
ATOM      4  C   UNL     1      -1.037  -6.824   4.227  1.00  0.00     0.034 C 
BRANCH   4   5
ATOM      5  C   UNL     1      -1.955  -6.218   3.155  1.00  0.00     0.032 C 
BRANCH   5   6
ATOM      6  C   UNL     1      -3.350  -6.792   3.224  1.00  0.00    -0.028 C 
ATOM      7  C   UNL     1      -4.458  -4.545   3.233  1.00  0.00     0.039 C 
ATOM      8  C   UNL     1      -4.483  -6.055   3.229  1.00  0.00    -0.080 C 
ATOM      9  C   UNL     1      -5.807  -6.775   3.251  1.00  0.00     0.039 C 
ENDBRANCH   5   6
ENDBRANCH   4   5
ENDBRANCH   1   4
BRANCH   2  10
ATOM     10  C   UNL     1       1.482  -5.143   6.686  1.00  0.00     0.035 C 
BRANCH  10  11
ATOM     11  C   UNL     1       0.993  -4.920   8.122  1.00  0.00     0.079 C 
BRANCH  11  12
ATOM     12  C   UNL     1       1.137  -6.164   8.961  1.00  0.00     0.130 C 
ATOM     13  O   UNL     1       0.170  -6.591   9.575  1.00  0.00    -0.300 OA
ATOM     14  C   UNL     1       2.447  -6.887   9.069  1.00  0.00     0.087 C 
ENDBRANCH  11  12
ENDBRANCH  10  11
ENDBRANCH   2  10
TORSDOF 6
ENDMDL
MODEL 8
REMARK VINA RESULT:    -4.867      8.751     11.109
REMARK INTER + INTRA:          -7.223
REMARK INTER:                  -6.603
REMARK INTRA:                  -0.619
REMARK UNBOUND:                -0.648
REMARK SMILES CC(=O)CCC=C(C)CCC=C(C)C
REMARK SMILES IDX 7 1 6 2 8 3 9 4 10 5 11 6 13 7 12 8 14 9 5 10 4 11 2 12 3 13
REMARK SMILES IDX 1 14
REMARK H PARENT
REMARK Flexibility Score: inf
ROOT
ATOM      1  C   UNL     1      -4.299  -3.572  15.646  1.00  0.00    -0.077 C 
ATOM      2  C   UNL     1      -4.966  -4.165  14.632  1.00  0.00    -0.028 C 
ATOM      3  C   UNL     1      -4.582  -3.928  17.087  1.00  0.00     0.039 C 
ENDROOT
BRANCH   1   4
ATOM      4  C   UNL     1      -3.246  -2.529  15.334  1.00  0.00     0.034 C 
BRANCH   4   5
ATOM      5  C   UNL     1      -3.223  -1.406  16.382  1.00  0.00     0.032 C 
BRANCH   5   6
ATOM      6  C   UNL     1      -3.187  -0.040  15.737  1.00  0.00    -0.028 C 
ATOM      7  C   UNL     1      -5.641   0.358  16.045  1.00  0.00     0.039 C 
ATOM      8  C   UNL     1      -4.257   0.775  15.606  1.00  0.00    -0.080 C 
ATOM      9  C   UNL     1      -4.052   2.133  14.984  1.00  0.00     0.039 C 
ENDBRANCH   5   6
ENDBRANCH   4   5
ENDBRANCH   1   4
BRANCH   2  10
ATOM     10  C   UNL     1      -6.026  -5.220  14.845  1.00  0.00     0.035 C 
BRANCH  10  11
ATOM     11  C   UNL     1      -6.966  -5.345  13.640  1.00  0.00     0.079 C 
BRANCH  11  12
ATOM     12  C   UNL     1      -6.216  -5.703  12.382  1.00  0.00     0.130 C 
ATOM     13  O   UNL     1      -6.079  -4.864  11.503  1.00  0.00    -0.300 OA
ATOM     14  C   UNL     1      -5.643  -7.074  12.177  1.00  0.00     0.087 C 
ENDBRANCH  11  12
ENDBRANCH  10  11
ENDBRANCH   2  10
TORSDOF 6
ENDMDL
MODEL 9
REMARK VINA RESULT:    -4.814      2.418      5.960
REMARK INTER + INTRA:          -7.151
REMARK INTER:                  -6.421
REMARK INTRA:                  -0.729
REMARK UNBOUND:                -0.648
REMARK SMILES CC(=O)CCC=C(C)CCC=C(C)C
REMARK SMILES IDX 7 1 6 2 8 3 9 4 10 5 11 6 13 7 12 8 14 9 5 10 4 11 2 12 3 13
REMARK SMILES IDX 1 14
REMARK H PARENT
REMARK Flexibility Score: inf
ROOT
ATOM      1  C   UNL     1      -0.610  -3.478   4.142  1.00  0.00    -0.077 C 
ATOM      2  C   UNL     1      -0.028  -4.585   4.652  1.00  0.00    -0.028 C 
ATOM      3  C   UNL     1      -0.584  -2.163   4.886  1.00  0.00     0.039 C 
ENDROOT
BRANCH   1   4
ATOM      4  C   UNL     1      -1.302  -3.554   2.797  1.00  0.00     0.034 C 
BRANCH   4   5
ATOM      5  C   UNL     1      -1.362  -4.993   2.263  1.00  0.00     0.032 C 
BRANCH   5   6
ATOM      6  C   UNL     1      -2.700  -5.636   2.538  1.00  0.00    -0.028 C 
ATOM      7  C   UNL     1      -1.703  -7.605   3.723  1.00  0.00     0.039 C 
ATOM      8  C   UNL     1      -2.871  -6.792   3.218  1.00  0.00    -0.080 C 
ATOM      9  C   UNL     1      -4.276  -7.283   3.457  1.00  0.00     0.039 C 
ENDBRANCH   5   6
ENDBRANCH   4   5
ENDBRANCH   1   4
BRANCH   2  10
ATOM     10  C   UNL     1       0.691  -4.603   5.981  1.00  0.00     0.035 C 
BRANCH  10  11
ATOM     11  C   UNL     1       0.910  -6.030   6.499  1.00  0.00     0.079 C 
BRANCH  11  12
ATOM     12  C   UNL     1       1.161  -6.052   7.985  1.00  0.00     0.130 C 
ATOM     13  O   UNL     1       0.831  -5.092   8.666  1.00  0.00    -0.300 OA
ATOM     14  C   UNL     1       1.818  -7.226   8.650  1.00  0.00     0.087 C 
ENDBRANCH  11  12
ENDBRANCH  10  11
ENDBRANCH   2  10
TORSDOF 6
ENDMDL
