MODEL 1
REMARK VINA RESULT:    -4.043      0.000      0.000
REMARK INTER + INTRA:          -9.018
REMARK INTER:                  -7.116
REMARK INTRA:                  -1.902
REMARK UNBOUND:                -1.902
REMARK SMILES CCCCCCCCCCCCCCC(=O)[O-]
REMARK SMILES IDX 9 1 10 2 11 3 12 4 13 5 14 6 15 7 16 8 17 9 8 10 7 11 6 12
REMARK SMILES IDX 5 13 4 14 3 15 2 16 1 17
REMARK H PARENT
REMARK Flexibility Score: inf
ROOT
ATOM      1  C   UNL     1     -17.832  11.624  14.307  1.00  0.00     0.000 C 
ENDROOT
BRANCH   1   2
ATOM      2  C   UNL     1     -19.261  11.175  13.963  1.00  0.00     0.000 C 
BRANCH   2   3
ATOM      3  C   UNL     1     -19.658   9.861  14.658  1.00  0.00     0.000 C 
BRANCH   3   4
ATOM      4  C   UNL     1     -18.880   9.642  15.974  1.00  0.00     0.000 C 
BRANCH   4   5
ATOM      5  C   UNL     1     -19.557   8.646  16.931  1.00  0.00     0.006 C 
BRANCH   5   6
ATOM      6  C   UNL     1     -18.897   8.604  18.315  1.00  0.00     0.053 C 
BRANCH   6   7
ATOM      7  C   UNL     1     -18.612   7.191  18.715  1.00  0.00     0.041 C 
ATOM      8  O   UNL     1     -18.127   6.940  19.850  1.00  0.00    -0.550 OA
ATOM      9  O   UNL     1     -18.834   6.155  17.815  1.00  0.00    -0.550 OA
ENDBRANCH   6   7
ENDBRANCH   5   6
ENDBRANCH   4   5
ENDBRANCH   3   4
ENDBRANCH   2   3
ENDBRANCH   1   2
BRANCH   1  10
ATOM     10  C   UNL     1     -17.796  12.990  15.014  1.00  0.00     0.000 C 
BRANCH  10  11
ATOM     11  C   UNL     1     -19.189  13.635  15.137  1.00  0.00    -0.000 C 
BRANCH  11  12
ATOM     12  C   UNL     1     -19.706  13.807  16.580  1.00  0.00    -0.000 C 
BRANCH  12  13
ATOM     13  C   UNL     1     -18.909  13.046  17.657  1.00  0.00    -0.000 C 
BRANCH  13  14
ATOM     14  C   UNL     1     -19.732  12.046  18.489  1.00  0.00    -0.000 C 
BRANCH  14  15
ATOM     15  C   UNL     1     -21.138  11.810  17.917  1.00  0.00    -0.000 C 
BRANCH  15  16
ATOM     16  C   UNL     1     -21.913  10.797  18.768  1.00  0.00    -0.003 C 
ATOM     17  C   UNL     1     -23.419  11.002  18.634  1.00  0.00     0.004 C 
ENDBRANCH  15  16
ENDBRANCH  14  15
ENDBRANCH  13  14
ENDBRANCH  12  13
ENDBRANCH  11  12
ENDBRANCH  10  11
ENDBRANCH   1  10
TORSDOF 13
ENDMDL
MODEL 2
REMARK VINA RESULT:    -4.024      1.451      3.332
REMARK INTER + INTRA:          -8.984
REMARK INTER:                  -6.947
REMARK INTRA:                  -2.037
REMARK UNBOUND:                -1.902
REMARK SMILES CCCCCCCCCCCCCCC(=O)[O-]
REMARK SMILES IDX 9 1 10 2 11 3 12 4 13 5 14 6 15 7 16 8 17 9 8 10 7 11 6 12
REMARK SMILES IDX 5 13 4 14 3 15 2 16 1 17
REMARK H PARENT
REMARK Flexibility Score: inf
ROOT
ATOM      1  C   UNL     1     -20.548  12.649  17.079  1.00  0.00     0.000 C 
ENDROOT
BRANCH   1   2
ATOM      2  C   UNL     1     -19.583  12.334  18.233  1.00  0.00     0.000 C 
BRANCH   2   3
ATOM      3  C   UNL     1     -19.884  10.986  18.913  1.00  0.00     0.000 C 
BRANCH   3   4
ATOM      4  C   UNL     1     -19.932   9.823  17.899  1.00  0.00     0.000 C 
BRANCH   4   5
ATOM      5  C   UNL     1     -18.679   8.930  17.925  1.00  0.00     0.006 C 
BRANCH   5   6
ATOM      6  C   UNL     1     -18.939   7.555  18.551  1.00  0.00     0.053 C 
BRANCH   6   7
ATOM      7  C   UNL     1     -17.656   6.943  19.017  1.00  0.00     0.041 C 
ATOM      8  O   UNL     1     -16.613   7.047  18.318  1.00  0.00    -0.550 OA
ATOM      9  O   UNL     1     -17.622   6.214  20.200  1.00  0.00    -0.550 OA
ENDBRANCH   6   7
ENDBRANCH   5   6
ENDBRANCH   4   5
ENDBRANCH   3   4
ENDBRANCH   2   3
ENDBRANCH   1   2
BRANCH   1  10
ATOM     10  C   UNL     1     -19.875  13.441  15.945  1.00  0.00     0.000 C 
BRANCH  10  11
ATOM     11  C   UNL     1     -18.337  13.398  16.017  1.00  0.00    -0.000 C 
BRANCH  11  12
ATOM     12  C   UNL     1     -17.642  12.739  14.809  1.00  0.00    -0.000 C 
BRANCH  12  13
ATOM     13  C   UNL     1     -18.519  11.761  14.002  1.00  0.00    -0.000 C 
BRANCH  13  14
ATOM     14  C   UNL     1     -18.429  10.290  14.445  1.00  0.00    -0.000 C 
BRANCH  14  15
ATOM     15  C   UNL     1     -19.760   9.539  14.296  1.00  0.00    -0.000 C 
BRANCH  15  16
ATOM     16  C   UNL     1     -20.909  10.513  14.007  1.00  0.00    -0.003 C 
ATOM     17  C   UNL     1     -22.163  10.133  14.789  1.00  0.00     0.004 C 
ENDBRANCH  15  16
ENDBRANCH  14  15
ENDBRANCH  13  14
ENDBRANCH  12  13
ENDBRANCH  11  12
ENDBRANCH  10  11
ENDBRANCH   1  10
TORSDOF 13
ENDMDL
MODEL 3
REMARK VINA RESULT:    -4.004      2.919      4.826
REMARK INTER + INTRA:          -8.949
REMARK INTER:                  -6.645
REMARK INTRA:                  -2.304
REMARK UNBOUND:                -1.902
REMARK SMILES CCCCCCCCCCCCCCC(=O)[O-]
REMARK SMILES IDX 9 1 10 2 11 3 12 4 13 5 14 6 15 7 16 8 17 9 8 10 7 11 6 12
REMARK SMILES IDX 5 13 4 14 3 15 2 16 1 17
REMARK H PARENT
REMARK Flexibility Score: inf
ROOT
ATOM      1  C   UNL     1     -22.087  10.653  17.333  1.00  0.00     0.000 C 
ENDROOT
BRANCH   1   2
ATOM      2  C   UNL     1     -22.121  11.752  16.260  1.00  0.00     0.000 C 
BRANCH   2   3
ATOM      3  C   UNL     1     -21.449  11.322  14.943  1.00  0.00     0.000 C 
BRANCH   3   4
ATOM      4  C   UNL     1     -21.214   9.797  14.883  1.00  0.00     0.000 C 
BRANCH   4   5
ATOM      5  C   UNL     1     -19.729   9.407  14.773  1.00  0.00     0.006 C 
BRANCH   5   6
ATOM      6  C   UNL     1     -18.789  10.617  14.820  1.00  0.00     0.053 C 
BRANCH   6   7
ATOM      7  C   UNL     1     -18.138  10.824  13.489  1.00  0.00     0.041 C 
ATOM      8  O   UNL     1     -16.889  10.714  13.371  1.00  0.00    -0.550 OA
ATOM      9  O   UNL     1     -18.904  11.188  12.389  1.00  0.00    -0.550 OA
ENDBRANCH   6   7
ENDBRANCH   5   6
ENDBRANCH   4   5
ENDBRANCH   3   4
ENDBRANCH   2   3
ENDBRANCH   1   2
BRANCH   1  10
ATOM     10  C   UNL     1     -21.351  11.096  18.609  1.00  0.00     0.000 C 
BRANCH  10  11
ATOM     11  C   UNL     1     -19.821  10.957  18.495  1.00  0.00    -0.000 C 
BRANCH  11  12
ATOM     12  C   UNL     1     -19.030  12.271  18.655  1.00  0.00    -0.000 C 
BRANCH  12  13
ATOM     13  C   UNL     1     -18.905  13.120  17.375  1.00  0.00    -0.000 C 
BRANCH  13  14
ATOM     14  C   UNL     1     -19.729  14.420  17.375  1.00  0.00    -0.000 C 
BRANCH  14  15
ATOM     15  C   UNL     1     -19.860  15.043  15.977  1.00  0.00    -0.000 C 
BRANCH  15  16
ATOM     16  C   UNL     1     -19.091  14.221  14.936  1.00  0.00    -0.003 C 
ATOM     17  C   UNL     1     -19.489  14.617  13.518  1.00  0.00     0.004 C 
ENDBRANCH  15  16
ENDBRANCH  14  15
ENDBRANCH  13  14
ENDBRANCH  12  13
ENDBRANCH  11  12
ENDBRANCH  10  11
ENDBRANCH   1  10
TORSDOF 13
ENDMDL
MODEL 4
REMARK VINA RESULT:    -3.979      4.702      7.181
REMARK INTER + INTRA:          -8.905
REMARK INTER:                  -7.169
REMARK INTRA:                  -1.736
REMARK UNBOUND:                -1.902
REMARK SMILES CCCCCCCCCCCCCCC(=O)[O-]
REMARK SMILES IDX 9 1 10 2 11 3 12 4 13 5 14 6 15 7 16 8 17 9 8 10 7 11 6 12
REMARK SMILES IDX 5 13 4 14 3 15 2 16 1 17
REMARK H PARENT
REMARK Flexibility Score: inf
ROOT
ATOM      1  C   UNL     1     -18.799  13.171  17.587  1.00  0.00     0.000 C 
ENDROOT
BRANCH   1   2
ATOM      2  C   UNL     1     -20.059  13.629  16.838  1.00  0.00     0.000 C 
BRANCH   2   3
ATOM      3  C   UNL     1     -19.806  14.850  15.935  1.00  0.00     0.000 C 
BRANCH   3   4
ATOM      4  C   UNL     1     -18.596  14.640  14.999  1.00  0.00     0.000 C 
BRANCH   4   5
ATOM      5  C   UNL     1     -18.758  15.308  13.623  1.00  0.00     0.006 C 
BRANCH   5   6
ATOM      6  C   UNL     1     -19.401  16.697  13.706  1.00  0.00     0.053 C 
BRANCH   6   7
ATOM      7  C   UNL     1     -18.350  17.762  13.673  1.00  0.00     0.041 C 
ATOM      8  O   UNL     1     -17.955  18.228  12.572  1.00  0.00    -0.550 OA
ATOM      9  O   UNL     1     -17.772  18.205  14.856  1.00  0.00    -0.550 OA
ENDBRANCH   6   7
ENDBRANCH   5   6
ENDBRANCH   4   5
ENDBRANCH   3   4
ENDBRANCH   2   3
ENDBRANCH   1   2
BRANCH   1  10
ATOM     10  C   UNL     1     -19.121  12.264  18.787  1.00  0.00     0.000 C 
BRANCH  10  11
ATOM     11  C   UNL     1     -20.086  11.119  18.428  1.00  0.00    -0.000 C 
BRANCH  11  12
ATOM     12  C   UNL     1     -19.465   9.973  17.603  1.00  0.00    -0.000 C 
BRANCH  12  13
ATOM     13  C   UNL     1     -20.209   9.625  16.299  1.00  0.00    -0.000 C 
BRANCH  13  14
ATOM     14  C   UNL     1     -19.317   9.521  15.050  1.00  0.00    -0.000 C 
BRANCH  14  15
ATOM     15  C   UNL     1     -18.744  10.877  14.611  1.00  0.00    -0.000 C 
BRANCH  15  16
ATOM     16  C   UNL     1     -19.180  11.221  13.182  1.00  0.00    -0.003 C 
ATOM     17  C   UNL     1     -20.503  11.978  13.176  1.00  0.00     0.004 C 
ENDBRANCH  15  16
ENDBRANCH  14  15
ENDBRANCH  13  14
ENDBRANCH  12  13
ENDBRANCH  11  12
ENDBRANCH  10  11
ENDBRANCH   1  10
TORSDOF 13
ENDMDL
MODEL 5
REMARK VINA RESULT:    -3.964      3.266      6.424
REMARK INTER + INTRA:          -8.878
REMARK INTER:                  -7.835
REMARK INTRA:                  -1.043
REMARK UNBOUND:                -1.902
REMARK SMILES CCCCCCCCCCCCCCC(=O)[O-]
REMARK SMILES IDX 9 1 10 2 11 3 12 4 13 5 14 6 15 7 16 8 17 9 8 10 7 11 6 12
REMARK SMILES IDX 5 13 4 14 3 15 2 16 1 17
REMARK H PARENT
REMARK Flexibility Score: inf
ROOT
ATOM      1  C   UNL     1     -20.594   9.653  17.974  1.00  0.00     0.000 C 
ENDROOT
BRANCH   1   2
ATOM      2  C   UNL     1     -20.735  11.152  18.284  1.00  0.00     0.000 C 
BRANCH   2   3
ATOM      3  C   UNL     1     -19.382  11.838  18.544  1.00  0.00     0.000 C 
BRANCH   3   4
ATOM      4  C   UNL     1     -19.121  13.000  17.561  1.00  0.00     0.000 C 
BRANCH   4   5
ATOM      5  C   UNL     1     -19.677  12.747  16.149  1.00  0.00     0.006 C 
BRANCH   5   6
ATOM      6  C   UNL     1     -18.725  11.927  15.270  1.00  0.00     0.053 C 
BRANCH   6   7
ATOM      7  C   UNL     1     -18.962  12.226  13.823  1.00  0.00     0.041 C 
ATOM      8  O   UNL     1     -18.631  11.389  12.942  1.00  0.00    -0.550 OA
ATOM      9  O   UNL     1     -19.503  13.448  13.445  1.00  0.00    -0.550 OA
ENDBRANCH   6   7
ENDBRANCH   5   6
ENDBRANCH   4   5
ENDBRANCH   3   4
ENDBRANCH   2   3
ENDBRANCH   1   2
BRANCH   1  10
ATOM     10  C   UNL     1     -19.128   9.224  17.788  1.00  0.00     0.000 C 
BRANCH  10  11
ATOM     11  C   UNL     1     -18.770   7.959  18.590  1.00  0.00    -0.000 C 
BRANCH  11  12
ATOM     12  C   UNL     1     -17.267   7.616  18.635  1.00  0.00    -0.000 C 
BRANCH  12  13
ATOM     13  C   UNL     1     -16.940   6.146  18.967  1.00  0.00    -0.000 C 
BRANCH  13  14
ATOM     14  C   UNL     1     -17.811   5.521  20.072  1.00  0.00    -0.000 C 
BRANCH  14  15
ATOM     15  C   UNL     1     -18.150   4.048  19.802  1.00  0.00    -0.000 C 
BRANCH  15  16
ATOM     16  C   UNL     1     -19.603   3.740  20.183  1.00  0.00    -0.003 C 
ATOM     17  C   UNL     1     -20.493   4.964  19.994  1.00  0.00     0.004 C 
ENDBRANCH  15  16
ENDBRANCH  14  15
ENDBRANCH  13  14
ENDBRANCH  12  13
ENDBRANCH  11  12
ENDBRANCH  10  11
ENDBRANCH   1  10
TORSDOF 13
ENDMDL
MODEL 6
REMARK VINA RESULT:    -3.958      3.354      6.790
REMARK INTER + INTRA:          -8.867
REMARK INTER:                  -7.951
REMARK INTRA:                  -0.916
REMARK UNBOUND:                -1.902
REMARK SMILES CCCCCCCCCCCCCCC(=O)[O-]
REMARK SMILES IDX 9 1 10 2 11 3 12 4 13 5 14 6 15 7 16 8 17 9 8 10 7 11 6 12
REMARK SMILES IDX 5 13 4 14 3 15 2 16 1 17
REMARK H PARENT
REMARK Flexibility Score: inf
ROOT
ATOM      1  C   UNL     1     -20.514   9.856  18.033  1.00  0.00     0.000 C 
ENDROOT
BRANCH   1   2
ATOM      2  C   UNL     1     -20.476  11.243  18.695  1.00  0.00     0.000 C 
BRANCH   2   3
ATOM      3  C   UNL     1     -19.198  12.031  18.355  1.00  0.00     0.000 C 
BRANCH   3   4
ATOM      4  C   UNL     1     -19.472  13.179  17.360  1.00  0.00     0.000 C 
BRANCH   4   5
ATOM      5  C   UNL     1     -18.539  13.168  16.136  1.00  0.00     0.006 C 
BRANCH   5   6
ATOM      6  C   UNL     1     -18.710  11.917  15.267  1.00  0.00     0.053 C 
BRANCH   6   7
ATOM      7  C   UNL     1     -18.926  12.300  13.837  1.00  0.00     0.041 C 
ATOM      8  O   UNL     1     -19.310  13.463  13.543  1.00  0.00    -0.550 OA
ATOM      9  O   UNL     1     -18.752  11.357  12.830  1.00  0.00    -0.550 OA
ENDBRANCH   6   7
ENDBRANCH   5   6
ENDBRANCH   4   5
ENDBRANCH   3   4
ENDBRANCH   2   3
ENDBRANCH   1   2
BRANCH   1  10
ATOM     10  C   UNL     1     -19.109   9.294  17.757  1.00  0.00     0.000 C 
BRANCH  10  11
ATOM     11  C   UNL     1     -18.852   7.952  18.466  1.00  0.00    -0.000 C 
BRANCH  11  12
ATOM     12  C   UNL     1     -19.929   6.872  18.236  1.00  0.00    -0.000 C 
BRANCH  12  13
ATOM     13  C   UNL     1     -19.903   5.697  19.232  1.00  0.00    -0.000 C 
BRANCH  13  14
ATOM     14  C   UNL     1     -18.695   5.681  20.186  1.00  0.00    -0.000 C 
BRANCH  14  15
ATOM     15  C   UNL     1     -17.763   4.484  19.948  1.00  0.00    -0.000 C 
BRANCH  15  16
ATOM     16  C   UNL     1     -16.321   4.825  20.344  1.00  0.00    -0.003 C 
ATOM     17  C   UNL     1     -15.323   3.937  19.607  1.00  0.00     0.004 C 
ENDBRANCH  15  16
ENDBRANCH  14  15
ENDBRANCH  13  14
ENDBRANCH  12  13
ENDBRANCH  11  12
ENDBRANCH  10  11
ENDBRANCH   1  10
TORSDOF 13
ENDMDL
MODEL 7
REMARK VINA RESULT:    -3.956      4.153      5.922
REMARK INTER + INTRA:          -8.864
REMARK INTER:                  -6.556
REMARK INTRA:                  -2.309
REMARK UNBOUND:                -1.902
REMARK SMILES CCCCCCCCCCCCCCC(=O)[O-]
REMARK SMILES IDX 9 1 10 2 11 3 12 4 13 5 14 6 15 7 16 8 17 9 8 10 7 11 6 12
REMARK SMILES IDX 5 13 4 14 3 15 2 16 1 17
REMARK H PARENT
REMARK Flexibility Score: inf
ROOT
ATOM      1  C   UNL     1     -19.697  11.528  14.733  1.00  0.00     0.000 C 
ENDROOT
BRANCH   1   2
ATOM      2  C   UNL     1     -19.301  12.986  15.012  1.00  0.00     0.000 C 
BRANCH   2   3
ATOM      3  C   UNL     1     -18.644  13.173  16.391  1.00  0.00     0.000 C 
BRANCH   3   4
ATOM      4  C   UNL     1     -19.403  14.197  17.262  1.00  0.00     0.000 C 
BRANCH   4   5
ATOM      5  C   UNL     1     -20.383  15.076  16.466  1.00  0.00     0.006 C 
BRANCH   5   6
ATOM      6  C   UNL     1     -20.928  16.253  17.283  1.00  0.00     0.053 C 
BRANCH   6   7
ATOM      7  C   UNL     1     -19.840  17.242  17.564  1.00  0.00     0.041 C 
ATOM      8  O   UNL     1     -19.323  17.900  16.623  1.00  0.00    -0.550 OA
ATOM      9  O   UNL     1     -19.363  17.401  18.859  1.00  0.00    -0.550 OA
ENDBRANCH   6   7
ENDBRANCH   5   6
ENDBRANCH   4   5
ENDBRANCH   3   4
ENDBRANCH   2   3
ENDBRANCH   1   2
BRANCH   1  10
ATOM     10  C   UNL     1     -18.806  10.520  15.479  1.00  0.00     0.000 C 
BRANCH  10  11
ATOM     11  C   UNL     1     -19.612   9.545  16.357  1.00  0.00    -0.000 C 
BRANCH  11  12
ATOM     12  C   UNL     1     -19.338   9.646  17.871  1.00  0.00    -0.000 C 
BRANCH  12  13
ATOM     13  C   UNL     1     -20.183  10.692  18.622  1.00  0.00    -0.000 C 
BRANCH  13  14
ATOM     14  C   UNL     1     -21.684  10.681  18.281  1.00  0.00    -0.000 C 
BRANCH  14  15
ATOM     15  C   UNL     1     -22.157  11.990  17.631  1.00  0.00    -0.000 C 
BRANCH  15  16
ATOM     16  C   UNL     1     -23.171  11.712  16.515  1.00  0.00    -0.003 C 
ATOM     17  C   UNL     1     -23.119  12.794  15.440  1.00  0.00     0.004 C 
ENDBRANCH  15  16
ENDBRANCH  14  15
ENDBRANCH  13  14
ENDBRANCH  12  13
ENDBRANCH  11  12
ENDBRANCH  10  11
ENDBRANCH   1  10
TORSDOF 13
ENDMDL
MODEL 8
REMARK VINA RESULT:    -3.955      1.599      3.887
REMARK INTER + INTRA:          -8.863
REMARK INTER:                  -7.523
REMARK INTRA:                  -1.340
REMARK UNBOUND:                -1.902
REMARK SMILES CCCCCCCCCCCCCCC(=O)[O-]
REMARK SMILES IDX 9 1 10 2 11 3 12 4 13 5 14 6 15 7 16 8 17 9 8 10 7 11 6 12
REMARK SMILES IDX 5 13 4 14 3 15 2 16 1 17
REMARK H PARENT
REMARK Flexibility Score: inf
ROOT
ATOM      1  C   UNL     1     -20.112  10.842  18.032  1.00  0.00     0.000 C 
ENDROOT
BRANCH   1   2
ATOM      2  C   UNL     1     -19.167   9.792  17.427  1.00  0.00     0.000 C 
BRANCH   2   3
ATOM      3  C   UNL     1     -19.356   8.394  18.042  1.00  0.00     0.000 C 
BRANCH   3   4
ATOM      4  C   UNL     1     -18.063   7.871  18.705  1.00  0.00     0.000 C 
BRANCH   4   5
ATOM      5  C   UNL     1     -18.217   6.478  19.339  1.00  0.00     0.006 C 
BRANCH   5   6
ATOM      6  C   UNL     1     -16.874   5.774  19.566  1.00  0.00     0.053 C 
BRANCH   6   7
ATOM      7  C   UNL     1     -16.560   4.866  18.418  1.00  0.00     0.041 C 
ATOM      8  O   UNL     1     -15.422   4.334  18.325  1.00  0.00    -0.550 OA
ATOM      9  O   UNL     1     -17.507   4.647  17.426  1.00  0.00    -0.550 OA
ENDBRANCH   6   7
ENDBRANCH   5   6
ENDBRANCH   4   5
ENDBRANCH   3   4
ENDBRANCH   2   3
ENDBRANCH   1   2
BRANCH   1  10
ATOM     10  C   UNL     1     -19.373  11.862  18.915  1.00  0.00     0.000 C 
BRANCH  10  11
ATOM     11  C   UNL     1     -18.749  13.012  18.103  1.00  0.00    -0.000 C 
BRANCH  11  12
ATOM     12  C   UNL     1     -19.712  13.733  17.139  1.00  0.00    -0.000 C 
BRANCH  12  13
ATOM     13  C   UNL     1     -19.231  13.823  15.677  1.00  0.00    -0.000 C 
BRANCH  13  14
ATOM     14  C   UNL     1     -17.834  13.234  15.416  1.00  0.00    -0.000 C 
BRANCH  14  15
ATOM     15  C   UNL     1     -17.877  11.933  14.602  1.00  0.00    -0.000 C 
BRANCH  15  16
ATOM     16  C   UNL     1     -19.289  11.669  14.065  1.00  0.00    -0.003 C 
ATOM     17  C   UNL     1     -19.415  10.251  13.518  1.00  0.00     0.004 C 
ENDBRANCH  15  16
ENDBRANCH  14  15
ENDBRANCH  13  14
ENDBRANCH  12  13
ENDBRANCH  11  12
ENDBRANCH  10  11
ENDBRANCH   1  10
TORSDOF 13
ENDMDL
MODEL 9
REMARK VINA RESULT:    -3.892      3.068      5.280
REMARK INTER + INTRA:          -8.752
REMARK INTER:                  -6.451
REMARK INTRA:                  -2.301
REMARK UNBOUND:                -1.902
REMARK SMILES CCCCCCCCCCCCCCC(=O)[O-]
REMARK SMILES IDX 9 1 10 2 11 3 12 4 13 5 14 6 15 7 16 8 17 9 8 10 7 11 6 12
REMARK SMILES IDX 5 13 4 14 3 15 2 16 1 17
REMARK H PARENT
REMARK Flexibility Score: inf
ROOT
ATOM      1  C   UNL     1     -21.348  12.465  16.603  1.00  0.00     0.000 C 
ENDROOT
BRANCH   1   2
ATOM      2  C   UNL     1     -21.242  13.997  16.656  1.00  0.00     0.000 C 
BRANCH   2   3
ATOM      3  C   UNL     1     -19.792  14.490  16.810  1.00  0.00     0.000 C 
BRANCH   3   4
ATOM      4  C   UNL     1     -18.777  13.326  16.786  1.00  0.00     0.000 C 
BRANCH   4   5
ATOM      5  C   UNL     1     -17.905  13.296  15.519  1.00  0.00     0.006 C 
BRANCH   5   6
ATOM      6  C   UNL     1     -18.159  12.059  14.649  1.00  0.00     0.053 C 
BRANCH   6   7
ATOM      7  C   UNL     1     -19.131  12.379  13.558  1.00  0.00     0.041 C 
ATOM      8  O   UNL     1     -19.556  11.467  12.800  1.00  0.00    -0.550 OA
ATOM      9  O   UNL     1     -19.531  13.693  13.346  1.00  0.00    -0.550 OA
ENDBRANCH   6   7
ENDBRANCH   5   6
ENDBRANCH   4   5
ENDBRANCH   3   4
ENDBRANCH   2   3
ENDBRANCH   1   2
BRANCH   1  10
ATOM     10  C   UNL     1     -22.352  11.907  17.626  1.00  0.00     0.000 C 
BRANCH  10  11
ATOM     11  C   UNL     1     -21.764  10.767  18.479  1.00  0.00    -0.000 C 
BRANCH  11  12
ATOM     12  C   UNL     1     -20.245  10.854  18.731  1.00  0.00    -0.000 C 
BRANCH  12  13
ATOM     13  C   UNL     1     -19.401   9.774  18.026  1.00  0.00    -0.000 C 
BRANCH  13  14
ATOM     14  C   UNL     1     -20.198   8.802  17.139  1.00  0.00    -0.000 C 
BRANCH  14  15
ATOM     15  C   UNL     1     -19.975   9.043  15.638  1.00  0.00    -0.000 C 
BRANCH  15  16
ATOM     16  C   UNL     1     -21.311   9.206  14.904  1.00  0.00    -0.003 C 
ATOM     17  C   UNL     1     -22.431   8.463  15.626  1.00  0.00     0.004 C 
ENDBRANCH  15  16
ENDBRANCH  14  15
ENDBRANCH  13  14
ENDBRANCH  12  13
ENDBRANCH  11  12
ENDBRANCH  10  11
ENDBRANCH   1  10
TORSDOF 13
ENDMDL
