MODEL 1
REMARK VINA RESULT:    -5.103      0.000      0.000
REMARK INTER + INTRA:          -6.651
REMARK INTER:                  -6.147
REMARK INTRA:                  -0.504
REMARK UNBOUND:                -0.504
REMARK SMILES O=c1ccn([C@@H]2O[C@@H](CO)[C@@H](O)[C@H]2O)c(=O)[nH]1
REMARK SMILES IDX 6 1 13 2 11 3 8 4 7 5 5 6 3 7 4 8 2 9 17 10 1 11 15 12 16 14
REMARK SMILES IDX 14 15 12 17 9 19 10 20
REMARK H PARENT 17 13 14 16 12 18 10 21
REMARK Flexibility Score: inf
ROOT
ATOM      1  C   UNL     1      24.433 -11.973  55.209  1.00  0.00     0.255 C 
ATOM      2  C   UNL     1      23.126 -12.136  55.980  1.00  0.00     0.196 C 
ATOM      3  C   UNL     1      23.491 -11.623  57.351  1.00  0.00     0.179 C 
ATOM      4  C   UNL     1      24.971 -12.001  57.425  1.00  0.00     0.178 C 
ATOM      5  O   UNL     1      25.513 -12.001  56.121  1.00  0.00    -0.347 OA
ENDROOT
BRANCH   1   6
ATOM      6  N   UNL     1      24.579 -13.032  54.189  1.00  0.00    -0.271 N 
ATOM      7  C   UNL     1      23.903 -15.157  53.303  1.00  0.00     0.090 A 
ATOM      8  C   UNL     1      23.804 -14.159  54.268  1.00  0.00     0.099 A 
ATOM      9  C   UNL     1      24.792 -14.980  52.249  1.00  0.00     0.253 A 
ATOM     10  N   UNL     1      25.536 -13.845  52.176  1.00  0.00    -0.274 N 
ATOM     11  O   UNL     1      24.903 -15.867  51.361  1.00  0.00    -0.269 OA
ATOM     12  C   UNL     1      25.431 -12.873  53.123  1.00  0.00     0.330 A 
ATOM     13  H   UNL     1      26.195 -13.714  51.374  1.00  0.00     0.175 HD
ATOM     14  O   UNL     1      26.125 -11.825  53.007  1.00  0.00    -0.248 OA
ENDBRANCH   1   6
BRANCH   2  15
ATOM     15  O   UNL     1      22.093 -11.394  55.384  1.00  0.00    -0.386 OA
ATOM     16  H   UNL     1      21.795 -10.733  56.062  1.00  0.00     0.211 HD
ENDBRANCH   2  15
BRANCH   3  17
ATOM     17  O   UNL     1      23.317 -10.228  57.423  1.00  0.00    -0.387 OA
ATOM     18  H   UNL     1      23.295  -9.992  58.387  1.00  0.00     0.211 HD
ENDBRANCH   3  17
BRANCH   4  19
ATOM     19  C   UNL     1      25.805 -11.107  58.354  1.00  0.00     0.191 C 
BRANCH  19  20
ATOM     20  O   UNL     1      25.192 -10.991  59.609  1.00  0.00    -0.394 OA
ATOM     21  H   UNL     1      24.992 -10.026  59.729  1.00  0.00     0.210 HD
ENDBRANCH  19  20
ENDBRANCH   4  19
TORSDOF 5
ENDMDL
MODEL 2
REMARK VINA RESULT:    -4.897      1.726      5.801
REMARK INTER + INTRA:          -6.404
REMARK INTER:                  -5.912
REMARK INTRA:                  -0.492
REMARK UNBOUND:                -0.504
REMARK SMILES O=c1ccn([C@@H]2O[C@@H](CO)[C@@H](O)[C@H]2O)c(=O)[nH]1
REMARK SMILES IDX 6 1 13 2 11 3 8 4 7 5 5 6 3 7 4 8 2 9 17 10 1 11 15 12 16 14
REMARK SMILES IDX 14 15 12 17 9 19 10 20
REMARK H PARENT 17 13 14 16 12 18 10 21
REMARK Flexibility Score: inf
ROOT
ATOM      1  C   UNL     1      24.304 -12.083  54.913  1.00  0.00     0.255 C 
ATOM      2  C   UNL     1      25.663 -12.236  54.235  1.00  0.00     0.196 C 
ATOM      3  C   UNL     1      25.366 -13.222  53.132  1.00  0.00     0.179 C 
ATOM      4  C   UNL     1      24.254 -14.056  53.770  1.00  0.00     0.178 C 
ATOM      5  O   UNL     1      23.539 -13.250  54.683  1.00  0.00    -0.347 OA
ENDROOT
BRANCH   1   6
ATOM      6  N   UNL     1      24.462 -11.834  56.360  1.00  0.00    -0.271 N 
ATOM      7  C   UNL     1      25.833 -11.880  58.329  1.00  0.00     0.090 A 
ATOM      8  C   UNL     1      25.651 -12.132  56.973  1.00  0.00     0.099 A 
ATOM      9  C   UNL     1      24.790 -11.305  59.047  1.00  0.00     0.253 A 
ATOM     10  N   UNL     1      23.626 -10.996  58.417  1.00  0.00    -0.274 N 
ATOM     11  O   UNL     1      24.927 -11.067  60.277  1.00  0.00    -0.269 OA
ATOM     12  C   UNL     1      23.457 -11.245  57.089  1.00  0.00     0.330 A 
ATOM     13  H   UNL     1      22.850 -10.555  58.961  1.00  0.00     0.175 HD
ATOM     14  O   UNL     1      22.368 -10.924  56.539  1.00  0.00    -0.248 OA
ENDBRANCH   1   6
BRANCH   2  15
ATOM     15  O   UNL     1      26.125 -11.004  53.747  1.00  0.00    -0.386 OA
ATOM     16  H   UNL     1      25.357 -10.582  53.279  1.00  0.00     0.211 HD
ENDBRANCH   2  15
BRANCH   3  17
ATOM     17  O   UNL     1      24.907 -12.557  51.980  1.00  0.00    -0.387 OA
ATOM     18  H   UNL     1      25.173 -11.605  52.074  1.00  0.00     0.211 HD
ENDBRANCH   3  17
BRANCH   4  19
ATOM     19  C   UNL     1      23.295 -14.705  52.762  1.00  0.00     0.191 C 
BRANCH  19  20
ATOM     20  O   UNL     1      23.988 -15.114  51.615  1.00  0.00    -0.394 OA
ATOM     21  H   UNL     1      23.724 -14.484  50.895  1.00  0.00     0.210 HD
ENDBRANCH  19  20
ENDBRANCH   4  19
TORSDOF 5
ENDMDL
MODEL 3
REMARK VINA RESULT:    -4.389      1.790      5.601
REMARK INTER + INTRA:          -5.792
REMARK INTER:                  -5.424
REMARK INTRA:                  -0.367
REMARK UNBOUND:                -0.504
REMARK SMILES O=c1ccn([C@@H]2O[C@@H](CO)[C@@H](O)[C@H]2O)c(=O)[nH]1
REMARK SMILES IDX 6 1 13 2 11 3 8 4 7 5 5 6 3 7 4 8 2 9 17 10 1 11 15 12 16 14
REMARK SMILES IDX 14 15 12 17 9 19 10 20
REMARK H PARENT 17 13 14 16 12 18 10 21
REMARK Flexibility Score: inf
ROOT
ATOM      1  C   UNL     1      24.255 -13.518  54.287  1.00  0.00     0.255 C 
ATOM      2  C   UNL     1      23.371 -12.875  53.222  1.00  0.00     0.196 C 
ATOM      3  C   UNL     1      23.827 -13.566  51.961  1.00  0.00     0.179 C 
ATOM      4  C   UNL     1      25.298 -13.833  52.284  1.00  0.00     0.178 C 
ATOM      5  O   UNL     1      25.444 -13.984  53.680  1.00  0.00    -0.347 OA
ENDROOT
BRANCH   1   6
ATOM      6  N   UNL     1      24.558 -12.559  55.369  1.00  0.00    -0.271 N 
ATOM      7  C   UNL     1      26.125 -11.116  56.475  1.00  0.00     0.090 A 
ATOM      8  C   UNL     1      25.822 -12.043  55.482  1.00  0.00     0.099 A 
ATOM      9  C   UNL     1      25.114 -10.713  57.341  1.00  0.00     0.253 A 
ATOM     10  N   UNL     1      23.861 -11.219  57.199  1.00  0.00    -0.274 N 
ATOM     11  O   UNL     1      25.360  -9.875  58.250  1.00  0.00    -0.269 OA
ATOM     12  C   UNL     1      23.574 -12.124  56.224  1.00  0.00     0.330 A 
ATOM     13  H   UNL     1      23.104 -10.903  57.848  1.00  0.00     0.175 HD
ATOM     14  O   UNL     1      22.392 -12.554  56.114  1.00  0.00    -0.248 OA
ENDBRANCH   1   6
BRANCH   2  15
ATOM     15  O   UNL     1      22.011 -13.095  53.495  1.00  0.00    -0.386 OA
ATOM     16  H   UNL     1      21.945 -13.264  54.471  1.00  0.00     0.211 HD
ENDBRANCH   2  15
BRANCH   3  17
ATOM     17  O   UNL     1      23.122 -14.769  51.769  1.00  0.00    -0.387 OA
ATOM     18  H   UNL     1      22.329 -14.734  52.364  1.00  0.00     0.211 HD
ENDBRANCH   3  17
BRANCH   4  19
ATOM     19  C   UNL     1      25.898 -15.039  51.547  1.00  0.00     0.191 C 
BRANCH  19  20
ATOM     20  O   UNL     1      25.367 -16.236  52.046  1.00  0.00    -0.394 OA
ATOM     21  H   UNL     1      25.316 -16.125  53.032  1.00  0.00     0.210 HD
ENDBRANCH  19  20
ENDBRANCH   4  19
TORSDOF 5
ENDMDL
MODEL 4
REMARK VINA RESULT:    -4.375      1.378      1.868
REMARK INTER + INTRA:          -5.774
REMARK INTER:                  -6.306
REMARK INTRA:                   0.532
REMARK UNBOUND:                -0.504
REMARK SMILES O=c1ccn([C@@H]2O[C@@H](CO)[C@@H](O)[C@H]2O)c(=O)[nH]1
REMARK SMILES IDX 6 1 13 2 11 3 8 4 7 5 5 6 3 7 4 8 2 9 17 10 1 11 15 12 16 14
REMARK SMILES IDX 14 15 12 17 9 19 10 20
REMARK H PARENT 17 13 14 16 12 18 10 21
REMARK Flexibility Score: inf
ROOT
ATOM      1  C   UNL     1      24.437 -12.258  54.533  1.00  0.00     0.255 C 
ATOM      2  C   UNL     1      23.084 -12.470  55.207  1.00  0.00     0.196 C 
ATOM      3  C   UNL     1      23.303 -11.865  56.572  1.00  0.00     0.179 C 
ATOM      4  C   UNL     1      24.794 -12.138  56.782  1.00  0.00     0.178 C 
ATOM      5  O   UNL     1      25.439 -12.168  55.527  1.00  0.00    -0.347 OA
ENDROOT
BRANCH   1   6
ATOM      6  N   UNL     1      24.732 -13.354  53.588  1.00  0.00    -0.271 N 
ATOM      7  C   UNL     1      26.125 -14.285  51.869  1.00  0.00     0.090 A 
ATOM      8  C   UNL     1      25.810 -13.253  52.748  1.00  0.00     0.099 A 
ATOM      9  C   UNL     1      25.333 -15.428  51.872  1.00  0.00     0.253 A 
ATOM     10  N   UNL     1      24.281 -15.519  52.727  1.00  0.00    -0.274 N 
ATOM     11  O   UNL     1      25.594 -16.378  51.086  1.00  0.00    -0.269 OA
ATOM     12  C   UNL     1      23.982 -14.505  53.584  1.00  0.00     0.330 A 
ATOM     13  H   UNL     1      23.696 -16.386  52.730  1.00  0.00     0.175 HD
ATOM     14  O   UNL     1      23.008 -14.639  54.377  1.00  0.00    -0.248 OA
ENDBRANCH   1   6
BRANCH   2  15
ATOM     15  O   UNL     1      22.059 -11.830  54.492  1.00  0.00    -0.386 OA
ATOM     16  H   UNL     1      21.330 -12.497  54.391  1.00  0.00     0.211 HD
ENDBRANCH   2  15
BRANCH   3  17
ATOM     17  O   UNL     1      23.037 -10.483  56.553  1.00  0.00    -0.387 OA
ATOM     18  H   UNL     1      22.856 -10.240  55.608  1.00  0.00     0.211 HD
ENDBRANCH   3  17
BRANCH   4  19
ATOM     19  C   UNL     1      25.491 -11.144  57.722  1.00  0.00     0.191 C 
BRANCH  19  20
ATOM     20  O   UNL     1      25.871  -9.990  57.025  1.00  0.00    -0.394 OA
ATOM     21  H   UNL     1      25.295  -9.258  57.369  1.00  0.00     0.210 HD
ENDBRANCH  19  20
ENDBRANCH   4  19
TORSDOF 5
ENDMDL
MODEL 5
REMARK VINA RESULT:    -3.865      1.752      5.308
REMARK INTER + INTRA:          -5.160
REMARK INTER:                  -5.344
REMARK INTRA:                   0.184
REMARK UNBOUND:                -0.504
REMARK SMILES O=c1ccn([C@@H]2O[C@@H](CO)[C@@H](O)[C@H]2O)c(=O)[nH]1
REMARK SMILES IDX 6 1 13 2 11 3 8 4 7 5 5 6 3 7 4 8 2 9 17 10 1 11 15 12 16 14
REMARK SMILES IDX 14 15 12 17 9 19 10 20
REMARK H PARENT 17 13 14 16 12 18 10 21
REMARK Flexibility Score: inf
ROOT
ATOM      1  C   UNL     1      23.875 -13.595  54.427  1.00  0.00     0.255 C 
ATOM      2  C   UNL     1      23.194 -12.884  53.262  1.00  0.00     0.196 C 
ATOM      3  C   UNL     1      23.489 -13.803  52.102  1.00  0.00     0.179 C 
ATOM      4  C   UNL     1      24.845 -14.378  52.518  1.00  0.00     0.178 C 
ATOM      5  O   UNL     1      24.924 -14.400  53.927  1.00  0.00    -0.347 OA
ENDROOT
BRANCH   1   6
ATOM      6  N   UNL     1      24.384 -12.621  55.414  1.00  0.00    -0.271 N 
ATOM      7  C   UNL     1      24.244 -11.611  57.587  1.00  0.00     0.090 A 
ATOM      8  C   UNL     1      23.765 -12.501  56.630  1.00  0.00     0.099 A 
ATOM      9  C   UNL     1      25.373 -10.857  57.289  1.00  0.00     0.253 A 
ATOM     10  N   UNL     1      25.988 -11.006  56.086  1.00  0.00    -0.274 N 
ATOM     11  O   UNL     1      25.829 -10.043  58.136  1.00  0.00    -0.269 OA
ATOM     12  C   UNL     1      25.513 -11.880  55.157  1.00  0.00     0.330 A 
ATOM     13  H   UNL     1      26.843 -10.443  55.874  1.00  0.00     0.175 HD
ATOM     14  O   UNL     1      26.125 -12.003  54.060  1.00  0.00    -0.248 OA
ENDBRANCH   1   6
BRANCH   2  15
ATOM     15  O   UNL     1      21.817 -12.736  53.495  1.00  0.00    -0.386 OA
ATOM     16  H   UNL     1      21.667 -11.774  53.689  1.00  0.00     0.211 HD
ENDBRANCH   2  15
BRANCH   3  17
ATOM     17  O   UNL     1      22.515 -14.814  52.007  1.00  0.00    -0.387 OA
ATOM     18  H   UNL     1      21.686 -14.381  51.675  1.00  0.00     0.211 HD
ENDBRANCH   3  17
BRANCH   4  19
ATOM     19  C   UNL     1      25.144 -15.769  51.940  1.00  0.00     0.191 C 
BRANCH  19  20
ATOM     20  O   UNL     1      24.627 -16.770  52.772  1.00  0.00    -0.394 OA
ATOM     21  H   UNL     1      24.728 -17.622  52.272  1.00  0.00     0.210 HD
ENDBRANCH  19  20
ENDBRANCH   4  19
TORSDOF 5
ENDMDL
MODEL 6
REMARK VINA RESULT:    -3.603      1.711      1.987
REMARK INTER + INTRA:          -4.845
REMARK INTER:                  -4.387
REMARK INTRA:                  -0.458
REMARK UNBOUND:                -0.504
REMARK SMILES O=c1ccn([C@@H]2O[C@@H](CO)[C@@H](O)[C@H]2O)c(=O)[nH]1
REMARK SMILES IDX 6 1 13 2 11 3 8 4 7 5 5 6 3 7 4 8 2 9 17 10 1 11 15 12 16 14
REMARK SMILES IDX 14 15 12 17 9 19 10 20
REMARK H PARENT 17 13 14 16 12 18 10 21
REMARK Flexibility Score: inf
ROOT
ATOM      1  C   UNL     1      25.131 -12.060  56.283  1.00  0.00     0.255 C 
ATOM      2  C   UNL     1      24.927 -10.552  56.167  1.00  0.00     0.196 C 
ATOM      3  C   UNL     1      24.828 -10.125  57.611  1.00  0.00     0.179 C 
ATOM      4  C   UNL     1      24.197 -11.367  58.245  1.00  0.00     0.178 C 
ATOM      5  O   UNL     1      24.581 -12.507  57.507  1.00  0.00    -0.347 OA
ENDROOT
BRANCH   1   6
ATOM      6  N   UNL     1      24.514 -12.764  55.141  1.00  0.00    -0.271 N 
ATOM      7  C   UNL     1      22.724 -14.094  54.253  1.00  0.00     0.090 A 
ATOM      8  C   UNL     1      23.339 -13.446  55.320  1.00  0.00     0.099 A 
ATOM      9  C   UNL     1      23.317 -14.021  52.998  1.00  0.00     0.253 A 
ATOM     10  N   UNL     1      24.470 -13.321  52.835  1.00  0.00    -0.274 N 
ATOM     11  O   UNL     1      22.782 -14.598  52.013  1.00  0.00    -0.269 OA
ATOM     12  C   UNL     1      25.064 -12.690  53.884  1.00  0.00     0.330 A 
ATOM     13  H   UNL     1      24.905 -13.262  51.885  1.00  0.00     0.175 HD
ATOM     14  O   UNL     1      26.124 -12.034  53.686  1.00  0.00    -0.248 OA
ENDBRANCH   1   6
BRANCH   2  15
ATOM     15  O   UNL     1      26.004  -9.947  55.500  1.00  0.00    -0.386 OA
ATOM     16  H   UNL     1      26.735  -9.862  56.166  1.00  0.00     0.211 HD
ENDBRANCH   2  15
BRANCH   3  17
ATOM     17  O   UNL     1      26.106  -9.875  58.146  1.00  0.00    -0.387 OA
ATOM     18  H   UNL     1      26.255 -10.550  58.859  1.00  0.00     0.211 HD
ENDBRANCH   3  17
BRANCH   4  19
ATOM     19  C   UNL     1      24.526 -11.552  59.733  1.00  0.00     0.191 C 
BRANCH  19  20
ATOM     20  O   UNL     1      24.354 -10.349  60.430  1.00  0.00    -0.394 OA
ATOM     21  H   UNL     1      23.453 -10.397  60.844  1.00  0.00     0.210 HD
ENDBRANCH  19  20
ENDBRANCH   4  19
TORSDOF 5
ENDMDL
MODEL 7
REMARK VINA RESULT:    -3.493      1.896      5.746
REMARK INTER + INTRA:          -4.712
REMARK INTER:                  -5.513
REMARK INTRA:                   0.801
REMARK UNBOUND:                -0.504
REMARK SMILES O=c1ccn([C@@H]2O[C@@H](CO)[C@@H](O)[C@H]2O)c(=O)[nH]1
REMARK SMILES IDX 6 1 13 2 11 3 8 4 7 5 5 6 3 7 4 8 2 9 17 10 1 11 15 12 16 14
REMARK SMILES IDX 14 15 12 17 9 19 10 20
REMARK H PARENT 17 13 14 16 12 18 10 21
REMARK Flexibility Score: inf
ROOT
ATOM      1  C   UNL     1      24.498 -13.822  54.264  1.00  0.00     0.255 C 
ATOM      2  C   UNL     1      23.419 -14.685  53.616  1.00  0.00     0.196 C 
ATOM      3  C   UNL     1      24.043 -15.047  52.292  1.00  0.00     0.179 C 
ATOM      4  C   UNL     1      24.900 -13.810  52.019  1.00  0.00     0.178 C 
ATOM      5  O   UNL     1      25.295 -13.241  53.249  1.00  0.00    -0.347 OA
ENDROOT
BRANCH   1   6
ATOM      6  N   UNL     1      23.896 -12.779  55.120  1.00  0.00    -0.271 N 
ATOM      7  C   UNL     1      24.055 -11.309  57.010  1.00  0.00     0.090 A 
ATOM      8  C   UNL     1      24.589 -12.310  56.205  1.00  0.00     0.099 A 
ATOM      9  C   UNL     1      22.811 -10.782  56.681  1.00  0.00     0.253 A 
ATOM     10  N   UNL     1      22.148 -11.245  55.589  1.00  0.00    -0.274 N 
ATOM     11  O   UNL     1      22.302  -9.875  57.393  1.00  0.00    -0.269 OA
ATOM     12  C   UNL     1      22.679 -12.224  54.807  1.00  0.00     0.330 A 
ATOM     13  H   UNL     1      21.217 -10.837  55.343  1.00  0.00     0.175 HD
ATOM     14  O   UNL     1      22.040 -12.611  53.789  1.00  0.00    -0.248 OA
ENDBRANCH   1   6
BRANCH   2  15
ATOM     15  O   UNL     1      23.134 -15.811  54.404  1.00  0.00    -0.386 OA
ATOM     16  H   UNL     1      23.837 -15.849  55.103  1.00  0.00     0.211 HD
ENDBRANCH   2  15
BRANCH   3  17
ATOM     17  O   UNL     1      24.840 -16.201  52.416  1.00  0.00    -0.387 OA
ATOM     18  H   UNL     1      24.351 -16.936  51.963  1.00  0.00     0.211 HD
ENDBRANCH   3  17
BRANCH   4  19
ATOM     19  C   UNL     1      26.125 -14.073  51.131  1.00  0.00     0.191 C 
BRANCH  19  20
ATOM     20  O   UNL     1      26.014 -15.316  50.494  1.00  0.00    -0.394 OA
ATOM     21  H   UNL     1      26.414 -15.980  51.116  1.00  0.00     0.210 HD
ENDBRANCH  19  20
ENDBRANCH   4  19
TORSDOF 5
ENDMDL
MODEL 8
REMARK VINA RESULT:    -3.038      1.490      2.660
REMARK INTER + INTRA:          -4.164
REMARK INTER:                  -4.517
REMARK INTRA:                   0.354
REMARK UNBOUND:                -0.504
REMARK SMILES O=c1ccn([C@@H]2O[C@@H](CO)[C@@H](O)[C@H]2O)c(=O)[nH]1
REMARK SMILES IDX 6 1 13 2 11 3 8 4 7 5 5 6 3 7 4 8 2 9 17 10 1 11 15 12 16 14
REMARK SMILES IDX 14 15 12 17 9 19 10 20
REMARK H PARENT 17 13 14 16 12 18 10 21
REMARK Flexibility Score: inf
ROOT
ATOM      1  C   UNL     1      24.163 -12.391  55.976  1.00  0.00     0.255 C 
ATOM      2  C   UNL     1      25.298 -11.564  56.573  1.00  0.00     0.196 C 
ATOM      3  C   UNL     1      24.554 -10.509  57.354  1.00  0.00     0.179 C 
ATOM      4  C   UNL     1      23.284 -10.357  56.513  1.00  0.00     0.178 C 
ATOM      5  O   UNL     1      23.008 -11.583  55.870  1.00  0.00    -0.347 OA
ENDROOT
BRANCH   1   6
ATOM      6  N   UNL     1      24.546 -12.935  54.656  1.00  0.00    -0.271 N 
ATOM      7  C   UNL     1      26.081 -13.003  52.813  1.00  0.00     0.090 A 
ATOM      8  C   UNL     1      25.685 -12.485  54.043  1.00  0.00     0.099 A 
ATOM      9  C   UNL     1      25.306 -13.998  52.228  1.00  0.00     0.253 A 
ATOM     10  N   UNL     1      24.192 -14.447  52.862  1.00  0.00    -0.274 N 
ATOM     11  O   UNL     1      25.641 -14.485  51.115  1.00  0.00    -0.269 OA
ATOM     12  C   UNL     1      23.813 -13.936  54.066  1.00  0.00     0.330 A 
ATOM     13  H   UNL     1      23.619 -15.203  52.421  1.00  0.00     0.175 HD
ATOM     14  O   UNL     1      22.782 -14.396  54.631  1.00  0.00    -0.248 OA
ENDBRANCH   1   6
BRANCH   2  15
ATOM     15  O   UNL     1      26.124 -12.354  57.387  1.00  0.00    -0.386 OA
ATOM     16  H   UNL     1      26.570 -13.006  56.785  1.00  0.00     0.211 HD
ENDBRANCH   2  15
BRANCH   3  17
ATOM     17  O   UNL     1      24.254 -10.967  58.650  1.00  0.00    -0.387 OA
ATOM     18  H   UNL     1      25.014 -11.539  58.934  1.00  0.00     0.211 HD
ENDBRANCH   3  17
BRANCH   4  19
ATOM     19  C   UNL     1      22.059  -9.875  57.303  1.00  0.00     0.191 C 
BRANCH  19  20
ATOM     20  O   UNL     1      22.326  -9.875  58.678  1.00  0.00    -0.394 OA
ATOM     21  H   UNL     1      21.452  -9.737  59.129  1.00  0.00     0.210 HD
ENDBRANCH  19  20
ENDBRANCH   4  19
TORSDOF 5
ENDMDL
MODEL 9
REMARK VINA RESULT:    -3.023      1.713      5.664
REMARK INTER + INTRA:          -4.146
REMARK INTER:                  -4.589
REMARK INTRA:                   0.443
REMARK UNBOUND:                -0.504
REMARK SMILES O=c1ccn([C@@H]2O[C@@H](CO)[C@@H](O)[C@H]2O)c(=O)[nH]1
REMARK SMILES IDX 6 1 13 2 11 3 8 4 7 5 5 6 3 7 4 8 2 9 17 10 1 11 15 12 16 14
REMARK SMILES IDX 14 15 12 17 9 19 10 20
REMARK H PARENT 17 13 14 16 12 18 10 21
REMARK Flexibility Score: inf
ROOT
ATOM      1  C   UNL     1      24.134 -12.524  53.872  1.00  0.00     0.255 C 
ATOM      2  C   UNL     1      25.607 -12.544  53.473  1.00  0.00     0.196 C 
ATOM      3  C   UNL     1      25.702 -13.800  52.643  1.00  0.00     0.179 C 
ATOM      4  C   UNL     1      24.636 -14.675  53.305  1.00  0.00     0.178 C 
ATOM      5  O   UNL     1      23.633 -13.846  53.851  1.00  0.00    -0.347 OA
ENDROOT
BRANCH   1   6
ATOM      6  N   UNL     1      23.958 -11.916  55.207  1.00  0.00    -0.271 N 
ATOM      7  C   UNL     1      22.531 -10.888  56.840  1.00  0.00     0.090 A 
ATOM      8  C   UNL     1      22.729 -11.439  55.577  1.00  0.00     0.099 A 
ATOM      9  C   UNL     1      23.603 -10.847  57.724  1.00  0.00     0.253 A 
ATOM     10  N   UNL     1      24.809 -11.346  57.348  1.00  0.00    -0.274 N 
ATOM     11  O   UNL     1      23.453 -10.354  58.874  1.00  0.00    -0.269 OA
ATOM     12  C   UNL     1      24.993 -11.884  56.111  1.00  0.00     0.330 A 
ATOM     13  H   UNL     1      25.608 -11.322  58.022  1.00  0.00     0.175 HD
ATOM     14  O   UNL     1      26.124 -12.355  55.808  1.00  0.00    -0.248 OA
ENDBRANCH   1   6
BRANCH   2  15
ATOM     15  O   UNL     1      25.949 -11.391  52.749  1.00  0.00    -0.386 OA
ATOM     16  H   UNL     1      25.437 -11.432  51.899  1.00  0.00     0.211 HD
ENDBRANCH   2  15
BRANCH   3  17
ATOM     17  O   UNL     1      25.379 -13.534  51.299  1.00  0.00    -0.387 OA
ATOM     18  H   UNL     1      24.658 -12.852  51.308  1.00  0.00     0.211 HD
ENDBRANCH   3  17
BRANCH   4  19
ATOM     19  C   UNL     1      24.018 -15.728  52.375  1.00  0.00     0.191 C 
BRANCH  19  20
ATOM     20  O   UNL     1      25.005 -16.326  51.581  1.00  0.00    -0.394 OA
ATOM     21  H   UNL     1      25.847 -15.837  51.773  1.00  0.00     0.210 HD
ENDBRANCH  19  20
ENDBRANCH   4  19
TORSDOF 5
ENDMDL
