MODEL 1
REMARK VINA RESULT:    -6.903      0.000      0.000
REMARK INTER + INTRA:         -11.263
REMARK INTER:                 -10.535
REMARK INTRA:                  -0.729
REMARK UNBOUND:                -0.729
REMARK SMILES CC(=O)CCC=C(C)CCC=C(C)CCC=C(C)C
REMARK SMILES IDX 10 1 11 2 12 3 13 4 14 5 15 6 16 7 18 8 17 9 19 10 9 11 7 12
REMARK SMILES IDX 6 13 8 14 5 15 4 16 2 17 3 18 1 19
REMARK H PARENT
REMARK Flexibility Score: inf
ROOT
ATOM      1  C   UNL     1     -28.710 -25.393  23.109  1.00  0.00     0.032 C 
ENDROOT
BRANCH   1   2
ATOM      2  C   UNL     1     -27.722 -26.338  23.751  1.00  0.00    -0.028 C 
ATOM      3  C   UNL     1     -26.471 -25.968  24.103  1.00  0.00    -0.077 C 
ATOM      4  C   UNL     1     -25.969 -24.564  23.865  1.00  0.00     0.039 C 
BRANCH   3   5
ATOM      5  C   UNL     1     -25.553 -26.984  24.746  1.00  0.00     0.034 C 
BRANCH   5   6
ATOM      6  C   UNL     1     -26.259 -28.335  24.902  1.00  0.00     0.032 C 
BRANCH   6   7
ATOM      7  C   UNL     1     -26.216 -28.798  26.337  1.00  0.00    -0.028 C 
ATOM      8  C   UNL     1     -25.550 -31.136  25.730  1.00  0.00     0.039 C 
ATOM      9  C   UNL     1     -25.924 -30.060  26.722  1.00  0.00    -0.080 C 
ATOM     10  C   UNL     1     -25.960 -30.387  28.193  1.00  0.00     0.039 C 
ENDBRANCH   6   7
ENDBRANCH   5   6
ENDBRANCH   3   5
ENDBRANCH   1   2
BRANCH   1  11
ATOM     11  C   UNL     1     -29.957 -26.141  22.622  1.00  0.00     0.034 C 
BRANCH  11  12
ATOM     12  C   UNL     1     -31.158 -25.220  22.580  1.00  0.00    -0.077 C 
ATOM     13  C   UNL     1     -30.995 -23.915  22.893  1.00  0.00    -0.028 C 
ATOM     14  C   UNL     1     -32.503 -25.784  22.184  1.00  0.00     0.039 C 
BRANCH  13  15
ATOM     15  C   UNL     1     -32.110 -22.899  22.930  1.00  0.00     0.035 C 
BRANCH  15  16
ATOM     16  C   UNL     1     -32.385 -22.345  21.529  1.00  0.00     0.079 C 
BRANCH  16  17
ATOM     17  C   UNL     1     -32.512 -20.844  21.567  1.00  0.00     0.130 C 
ATOM     18  O   UNL     1     -32.575 -20.273  22.645  1.00  0.00    -0.300 OA
ATOM     19  C   UNL     1     -32.552 -20.032  20.306  1.00  0.00     0.087 C 
ENDBRANCH  16  17
ENDBRANCH  15  16
ENDBRANCH  13  15
ENDBRANCH  11  12
ENDBRANCH   1  11
TORSDOF 9
ENDMDL
MODEL 2
REMARK VINA RESULT:    -6.655      4.627      7.862
REMARK INTER + INTRA:         -10.886
REMARK INTER:                  -9.780
REMARK INTRA:                  -1.105
REMARK UNBOUND:                -0.729
REMARK SMILES CC(=O)CCC=C(C)CCC=C(C)CCC=C(C)C
REMARK SMILES IDX 10 1 11 2 12 3 13 4 14 5 15 6 16 7 18 8 17 9 19 10 9 11 7 12
REMARK SMILES IDX 6 13 8 14 5 15 4 16 2 17 3 18 1 19
REMARK H PARENT
REMARK Flexibility Score: inf
ROOT
ATOM      1  C   UNL     1     -32.079 -19.615  21.157  1.00  0.00     0.032 C 
ENDROOT
BRANCH   1   2
ATOM      2  C   UNL     1     -32.611 -20.971  20.761  1.00  0.00    -0.028 C 
ATOM      3  C   UNL     1     -33.005 -21.900  21.660  1.00  0.00    -0.077 C 
ATOM      4  C   UNL     1     -32.929 -21.639  23.146  1.00  0.00     0.039 C 
BRANCH   3   5
ATOM      5  C   UNL     1     -33.530 -23.231  21.167  1.00  0.00     0.034 C 
BRANCH   5   6
ATOM      6  C   UNL     1     -33.582 -24.252  22.309  1.00  0.00     0.032 C 
BRANCH   6   7
ATOM      7  C   UNL     1     -32.656 -25.410  22.032  1.00  0.00    -0.028 C 
ATOM      8  C   UNL     1     -30.682 -24.293  23.094  1.00  0.00     0.039 C 
ATOM      9  C   UNL     1     -31.344 -25.432  22.356  1.00  0.00    -0.080 C 
ATOM     10  C   UNL     1     -30.533 -26.645  21.980  1.00  0.00     0.039 C 
ENDBRANCH   6   7
ENDBRANCH   5   6
ENDBRANCH   3   5
ENDBRANCH   1   2
BRANCH   1  11
ATOM     11  C   UNL     1     -30.757 -19.308  20.446  1.00  0.00     0.034 C 
BRANCH  11  12
ATOM     12  C   UNL     1     -30.019 -18.180  21.136  1.00  0.00    -0.077 C 
ATOM     13  C   UNL     1     -28.703 -18.003  20.878  1.00  0.00    -0.028 C 
ATOM     14  C   UNL     1     -30.774 -17.281  22.087  1.00  0.00     0.039 C 
BRANCH  13  15
ATOM     15  C   UNL     1     -27.841 -16.948  21.524  1.00  0.00     0.035 C 
BRANCH  15  16
ATOM     16  C   UNL     1     -26.521 -17.552  22.013  1.00  0.00     0.079 C 
BRANCH  16  17
ATOM     17  C   UNL     1     -26.645 -18.016  23.441  1.00  0.00     0.130 C 
ATOM     18  O   UNL     1     -25.924 -18.916  23.845  1.00  0.00    -0.300 OA
ATOM     19  C   UNL     1     -27.629 -17.389  24.383  1.00  0.00     0.087 C 
ENDBRANCH  16  17
ENDBRANCH  15  16
ENDBRANCH  13  15
ENDBRANCH  11  12
ENDBRANCH   1  11
TORSDOF 9
ENDMDL
MODEL 3
REMARK VINA RESULT:    -6.554      3.021      9.360
REMARK INTER + INTRA:         -10.731
REMARK INTER:                 -10.002
REMARK INTRA:                  -0.729
REMARK UNBOUND:                -0.729
REMARK SMILES CC(=O)CCC=C(C)CCC=C(C)CCC=C(C)C
REMARK SMILES IDX 10 1 11 2 12 3 13 4 14 5 15 6 16 7 18 8 17 9 19 10 9 11 7 12
REMARK SMILES IDX 6 13 8 14 5 15 4 16 2 17 3 18 1 19
REMARK H PARENT
REMARK Flexibility Score: inf
ROOT
ATOM      1  C   UNL     1     -30.769 -25.647  22.692  1.00  0.00     0.032 C 
ENDROOT
BRANCH   1   2
ATOM      2  C   UNL     1     -31.609 -24.394  22.631  1.00  0.00    -0.028 C 
ATOM      3  C   UNL     1     -32.902 -24.391  22.235  1.00  0.00    -0.077 C 
ATOM      4  C   UNL     1     -33.597 -25.663  21.813  1.00  0.00     0.039 C 
BRANCH   3   5
ATOM      5  C   UNL     1     -33.665 -23.085  22.210  1.00  0.00     0.034 C 
BRANCH   5   6
ATOM      6  C   UNL     1     -32.937 -22.044  21.353  1.00  0.00     0.032 C 
BRANCH   6   7
ATOM      7  C   UNL     1     -32.532 -20.854  22.187  1.00  0.00    -0.028 C 
ATOM      8  C   UNL     1     -32.190 -19.374  20.195  1.00  0.00     0.039 C 
ATOM      9  C   UNL     1     -32.169 -19.656  21.679  1.00  0.00    -0.080 C 
ATOM     10  C   UNL     1     -31.750 -18.569  22.635  1.00  0.00     0.039 C 
ENDBRANCH   6   7
ENDBRANCH   5   6
ENDBRANCH   3   5
ENDBRANCH   1   2
BRANCH   1  11
ATOM     11  C   UNL     1     -29.293 -25.313  22.932  1.00  0.00     0.034 C 
BRANCH  11  12
ATOM     12  C   UNL     1     -28.465 -26.575  23.054  1.00  0.00    -0.077 C 
ATOM     13  C   UNL     1     -27.376 -26.570  23.855  1.00  0.00    -0.028 C 
ATOM     14  C   UNL     1     -28.883 -27.807  22.284  1.00  0.00     0.039 C 
BRANCH  13  15
ATOM     15  C   UNL     1     -26.443 -27.742  24.036  1.00  0.00     0.035 C 
BRANCH  15  16
ATOM     16  C   UNL     1     -25.811 -27.721  25.432  1.00  0.00     0.079 C 
BRANCH  16  17
ATOM     17  C   UNL     1     -26.041 -29.031  26.139  1.00  0.00     0.130 C 
ATOM     18  O   UNL     1     -25.772 -29.128  27.327  1.00  0.00    -0.300 OA
ATOM     19  C   UNL     1     -26.604 -30.219  25.418  1.00  0.00     0.087 C 
ENDBRANCH  16  17
ENDBRANCH  15  16
ENDBRANCH  13  15
ENDBRANCH  11  12
ENDBRANCH   1  11
TORSDOF 9
ENDMDL
MODEL 4
REMARK VINA RESULT:    -6.532      4.760      8.023
REMARK INTER + INTRA:         -10.697
REMARK INTER:                  -9.502
REMARK INTRA:                  -1.196
REMARK UNBOUND:                -0.729
REMARK SMILES CC(=O)CCC=C(C)CCC=C(C)CCC=C(C)C
REMARK SMILES IDX 10 1 11 2 12 3 13 4 14 5 15 6 16 7 18 8 17 9 19 10 9 11 7 12
REMARK SMILES IDX 6 13 8 14 5 15 4 16 2 17 3 18 1 19
REMARK H PARENT
REMARK Flexibility Score: inf
ROOT
ATOM      1  C   UNL     1     -32.085 -19.407  20.785  1.00  0.00     0.032 C 
ENDROOT
BRANCH   1   2
ATOM      2  C   UNL     1     -32.696 -20.762  20.519  1.00  0.00    -0.028 C 
ATOM      3  C   UNL     1     -32.968 -21.654  21.498  1.00  0.00    -0.077 C 
ATOM      4  C   UNL     1     -32.664 -21.349  22.946  1.00  0.00     0.039 C 
BRANCH   3   5
ATOM      5  C   UNL     1     -33.584 -22.987  21.135  1.00  0.00     0.034 C 
BRANCH   5   6
ATOM      6  C   UNL     1     -33.583 -23.933  22.340  1.00  0.00     0.032 C 
BRANCH   6   7
ATOM      7  C   UNL     1     -32.755 -25.161  22.053  1.00  0.00    -0.028 C 
ATOM      8  C   UNL     1     -30.686 -24.203  23.090  1.00  0.00     0.039 C 
ATOM      9  C   UNL     1     -31.445 -25.287  22.361  1.00  0.00    -0.080 C 
ATOM     10  C   UNL     1     -30.736 -26.560  21.976  1.00  0.00     0.039 C 
ENDBRANCH   6   7
ENDBRANCH   5   6
ENDBRANCH   3   5
ENDBRANCH   1   2
BRANCH   1  11
ATOM     11  C   UNL     1     -30.728 -19.264  20.088  1.00  0.00     0.034 C 
BRANCH  11  12
ATOM     12  C   UNL     1     -29.801 -18.372  20.887  1.00  0.00    -0.077 C 
ATOM     13  C   UNL     1     -28.497 -18.299  20.534  1.00  0.00    -0.028 C 
ATOM     14  C   UNL     1     -30.358 -17.584  22.049  1.00  0.00     0.039 C 
BRANCH  13  15
ATOM     15  C   UNL     1     -27.459 -17.485  21.265  1.00  0.00     0.035 C 
BRANCH  15  16
ATOM     16  C   UNL     1     -26.816 -16.459  20.326  1.00  0.00     0.079 C 
BRANCH  16  17
ATOM     17  C   UNL     1     -27.679 -15.229  20.211  1.00  0.00     0.130 C 
ATOM     18  O   UNL     1     -28.042 -14.653  21.225  1.00  0.00    -0.300 OA
ATOM     19  C   UNL     1     -28.094 -14.689  18.875  1.00  0.00     0.087 C 
ENDBRANCH  16  17
ENDBRANCH  15  16
ENDBRANCH  13  15
ENDBRANCH  11  12
ENDBRANCH   1  11
TORSDOF 9
ENDMDL
MODEL 5
REMARK VINA RESULT:    -6.482      4.572      7.731
REMARK INTER + INTRA:         -10.622
REMARK INTER:                  -9.379
REMARK INTRA:                  -1.243
REMARK UNBOUND:                -0.729
REMARK SMILES CC(=O)CCC=C(C)CCC=C(C)CCC=C(C)C
REMARK SMILES IDX 10 1 11 2 12 3 13 4 14 5 15 6 16 7 18 8 17 9 19 10 9 11 7 12
REMARK SMILES IDX 6 13 8 14 5 15 4 16 2 17 3 18 1 19
REMARK H PARENT
REMARK Flexibility Score: inf
ROOT
ATOM      1  C   UNL     1     -31.694 -19.898  21.114  1.00  0.00     0.032 C 
ENDROOT
BRANCH   1   2
ATOM      2  C   UNL     1     -32.397 -21.190  20.771  1.00  0.00    -0.028 C 
ATOM      3  C   UNL     1     -32.966 -21.990  21.699  1.00  0.00    -0.077 C 
ATOM      4  C   UNL     1     -32.926 -21.641  23.169  1.00  0.00     0.039 C 
BRANCH   3   5
ATOM      5  C   UNL     1     -33.654 -23.264  21.259  1.00  0.00     0.034 C 
BRANCH   5   6
ATOM      6  C   UNL     1     -33.626 -24.311  22.377  1.00  0.00     0.032 C 
BRANCH   6   7
ATOM      7  C   UNL     1     -32.686 -25.438  22.029  1.00  0.00    -0.028 C 
ATOM      8  C   UNL     1     -30.717 -24.346  23.128  1.00  0.00     0.039 C 
ATOM      9  C   UNL     1     -31.370 -25.456  22.338  1.00  0.00    -0.080 C 
ATOM     10  C   UNL     1     -30.543 -26.633  21.890  1.00  0.00     0.039 C 
ENDBRANCH   6   7
ENDBRANCH   5   6
ENDBRANCH   3   5
ENDBRANCH   1   2
BRANCH   1  11
ATOM     11  C   UNL     1     -32.633 -18.697  20.957  1.00  0.00     0.034 C 
BRANCH  11  12
ATOM     12  C   UNL     1     -32.444 -17.710  22.090  1.00  0.00    -0.077 C 
ATOM     13  C   UNL     1     -31.520 -17.974  23.041  1.00  0.00    -0.028 C 
ATOM     14  C   UNL     1     -33.287 -16.457  22.122  1.00  0.00     0.039 C 
BRANCH  13  15
ATOM     15  C   UNL     1     -31.258 -17.100  24.243  1.00  0.00     0.035 C 
BRANCH  15  16
ATOM     16  C   UNL     1     -30.391 -17.836  25.270  1.00  0.00     0.079 C 
BRANCH  16  17
ATOM     17  C   UNL     1     -30.922 -17.623  26.663  1.00  0.00     0.130 C 
ATOM     18  O   UNL     1     -30.642 -18.425  27.542  1.00  0.00    -0.300 OA
ATOM     19  C   UNL     1     -31.779 -16.440  27.001  1.00  0.00     0.087 C 
ENDBRANCH  16  17
ENDBRANCH  15  16
ENDBRANCH  13  15
ENDBRANCH  11  12
ENDBRANCH   1  11
TORSDOF 9
ENDMDL
MODEL 6
REMARK VINA RESULT:    -6.453      4.590      8.577
REMARK INTER + INTRA:         -10.577
REMARK INTER:                  -9.513
REMARK INTRA:                  -1.064
REMARK UNBOUND:                -0.729
REMARK SMILES CC(=O)CCC=C(C)CCC=C(C)CCC=C(C)C
REMARK SMILES IDX 10 1 11 2 12 3 13 4 14 5 15 6 16 7 18 8 17 9 19 10 9 11 7 12
REMARK SMILES IDX 6 13 8 14 5 15 4 16 2 17 3 18 1 19
REMARK H PARENT
REMARK Flexibility Score: inf
ROOT
ATOM      1  C   UNL     1     -31.836 -18.431  22.515  1.00  0.00     0.032 C 
ENDROOT
BRANCH   1   2
ATOM      2  C   UNL     1     -32.254 -19.882  22.519  1.00  0.00    -0.028 C 
ATOM      3  C   UNL     1     -32.536 -20.571  21.391  1.00  0.00    -0.077 C 
ATOM      4  C   UNL     1     -32.458 -19.919  20.031  1.00  0.00     0.039 C 
BRANCH   3   5
ATOM      5  C   UNL     1     -32.942 -22.025  21.494  1.00  0.00     0.034 C 
BRANCH   5   6
ATOM      6  C   UNL     1     -32.589 -22.593  22.872  1.00  0.00     0.032 C 
BRANCH   6   7
ATOM      7  C   UNL     1     -31.410 -23.529  22.778  1.00  0.00    -0.028 C 
ATOM      8  C   UNL     1     -32.828 -25.513  22.205  1.00  0.00     0.039 C 
ATOM      9  C   UNL     1     -31.504 -24.849  22.504  1.00  0.00    -0.080 C 
ATOM     10  C   UNL     1     -30.240 -25.670  22.483  1.00  0.00     0.039 C 
ENDBRANCH   6   7
ENDBRANCH   5   6
ENDBRANCH   3   5
ENDBRANCH   1   2
BRANCH   1  11
ATOM     11  C   UNL     1     -33.006 -17.516  22.894  1.00  0.00     0.034 C 
BRANCH  11  12
ATOM     12  C   UNL     1     -32.721 -16.781  24.187  1.00  0.00    -0.077 C 
ATOM     13  C   UNL     1     -31.462 -16.786  24.680  1.00  0.00    -0.028 C 
ATOM     14  C   UNL     1     -33.849 -16.057  24.885  1.00  0.00     0.039 C 
BRANCH  13  15
ATOM     15  C   UNL     1     -31.049 -16.130  25.975  1.00  0.00     0.035 C 
BRANCH  15  16
ATOM     16  C   UNL     1     -31.148 -17.121  27.139  1.00  0.00     0.079 C 
BRANCH  16  17
ATOM     17  C   UNL     1     -31.813 -16.479  28.329  1.00  0.00     0.130 C 
ATOM     18  O   UNL     1     -31.886 -17.094  29.382  1.00  0.00    -0.300 OA
ATOM     19  C   UNL     1     -32.381 -15.093  28.252  1.00  0.00     0.087 C 
ENDBRANCH  16  17
ENDBRANCH  15  16
ENDBRANCH  13  15
ENDBRANCH  11  12
ENDBRANCH   1  11
TORSDOF 9
ENDMDL
MODEL 7
REMARK VINA RESULT:    -6.419      4.557      7.848
REMARK INTER + INTRA:         -10.525
REMARK INTER:                  -9.503
REMARK INTRA:                  -1.022
REMARK UNBOUND:                -0.729
REMARK SMILES CC(=O)CCC=C(C)CCC=C(C)CCC=C(C)C
REMARK SMILES IDX 10 1 11 2 12 3 13 4 14 5 15 6 16 7 18 8 17 9 19 10 9 11 7 12
REMARK SMILES IDX 6 13 8 14 5 15 4 16 2 17 3 18 1 19
REMARK H PARENT
REMARK Flexibility Score: inf
ROOT
ATOM      1  C   UNL     1     -31.881 -19.885  21.151  1.00  0.00     0.032 C 
ENDROOT
BRANCH   1   2
ATOM      2  C   UNL     1     -32.482 -21.210  20.750  1.00  0.00    -0.028 C 
ATOM      3  C   UNL     1     -33.033 -22.069  21.636  1.00  0.00    -0.077 C 
ATOM      4  C   UNL     1     -33.074 -21.756  23.113  1.00  0.00     0.039 C 
BRANCH   3   5
ATOM      5  C   UNL     1     -33.615 -23.374  21.139  1.00  0.00     0.034 C 
BRANCH   5   6
ATOM      6  C   UNL     1     -33.646 -24.419  22.260  1.00  0.00     0.032 C 
BRANCH   6   7
ATOM      7  C   UNL     1     -32.664 -25.529  21.982  1.00  0.00    -0.028 C 
ATOM      8  C   UNL     1     -30.765 -24.348  23.111  1.00  0.00     0.039 C 
ATOM      9  C   UNL     1     -31.360 -25.500  22.336  1.00  0.00    -0.080 C 
ATOM     10  C   UNL     1     -30.486 -26.668  21.954  1.00  0.00     0.039 C 
ENDBRANCH   6   7
ENDBRANCH   5   6
ENDBRANCH   3   5
ENDBRANCH   1   2
BRANCH   1  11
ATOM     11  C   UNL     1     -32.132 -18.816  20.082  1.00  0.00     0.034 C 
BRANCH  11  12
ATOM     12  C   UNL     1     -32.978 -17.687  20.633  1.00  0.00    -0.077 C 
ATOM     13  C   UNL     1     -32.763 -17.265  21.899  1.00  0.00    -0.028 C 
ATOM     14  C   UNL     1     -34.032 -17.060  19.751  1.00  0.00     0.039 C 
BRANCH  13  15
ATOM     15  C   UNL     1     -33.558 -16.182  22.585  1.00  0.00     0.035 C 
BRANCH  15  16
ATOM     16  C   UNL     1     -33.919 -16.596  24.015  1.00  0.00     0.079 C 
BRANCH  16  17
ATOM     17  C   UNL     1     -33.788 -15.428  24.957  1.00  0.00     0.130 C 
ATOM     18  O   UNL     1     -34.098 -15.564  26.130  1.00  0.00    -0.300 OA
ATOM     19  C   UNL     1     -33.273 -14.100  24.486  1.00  0.00     0.087 C 
ENDBRANCH  16  17
ENDBRANCH  15  16
ENDBRANCH  13  15
ENDBRANCH  11  12
ENDBRANCH   1  11
TORSDOF 9
ENDMDL
MODEL 8
REMARK VINA RESULT:    -6.316      4.976      8.849
REMARK INTER + INTRA:         -10.368
REMARK INTER:                  -9.089
REMARK INTRA:                  -1.279
REMARK UNBOUND:                -0.729
REMARK SMILES CC(=O)CCC=C(C)CCC=C(C)CCC=C(C)C
REMARK SMILES IDX 10 1 11 2 12 3 13 4 14 5 15 6 16 7 18 8 17 9 19 10 9 11 7 12
REMARK SMILES IDX 6 13 8 14 5 15 4 16 2 17 3 18 1 19
REMARK H PARENT
REMARK Flexibility Score: inf
ROOT
ATOM      1  C   UNL     1     -31.928 -19.301  21.065  1.00  0.00     0.032 C 
ENDROOT
BRANCH   1   2
ATOM      2  C   UNL     1     -30.490 -19.113  20.644  1.00  0.00    -0.028 C 
ATOM      3  C   UNL     1     -30.057 -18.028  19.964  1.00  0.00    -0.077 C 
ATOM      4  C   UNL     1     -31.003 -16.919  19.567  1.00  0.00     0.039 C 
BRANCH   3   5
ATOM      5  C   UNL     1     -28.595 -17.924  19.588  1.00  0.00     0.034 C 
BRANCH   5   6
ATOM      6  C   UNL     1     -27.891 -16.856  20.431  1.00  0.00     0.032 C 
BRANCH   6   7
ATOM      7  C   UNL     1     -27.012 -17.495  21.478  1.00  0.00    -0.028 C 
ATOM      8  C   UNL     1     -28.666 -17.120  23.322  1.00  0.00     0.039 C 
ATOM      9  C   UNL     1     -27.336 -17.597  22.786  1.00  0.00    -0.080 C 
ATOM     10  C   UNL     1     -26.339 -18.226  23.725  1.00  0.00     0.039 C 
ENDBRANCH   6   7
ENDBRANCH   5   6
ENDBRANCH   3   5
ENDBRANCH   1   2
BRANCH   1  11
ATOM     11  C   UNL     1     -32.508 -20.600  20.494  1.00  0.00     0.034 C 
BRANCH  11  12
ATOM     12  C   UNL     1     -32.742 -21.616  21.591  1.00  0.00    -0.077 C 
ATOM     13  C   UNL     1     -33.376 -22.772  21.289  1.00  0.00    -0.028 C 
ATOM     14  C   UNL     1     -32.257 -21.315  22.990  1.00  0.00     0.039 C 
BRANCH  13  15
ATOM     15  C   UNL     1     -33.709 -23.851  22.290  1.00  0.00     0.035 C 
BRANCH  15  16
ATOM     16  C   UNL     1     -33.101 -25.191  21.865  1.00  0.00     0.079 C 
BRANCH  16  17
ATOM     17  C   UNL     1     -31.871 -25.498  22.680  1.00  0.00     0.130 C 
ATOM     18  O   UNL     1     -31.852 -26.494  23.388  1.00  0.00    -0.300 OA
ATOM     19  C   UNL     1     -30.662 -24.612  22.633  1.00  0.00     0.087 C 
ENDBRANCH  16  17
ENDBRANCH  15  16
ENDBRANCH  13  15
ENDBRANCH  11  12
ENDBRANCH   1  11
TORSDOF 9
ENDMDL
MODEL 9
REMARK VINA RESULT:    -6.305      5.340      8.452
REMARK INTER + INTRA:         -10.350
REMARK INTER:                  -9.187
REMARK INTRA:                  -1.163
REMARK UNBOUND:                -0.729
REMARK SMILES CC(=O)CCC=C(C)CCC=C(C)CCC=C(C)C
REMARK SMILES IDX 10 1 11 2 12 3 13 4 14 5 15 6 16 7 18 8 17 9 19 10 9 11 7 12
REMARK SMILES IDX 6 13 8 14 5 15 4 16 2 17 3 18 1 19
REMARK H PARENT
REMARK Flexibility Score: inf
ROOT
ATOM      1  C   UNL     1     -30.271 -18.083  20.516  1.00  0.00     0.032 C 
ENDROOT
BRANCH   1   2
ATOM      2  C   UNL     1     -30.955 -19.421  20.367  1.00  0.00    -0.028 C 
ATOM      3  C   UNL     1     -31.879 -19.878  21.241  1.00  0.00    -0.077 C 
ATOM      4  C   UNL     1     -32.287 -19.069  22.449  1.00  0.00     0.039 C 
BRANCH   3   5
ATOM      5  C   UNL     1     -32.515 -21.231  21.006  1.00  0.00     0.034 C 
BRANCH   5   6
ATOM      6  C   UNL     1     -33.035 -21.823  22.320  1.00  0.00     0.032 C 
BRANCH   6   7
ATOM      7  C   UNL     1     -33.503 -23.243  22.117  1.00  0.00    -0.028 C 
ATOM      8  C   UNL     1     -31.255 -24.225  22.623  1.00  0.00     0.039 C 
ATOM      9  C   UNL     1     -32.709 -24.331  22.224  1.00  0.00    -0.080 C 
ATOM     10  C   UNL     1     -33.308 -25.687  21.953  1.00  0.00     0.039 C 
ENDBRANCH   6   7
ENDBRANCH   5   6
ENDBRANCH   3   5
ENDBRANCH   1   2
BRANCH   1  11
ATOM     11  C   UNL     1     -28.756 -18.250  20.677  1.00  0.00     0.034 C 
BRANCH  11  12
ATOM     12  C   UNL     1     -28.285 -17.677  21.997  1.00  0.00    -0.077 C 
ATOM     13  C   UNL     1     -29.198 -17.414  22.960  1.00  0.00    -0.028 C 
ATOM     14  C   UNL     1     -26.811 -17.420  22.204  1.00  0.00     0.039 C 
BRANCH  13  15
ATOM     15  C   UNL     1     -28.872 -16.806  24.302  1.00  0.00     0.035 C 
BRANCH  15  16
ATOM     16  C   UNL     1     -28.929 -17.866  25.406  1.00  0.00     0.079 C 
BRANCH  16  17
ATOM     17  C   UNL     1     -30.239 -17.793  26.146  1.00  0.00     0.130 C 
ATOM     18  O   UNL     1     -30.458 -18.574  27.060  1.00  0.00    -0.300 OA
ATOM     19  C   UNL     1     -31.281 -16.774  25.792  1.00  0.00     0.087 C 
ENDBRANCH  16  17
ENDBRANCH  15  16
ENDBRANCH  13  15
ENDBRANCH  11  12
ENDBRANCH   1  11
TORSDOF 9
ENDMDL
