MODEL 1
REMARK VINA RESULT:    -2.927      0.000      0.000
REMARK INTER + INTRA:          -3.465
REMARK INTER:                  -3.441
REMARK INTRA:                  -0.024
REMARK UNBOUND:                -0.024
REMARK SMILES CCCCC(=O)[O-]
REMARK SMILES IDX 4 1 5 2 6 3 7 4 3 5 2 6 1 7
REMARK H PARENT
REMARK Flexibility Score: inf
ROOT
ATOM      1  C   UNL     1      60.960  -1.068  94.549  1.00  0.00     0.053 C 
ENDROOT
BRANCH   1   2
ATOM      2  C   UNL     1      60.403  -1.117  93.159  1.00  0.00     0.041 C 
ATOM      3  O   UNL     1      59.658  -0.193  92.739  1.00  0.00    -0.550 OA
ATOM      4  O   UNL     1      60.683  -2.200  92.335  1.00  0.00    -0.550 OA
ENDBRANCH   1   2
BRANCH   1   5
ATOM      5  C   UNL     1      59.950  -0.525  95.575  1.00  0.00     0.006 C 
BRANCH   5   6
ATOM      6  C   UNL     1      60.601   0.202  96.765  1.00  0.00    -0.003 C 
ATOM      7  C   UNL     1      59.997   1.578  97.036  1.00  0.00     0.004 C 
ENDBRANCH   5   6
ENDBRANCH   1   5
TORSDOF 3
ENDMDL
MODEL 2
REMARK VINA RESULT:    -2.882      0.406      1.201
REMARK INTER + INTRA:          -3.411
REMARK INTER:                  -3.396
REMARK INTRA:                  -0.015
REMARK UNBOUND:                -0.024
REMARK SMILES CCCCC(=O)[O-]
REMARK SMILES IDX 4 1 5 2 6 3 7 4 3 5 2 6 1 7
REMARK H PARENT
REMARK Flexibility Score: inf
ROOT
ATOM      1  C   UNL     1      61.096  -1.020  94.504  1.00  0.00     0.053 C 
ENDROOT
BRANCH   1   2
ATOM      2  C   UNL     1      60.449  -1.410  93.211  1.00  0.00     0.041 C 
ATOM      3  O   UNL     1      60.315  -2.624  92.906  1.00  0.00    -0.550 OA
ATOM      4  O   UNL     1      60.018  -0.430  92.326  1.00  0.00    -0.550 OA
ENDBRANCH   1   2
BRANCH   1   5
ATOM      5  C   UNL     1      60.074  -0.626  95.585  1.00  0.00     0.006 C 
BRANCH   5   6
ATOM      6  C   UNL     1      60.677   0.183  96.748  1.00  0.00    -0.003 C 
ATOM      7  C   UNL     1      59.941   1.493  97.017  1.00  0.00     0.004 C 
ENDBRANCH   5   6
ENDBRANCH   1   5
TORSDOF 3
ENDMDL
MODEL 3
REMARK VINA RESULT:    -2.821      1.099      1.916
REMARK INTER + INTRA:          -3.340
REMARK INTER:                  -3.254
REMARK INTRA:                  -0.086
REMARK UNBOUND:                -0.024
REMARK SMILES CCCCC(=O)[O-]
REMARK SMILES IDX 4 1 5 2 6 3 7 4 3 5 2 6 1 7
REMARK H PARENT
REMARK Flexibility Score: inf
ROOT
ATOM      1  C   UNL     1      59.552  -0.575  95.789  1.00  0.00     0.053 C 
ENDROOT
BRANCH   1   2
ATOM      2  C   UNL     1      60.065  -0.609  94.383  1.00  0.00     0.041 C 
ATOM      3  O   UNL     1      61.124  -1.230  94.106  1.00  0.00    -0.550 OA
ATOM      4  O   UNL     1      59.388   0.073  93.379  1.00  0.00    -0.550 OA
ENDBRANCH   1   2
BRANCH   1   5
ATOM      5  C   UNL     1      60.476   0.204  96.741  1.00  0.00     0.006 C 
BRANCH   5   6
ATOM      6  C   UNL     1      59.992   1.633  97.048  1.00  0.00    -0.003 C 
ATOM      7  C   UNL     1      58.510   1.846  96.744  1.00  0.00     0.004 C 
ENDBRANCH   5   6
ENDBRANCH   1   5
TORSDOF 3
ENDMDL
MODEL 4
REMARK VINA RESULT:    -2.776      2.839      4.239
REMARK INTER + INTRA:          -3.288
REMARK INTER:                  -3.261
REMARK INTRA:                  -0.027
REMARK UNBOUND:                -0.024
REMARK SMILES CCCCC(=O)[O-]
REMARK SMILES IDX 4 1 5 2 6 3 7 4 3 5 2 6 1 7
REMARK H PARENT
REMARK Flexibility Score: inf
ROOT
ATOM      1  C   UNL     1      60.388   0.518  96.752  1.00  0.00     0.053 C 
ENDROOT
BRANCH   1   2
ATOM      2  C   UNL     1      59.405   1.647  96.789  1.00  0.00     0.041 C 
ATOM      3  O   UNL     1      58.197   1.450  96.491  1.00  0.00    -0.550 OA
ATOM      4  O   UNL     1      59.828   2.927  97.124  1.00  0.00    -0.550 OA
ENDBRANCH   1   2
BRANCH   1   5
ATOM      5  C   UNL     1      59.951  -0.620  95.813  1.00  0.00     0.006 C 
BRANCH   5   6
ATOM      6  C   UNL     1      61.007  -0.998  94.758  1.00  0.00    -0.003 C 
ATOM      7  C   UNL     1      60.410  -1.282  93.382  1.00  0.00     0.004 C 
ENDBRANCH   5   6
ENDBRANCH   1   5
TORSDOF 3
ENDMDL
MODEL 5
REMARK VINA RESULT:    -2.775      2.978      4.084
REMARK INTER + INTRA:          -3.286
REMARK INTER:                  -3.225
REMARK INTRA:                  -0.061
REMARK UNBOUND:                -0.024
REMARK SMILES CCCCC(=O)[O-]
REMARK SMILES IDX 4 1 5 2 6 3 7 4 3 5 2 6 1 7
REMARK H PARENT
REMARK Flexibility Score: inf
ROOT
ATOM      1  C   UNL     1      60.079   1.274  96.894  1.00  0.00     0.053 C 
ENDROOT
BRANCH   1   2
ATOM      2  C   UNL     1      58.687   1.695  96.536  1.00  0.00     0.041 C 
ATOM      3  O   UNL     1      58.467   2.853  96.092  1.00  0.00    -0.550 OA
ATOM      4  O   UNL     1      57.626   0.818  96.719  1.00  0.00    -0.550 OA
ENDBRANCH   1   2
BRANCH   1   5
ATOM      5  C   UNL     1      60.422  -0.138  96.388  1.00  0.00     0.006 C 
BRANCH   5   6
ATOM      6  C   UNL     1      60.349  -0.285  94.857  1.00  0.00    -0.003 C 
ATOM      7  C   UNL     1      61.022  -1.555  94.341  1.00  0.00     0.004 C 
ENDBRANCH   5   6
ENDBRANCH   1   5
TORSDOF 3
ENDMDL
MODEL 6
REMARK VINA RESULT:    -2.700      2.151      2.554
REMARK INTER + INTRA:          -3.197
REMARK INTER:                  -3.092
REMARK INTRA:                  -0.105
REMARK UNBOUND:                -0.024
REMARK SMILES CCCCC(=O)[O-]
REMARK SMILES IDX 4 1 5 2 6 3 7 4 3 5 2 6 1 7
REMARK H PARENT
REMARK Flexibility Score: inf
ROOT
ATOM      1  C   UNL     1      59.288  -0.332  94.652  1.00  0.00     0.053 C 
ENDROOT
BRANCH   1   2
ATOM      2  C   UNL     1      58.302  -1.418  94.956  1.00  0.00     0.041 C 
ATOM      3  O   UNL     1      58.093  -2.339  94.124  1.00  0.00    -0.550 OA
ATOM      4  O   UNL     1      57.590  -1.397  96.149  1.00  0.00    -0.550 OA
ENDBRANCH   1   2
BRANCH   1   5
ATOM      5  C   UNL     1      60.670  -0.592  95.277  1.00  0.00     0.006 C 
BRANCH   5   6
ATOM      6  C   UNL     1      60.805  -0.084  96.724  1.00  0.00    -0.003 C 
ATOM      7  C   UNL     1      60.145   1.275  96.950  1.00  0.00     0.004 C 
ENDBRANCH   5   6
ENDBRANCH   1   5
TORSDOF 3
ENDMDL
MODEL 7
REMARK VINA RESULT:    -2.672      2.427      4.070
REMARK INTER + INTRA:          -3.165
REMARK INTER:                  -3.113
REMARK INTRA:                  -0.052
REMARK UNBOUND:                -0.024
REMARK SMILES CCCCC(=O)[O-]
REMARK SMILES IDX 4 1 5 2 6 3 7 4 3 5 2 6 1 7
REMARK H PARENT
REMARK Flexibility Score: inf
ROOT
ATOM      1  C   UNL     1      60.925  -0.870  94.901  1.00  0.00     0.053 C 
ENDROOT
BRANCH   1   2
ATOM      2  C   UNL     1      60.153  -0.337  96.069  1.00  0.00     0.041 C 
ATOM      3  O   UNL     1      59.031  -0.824  96.366  1.00  0.00    -0.550 OA
ATOM      4  O   UNL     1      60.659   0.721  96.812  1.00  0.00    -0.550 OA
ENDBRANCH   1   2
BRANCH   1   5
ATOM      5  C   UNL     1      60.110  -0.863  93.596  1.00  0.00     0.006 C 
BRANCH   5   6
ATOM      6  C   UNL     1      60.449  -2.024  92.644  1.00  0.00    -0.003 C 
ATOM      7  C   UNL     1      60.749  -3.333  93.372  1.00  0.00     0.004 C 
ENDBRANCH   5   6
ENDBRANCH   1   5
TORSDOF 3
ENDMDL
MODEL 8
REMARK VINA RESULT:    -2.618      2.361      3.744
REMARK INTER + INTRA:          -3.101
REMARK INTER:                  -2.969
REMARK INTRA:                  -0.132
REMARK UNBOUND:                -0.024
REMARK SMILES CCCCC(=O)[O-]
REMARK SMILES IDX 4 1 5 2 6 3 7 4 3 5 2 6 1 7
REMARK H PARENT
REMARK Flexibility Score: inf
ROOT
ATOM      1  C   UNL     1      60.368   0.095  96.053  1.00  0.00     0.053 C 
ENDROOT
BRANCH   1   2
ATOM      2  C   UNL     1      58.881  -0.008  95.905  1.00  0.00     0.041 C 
ATOM      3  O   UNL     1      58.263  -1.003  96.367  1.00  0.00    -0.550 OA
ATOM      4  O   UNL     1      58.180   0.983  95.230  1.00  0.00    -0.550 OA
ENDBRANCH   1   2
BRANCH   1   5
ATOM      5  C   UNL     1      61.121  -0.996  95.272  1.00  0.00     0.006 C 
BRANCH   5   6
ATOM      6  C   UNL     1      60.713  -1.095  93.791  1.00  0.00    -0.003 C 
ATOM      7  C   UNL     1      60.328  -2.511  93.365  1.00  0.00     0.004 C 
ENDBRANCH   5   6
ENDBRANCH   1   5
TORSDOF 3
ENDMDL
MODEL 9
REMARK VINA RESULT:    -2.488      3.211      3.846
REMARK INTER + INTRA:          -2.949
REMARK INTER:                  -2.844
REMARK INTRA:                  -0.105
REMARK UNBOUND:                -0.024
REMARK SMILES CCCCC(=O)[O-]
REMARK SMILES IDX 4 1 5 2 6 3 7 4 3 5 2 6 1 7
REMARK H PARENT
REMARK Flexibility Score: inf
ROOT
ATOM      1  C   UNL     1      58.084  -1.240  95.499  1.00  0.00     0.053 C 
ENDROOT
BRANCH   1   2
ATOM      2  C   UNL     1      57.051  -0.657  96.413  1.00  0.00     0.041 C 
ATOM      3  O   UNL     1      57.030   0.581  96.642  1.00  0.00    -0.550 OA
ATOM      4  O   UNL     1      56.127  -1.485  97.037  1.00  0.00    -0.550 OA
ENDBRANCH   1   2
BRANCH   1   5
ATOM      5  C   UNL     1      58.995  -0.171  94.872  1.00  0.00     0.006 C 
BRANCH   5   6
ATOM      6  C   UNL     1      60.461  -0.253  95.335  1.00  0.00    -0.003 C 
ATOM      7  C   UNL     1      60.664   0.204  96.778  1.00  0.00     0.004 C 
ENDBRANCH   5   6
ENDBRANCH   1   5
TORSDOF 3
ENDMDL
