MODEL 1
REMARK VINA RESULT:    -3.774      0.000      0.000
REMARK INTER + INTRA:          -4.454
REMARK INTER:                  -4.325
REMARK INTRA:                  -0.129
REMARK UNBOUND:                -0.129
REMARK SMILES CC=Cc1ccc(O)c(OC)c1
REMARK SMILES IDX 4 1 12 2 9 3 7 4 6 5 5 6 3 7 1 8 2 9 10 10 11 11 8 12
REMARK H PARENT 8 13
REMARK Flexibility Score: inf
ROOT
ATOM      1  C   UNL     1      27.958  27.061  25.570  1.00  0.00    -0.022 A 
ATOM      2  C   UNL     1      26.794  26.381  25.970  1.00  0.00     0.058 A 
ATOM      3  C   UNL     1      26.801  24.980  26.120  1.00  0.00     0.161 A 
ATOM      4  C   UNL     1      27.975  24.265  25.844  1.00  0.00     0.157 A 
ATOM      5  C   UNL     1      29.125  24.940  25.417  1.00  0.00     0.051 A 
ATOM      6  C   UNL     1      29.113  26.328  25.271  1.00  0.00     0.012 A 
ENDROOT
BRANCH   1   7
ATOM      7  C   UNL     1      27.968  28.527  25.385  1.00  0.00     0.003 C 
ATOM      8  C   UNL     1      29.125  29.007  27.559  1.00  0.00     0.035 C 
ATOM      9  C   UNL     1      28.464  29.401  26.272  1.00  0.00    -0.030 C 
ENDBRANCH   1   7
BRANCH   3  10
ATOM     10  O   UNL     1      25.664  24.268  26.533  1.00  0.00    -0.493 OA
ATOM     11  C   UNL     1      25.437  23.812  27.862  1.00  0.00     0.278 C 
ENDBRANCH   3  10
BRANCH   4  12
ATOM     12  O   UNL     1      27.988  22.879  25.994  1.00  0.00    -0.504 OA
ATOM     13  H   UNL     1      27.929  22.259  25.195  1.00  0.00     0.293 HD
ENDBRANCH   4  12
TORSDOF 3
ENDMDL
MODEL 2
REMARK VINA RESULT:    -3.628      1.517      2.017
REMARK INTER + INTRA:          -4.287
REMARK INTER:                  -4.164
REMARK INTRA:                  -0.123
REMARK UNBOUND:                -0.129
REMARK SMILES CC=Cc1ccc(O)c(OC)c1
REMARK SMILES IDX 4 1 12 2 9 3 7 4 6 5 5 6 3 7 1 8 2 9 10 10 11 11 8 12
REMARK H PARENT 8 13
REMARK Flexibility Score: inf
ROOT
ATOM      1  C   UNL     1      27.660  27.634  25.580  1.00  0.00    -0.022 A 
ATOM      2  C   UNL     1      26.755  26.662  25.123  1.00  0.00     0.058 A 
ATOM      3  C   UNL     1      27.019  25.292  25.316  1.00  0.00     0.161 A 
ATOM      4  C   UNL     1      28.208  24.904  25.949  1.00  0.00     0.157 A 
ATOM      5  C   UNL     1      29.125  25.873  26.377  1.00  0.00     0.051 A 
ATOM      6  C   UNL     1      28.857  27.229  26.184  1.00  0.00     0.012 A 
ENDROOT
BRANCH   1   7
ATOM      7  C   UNL     1      27.414  29.076  25.368  1.00  0.00     0.003 C 
ATOM      8  C   UNL     1      29.114  29.315  23.539  1.00  0.00     0.035 C 
ATOM      9  C   UNL     1      28.070  29.836  24.480  1.00  0.00    -0.030 C 
ENDBRANCH   1   7
BRANCH   3  10
ATOM     10  O   UNL     1      26.131  24.292  24.889  1.00  0.00    -0.493 OA
ATOM     11  C   UNL     1      26.116  23.733  23.580  1.00  0.00     0.278 C 
ENDBRANCH   3  10
BRANCH   4  12
ATOM     12  O   UNL     1      28.474  23.550  26.146  1.00  0.00    -0.504 OA
ATOM     13  H   UNL     1      29.140  23.236  26.842  1.00  0.00     0.293 HD
ENDBRANCH   4  12
TORSDOF 3
ENDMDL
MODEL 3
REMARK VINA RESULT:    -3.240      3.061      4.664
REMARK INTER + INTRA:          -3.843
REMARK INTER:                  -4.489
REMARK INTRA:                   0.646
REMARK UNBOUND:                -0.129
REMARK SMILES CC=Cc1ccc(O)c(OC)c1
REMARK SMILES IDX 4 1 12 2 9 3 7 4 6 5 5 6 3 7 1 8 2 9 10 10 11 11 8 12
REMARK H PARENT 8 13
REMARK Flexibility Score: inf
ROOT
ATOM      1  C   UNL     1      28.677  30.595  24.379  1.00  0.00    -0.022 A 
ATOM      2  C   UNL     1      28.278  29.247  24.383  1.00  0.00     0.058 A 
ATOM      3  C   UNL     1      28.276  28.505  25.580  1.00  0.00     0.161 A 
ATOM      4  C   UNL     1      28.699  29.118  26.769  1.00  0.00     0.157 A 
ATOM      5  C   UNL     1      29.125  30.452  26.759  1.00  0.00     0.051 A 
ATOM      6  C   UNL     1      29.124  31.183  25.569  1.00  0.00     0.012 A 
ENDROOT
BRANCH   1   7
ATOM      7  C   UNL     1      28.708  31.385  23.131  1.00  0.00     0.003 C 
ATOM      8  C   UNL     1      28.847  33.606  24.291  1.00  0.00     0.035 C 
ATOM      9  C   UNL     1      28.762  32.724  23.081  1.00  0.00    -0.030 C 
ENDBRANCH   1   7
BRANCH   3  10
ATOM     10  O   UNL     1      27.869  27.163  25.627  1.00  0.00    -0.493 OA
ATOM     11  C   UNL     1      28.703  26.056  25.303  1.00  0.00     0.278 C 
ENDBRANCH   3  10
BRANCH   4  12
ATOM     12  O   UNL     1      28.696  28.390  27.958  1.00  0.00    -0.504 OA
ATOM     13  H   UNL     1      29.389  27.675  28.143  1.00  0.00     0.293 HD
ENDBRANCH   4  12
TORSDOF 3
ENDMDL
MODEL 4
REMARK VINA RESULT:    -3.100      1.679      2.652
REMARK INTER + INTRA:          -3.681
REMARK INTER:                  -3.461
REMARK INTRA:                  -0.220
REMARK UNBOUND:                -0.129
REMARK SMILES CC=Cc1ccc(O)c(OC)c1
REMARK SMILES IDX 4 1 12 2 9 3 7 4 6 5 5 6 3 7 1 8 2 9 10 10 11 11 8 12
REMARK H PARENT 8 13
REMARK Flexibility Score: inf
ROOT
ATOM      1  C   UNL     1      27.693  24.839  25.597  1.00  0.00    -0.022 A 
ATOM      2  C   UNL     1      26.872  24.641  26.720  1.00  0.00     0.058 A 
ATOM      3  C   UNL     1      25.635  23.978  26.595  1.00  0.00     0.161 A 
ATOM      4  C   UNL     1      25.218  23.535  25.331  1.00  0.00     0.157 A 
ATOM      5  C   UNL     1      26.023  23.760  24.207  1.00  0.00     0.051 A 
ATOM      6  C   UNL     1      27.248  24.417  24.337  1.00  0.00     0.012 A 
ENDROOT
BRANCH   1   7
ATOM      7  C   UNL     1      28.982  25.552  25.702  1.00  0.00     0.003 C 
ATOM      8  C   UNL     1      27.966  27.844  25.612  1.00  0.00     0.035 C 
ATOM      9  C   UNL     1      29.116  26.886  25.687  1.00  0.00    -0.030 C 
ENDBRANCH   1   7
BRANCH   3  10
ATOM     10  O   UNL     1      24.796  23.746  27.696  1.00  0.00    -0.493 OA
ATOM     11  C   UNL     1      25.111  22.881  28.781  1.00  0.00     0.278 C 
ENDBRANCH   3  10
BRANCH   4  12
ATOM     12  O   UNL     1      23.998  22.875  25.201  1.00  0.00    -0.504 OA
ATOM     13  H   UNL     1      23.391  22.720  25.998  1.00  0.00     0.293 HD
ENDBRANCH   4  12
TORSDOF 3
ENDMDL
MODEL 5
REMARK VINA RESULT:    -2.507      1.437      2.926
REMARK INTER + INTRA:          -3.002
REMARK INTER:                  -2.806
REMARK INTRA:                  -0.196
REMARK UNBOUND:                -0.129
REMARK SMILES CC=Cc1ccc(O)c(OC)c1
REMARK SMILES IDX 4 1 12 2 9 3 7 4 6 5 5 6 3 7 1 8 2 9 10 10 11 11 8 12
REMARK H PARENT 8 13
REMARK Flexibility Score: inf
ROOT
ATOM      1  C   UNL     1      28.443  27.977  25.649  1.00  0.00    -0.022 A 
ATOM      2  C   UNL     1      29.125  26.781  25.367  1.00  0.00     0.058 A 
ATOM      3  C   UNL     1      28.482  25.537  25.524  1.00  0.00     0.161 A 
ATOM      4  C   UNL     1      27.159  25.501  25.987  1.00  0.00     0.157 A 
ATOM      5  C   UNL     1      26.490  26.692  26.297  1.00  0.00     0.051 A 
ATOM      6  C   UNL     1      27.132  27.921  26.139  1.00  0.00     0.012 A 
ENDROOT
BRANCH   1   7
ATOM      7  C   UNL     1      29.105  29.290  25.513  1.00  0.00     0.003 C 
ATOM      8  C   UNL     1      28.296  29.695  23.173  1.00  0.00     0.035 C 
ATOM      9  C   UNL     1      29.064  30.051  24.410  1.00  0.00    -0.030 C 
ENDBRANCH   1   7
BRANCH   3  10
ATOM     10  O   UNL     1      29.124  24.322  25.236  1.00  0.00    -0.493 OA
ATOM     11  C   UNL     1      29.006  23.621  24.003  1.00  0.00     0.278 C 
ENDBRANCH   3  10
BRANCH   4  12
ATOM     12  O   UNL     1      26.516  24.274  26.141  1.00  0.00    -0.504 OA
ATOM     13  H   UNL     1      25.513  24.213  26.269  1.00  0.00     0.293 HD
ENDBRANCH   4  12
TORSDOF 3
ENDMDL
MODEL 6
REMARK VINA RESULT:    -2.440      4.078      5.780
REMARK INTER + INTRA:          -2.925
REMARK INTER:                  -2.708
REMARK INTRA:                  -0.217
REMARK UNBOUND:                -0.129
REMARK SMILES CC=Cc1ccc(O)c(OC)c1
REMARK SMILES IDX 4 1 12 2 9 3 7 4 6 5 5 6 3 7 1 8 2 9 10 10 11 11 8 12
REMARK H PARENT 8 13
REMARK Flexibility Score: inf
ROOT
ATOM      1  C   UNL     1      24.678  24.052  27.567  1.00  0.00    -0.022 A 
ATOM      2  C   UNL     1      24.357  25.372  27.927  1.00  0.00     0.058 A 
ATOM      3  C   UNL     1      23.012  25.782  28.016  1.00  0.00     0.161 A 
ATOM      4  C   UNL     1      21.993  24.866  27.719  1.00  0.00     0.157 A 
ATOM      5  C   UNL     1      22.314  23.559  27.330  1.00  0.00     0.051 A 
ATOM      6  C   UNL     1      23.649  23.158  27.244  1.00  0.00     0.012 A 
ENDROOT
BRANCH   1   7
ATOM      7  C   UNL     1      26.081  23.606  27.445  1.00  0.00     0.003 C 
ATOM      8  C   UNL     1      26.275  24.181  25.010  1.00  0.00     0.035 C 
ATOM      9  C   UNL     1      26.792  23.639  26.309  1.00  0.00    -0.030 C 
ENDBRANCH   1   7
BRANCH   3  10
ATOM     10  O   UNL     1      22.652  27.086  28.390  1.00  0.00    -0.493 OA
ATOM     11  C   UNL     1      23.525  28.209  28.338  1.00  0.00     0.278 C 
ENDBRANCH   3  10
BRANCH   4  12
ATOM     12  O   UNL     1      20.661  25.264  27.809  1.00  0.00    -0.504 OA
ATOM     13  H   UNL     1      20.403  26.242  27.871  1.00  0.00     0.293 HD
ENDBRANCH   4  12
TORSDOF 3
ENDMDL
MODEL 7
REMARK VINA RESULT:    -1.865      2.287      3.736
REMARK INTER + INTRA:          -2.266
REMARK INTER:                  -2.615
REMARK INTRA:                   0.349
REMARK UNBOUND:                -0.129
REMARK SMILES CC=Cc1ccc(O)c(OC)c1
REMARK SMILES IDX 4 1 12 2 9 3 7 4 6 5 5 6 3 7 1 8 2 9 10 10 11 11 8 12
REMARK H PARENT 8 13
REMARK Flexibility Score: inf
ROOT
ATOM      1  C   UNL     1      26.530  24.408  26.157  1.00  0.00    -0.022 A 
ATOM      2  C   UNL     1      25.735  25.061  27.114  1.00  0.00     0.058 A 
ATOM      3  C   UNL     1      24.419  24.626  27.368  1.00  0.00     0.161 A 
ATOM      4  C   UNL     1      23.900  23.546  26.638  1.00  0.00     0.157 A 
ATOM      5  C   UNL     1      24.683  22.916  25.663  1.00  0.00     0.051 A 
ATOM      6  C   UNL     1      25.986  23.351  25.417  1.00  0.00     0.012 A 
ENDROOT
BRANCH   1   7
ATOM      7  C   UNL     1      27.905  24.862  25.859  1.00  0.00     0.003 C 
ATOM      8  C   UNL     1      27.310  27.298  25.774  1.00  0.00     0.035 C 
ATOM      9  C   UNL     1      28.257  26.141  25.665  1.00  0.00    -0.030 C 
ENDBRANCH   1   7
BRANCH   3  10
ATOM     10  O   UNL     1      23.601  25.241  28.328  1.00  0.00    -0.493 OA
ATOM     11  C   UNL     1      22.580  26.187  28.029  1.00  0.00     0.278 C 
ENDBRANCH   3  10
BRANCH   4  12
ATOM     12  O   UNL     1      22.600  23.109  26.887  1.00  0.00    -0.504 OA
ATOM     13  H   UNL     1      21.915  23.034  26.145  1.00  0.00     0.293 HD
ENDBRANCH   4  12
TORSDOF 3
ENDMDL
MODEL 8
REMARK VINA RESULT:    -1.380      1.926      4.553
REMARK INTER + INTRA:          -1.710
REMARK INTER:                  -1.867
REMARK INTRA:                   0.157
REMARK UNBOUND:                -0.129
REMARK SMILES CC=Cc1ccc(O)c(OC)c1
REMARK SMILES IDX 4 1 12 2 9 3 7 4 6 5 5 6 3 7 1 8 2 9 10 10 11 11 8 12
REMARK H PARENT 8 13
REMARK Flexibility Score: inf
ROOT
ATOM      1  C   UNL     1      26.596  23.808  26.584  1.00  0.00    -0.022 A 
ATOM      2  C   UNL     1      26.419  25.201  26.627  1.00  0.00     0.058 A 
ATOM      3  C   UNL     1      27.259  26.053  25.884  1.00  0.00     0.161 A 
ATOM      4  C   UNL     1      28.292  25.499  25.115  1.00  0.00     0.157 A 
ATOM      5  C   UNL     1      28.488  24.112  25.096  1.00  0.00     0.051 A 
ATOM      6  C   UNL     1      27.651  23.273  25.834  1.00  0.00     0.012 A 
ENDROOT
BRANCH   1   7
ATOM      7  C   UNL     1      25.741  22.898  27.373  1.00  0.00     0.003 C 
ATOM      8  C   UNL     1      23.585  23.740  26.405  1.00  0.00     0.035 C 
ATOM      9  C   UNL     1      24.401  22.875  27.317  1.00  0.00    -0.030 C 
ENDBRANCH   1   7
BRANCH   3  10
ATOM     10  O   UNL     1      27.102  27.448  25.888  1.00  0.00    -0.493 OA
ATOM     11  C   UNL     1      27.869  28.343  26.687  1.00  0.00     0.278 C 
ENDBRANCH   3  10
BRANCH   4  12
ATOM     12  O   UNL     1      29.125  26.336  24.374  1.00  0.00    -0.504 OA
ATOM     13  H   UNL     1      29.786  26.958  24.823  1.00  0.00     0.293 HD
ENDBRANCH   4  12
TORSDOF 3
ENDMDL
