MODEL 1
REMARK VINA RESULT:    -5.676      0.000      0.000
REMARK INTER + INTRA:          -6.784
REMARK INTER:                  -6.837
REMARK INTRA:                   0.053
REMARK UNBOUND:                 0.053
REMARK SMILES O=c1c(O)c(-c2ccc(O)c(O)c2)oc2cc(O)cc(O)c12
REMARK SMILES IDX 5 1 3 2 2 3 1 4 22 5 20 6 19 7 17 8 16 9 15 10 14 11 6 12
REMARK SMILES IDX 7 13 8 14 9 15 13 16 11 17 10 18 12 20 4 22 21 24 18 26
REMARK H PARENT 10 19 12 21 4 23 21 25 18 27
REMARK Flexibility Score: inf
ROOT
ATOM      1  C   UNL     1       3.079   7.203  -7.316  1.00  0.00     0.180 A 
ATOM      2  C   UNL     1       4.396   7.086  -7.792  1.00  0.00     0.208 A 
ATOM      3  C   UNL     1       5.306   8.126  -7.541  1.00  0.00     0.238 A 
ATOM      4  O   UNL     1       6.468   8.040  -8.015  1.00  0.00    -0.285 OA
ATOM      5  C   UNL     1       4.892   9.261  -6.803  1.00  0.00     0.111 A 
ATOM      6  C   UNL     1       5.740  10.355  -6.455  1.00  0.00     0.134 A 
ATOM      7  C   UNL     1       5.190  11.485  -5.837  1.00  0.00     0.093 A 
ATOM      8  C   UNL     1       3.836  11.533  -5.495  1.00  0.00     0.123 A 
ATOM      9  C   UNL     1       3.013  10.445  -5.776  1.00  0.00     0.094 A 
ATOM     10  C   UNL     1       3.525   9.319  -6.426  1.00  0.00     0.146 A 
ATOM     11  O   UNL     1       2.702   8.309  -6.685  1.00  0.00    -0.452 OA
ENDROOT
BRANCH   1  12
ATOM     12  C   UNL     1       2.070   6.137  -7.521  1.00  0.00     0.025 A 
ATOM     13  C   UNL     1       1.882   5.540  -8.779  1.00  0.00     0.016 A 
ATOM     14  C   UNL     1       0.941   4.520  -8.942  1.00  0.00     0.051 A 
ATOM     15  C   UNL     1       0.186   4.072  -7.850  1.00  0.00     0.157 A 
ATOM     16  C   UNL     1       1.326   5.671  -6.425  1.00  0.00     0.062 A 
ATOM     17  C   UNL     1       0.382   4.650  -6.585  1.00  0.00     0.158 A 
BRANCH  15  18
ATOM     18  O   UNL     1      -0.753   3.055  -8.017  1.00  0.00    -0.504 OA
ATOM     19  H   UNL     1      -0.971   2.406  -7.271  1.00  0.00     0.293 HD
ENDBRANCH  15  18
BRANCH  17  20
ATOM     20  O   UNL     1      -0.348   4.222  -5.477  1.00  0.00    -0.504 OA
ATOM     21  H   UNL     1      -1.255   3.780  -5.568  1.00  0.00     0.293 HD
ENDBRANCH  17  20
ENDBRANCH   1  12
BRANCH   2  22
ATOM     22  O   UNL     1       4.778   5.967  -8.537  1.00  0.00    -0.502 OA
ATOM     23  H   UNL     1       4.559   5.867  -9.521  1.00  0.00     0.293 HD
ENDBRANCH   2  22
BRANCH   6  24
ATOM     24  O   UNL     1       7.121  10.371  -6.668  1.00  0.00    -0.507 OA
ATOM     25  H   UNL     1       7.799   9.918  -6.073  1.00  0.00     0.293 HD
ENDBRANCH   6  24
BRANCH   8  26
ATOM     26  O   UNL     1       3.301  12.655  -4.865  1.00  0.00    -0.508 OA
ATOM     27  H   UNL     1       3.616  13.591  -5.092  1.00  0.00     0.293 HD
ENDBRANCH   8  26
TORSDOF 6
ENDMDL
MODEL 2
REMARK VINA RESULT:    -5.593      2.755      4.886
REMARK INTER + INTRA:          -6.685
REMARK INTER:                  -7.072
REMARK INTRA:                   0.387
REMARK UNBOUND:                 0.053
REMARK SMILES O=c1c(O)c(-c2ccc(O)c(O)c2)oc2cc(O)cc(O)c12
REMARK SMILES IDX 5 1 3 2 2 3 1 4 22 5 20 6 19 7 17 8 16 9 15 10 14 11 6 12
REMARK SMILES IDX 7 13 8 14 9 15 13 16 11 17 10 18 12 20 4 22 21 24 18 26
REMARK H PARENT 10 19 12 21 4 23 21 25 18 27
REMARK Flexibility Score: inf
ROOT
ATOM      1  C   UNL     1       0.027   3.939  -6.557  1.00  0.00     0.180 A 
ATOM      2  C   UNL     1       0.386   4.439  -7.821  1.00  0.00     0.208 A 
ATOM      3  C   UNL     1       1.221   5.565  -7.895  1.00  0.00     0.238 A 
ATOM      4  O   UNL     1       1.495   6.041  -9.027  1.00  0.00    -0.285 OA
ATOM      5  C   UNL     1       1.700   6.167  -6.706  1.00  0.00     0.111 A 
ATOM      6  C   UNL     1       2.584   7.287  -6.664  1.00  0.00     0.134 A 
ATOM      7  C   UNL     1       2.888   7.881  -5.432  1.00  0.00     0.093 A 
ATOM      8  C   UNL     1       2.392   7.354  -4.237  1.00  0.00     0.123 A 
ATOM      9  C   UNL     1       1.577   6.225  -4.264  1.00  0.00     0.094 A 
ATOM     10  C   UNL     1       1.226   5.633  -5.480  1.00  0.00     0.146 A 
ATOM     11  O   UNL     1       0.438   4.564  -5.460  1.00  0.00    -0.452 OA
ENDROOT
BRANCH   1  12
ATOM     12  C   UNL     1      -0.829   2.740  -6.398  1.00  0.00     0.025 A 
ATOM     13  C   UNL     1      -1.624   2.556  -5.254  1.00  0.00     0.016 A 
ATOM     14  C   UNL     1      -2.443   1.430  -5.138  1.00  0.00     0.051 A 
ATOM     15  C   UNL     1      -2.490   0.479  -6.166  1.00  0.00     0.157 A 
ATOM     16  C   UNL     1      -0.895   1.796  -7.436  1.00  0.00     0.062 A 
ATOM     17  C   UNL     1      -1.714   0.666  -7.321  1.00  0.00     0.158 A 
BRANCH  15  18
ATOM     18  O   UNL     1      -3.307  -0.644  -6.045  1.00  0.00    -0.504 OA
ATOM     19  H   UNL     1      -3.339  -1.187  -5.191  1.00  0.00     0.293 HD
ENDBRANCH  15  18
BRANCH  17  20
ATOM     20  O   UNL     1      -1.743  -0.257  -8.366  1.00  0.00    -0.504 OA
ATOM     21  H   UNL     1      -1.120  -0.189  -9.162  1.00  0.00     0.293 HD
ENDBRANCH  17  20
ENDBRANCH   1  12
BRANCH   2  22
ATOM     22  O   UNL     1      -0.115   3.843  -8.981  1.00  0.00    -0.502 OA
ATOM     23  H   UNL     1      -0.488   2.901  -8.991  1.00  0.00     0.293 HD
ENDBRANCH   2  22
BRANCH   6  24
ATOM     24  O   UNL     1       3.206   7.833  -7.790  1.00  0.00    -0.507 OA
ATOM     25  H   UNL     1       3.534   7.299  -8.581  1.00  0.00     0.293 HD
ENDBRANCH   6  24
BRANCH   8  26
ATOM     26  O   UNL     1       2.713   7.941  -3.014  1.00  0.00    -0.508 OA
ATOM     27  H   UNL     1       3.653   8.259  -2.809  1.00  0.00     0.293 HD
ENDBRANCH   8  26
TORSDOF 6
ENDMDL
MODEL 3
REMARK VINA RESULT:    -5.529      3.063      8.778
REMARK INTER + INTRA:          -6.607
REMARK INTER:                  -7.047
REMARK INTRA:                   0.440
REMARK UNBOUND:                 0.053
REMARK SMILES O=c1c(O)c(-c2ccc(O)c(O)c2)oc2cc(O)cc(O)c12
REMARK SMILES IDX 5 1 3 2 2 3 1 4 22 5 20 6 19 7 17 8 16 9 15 10 14 11 6 12
REMARK SMILES IDX 7 13 8 14 9 15 13 16 11 17 10 18 12 20 4 22 21 24 18 26
REMARK H PARENT 10 19 12 21 4 23 21 25 18 27
REMARK Flexibility Score: inf
ROOT
ATOM      1  C   UNL     1      -0.043   3.691  -6.679  1.00  0.00     0.180 A 
ATOM      2  C   UNL     1       0.060   3.056  -7.929  1.00  0.00     0.208 A 
ATOM      3  C   UNL     1      -0.743   1.935  -8.191  1.00  0.00     0.238 A 
ATOM      4  O   UNL     1      -0.609   1.338  -9.291  1.00  0.00    -0.285 OA
ATOM      5  C   UNL     1      -1.651   1.473  -7.208  1.00  0.00     0.111 A 
ATOM      6  C   UNL     1      -2.542   0.371  -7.380  1.00  0.00     0.134 A 
ATOM      7  C   UNL     1      -3.302  -0.079  -6.294  1.00  0.00     0.093 A 
ATOM      8  C   UNL     1      -3.251   0.573  -5.059  1.00  0.00     0.123 A 
ATOM      9  C   UNL     1      -2.430   1.687  -4.899  1.00  0.00     0.094 A 
ATOM     10  C   UNL     1      -1.632   2.137  -5.953  1.00  0.00     0.146 A 
ATOM     11  O   UNL     1      -0.855   3.195  -5.753  1.00  0.00    -0.452 OA
ENDROOT
BRANCH   1  12
ATOM     12  C   UNL     1       0.753   4.893  -6.339  1.00  0.00     0.025 A 
ATOM     13  C   UNL     1       1.001   5.251  -5.003  1.00  0.00     0.016 A 
ATOM     14  C   UNL     1       1.776   6.376  -4.706  1.00  0.00     0.051 A 
ATOM     15  C   UNL     1       2.324   7.151  -5.737  1.00  0.00     0.157 A 
ATOM     16  C   UNL     1       1.323   5.660  -7.369  1.00  0.00     0.062 A 
ATOM     17  C   UNL     1       2.098   6.788  -7.074  1.00  0.00     0.158 A 
BRANCH  15  18
ATOM     18  O   UNL     1       3.095   8.273  -5.437  1.00  0.00    -0.504 OA
ATOM     19  H   UNL     1       4.105   8.258  -5.509  1.00  0.00     0.293 HD
ENDBRANCH  15  18
BRANCH  17  20
ATOM     20  O   UNL     1       2.635   7.532  -8.124  1.00  0.00    -0.504 OA
ATOM     21  H   UNL     1       3.245   8.325  -7.964  1.00  0.00     0.293 HD
ENDBRANCH  17  20
ENDBRANCH   1  12
BRANCH   2  22
ATOM     22  O   UNL     1       0.977   3.515  -8.878  1.00  0.00    -0.502 OA
ATOM     23  H   UNL     1       1.818   4.020  -8.622  1.00  0.00     0.293 HD
ENDBRANCH   2  22
BRANCH   6  24
ATOM     24  O   UNL     1      -2.737  -0.292  -8.595  1.00  0.00    -0.507 OA
ATOM     25  H   UNL     1      -2.423  -1.230  -8.794  1.00  0.00     0.293 HD
ENDBRANCH   6  24
BRANCH   8  26
ATOM     26  O   UNL     1      -4.023   0.128  -3.988  1.00  0.00    -0.508 OA
ATOM     27  H   UNL     1      -4.370   0.768  -3.282  1.00  0.00     0.293 HD
ENDBRANCH   8  26
TORSDOF 6
ENDMDL
MODEL 4
REMARK VINA RESULT:    -5.413      1.668      3.587
REMARK INTER + INTRA:          -6.468
REMARK INTER:                  -6.532
REMARK INTRA:                   0.064
REMARK UNBOUND:                 0.053
REMARK SMILES O=c1c(O)c(-c2ccc(O)c(O)c2)oc2cc(O)cc(O)c12
REMARK SMILES IDX 5 1 3 2 2 3 1 4 22 5 20 6 19 7 17 8 16 9 15 10 14 11 6 12
REMARK SMILES IDX 7 13 8 14 9 15 13 16 11 17 10 18 12 20 4 22 21 24 18 26
REMARK H PARENT 10 19 12 21 4 23 21 25 18 27
REMARK Flexibility Score: inf
ROOT
ATOM      1  C   UNL     1       2.054   6.564  -5.968  1.00  0.00     0.180 A 
ATOM      2  C   UNL     1       1.871   7.750  -5.235  1.00  0.00     0.208 A 
ATOM      3  C   UNL     1       2.782   8.804  -5.408  1.00  0.00     0.238 A 
ATOM      4  O   UNL     1       2.644   9.843  -4.711  1.00  0.00    -0.285 OA
ATOM      5  C   UNL     1       3.854   8.667  -6.323  1.00  0.00     0.111 A 
ATOM      6  C   UNL     1       4.812   9.685  -6.607  1.00  0.00     0.134 A 
ATOM      7  C   UNL     1       5.907   9.393  -7.431  1.00  0.00     0.093 A 
ATOM      8  C   UNL     1       6.041   8.140  -8.033  1.00  0.00     0.123 A 
ATOM      9  C   UNL     1       5.078   7.158  -7.809  1.00  0.00     0.094 A 
ATOM     10  C   UNL     1       3.996   7.408  -6.962  1.00  0.00     0.146 A 
ATOM     11  O   UNL     1       3.107   6.440  -6.768  1.00  0.00    -0.452 OA
ENDROOT
BRANCH   1  12
ATOM     12  C   UNL     1       1.122   5.418  -5.858  1.00  0.00     0.025 A 
ATOM     13  C   UNL     1       0.688   4.946  -4.608  1.00  0.00     0.016 A 
ATOM     14  C   UNL     1      -0.212   3.879  -4.530  1.00  0.00     0.051 A 
ATOM     15  C   UNL     1      -0.700   3.277  -5.697  1.00  0.00     0.157 A 
ATOM     16  C   UNL     1       0.614   4.826  -7.026  1.00  0.00     0.062 A 
ATOM     17  C   UNL     1      -0.286   3.756  -6.951  1.00  0.00     0.158 A 
BRANCH  15  18
ATOM     18  O   UNL     1      -1.595   2.212  -5.615  1.00  0.00    -0.504 OA
ATOM     19  H   UNL     1      -1.927   1.866  -4.723  1.00  0.00     0.293 HD
ENDBRANCH  15  18
BRANCH  17  20
ATOM     20  O   UNL     1      -0.758   3.184  -8.132  1.00  0.00    -0.504 OA
ATOM     21  H   UNL     1      -1.014   3.745  -8.936  1.00  0.00     0.293 HD
ENDBRANCH  17  20
ENDBRANCH   1  12
BRANCH   2  22
ATOM     22  O   UNL     1       0.819   7.857  -4.323  1.00  0.00    -0.502 OA
ATOM     23  H   UNL     1      -0.142   7.998  -4.613  1.00  0.00     0.293 HD
ENDBRANCH   2  22
BRANCH   6  24
ATOM     24  O   UNL     1       4.722  10.997  -6.132  1.00  0.00    -0.507 OA
ATOM     25  H   UNL     1       5.513  11.588  -5.923  1.00  0.00     0.293 HD
ENDBRANCH   6  24
BRANCH   8  26
ATOM     26  O   UNL     1       7.125   7.863  -8.864  1.00  0.00    -0.508 OA
ATOM     27  H   UNL     1       8.008   8.348  -8.762  1.00  0.00     0.293 HD
ENDBRANCH   8  26
TORSDOF 6
ENDMDL
MODEL 5
REMARK VINA RESULT:    -5.355      2.927      5.536
REMARK INTER + INTRA:          -6.398
REMARK INTER:                  -6.131
REMARK INTRA:                  -0.267
REMARK UNBOUND:                 0.053
REMARK SMILES O=c1c(O)c(-c2ccc(O)c(O)c2)oc2cc(O)cc(O)c12
REMARK SMILES IDX 5 1 3 2 2 3 1 4 22 5 20 6 19 7 17 8 16 9 15 10 14 11 6 12
REMARK SMILES IDX 7 13 8 14 9 15 13 16 11 17 10 18 12 20 4 22 21 24 18 26
REMARK H PARENT 10 19 12 21 4 23 21 25 18 27
REMARK Flexibility Score: inf
ROOT
ATOM      1  C   UNL     1       2.666   9.023  -5.704  1.00  0.00     0.180 A 
ATOM      2  C   UNL     1       2.050   8.381  -4.616  1.00  0.00     0.208 A 
ATOM      3  C   UNL     1       0.946   8.993  -4.001  1.00  0.00     0.238 A 
ATOM      4  O   UNL     1       0.432   8.440  -2.994  1.00  0.00    -0.285 OA
ATOM      5  C   UNL     1       0.460  10.229  -4.492  1.00  0.00     0.111 A 
ATOM      6  C   UNL     1      -0.676  10.918  -3.972  1.00  0.00     0.134 A 
ATOM      7  C   UNL     1      -0.986  12.197  -4.450  1.00  0.00     0.093 A 
ATOM      8  C   UNL     1      -0.240  12.784  -5.475  1.00  0.00     0.123 A 
ATOM      9  C   UNL     1       0.835  12.093  -6.031  1.00  0.00     0.094 A 
ATOM     10  C   UNL     1       1.191  10.832  -5.549  1.00  0.00     0.146 A 
ATOM     11  O   UNL     1       2.230  10.213  -6.100  1.00  0.00    -0.452 OA
ENDROOT
BRANCH   1  12
ATOM     12  C   UNL     1       3.819   8.429  -6.419  1.00  0.00     0.025 A 
ATOM     13  C   UNL     1       5.131   8.882  -6.195  1.00  0.00     0.016 A 
ATOM     14  C   UNL     1       6.206   8.289  -6.863  1.00  0.00     0.051 A 
ATOM     15  C   UNL     1       5.989   7.229  -7.753  1.00  0.00     0.157 A 
ATOM     16  C   UNL     1       3.609   7.352  -7.296  1.00  0.00     0.062 A 
ATOM     17  C   UNL     1       4.684   6.758  -7.968  1.00  0.00     0.158 A 
BRANCH  15  18
ATOM     18  O   UNL     1       7.064   6.642  -8.419  1.00  0.00    -0.504 OA
ATOM     19  H   UNL     1       7.323   6.921  -9.357  1.00  0.00     0.293 HD
ENDBRANCH  15  18
BRANCH  17  20
ATOM     20  O   UNL     1       4.434   5.700  -8.841  1.00  0.00    -0.504 OA
ATOM     21  H   UNL     1       4.324   5.840  -9.839  1.00  0.00     0.293 HD
ENDBRANCH  17  20
ENDBRANCH   1  12
BRANCH   2  22
ATOM     22  O   UNL     1       2.558   7.173  -4.133  1.00  0.00    -0.502 OA
ATOM     23  H   UNL     1       2.468   6.893  -3.164  1.00  0.00     0.293 HD
ENDBRANCH   2  22
BRANCH   6  24
ATOM     24  O   UNL     1      -1.541  10.384  -3.013  1.00  0.00    -0.507 OA
ATOM     25  H   UNL     1      -2.481  10.709  -2.843  1.00  0.00     0.293 HD
ENDBRANCH   6  24
BRANCH   8  26
ATOM     26  O   UNL     1      -0.565  14.051  -5.956  1.00  0.00    -0.508 OA
ATOM     27  H   UNL     1      -1.287  14.614  -5.521  1.00  0.00     0.293 HD
ENDBRANCH   8  26
TORSDOF 6
ENDMDL
MODEL 6
REMARK VINA RESULT:    -5.350      2.477      4.634
REMARK INTER + INTRA:          -6.392
REMARK INTER:                  -6.935
REMARK INTRA:                   0.543
REMARK UNBOUND:                 0.053
REMARK SMILES O=c1c(O)c(-c2ccc(O)c(O)c2)oc2cc(O)cc(O)c12
REMARK SMILES IDX 5 1 3 2 2 3 1 4 22 5 20 6 19 7 17 8 16 9 15 10 14 11 6 12
REMARK SMILES IDX 7 13 8 14 9 15 13 16 11 17 10 18 12 20 4 22 21 24 18 26
REMARK H PARENT 10 19 12 21 4 23 21 25 18 27
REMARK Flexibility Score: inf
ROOT
ATOM      1  C   UNL     1       0.391   4.522  -5.854  1.00  0.00     0.180 A 
ATOM      2  C   UNL     1       0.460   4.873  -4.494  1.00  0.00     0.208 A 
ATOM      3  C   UNL     1       1.296   5.933  -4.107  1.00  0.00     0.238 A 
ATOM      4  O   UNL     1       1.395   6.208  -2.883  1.00  0.00    -0.285 OA
ATOM      5  C   UNL     1       2.039   6.638  -5.084  1.00  0.00     0.111 A 
ATOM      6  C   UNL     1       2.886   7.754  -4.810  1.00  0.00     0.134 A 
ATOM      7  C   UNL     1       3.674   8.291  -5.835  1.00  0.00     0.093 A 
ATOM      8  C   UNL     1       3.597   7.795  -7.139  1.00  0.00     0.123 A 
ATOM      9  C   UNL     1       2.728   6.745  -7.429  1.00  0.00     0.094 A 
ATOM     10  C   UNL     1       1.956   6.164  -6.420  1.00  0.00     0.146 A 
ATOM     11  O   UNL     1       1.150   5.158  -6.738  1.00  0.00    -0.452 OA
ENDROOT
BRANCH   1  12
ATOM     12  C   UNL     1      -0.486   3.433  -6.342  1.00  0.00     0.025 A 
ATOM     13  C   UNL     1      -0.472   3.030  -7.688  1.00  0.00     0.016 A 
ATOM     14  C   UNL     1      -1.291   1.983  -8.120  1.00  0.00     0.051 A 
ATOM     15  C   UNL     1      -2.125   1.316  -7.214  1.00  0.00     0.157 A 
ATOM     16  C   UNL     1      -1.308   2.747  -5.432  1.00  0.00     0.062 A 
ATOM     17  C   UNL     1      -2.130   1.699  -5.863  1.00  0.00     0.158 A 
BRANCH  15  18
ATOM     18  O   UNL     1      -2.941   0.273  -7.649  1.00  0.00    -0.504 OA
ATOM     19  H   UNL     1      -2.615  -0.685  -7.665  1.00  0.00     0.293 HD
ENDBRANCH  15  18
BRANCH  17  20
ATOM     20  O   UNL     1      -2.943   1.051  -4.933  1.00  0.00    -0.504 OA
ATOM     21  H   UNL     1      -3.105   0.051  -4.964  1.00  0.00     0.293 HD
ENDBRANCH  17  20
ENDBRANCH   1  12
BRANCH   2  22
ATOM     22  O   UNL     1      -0.265   4.151  -3.544  1.00  0.00    -0.502 OA
ATOM     23  H   UNL     1      -1.269   4.030  -3.601  1.00  0.00     0.293 HD
ENDBRANCH   2  22
BRANCH   6  24
ATOM     24  O   UNL     1       2.968   8.383  -3.565  1.00  0.00    -0.507 OA
ATOM     25  H   UNL     1       2.722   7.953  -2.686  1.00  0.00     0.293 HD
ENDBRANCH   6  24
BRANCH   8  26
ATOM     26  O   UNL     1       4.373   8.346  -8.157  1.00  0.00    -0.508 OA
ATOM     27  H   UNL     1       4.148   8.198  -9.134  1.00  0.00     0.293 HD
ENDBRANCH   8  26
TORSDOF 6
ENDMDL
MODEL 7
REMARK VINA RESULT:    -4.994      1.017      1.682
REMARK INTER + INTRA:          -5.963
REMARK INTER:                  -5.761
REMARK INTRA:                  -0.201
REMARK UNBOUND:                 0.053
REMARK SMILES O=c1c(O)c(-c2ccc(O)c(O)c2)oc2cc(O)cc(O)c12
REMARK SMILES IDX 5 1 3 2 2 3 1 4 22 5 20 6 19 7 17 8 16 9 15 10 14 11 6 12
REMARK SMILES IDX 7 13 8 14 9 15 13 16 11 17 10 18 12 20 4 22 21 24 18 26
REMARK H PARENT 10 19 12 21 4 23 21 25 18 27
REMARK Flexibility Score: inf
ROOT
ATOM      1  C   UNL     1       3.131   7.741  -6.617  1.00  0.00     0.180 A 
ATOM      2  C   UNL     1       4.396   7.581  -7.209  1.00  0.00     0.208 A 
ATOM      3  C   UNL     1       5.230   8.702  -7.345  1.00  0.00     0.238 A 
ATOM      4  O   UNL     1       6.339   8.564  -7.924  1.00  0.00    -0.285 OA
ATOM      5  C   UNL     1       4.796   9.965  -6.874  1.00  0.00     0.111 A 
ATOM      6  C   UNL     1       5.575  11.160  -6.924  1.00  0.00     0.134 A 
ATOM      7  C   UNL     1       4.995  12.378  -6.550  1.00  0.00     0.093 A 
ATOM      8  C   UNL     1       3.685  12.434  -6.065  1.00  0.00     0.123 A 
ATOM      9  C   UNL     1       2.938  11.264  -5.956  1.00  0.00     0.094 A 
ATOM     10  C   UNL     1       3.477  10.039  -6.357  1.00  0.00     0.146 A 
ATOM     11  O   UNL     1       2.725   8.949  -6.246  1.00  0.00    -0.452 OA
ENDROOT
BRANCH   1  12
ATOM     12  C   UNL     1       2.205   6.601  -6.416  1.00  0.00     0.025 A 
ATOM     13  C   UNL     1       1.890   6.134  -5.129  1.00  0.00     0.016 A 
ATOM     14  C   UNL     1       0.995   5.073  -4.964  1.00  0.00     0.051 A 
ATOM     15  C   UNL     1       0.393   4.473  -6.078  1.00  0.00     0.157 A 
ATOM     16  C   UNL     1       1.583   6.012  -7.529  1.00  0.00     0.062 A 
ATOM     17  C   UNL     1       0.688   4.948  -7.366  1.00  0.00     0.158 A 
BRANCH  15  18
ATOM     18  O   UNL     1      -0.497   3.415  -5.909  1.00  0.00    -0.504 OA
ATOM     19  H   UNL     1      -1.196   3.421  -5.175  1.00  0.00     0.293 HD
ENDBRANCH  15  18
BRANCH  17  20
ATOM     20  O   UNL     1       0.101   4.379  -8.496  1.00  0.00    -0.504 OA
ATOM     21  H   UNL     1       0.375   4.641  -9.435  1.00  0.00     0.293 HD
ENDBRANCH  17  20
ENDBRANCH   1  12
BRANCH   2  22
ATOM     22  O   UNL     1       4.796   6.330  -7.686  1.00  0.00    -0.502 OA
ATOM     23  H   UNL     1       4.518   5.980  -8.595  1.00  0.00     0.293 HD
ENDBRANCH   2  22
BRANCH   6  24
ATOM     24  O   UNL     1       6.919  11.200  -7.306  1.00  0.00    -0.507 OA
ATOM     25  H   UNL     1       7.558  11.947  -7.079  1.00  0.00     0.293 HD
ENDBRANCH   6  24
BRANCH   8  26
ATOM     26  O   UNL     1       3.121  13.649  -5.680  1.00  0.00    -0.508 OA
ATOM     27  H   UNL     1       3.575  14.532  -5.882  1.00  0.00     0.293 HD
ENDBRANCH   8  26
TORSDOF 6
ENDMDL
MODEL 8
REMARK VINA RESULT:    -4.894      2.424      7.434
REMARK INTER + INTRA:          -5.842
REMARK INTER:                  -5.521
REMARK INTRA:                  -0.321
REMARK UNBOUND:                 0.053
REMARK SMILES O=c1c(O)c(-c2ccc(O)c(O)c2)oc2cc(O)cc(O)c12
REMARK SMILES IDX 5 1 3 2 2 3 1 4 22 5 20 6 19 7 17 8 16 9 15 10 14 11 6 12
REMARK SMILES IDX 7 13 8 14 9 15 13 16 11 17 10 18 12 20 4 22 21 24 18 26
REMARK H PARENT 10 19 12 21 4 23 21 25 18 27
REMARK Flexibility Score: inf
ROOT
ATOM      1  C   UNL     1       1.346   5.852  -6.377  1.00  0.00     0.180 A 
ATOM      2  C   UNL     1       1.592   5.507  -7.717  1.00  0.00     0.208 A 
ATOM      3  C   UNL     1       0.911   4.413  -8.275  1.00  0.00     0.238 A 
ATOM      4  O   UNL     1       1.175   4.076  -9.458  1.00  0.00    -0.285 OA
ATOM      5  C   UNL     1      -0.021   3.689  -7.492  1.00  0.00     0.111 A 
ATOM      6  C   UNL     1      -0.797   2.590  -7.966  1.00  0.00     0.134 A 
ATOM      7  C   UNL     1      -1.590   1.865  -7.067  1.00  0.00     0.093 A 
ATOM      8  C   UNL     1      -1.684   2.242  -5.725  1.00  0.00     0.123 A 
ATOM      9  C   UNL     1      -0.977   3.350  -5.266  1.00  0.00     0.094 A 
ATOM     10  C   UNL     1      -0.149   4.070  -6.131  1.00  0.00     0.146 A 
ATOM     11  O   UNL     1       0.517   5.114  -5.649  1.00  0.00    -0.452 OA
ENDROOT
BRANCH   1  12
ATOM     12  C   UNL     1       2.007   7.007  -5.727  1.00  0.00     0.025 A 
ATOM     13  C   UNL     1       3.218   6.858  -5.028  1.00  0.00     0.016 A 
ATOM     14  C   UNL     1       3.836   7.967  -4.444  1.00  0.00     0.051 A 
ATOM     15  C   UNL     1       3.262   9.240  -4.559  1.00  0.00     0.157 A 
ATOM     16  C   UNL     1       1.447   8.288  -5.858  1.00  0.00     0.062 A 
ATOM     17  C   UNL     1       2.063   9.400  -5.272  1.00  0.00     0.158 A 
BRANCH  15  18
ATOM     18  O   UNL     1       3.881  10.343  -3.973  1.00  0.00    -0.504 OA
ATOM     19  H   UNL     1       4.870  10.525  -4.097  1.00  0.00     0.293 HD
ENDBRANCH  15  18
BRANCH  17  20
ATOM     20  O   UNL     1       1.470  10.655  -5.412  1.00  0.00    -0.504 OA
ATOM     21  H   UNL     1       1.259  11.053  -6.319  1.00  0.00     0.293 HD
ENDBRANCH  17  20
ENDBRANCH   1  12
BRANCH   2  22
ATOM     22  O   UNL     1       2.531   6.221  -8.466  1.00  0.00    -0.502 OA
ATOM     23  H   UNL     1       3.386   6.585  -8.062  1.00  0.00     0.293 HD
ENDBRANCH   2  22
BRANCH   6  24
ATOM     24  O   UNL     1      -0.846   2.188  -9.304  1.00  0.00    -0.507 OA
ATOM     25  H   UNL     1      -0.221   2.516 -10.025  1.00  0.00     0.293 HD
ENDBRANCH   6  24
BRANCH   8  26
ATOM     26  O   UNL     1      -2.488   1.525  -4.841  1.00  0.00    -0.508 OA
ATOM     27  H   UNL     1      -2.380   0.525  -4.718  1.00  0.00     0.293 HD
ENDBRANCH   8  26
TORSDOF 6
ENDMDL
