MODEL 1
REMARK VINA RESULT:    -4.372      0.000      0.000
REMARK INTER + INTRA:          -4.372
REMARK INTER:                  -4.372
REMARK INTRA:                   0.000
REMARK UNBOUND:                 0.000
REMARK SMILES O=c1ccc2ccccc2o1
REMARK SMILES IDX 7 1 8 2 9 3 10 4 5 5 6 6 4 7 3 8 2 9 1 10 11 11
REMARK H PARENT
REMARK Flexibility Score: inf
ROOT
ATOM      1  C   UNL     1       2.261  -5.378   4.887  1.00  0.00     0.001 A 
ATOM      2  C   UNL     1       2.152  -6.747   4.615  1.00  0.00     0.004 A 
ATOM      3  C   UNL     1       1.739  -7.182   3.351  1.00  0.00     0.048 A 
ATOM      4  C   UNL     1       1.433  -6.249   2.354  1.00  0.00     0.138 A 
ATOM      5  C   UNL     1       1.543  -4.867   2.627  1.00  0.00     0.018 A 
ATOM      6  C   UNL     1       1.958  -4.437   3.897  1.00  0.00     0.012 A 
ATOM      7  C   UNL     1       1.231  -3.960   1.612  1.00  0.00     0.019 A 
ATOM      8  C   UNL     1       0.823  -4.440   0.367  1.00  0.00     0.094 A 
ATOM      9  C   UNL     1       0.737  -5.822   0.167  1.00  0.00     0.336 A 
ATOM     10  O   UNL     1       0.371  -6.274  -0.949  1.00  0.00    -0.246 OA
ATOM     11  O   UNL     1       1.040  -6.665   1.152  1.00  0.00    -0.423 OA
ENDROOT
TORSDOF 0
ENDMDL
MODEL 2
REMARK VINA RESULT:    -3.585      2.071      4.413
REMARK INTER + INTRA:          -3.585
REMARK INTER:                  -3.585
REMARK INTRA:                   0.000
REMARK UNBOUND:                 0.000
REMARK SMILES O=c1ccc2ccccc2o1
REMARK SMILES IDX 7 1 8 2 9 3 10 4 5 5 6 6 4 7 3 8 2 9 1 10 11 11
REMARK H PARENT
REMARK Flexibility Score: inf
ROOT
ATOM      1  C   UNL     1       0.784  -5.921   0.256  1.00  0.00     0.001 A 
ATOM      2  C   UNL     1       0.884  -4.530   0.369  1.00  0.00     0.004 A 
ATOM      3  C   UNL     1       1.288  -3.950   1.577  1.00  0.00     0.048 A 
ATOM      4  C   UNL     1       1.593  -4.760   2.676  1.00  0.00     0.138 A 
ATOM      5  C   UNL     1       1.491  -6.165   2.563  1.00  0.00     0.018 A 
ATOM      6  C   UNL     1       1.086  -6.741   1.350  1.00  0.00     0.012 A 
ATOM      7  C   UNL     1       1.801  -6.948   3.678  1.00  0.00     0.019 A 
ATOM      8  C   UNL     1       2.200  -6.326   4.861  1.00  0.00     0.094 A 
ATOM      9  C   UNL     1       2.277  -4.930   4.901  1.00  0.00     0.336 A 
ATOM     10  O   UNL     1       2.634  -4.350   5.960  1.00  0.00    -0.246 OA
ATOM     11  O   UNL     1       1.976  -4.207   3.824  1.00  0.00    -0.423 OA
ENDROOT
TORSDOF 0
ENDMDL
MODEL 3
REMARK VINA RESULT:    -3.521      1.477      3.832
REMARK INTER + INTRA:          -3.521
REMARK INTER:                  -3.521
REMARK INTRA:                   0.000
REMARK UNBOUND:                 0.000
REMARK SMILES O=c1ccc2ccccc2o1
REMARK SMILES IDX 7 1 8 2 9 3 10 4 5 5 6 6 4 7 3 8 2 9 1 10 11 11
REMARK H PARENT
REMARK Flexibility Score: inf
ROOT
ATOM      1  C   UNL     1       0.715  -4.401  -0.749  1.00  0.00     0.001 A 
ATOM      2  C   UNL     1       0.516  -5.786  -0.769  1.00  0.00     0.004 A 
ATOM      3  C   UNL     1       0.717  -6.543   0.390  1.00  0.00     0.048 A 
ATOM      4  C   UNL     1       1.116  -5.917   1.576  1.00  0.00     0.138 A 
ATOM      5  C   UNL     1       1.318  -4.518   1.597  1.00  0.00     0.018 A 
ATOM      6  C   UNL     1       1.115  -3.765   0.432  1.00  0.00     0.012 A 
ATOM      7  C   UNL     1       1.717  -3.921   2.796  1.00  0.00     0.019 A 
ATOM      8  C   UNL     1       1.904  -4.715   3.927  1.00  0.00     0.094 A 
ATOM      9  C   UNL     1       1.687  -6.094   3.832  1.00  0.00     0.336 A 
ATOM     10  O   UNL     1       1.851  -6.828   4.842  1.00  0.00    -0.246 OA
ATOM     11  O   UNL     1       1.307  -6.638   2.678  1.00  0.00    -0.423 OA
ENDROOT
TORSDOF 0
ENDMDL
MODEL 4
REMARK VINA RESULT:    -3.396      1.158      2.102
REMARK INTER + INTRA:          -3.396
REMARK INTER:                  -3.396
REMARK INTRA:                   0.000
REMARK UNBOUND:                 0.000
REMARK SMILES O=c1ccc2ccccc2o1
REMARK SMILES IDX 7 1 8 2 9 3 10 4 5 5 6 6 4 7 3 8 2 9 1 10 11 11
REMARK H PARENT
REMARK Flexibility Score: inf
ROOT
ATOM      1  C   UNL     1       2.223  -6.196   4.872  1.00  0.00     0.001 A 
ATOM      2  C   UNL     1       2.235  -4.797   4.871  1.00  0.00     0.004 A 
ATOM      3  C   UNL     1       1.875  -4.092   3.717  1.00  0.00     0.048 A 
ATOM      4  C   UNL     1       1.502  -4.784   2.560  1.00  0.00     0.138 A 
ATOM      5  C   UNL     1       1.491  -6.197   2.561  1.00  0.00     0.018 A 
ATOM      6  C   UNL     1       1.852  -6.899   3.720  1.00  0.00     0.012 A 
ATOM      7  C   UNL     1       1.114  -6.861   1.390  1.00  0.00     0.019 A 
ATOM      8  C   UNL     1       0.763  -6.116   0.264  1.00  0.00     0.094 A 
ATOM      9  C   UNL     1       0.798  -4.719   0.336  1.00  0.00     0.336 A 
ATOM     10  O   UNL     1       0.484  -4.030  -0.670  1.00  0.00    -0.246 OA
ATOM     11  O   UNL     1       1.160  -4.112   1.464  1.00  0.00    -0.423 OA
ENDROOT
TORSDOF 0
ENDMDL
MODEL 5
REMARK VINA RESULT:    -3.159      2.332      3.645
REMARK INTER + INTRA:          -3.159
REMARK INTER:                  -3.159
REMARK INTRA:                   0.000
REMARK UNBOUND:                 0.000
REMARK SMILES O=c1ccc2ccccc2o1
REMARK SMILES IDX 7 1 8 2 9 3 10 4 5 5 6 6 4 7 3 8 2 9 1 10 11 11
REMARK H PARENT
REMARK Flexibility Score: inf
ROOT
ATOM      1  C   UNL     1       3.546  -8.976   3.293  1.00  0.00     0.001 A 
ATOM      2  C   UNL     1       2.385  -8.953   2.512  1.00  0.00     0.004 A 
ATOM      3  C   UNL     1       1.565  -7.820   2.504  1.00  0.00     0.048 A 
ATOM      4  C   UNL     1       1.903  -6.704   3.278  1.00  0.00     0.138 A 
ATOM      5  C   UNL     1       3.075  -6.727   4.068  1.00  0.00     0.018 A 
ATOM      6  C   UNL     1       3.893  -7.866   4.071  1.00  0.00     0.012 A 
ATOM      7  C   UNL     1       3.386  -5.598   4.830  1.00  0.00     0.019 A 
ATOM      8  C   UNL     1       2.539  -4.490   4.791  1.00  0.00     0.094 A 
ATOM      9  C   UNL     1       1.395  -4.539   3.987  1.00  0.00     0.336 A 
ATOM     10  O   UNL     1       0.618  -3.550   3.938  1.00  0.00    -0.246 OA
ATOM     11  O   UNL     1       1.122  -5.627   3.269  1.00  0.00    -0.423 OA
ENDROOT
TORSDOF 0
ENDMDL
MODEL 6
REMARK VINA RESULT:    -2.891      2.904      4.113
REMARK INTER + INTRA:          -2.891
REMARK INTER:                  -2.891
REMARK INTRA:                   0.000
REMARK UNBOUND:                 0.000
REMARK SMILES O=c1ccc2ccccc2o1
REMARK SMILES IDX 7 1 8 2 9 3 10 4 5 5 6 6 4 7 3 8 2 9 1 10 11 11
REMARK H PARENT
REMARK Flexibility Score: inf
ROOT
ATOM      1  C   UNL     1       1.884  -8.776   2.285  1.00  0.00     0.001 A 
ATOM      2  C   UNL     1       3.075  -9.079   2.953  1.00  0.00     0.004 A 
ATOM      3  C   UNL     1       3.678  -8.127   3.783  1.00  0.00     0.048 A 
ATOM      4  C   UNL     1       3.092  -6.868   3.947  1.00  0.00     0.138 A 
ATOM      5  C   UNL     1       1.889  -6.561   3.272  1.00  0.00     0.018 A 
ATOM      6  C   UNL     1       1.289  -7.519   2.441  1.00  0.00     0.012 A 
ATOM      7  C   UNL     1       1.327  -5.295   3.455  1.00  0.00     0.019 A 
ATOM      8  C   UNL     1       1.963  -4.378   4.292  1.00  0.00     0.094 A 
ATOM      9  C   UNL     1       3.152  -4.751   4.927  1.00  0.00     0.336 A 
ATOM     10  O   UNL     1       3.741  -3.937   5.686  1.00  0.00    -0.246 OA
ATOM     11  O   UNL     1       3.666  -5.964   4.736  1.00  0.00    -0.423 OA
ENDROOT
TORSDOF 0
ENDMDL
MODEL 7
REMARK VINA RESULT:    -2.839      1.790      3.516
REMARK INTER + INTRA:          -2.839
REMARK INTER:                  -2.839
REMARK INTRA:                   0.000
REMARK UNBOUND:                 0.000
REMARK SMILES O=c1ccc2ccccc2o1
REMARK SMILES IDX 7 1 8 2 9 3 10 4 5 5 6 6 4 7 3 8 2 9 1 10 11 11
REMARK H PARENT
REMARK Flexibility Score: inf
ROOT
ATOM      1  C   UNL     1       1.728  -4.080   4.232  1.00  0.00     0.001 A 
ATOM      2  C   UNL     1       0.959  -4.321   3.088  1.00  0.00     0.004 A 
ATOM      3  C   UNL     1       1.020  -5.564   2.449  1.00  0.00     0.048 A 
ATOM      4  C   UNL     1       1.850  -6.572   2.953  1.00  0.00     0.138 A 
ATOM      5  C   UNL     1       2.627  -6.329   4.108  1.00  0.00     0.018 A 
ATOM      6  C   UNL     1       2.563  -5.080   4.744  1.00  0.00     0.012 A 
ATOM      7  C   UNL     1       3.447  -7.354   4.587  1.00  0.00     0.019 A 
ATOM      8  C   UNL     1       3.475  -8.577   3.918  1.00  0.00     0.094 A 
ATOM      9  C   UNL     1       2.679  -8.747   2.780  1.00  0.00     0.336 A 
ATOM     10  O   UNL     1       2.691  -9.843   2.162  1.00  0.00    -0.246 OA
ATOM     11  O   UNL     1       1.907  -7.754   2.344  1.00  0.00    -0.423 OA
ENDROOT
TORSDOF 0
ENDMDL
MODEL 8
REMARK VINA RESULT:    -2.580     14.005     15.124
REMARK INTER + INTRA:          -2.580
REMARK INTER:                  -2.580
REMARK INTRA:                   0.000
REMARK UNBOUND:                 0.000
REMARK SMILES O=c1ccc2ccccc2o1
REMARK SMILES IDX 7 1 8 2 9 3 10 4 5 5 6 6 4 7 3 8 2 9 1 10 11 11
REMARK H PARENT
REMARK Flexibility Score: inf
ROOT
ATOM      1  C   UNL     1       3.649   8.115   4.125  1.00  0.00     0.001 A 
ATOM      2  C   UNL     1       3.691   9.462   4.502  1.00  0.00     0.004 A 
ATOM      3  C   UNL     1       2.516  10.125   4.874  1.00  0.00     0.048 A 
ATOM      4  C   UNL     1       1.295   9.442   4.870  1.00  0.00     0.138 A 
ATOM      5  C   UNL     1       1.252   8.082   4.489  1.00  0.00     0.018 A 
ATOM      6  C   UNL     1       2.433   7.423   4.116  1.00  0.00     0.012 A 
ATOM      7  C   UNL     1       0.017   7.428   4.494  1.00  0.00     0.019 A 
ATOM      8  C   UNL     1      -1.128   8.129   4.873  1.00  0.00     0.094 A 
ATOM      9  C   UNL     1      -1.010   9.474   5.238  1.00  0.00     0.336 A 
ATOM     10  O   UNL     1      -2.031  10.124   5.583  1.00  0.00    -0.246 OA
ATOM     11  O   UNL     1       0.179  10.074   5.225  1.00  0.00    -0.423 OA
ENDROOT
TORSDOF 0
ENDMDL
