MODEL 1
REMARK VINA RESULT:    -4.812      0.000      0.000
REMARK INTER + INTRA:          -4.952
REMARK INTER:                  -4.952
REMARK INTRA:                   0.000
REMARK UNBOUND:                 0.000
REMARK SMILES Cc1ccccc1O
REMARK SMILES IDX 1 1 2 2 3 3 4 4 5 5 6 6 7 7 8 8
REMARK H PARENT 8 9
REMARK Flexibility Score: inf
ROOT
ATOM      1  C   UNL     1      32.766 -11.973  43.018  1.00  0.00     0.048 C 
ATOM      2  C   UNL     1      32.155 -13.084  42.209  1.00  0.00    -0.009 A 
ATOM      3  C   UNL     1      32.588 -14.408  42.408  1.00  0.00     0.007 A 
ATOM      4  C   UNL     1      32.032 -15.454  41.667  1.00  0.00     0.001 A 
ATOM      5  C   UNL     1      31.040 -15.192  40.721  1.00  0.00     0.004 A 
ATOM      6  C   UNL     1      30.601 -13.883  40.514  1.00  0.00     0.046 A 
ATOM      7  C   UNL     1      31.149 -12.824  41.249  1.00  0.00     0.118 A 
ENDROOT
BRANCH   7   8
ATOM      8  O   UNL     1      30.676 -11.533  41.005  1.00  0.00    -0.508 OA
ATOM      9  H   UNL     1      31.030 -10.716  41.485  1.00  0.00     0.293 HD
ENDBRANCH   7   8
TORSDOF 1
ENDMDL
MODEL 2
REMARK VINA RESULT:    -4.651      0.859      2.605
REMARK INTER + INTRA:          -4.787
REMARK INTER:                  -4.787
REMARK INTRA:                   0.000
REMARK UNBOUND:                 0.000
REMARK SMILES Cc1ccccc1O
REMARK SMILES IDX 1 1 2 2 3 3 4 4 5 5 6 6 7 7 8 8
REMARK H PARENT 8 9
REMARK Flexibility Score: inf
ROOT
ATOM      1  C   UNL     1      30.571 -15.183  39.821  1.00  0.00     0.048 C 
ATOM      2  C   UNL     1      31.398 -14.720  40.989  1.00  0.00    -0.009 A 
ATOM      3  C   UNL     1      32.143 -15.658  41.728  1.00  0.00     0.007 A 
ATOM      4  C   UNL     1      32.917 -15.248  42.816  1.00  0.00     0.001 A 
ATOM      5  C   UNL     1      32.957 -13.901  43.179  1.00  0.00     0.004 A 
ATOM      6  C   UNL     1      32.224 -12.960  42.454  1.00  0.00     0.046 A 
ATOM      7  C   UNL     1      31.443 -13.356  41.361  1.00  0.00     0.118 A 
ENDROOT
BRANCH   7   8
ATOM      8  O   UNL     1      30.727 -12.377  40.668  1.00  0.00    -0.508 OA
ATOM      9  H   UNL     1      31.151 -11.769  39.980  1.00  0.00     0.293 HD
ENDBRANCH   7   8
TORSDOF 1
ENDMDL
MODEL 3
REMARK VINA RESULT:    -4.566      1.494      2.327
REMARK INTER + INTRA:          -4.699
REMARK INTER:                  -4.699
REMARK INTRA:                   0.000
REMARK UNBOUND:                 0.000
REMARK SMILES Cc1ccccc1O
REMARK SMILES IDX 1 1 2 2 3 3 4 4 5 5 6 6 7 7 8 8
REMARK H PARENT 8 9
REMARK Flexibility Score: inf
ROOT
ATOM      1  C   UNL     1      33.940 -15.454  43.278  1.00  0.00     0.048 C 
ATOM      2  C   UNL     1      32.818 -14.885  42.455  1.00  0.00    -0.009 A 
ATOM      3  C   UNL     1      32.070 -15.733  41.617  1.00  0.00     0.007 A 
ATOM      4  C   UNL     1      31.024 -15.222  40.845  1.00  0.00     0.001 A 
ATOM      5  C   UNL     1      30.712 -13.863  40.898  1.00  0.00     0.004 A 
ATOM      6  C   UNL     1      31.446 -13.010  41.725  1.00  0.00     0.046 A 
ATOM      7  C   UNL     1      32.498 -13.507  42.506  1.00  0.00     0.118 A 
ENDROOT
BRANCH   7   8
ATOM      8  O   UNL     1      33.201 -12.614  43.316  1.00  0.00    -0.508 OA
ATOM      9  H   UNL     1      32.752 -11.878  43.844  1.00  0.00     0.293 HD
ENDBRANCH   7   8
TORSDOF 1
ENDMDL
MODEL 4
REMARK VINA RESULT:    -4.515      1.146      1.451
REMARK INTER + INTRA:          -4.647
REMARK INTER:                  -4.647
REMARK INTRA:                   0.000
REMARK UNBOUND:                 0.000
REMARK SMILES Cc1ccccc1O
REMARK SMILES IDX 1 1 2 2 3 3 4 4 5 5 6 6 7 7 8 8
REMARK H PARENT 8 9
REMARK Flexibility Score: inf
ROOT
ATOM      1  C   UNL     1      31.914 -10.900  44.121  1.00  0.00     0.048 C 
ATOM      2  C   UNL     1      31.819 -11.969  43.068  1.00  0.00    -0.009 A 
ATOM      3  C   UNL     1      32.712 -13.056  43.099  1.00  0.00     0.007 A 
ATOM      4  C   UNL     1      32.640 -14.059  42.129  1.00  0.00     0.001 A 
ATOM      5  C   UNL     1      31.679 -13.989  41.120  1.00  0.00     0.004 A 
ATOM      6  C   UNL     1      30.787 -12.916  41.077  1.00  0.00     0.046 A 
ATOM      7  C   UNL     1      30.847 -11.903  42.043  1.00  0.00     0.118 A 
ENDROOT
BRANCH   7   8
ATOM      8  O   UNL     1      29.932 -10.851  41.957  1.00  0.00    -0.508 OA
ATOM      9  H   UNL     1      29.257 -10.768  41.209  1.00  0.00     0.293 HD
ENDBRANCH   7   8
TORSDOF 1
ENDMDL
MODEL 5
REMARK VINA RESULT:    -4.473      1.964      2.861
REMARK INTER + INTRA:          -4.603
REMARK INTER:                  -4.603
REMARK INTRA:                   0.000
REMARK UNBOUND:                 0.000
REMARK SMILES Cc1ccccc1O
REMARK SMILES IDX 1 1 2 2 3 3 4 4 5 5 6 6 7 7 8 8
REMARK H PARENT 8 9
REMARK Flexibility Score: inf
ROOT
ATOM      1  C   UNL     1      30.654 -10.099  43.504  1.00  0.00     0.048 C 
ATOM      2  C   UNL     1      31.173 -11.373  42.895  1.00  0.00    -0.009 A 
ATOM      3  C   UNL     1      30.312 -12.175  42.123  1.00  0.00     0.007 A 
ATOM      4  C   UNL     1      30.775 -13.362  41.550  1.00  0.00     0.001 A 
ATOM      5  C   UNL     1      32.098 -13.762  41.740  1.00  0.00     0.004 A 
ATOM      6  C   UNL     1      32.963 -12.976  42.504  1.00  0.00     0.046 A 
ATOM      7  C   UNL     1      32.513 -11.783  43.085  1.00  0.00     0.118 A 
ENDROOT
BRANCH   7   8
ATOM      8  O   UNL     1      33.417 -11.032  43.840  1.00  0.00    -0.508 OA
ATOM      9  H   UNL     1      33.995 -11.433  44.566  1.00  0.00     0.293 HD
ENDBRANCH   7   8
TORSDOF 1
ENDMDL
MODEL 6
REMARK VINA RESULT:    -4.463      1.796      2.926
REMARK INTER + INTRA:          -4.593
REMARK INTER:                  -4.593
REMARK INTRA:                   0.000
REMARK UNBOUND:                 0.000
REMARK SMILES Cc1ccccc1O
REMARK SMILES IDX 1 1 2 2 3 3 4 4 5 5 6 6 7 7 8 8
REMARK H PARENT 8 9
REMARK Flexibility Score: inf
ROOT
ATOM      1  C   UNL     1      33.282 -14.690  43.205  1.00  0.00     0.048 C 
ATOM      2  C   UNL     1      32.441 -13.504  42.823  1.00  0.00    -0.009 A 
ATOM      3  C   UNL     1      32.857 -12.210  43.187  1.00  0.00     0.007 A 
ATOM      4  C   UNL     1      32.088 -11.096  42.841  1.00  0.00     0.001 A 
ATOM      5  C   UNL     1      30.899 -11.259  42.129  1.00  0.00     0.004 A 
ATOM      6  C   UNL     1      30.475 -12.537  41.761  1.00  0.00     0.046 A 
ATOM      7  C   UNL     1      31.235 -13.664  42.101  1.00  0.00     0.118 A 
ENDROOT
BRANCH   7   8
ATOM      8  O   UNL     1      30.768 -14.921  41.710  1.00  0.00    -0.508 OA
ATOM      9  H   UNL     1      31.205 -15.468  40.981  1.00  0.00     0.293 HD
ENDBRANCH   7   8
TORSDOF 1
ENDMDL
MODEL 7
REMARK VINA RESULT:    -4.435      1.848      3.573
REMARK INTER + INTRA:          -4.564
REMARK INTER:                  -4.564
REMARK INTRA:                   0.000
REMARK UNBOUND:                 0.000
REMARK SMILES Cc1ccccc1O
REMARK SMILES IDX 1 1 2 2 3 3 4 4 5 5 6 6 7 7 8 8
REMARK H PARENT 8 9
REMARK Flexibility Score: inf
ROOT
ATOM      1  C   UNL     1      31.796 -15.126  41.458  1.00  0.00     0.048 C 
ATOM      2  C   UNL     1      31.768 -13.691  41.908  1.00  0.00    -0.009 A 
ATOM      3  C   UNL     1      30.830 -12.806  41.347  1.00  0.00     0.007 A 
ATOM      4  C   UNL     1      30.788 -11.469  41.752  1.00  0.00     0.001 A 
ATOM      5  C   UNL     1      31.680 -11.002  42.718  1.00  0.00     0.004 A 
ATOM      6  C   UNL     1      32.616 -11.870  43.283  1.00  0.00     0.046 A 
ATOM      7  C   UNL     1      32.670 -13.213  42.887  1.00  0.00     0.118 A 
ENDROOT
BRANCH   7   8
ATOM      8  O   UNL     1      33.624 -14.042  43.482  1.00  0.00    -0.508 OA
ATOM      9  H   UNL     1      34.613 -13.833  43.478  1.00  0.00     0.293 HD
ENDBRANCH   7   8
TORSDOF 1
ENDMDL
MODEL 8
REMARK VINA RESULT:    -4.418      1.720      2.425
REMARK INTER + INTRA:          -4.547
REMARK INTER:                  -4.547
REMARK INTRA:                   0.000
REMARK UNBOUND:                 0.000
REMARK SMILES Cc1ccccc1O
REMARK SMILES IDX 1 1 2 2 3 3 4 4 5 5 6 6 7 7 8 8
REMARK H PARENT 8 9
REMARK Flexibility Score: inf
ROOT
ATOM      1  C   UNL     1      32.375 -11.546  43.237  1.00  0.00     0.048 C 
ATOM      2  C   UNL     1      31.993 -12.757  42.431  1.00  0.00    -0.009 A 
ATOM      3  C   UNL     1      30.990 -12.651  41.451  1.00  0.00     0.007 A 
ATOM      4  C   UNL     1      30.621 -13.764  40.692  1.00  0.00     0.001 A 
ATOM      5  C   UNL     1      31.247 -14.993  40.901  1.00  0.00     0.004 A 
ATOM      6  C   UNL     1      32.245 -15.113  41.871  1.00  0.00     0.046 A 
ATOM      7  C   UNL     1      32.625 -14.005  42.640  1.00  0.00     0.118 A 
ENDROOT
BRANCH   7   8
ATOM      8  O   UNL     1      33.628 -14.176  43.597  1.00  0.00    -0.508 OA
ATOM      9  H   UNL     1      34.533 -14.573  43.382  1.00  0.00     0.293 HD
ENDBRANCH   7   8
TORSDOF 1
ENDMDL
MODEL 9
REMARK VINA RESULT:    -4.377      1.866      2.958
REMARK INTER + INTRA:          -4.505
REMARK INTER:                  -4.505
REMARK INTRA:                   0.000
REMARK UNBOUND:                 0.000
REMARK SMILES Cc1ccccc1O
REMARK SMILES IDX 1 1 2 2 3 3 4 4 5 5 6 6 7 7 8 8
REMARK H PARENT 8 9
REMARK Flexibility Score: inf
ROOT
ATOM      1  C   UNL     1      30.631 -13.141  40.694  1.00  0.00     0.048 C 
ATOM      2  C   UNL     1      31.562 -13.974  41.532  1.00  0.00    -0.009 A 
ATOM      3  C   UNL     1      32.396 -13.346  42.476  1.00  0.00     0.007 A 
ATOM      4  C   UNL     1      33.267 -14.103  43.264  1.00  0.00     0.001 A 
ATOM      5  C   UNL     1      33.317 -15.490  43.119  1.00  0.00     0.004 A 
ATOM      6  C   UNL     1      32.495 -16.125  42.187  1.00  0.00     0.046 A 
ATOM      7  C   UNL     1      31.616 -15.380  41.389  1.00  0.00     0.118 A 
ENDROOT
BRANCH   7   8
ATOM      8  O   UNL     1      30.814 -16.062  40.471  1.00  0.00    -0.508 OA
ATOM      9  H   UNL     1      30.892 -17.056  40.304  1.00  0.00     0.293 HD
ENDBRANCH   7   8
TORSDOF 1
ENDMDL
