MODEL 1
REMARK VINA RESULT:    -4.216      0.000      0.000
REMARK INTER + INTRA:          -5.404
REMARK INTER:                  -5.202
REMARK INTRA:                  -0.203
REMARK UNBOUND:                -0.203
REMARK SMILES CCCCC=CC(C)=O
REMARK SMILES IDX 4 1 3 2 2 3 1 4 5 5 6 6 7 7 9 8 8 9
REMARK H PARENT
REMARK Flexibility Score: inf
ROOT
ATOM      1  C   UNL     1     -27.436  20.352 -34.503  1.00  0.00     0.027 C 
ENDROOT
BRANCH   1   2
ATOM      2  C   UNL     1     -28.452  19.525 -33.701  1.00  0.00     0.004 C 
BRANCH   2   3
ATOM      3  C   UNL     1     -27.843  18.231 -33.138  1.00  0.00    -0.003 C 
ATOM      4  C   UNL     1     -28.641  16.986 -33.525  1.00  0.00     0.004 C 
ENDBRANCH   2   3
ENDBRANCH   1   2
BRANCH   1   5
ATOM      5  C   UNL     1     -26.038  20.130 -34.001  1.00  0.00    -0.023 C 
ATOM      6  C   UNL     1     -25.038  19.820 -34.833  1.00  0.00     0.042 C 
BRANCH   6   7
ATOM      7  C   UNL     1     -23.661  19.586 -34.359  1.00  0.00     0.152 C 
ATOM      8  O   UNL     1     -22.940  18.698 -34.889  1.00  0.00    -0.295 OA
ATOM      9  C   UNL     1     -23.114  20.409 -33.239  1.00  0.00     0.093 C 
ENDBRANCH   6   7
ENDBRANCH   1   5
TORSDOF 4
ENDMDL
MODEL 2
REMARK VINA RESULT:    -4.215      2.469      4.519
REMARK INTER + INTRA:          -5.403
REMARK INTER:                  -5.174
REMARK INTRA:                  -0.228
REMARK UNBOUND:                -0.203
REMARK SMILES CCCCC=CC(C)=O
REMARK SMILES IDX 4 1 3 2 2 3 1 4 5 5 6 6 7 7 9 8 8 9
REMARK H PARENT
REMARK Flexibility Score: inf
ROOT
ATOM      1  C   UNL     1     -24.013  19.210 -34.465  1.00  0.00     0.027 C 
ENDROOT
BRANCH   1   2
ATOM      2  C   UNL     1     -22.859  19.994 -33.820  1.00  0.00     0.004 C 
BRANCH   2   3
ATOM      3  C   UNL     1     -22.599  19.569 -32.367  1.00  0.00    -0.003 C 
ATOM      4  C   UNL     1     -23.400  18.332 -31.961  1.00  0.00     0.004 C 
ENDBRANCH   2   3
ENDBRANCH   1   2
BRANCH   1   5
ATOM      5  C   UNL     1     -25.270  20.031 -34.504  1.00  0.00    -0.023 C 
ATOM      6  C   UNL     1     -26.392  19.620 -33.904  1.00  0.00     0.042 C 
BRANCH   6   7
ATOM      7  C   UNL     1     -27.640  20.404 -33.941  1.00  0.00     0.152 C 
ATOM      8  O   UNL     1     -28.694  19.916 -34.434  1.00  0.00    -0.295 OA
ATOM      9  C   UNL     1     -27.658  21.793 -33.391  1.00  0.00     0.093 C 
ENDBRANCH   6   7
ENDBRANCH   1   5
TORSDOF 4
ENDMDL
MODEL 3
REMARK VINA RESULT:    -4.053      2.417      4.965
REMARK INTER + INTRA:          -5.203
REMARK INTER:                  -5.016
REMARK INTRA:                  -0.187
REMARK UNBOUND:                -0.203
REMARK SMILES CCCCC=CC(C)=O
REMARK SMILES IDX 4 1 3 2 2 3 1 4 5 5 6 6 7 7 9 8 8 9
REMARK H PARENT
REMARK Flexibility Score: inf
ROOT
ATOM      1  C   UNL     1     -25.853  20.301 -33.879  1.00  0.00     0.027 C 
ENDROOT
BRANCH   1   2
ATOM      2  C   UNL     1     -24.875  19.664 -34.879  1.00  0.00     0.004 C 
BRANCH   2   3
ATOM      3  C   UNL     1     -23.506  19.362 -34.251  1.00  0.00    -0.003 C 
ATOM      4  C   UNL     1     -23.090  20.404 -33.214  1.00  0.00     0.004 C 
ENDBRANCH   2   3
ENDBRANCH   1   2
BRANCH   1   5
ATOM      5  C   UNL     1     -27.215  19.676 -33.981  1.00  0.00    -0.023 C 
ATOM      6  C   UNL     1     -27.481  18.486 -33.434  1.00  0.00     0.042 C 
BRANCH   6   7
ATOM      7  C   UNL     1     -28.808  17.850 -33.532  1.00  0.00     0.152 C 
ATOM      8  O   UNL     1     -29.847  18.548 -33.684  1.00  0.00    -0.295 OA
ATOM      9  C   UNL     1     -28.923  16.362 -33.449  1.00  0.00     0.093 C 
ENDBRANCH   6   7
ENDBRANCH   1   5
TORSDOF 4
ENDMDL
MODEL 4
REMARK VINA RESULT:    -4.046      6.088      7.684
REMARK INTER + INTRA:          -5.195
REMARK INTER:                  -4.917
REMARK INTRA:                  -0.277
REMARK UNBOUND:                -0.203
REMARK SMILES CCCCC=CC(C)=O
REMARK SMILES IDX 4 1 3 2 2 3 1 4 5 5 6 6 7 7 9 8 8 9
REMARK H PARENT
REMARK Flexibility Score: inf
ROOT
ATOM      1  C   UNL     1     -26.832  11.450 -29.218  1.00  0.00     0.027 C 
ENDROOT
BRANCH   1   2
ATOM      2  C   UNL     1     -27.943  12.161 -28.431  1.00  0.00     0.004 C 
BRANCH   2   3
ATOM      3  C   UNL     1     -29.348  11.786 -28.926  1.00  0.00    -0.003 C 
ATOM      4  C   UNL     1     -29.740  12.527 -30.204  1.00  0.00     0.004 C 
ENDBRANCH   2   3
ENDBRANCH   1   2
BRANCH   1   5
ATOM      5  C   UNL     1     -25.833  12.434 -29.755  1.00  0.00    -0.023 C 
ATOM      6  C   UNL     1     -26.163  13.709 -29.985  1.00  0.00     0.042 C 
BRANCH   6   7
ATOM      7  C   UNL     1     -25.201  14.689 -30.524  1.00  0.00     0.152 C 
ATOM      8  O   UNL     1     -24.065  14.321 -30.930  1.00  0.00    -0.295 OA
ATOM      9  C   UNL     1     -25.575  16.134 -30.587  1.00  0.00     0.093 C 
ENDBRANCH   6   7
ENDBRANCH   1   5
TORSDOF 4
ENDMDL
MODEL 5
REMARK VINA RESULT:    -3.934      6.370      8.549
REMARK INTER + INTRA:          -5.056
REMARK INTER:                  -4.857
REMARK INTRA:                  -0.199
REMARK UNBOUND:                -0.203
REMARK SMILES CCCCC=CC(C)=O
REMARK SMILES IDX 4 1 3 2 2 3 1 4 5 5 6 6 7 7 9 8 8 9
REMARK H PARENT
REMARK Flexibility Score: inf
ROOT
ATOM      1  C   UNL     1     -25.306  13.371 -29.854  1.00  0.00     0.027 C 
ENDROOT
BRANCH   1   2
ATOM      2  C   UNL     1     -24.750  14.504 -30.729  1.00  0.00     0.004 C 
BRANCH   2   3
ATOM      3  C   UNL     1     -25.591  15.787 -30.634  1.00  0.00    -0.003 C 
ATOM      4  C   UNL     1     -24.891  16.998 -31.251  1.00  0.00     0.004 C 
ENDBRANCH   2   3
ENDBRANCH   1   2
BRANCH   1   5
ATOM      5  C   UNL     1     -26.771  13.158 -30.108  1.00  0.00    -0.023 C 
ATOM      6  C   UNL     1     -27.560  12.574 -29.200  1.00  0.00     0.042 C 
BRANCH   6   7
ATOM      7  C   UNL     1     -28.997  12.345 -29.434  1.00  0.00     0.152 C 
ATOM      8  O   UNL     1     -29.640  11.515 -28.735  1.00  0.00    -0.295 OA
ATOM      9  C   UNL     1     -29.702  13.102 -30.513  1.00  0.00     0.093 C 
ENDBRANCH   6   7
ENDBRANCH   1   5
TORSDOF 4
ENDMDL
MODEL 6
REMARK VINA RESULT:    -3.782      1.192      2.215
REMARK INTER + INTRA:          -4.869
REMARK INTER:                  -4.845
REMARK INTRA:                  -0.024
REMARK UNBOUND:                -0.203
REMARK SMILES CCCCC=CC(C)=O
REMARK SMILES IDX 4 1 3 2 2 3 1 4 5 5 6 6 7 7 9 8 8 9
REMARK H PARENT
REMARK Flexibility Score: inf
ROOT
ATOM      1  C   UNL     1     -26.826  18.612 -33.439  1.00  0.00     0.027 C 
ENDROOT
BRANCH   1   2
ATOM      2  C   UNL     1     -28.111  19.396 -33.744  1.00  0.00     0.004 C 
BRANCH   2   3
ATOM      3  C   UNL     1     -27.826  20.810 -34.273  1.00  0.00    -0.003 C 
ATOM      4  C   UNL     1     -27.792  21.860 -33.164  1.00  0.00     0.004 C 
ENDBRANCH   2   3
ENDBRANCH   1   2
BRANCH   1   5
ATOM      5  C   UNL     1     -25.605  19.444 -33.711  1.00  0.00    -0.023 C 
ATOM      6  C   UNL     1     -24.389  19.051 -33.317  1.00  0.00     0.042 C 
BRANCH   6   7
ATOM      7  C   UNL     1     -23.180  19.859 -33.563  1.00  0.00     0.152 C 
ATOM      8  O   UNL     1     -22.362  19.535 -34.466  1.00  0.00    -0.295 OA
ATOM      9  C   UNL     1     -22.921  21.073 -32.732  1.00  0.00     0.093 C 
ENDBRANCH   6   7
ENDBRANCH   1   5
TORSDOF 4
ENDMDL
MODEL 7
REMARK VINA RESULT:    -3.663      3.436      4.045
REMARK INTER + INTRA:          -4.723
REMARK INTER:                  -4.551
REMARK INTRA:                  -0.171
REMARK UNBOUND:                -0.203
REMARK SMILES CCCCC=CC(C)=O
REMARK SMILES IDX 4 1 3 2 2 3 1 4 5 5 6 6 7 7 9 8 8 9
REMARK H PARENT
REMARK Flexibility Score: inf
ROOT
ATOM      1  C   UNL     1     -24.643  16.699 -31.140  1.00  0.00     0.027 C 
ENDROOT
BRANCH   1   2
ATOM      2  C   UNL     1     -26.010  16.077 -30.818  1.00  0.00     0.004 C 
BRANCH   2   3
ATOM      3  C   UNL     1     -25.909  14.587 -30.457  1.00  0.00    -0.003 C 
ATOM      4  C   UNL     1     -24.516  14.012 -30.708  1.00  0.00     0.004 C 
ENDBRANCH   2   3
ENDBRANCH   1   2
BRANCH   1   5
ATOM      5  C   UNL     1     -24.778  17.824 -32.125  1.00  0.00    -0.023 C 
ATOM      6  C   UNL     1     -23.710  18.494 -32.572  1.00  0.00     0.042 C 
BRANCH   6   7
ATOM      7  C   UNL     1     -23.821  19.608 -33.530  1.00  0.00     0.152 C 
ATOM      8  O   UNL     1     -22.979  20.548 -33.526  1.00  0.00    -0.295 OA
ATOM      9  C   UNL     1     -24.942  19.627 -34.517  1.00  0.00     0.093 C 
ENDBRANCH   6   7
ENDBRANCH   1   5
TORSDOF 4
ENDMDL
MODEL 8
REMARK VINA RESULT:    -3.634      7.979      9.611
REMARK INTER + INTRA:          -4.686
REMARK INTER:                  -4.383
REMARK INTRA:                  -0.302
REMARK UNBOUND:                -0.203
REMARK SMILES CCCCC=CC(C)=O
REMARK SMILES IDX 4 1 3 2 2 3 1 4 5 5 6 6 7 7 9 8 8 9
REMARK H PARENT
REMARK Flexibility Score: inf
ROOT
ATOM      1  C   UNL     1     -24.750  12.482 -29.652  1.00  0.00     0.027 C 
ENDROOT
BRANCH   1   2
ATOM      2  C   UNL     1     -24.672  10.968 -29.400  1.00  0.00     0.004 C 
BRANCH   2   3
ATOM      3  C   UNL     1     -24.665  10.621 -27.903  1.00  0.00    -0.003 C 
ATOM      4  C   UNL     1     -25.924   9.875 -27.464  1.00  0.00     0.004 C 
ENDBRANCH   2   3
ENDBRANCH   1   2
BRANCH   1   5
ATOM      5  C   UNL     1     -26.176  12.954 -29.673  1.00  0.00    -0.023 C 
ATOM      6  C   UNL     1     -27.137  12.251 -30.282  1.00  0.00     0.042 C 
BRANCH   6   7
ATOM      7  C   UNL     1     -28.540  12.702 -30.324  1.00  0.00     0.152 C 
ATOM      8  O   UNL     1     -28.861  13.749 -30.949  1.00  0.00    -0.295 OA
ATOM      9  C   UNL     1     -29.593  11.911 -29.619  1.00  0.00     0.093 C 
ENDBRANCH   6   7
ENDBRANCH   1   5
TORSDOF 4
ENDMDL
MODEL 9
REMARK VINA RESULT:    -3.564     11.240     12.766
REMARK INTER + INTRA:          -4.600
REMARK INTER:                  -4.326
REMARK INTRA:                  -0.274
REMARK UNBOUND:                -0.203
REMARK SMILES CCCCC=CC(C)=O
REMARK SMILES IDX 4 1 3 2 2 3 1 4 5 5 6 6 7 7 9 8 8 9
REMARK H PARENT
REMARK Flexibility Score: inf
ROOT
ATOM      1  C   UNL     1     -15.546  13.758 -32.824  1.00  0.00     0.027 C 
ENDROOT
BRANCH   1   2
ATOM      2  C   UNL     1     -14.115  13.782 -32.266  1.00  0.00     0.004 C 
BRANCH   2   3
ATOM      3  C   UNL     1     -13.478  15.178 -32.339  1.00  0.00    -0.003 C 
ATOM      4  C   UNL     1     -13.858  16.063 -31.153  1.00  0.00     0.004 C 
ENDBRANCH   2   3
ENDBRANCH   1   2
BRANCH   1   5
ATOM      5  C   UNL     1     -16.523  13.277 -31.789  1.00  0.00    -0.023 C 
ATOM      6  C   UNL     1     -16.285  13.423 -30.481  1.00  0.00     0.042 C 
BRANCH   6   7
ATOM      7  C   UNL     1     -17.224  12.948 -29.449  1.00  0.00     0.152 C 
ATOM      8  O   UNL     1     -16.871  12.876 -28.240  1.00  0.00    -0.295 OA
ATOM      9  C   UNL     1     -18.609  12.545 -29.839  1.00  0.00     0.093 C 
ENDBRANCH   6   7
ENDBRANCH   1   5
TORSDOF 4
ENDMDL
