MODEL 1
REMARK VINA RESULT:    -4.033      0.000      0.000
REMARK INTER + INTRA:          -5.086
REMARK INTER:                  -4.976
REMARK INTRA:                  -0.110
REMARK UNBOUND:                -0.110
REMARK SMILES CCCCC=CC(C)=O
REMARK SMILES IDX 4 1 3 2 2 3 1 4 5 5 6 6 7 7 9 8 8 9
REMARK H PARENT
REMARK Flexibility Score: inf
ROOT
ATOM      1  C   UNL     1       5.966 -14.093  21.881  1.00  0.00     0.027 C 
ENDROOT
BRANCH   1   2
ATOM      2  C   UNL     1       6.165 -14.528  20.424  1.00  0.00     0.004 C 
BRANCH   2   3
ATOM      3  C   UNL     1       6.075 -13.326  19.475  1.00  0.00    -0.003 C 
ATOM      4  C   UNL     1       6.517 -13.703  18.065  1.00  0.00     0.004 C 
ENDBRANCH   2   3
ENDBRANCH   1   2
BRANCH   1   5
ATOM      5  C   UNL     1       6.997 -14.711  22.780  1.00  0.00    -0.023 C 
ATOM      6  C   UNL     1       7.498 -14.046  23.828  1.00  0.00     0.042 C 
BRANCH   6   7
ATOM      7  C   UNL     1       8.520 -14.608  24.733  1.00  0.00     0.152 C 
ATOM      8  O   UNL     1       8.196 -14.871  25.922  1.00  0.00    -0.295 OA
ATOM      9  C   UNL     1       9.928 -14.877  24.289  1.00  0.00     0.093 C 
ENDBRANCH   6   7
ENDBRANCH   1   5
TORSDOF 4
ENDMDL
MODEL 2
REMARK VINA RESULT:    -3.928      1.829      2.107
REMARK INTER + INTRA:          -4.957
REMARK INTER:                  -4.779
REMARK INTRA:                  -0.178
REMARK UNBOUND:                -0.110
REMARK SMILES CCCCC=CC(C)=O
REMARK SMILES IDX 4 1 3 2 2 3 1 4 5 5 6 6 7 7 9 8 8 9
REMARK H PARENT
REMARK Flexibility Score: inf
ROOT
ATOM      1  C   UNL     1       6.266 -13.674  22.134  1.00  0.00     0.027 C 
ENDROOT
BRANCH   1   2
ATOM      2  C   UNL     1       5.572 -13.988  20.803  1.00  0.00     0.004 C 
BRANCH   2   3
ATOM      3  C   UNL     1       6.531 -14.693  19.836  1.00  0.00    -0.003 C 
ATOM      4  C   UNL     1       6.669 -13.916  18.531  1.00  0.00     0.004 C 
ENDBRANCH   2   3
ENDBRANCH   1   2
BRANCH   1   5
ATOM      5  C   UNL     1       6.738 -14.928  22.812  1.00  0.00    -0.023 C 
ATOM      6  C   UNL     1       6.103 -15.424  23.881  1.00  0.00     0.042 C 
BRANCH   6   7
ATOM      7  C   UNL     1       6.535 -16.647  24.586  1.00  0.00     0.152 C 
ATOM      8  O   UNL     1       6.617 -16.622  25.843  1.00  0.00    -0.295 OA
ATOM      9  C   UNL     1       6.880 -17.914  23.862  1.00  0.00     0.093 C 
ENDBRANCH   6   7
ENDBRANCH   1   5
TORSDOF 4
ENDMDL
MODEL 3
REMARK VINA RESULT:    -3.839      1.535      2.107
REMARK INTER + INTRA:          -4.847
REMARK INTER:                  -4.662
REMARK INTRA:                  -0.185
REMARK UNBOUND:                -0.110
REMARK SMILES CCCCC=CC(C)=O
REMARK SMILES IDX 4 1 3 2 2 3 1 4 5 5 6 6 7 7 9 8 8 9
REMARK H PARENT
REMARK Flexibility Score: inf
ROOT
ATOM      1  C   UNL     1       5.956 -13.810  20.196  1.00  0.00     0.027 C 
ENDROOT
BRANCH   1   2
ATOM      2  C   UNL     1       6.730 -14.946  19.517  1.00  0.00     0.004 C 
BRANCH   2   3
ATOM      3  C   UNL     1       7.503 -14.432  18.297  1.00  0.00    -0.003 C 
ATOM      4  C   UNL     1       6.568 -13.776  17.287  1.00  0.00     0.004 C 
ENDBRANCH   2   3
ENDBRANCH   1   2
BRANCH   1   5
ATOM      5  C   UNL     1       5.977 -13.954  21.691  1.00  0.00    -0.023 C 
ATOM      6  C   UNL     1       6.745 -14.869  22.293  1.00  0.00     0.042 C 
BRANCH   6   7
ATOM      7  C   UNL     1       6.791 -15.055  23.757  1.00  0.00     0.152 C 
ATOM      8  O   UNL     1       7.505 -14.276  24.443  1.00  0.00    -0.295 OA
ATOM      9  C   UNL     1       6.019 -16.134  24.456  1.00  0.00     0.093 C 
ENDBRANCH   6   7
ENDBRANCH   1   5
TORSDOF 4
ENDMDL
MODEL 4
REMARK VINA RESULT:    -3.698      1.619      2.676
REMARK INTER + INTRA:          -4.673
REMARK INTER:                  -4.511
REMARK INTRA:                  -0.162
REMARK UNBOUND:                -0.110
REMARK SMILES CCCCC=CC(C)=O
REMARK SMILES IDX 4 1 3 2 2 3 1 4 5 5 6 6 7 7 9 8 8 9
REMARK H PARENT
REMARK Flexibility Score: inf
ROOT
ATOM      1  C   UNL     1       7.292 -14.506  24.058  1.00  0.00     0.027 C 
ENDROOT
BRANCH   1   2
ATOM      2  C   UNL     1       6.959 -14.930  22.623  1.00  0.00     0.004 C 
BRANCH   2   3
ATOM      3  C   UNL     1       5.939 -13.975  21.990  1.00  0.00    -0.003 C 
ATOM      4  C   UNL     1       5.948 -14.089  20.469  1.00  0.00     0.004 C 
ENDBRANCH   2   3
ENDBRANCH   1   2
BRANCH   1   5
ATOM      5  C   UNL     1       8.776 -14.449  24.279  1.00  0.00    -0.023 C 
ATOM      6  C   UNL     1       9.598 -15.349  23.725  1.00  0.00     0.042 C 
BRANCH   6   7
ATOM      7  C   UNL     1      11.062 -15.340  23.922  1.00  0.00     0.152 C 
ATOM      8  O   UNL     1      11.560 -16.116  24.780  1.00  0.00    -0.295 OA
ATOM      9  C   UNL     1      11.974 -14.442  23.139  1.00  0.00     0.093 C 
ENDBRANCH   6   7
ENDBRANCH   1   5
TORSDOF 4
ENDMDL
MODEL 5
REMARK VINA RESULT:    -3.660      2.856      3.328
REMARK INTER + INTRA:          -4.626
REMARK INTER:                  -4.525
REMARK INTRA:                  -0.101
REMARK UNBOUND:                -0.110
REMARK SMILES CCCCC=CC(C)=O
REMARK SMILES IDX 4 1 3 2 2 3 1 4 5 5 6 6 7 7 9 8 8 9
REMARK H PARENT
REMARK Flexibility Score: inf
ROOT
ATOM      1  C   UNL     1       6.087 -15.490  24.006  1.00  0.00     0.027 C 
ENDROOT
BRANCH   1   2
ATOM      2  C   UNL     1       6.827 -14.923  22.789  1.00  0.00     0.004 C 
BRANCH   2   3
ATOM      3  C   UNL     1       5.918 -13.992  21.978  1.00  0.00    -0.003 C 
ATOM      4  C   UNL     1       6.019 -14.285  20.485  1.00  0.00     0.004 C 
ENDBRANCH   2   3
ENDBRANCH   1   2
BRANCH   1   5
ATOM      5  C   UNL     1       6.755 -16.733  24.520  1.00  0.00    -0.023 C 
ATOM      6  C   UNL     1       6.871 -16.971  25.832  1.00  0.00     0.042 C 
BRANCH   6   7
ATOM      7  C   UNL     1       7.529 -18.173  26.383  1.00  0.00     0.152 C 
ATOM      8  O   UNL     1       6.842 -18.976  27.068  1.00  0.00    -0.295 OA
ATOM      9  C   UNL     1       8.981 -18.471  26.157  1.00  0.00     0.093 C 
ENDBRANCH   6   7
ENDBRANCH   1   5
TORSDOF 4
ENDMDL
MODEL 6
REMARK VINA RESULT:    -3.589      2.856      5.278
REMARK INTER + INTRA:          -4.538
REMARK INTER:                  -4.357
REMARK INTRA:                  -0.181
REMARK UNBOUND:                -0.110
REMARK SMILES CCCCC=CC(C)=O
REMARK SMILES IDX 4 1 3 2 2 3 1 4 5 5 6 6 7 7 9 8 8 9
REMARK H PARENT
REMARK Flexibility Score: inf
ROOT
ATOM      1  C   UNL     1       6.730 -14.929  23.906  1.00  0.00     0.027 C 
ENDROOT
BRANCH   1   2
ATOM      2  C   UNL     1       5.995 -16.179  24.404  1.00  0.00     0.004 C 
BRANCH   2   3
ATOM      3  C   UNL     1       6.712 -17.456  23.949  1.00  0.00    -0.003 C 
ATOM      4  C   UNL     1       7.374 -18.166  25.125  1.00  0.00     0.004 C 
ENDBRANCH   2   3
ENDBRANCH   1   2
BRANCH   1   5
ATOM      5  C   UNL     1       7.016 -15.015  22.434  1.00  0.00    -0.023 C 
ATOM      6  C   UNL     1       6.195 -14.465  21.531  1.00  0.00     0.042 C 
BRANCH   6   7
ATOM      7  C   UNL     1       6.429 -14.533  20.074  1.00  0.00     0.152 C 
ATOM      8  O   UNL     1       6.904 -15.594  19.588  1.00  0.00    -0.295 OA
ATOM      9  C   UNL     1       6.123 -13.388  19.156  1.00  0.00     0.093 C 
ENDBRANCH   6   7
ENDBRANCH   1   5
TORSDOF 4
ENDMDL
MODEL 7
REMARK VINA RESULT:    -3.572      3.155      3.805
REMARK INTER + INTRA:          -4.517
REMARK INTER:                  -4.299
REMARK INTRA:                  -0.218
REMARK UNBOUND:                -0.110
REMARK SMILES CCCCC=CC(C)=O
REMARK SMILES IDX 4 1 3 2 2 3 1 4 5 5 6 6 7 7 9 8 8 9
REMARK H PARENT
REMARK Flexibility Score: inf
ROOT
ATOM      1  C   UNL     1       6.091 -15.438  23.986  1.00  0.00     0.027 C 
ENDROOT
BRANCH   1   2
ATOM      2  C   UNL     1       6.836 -14.804  22.806  1.00  0.00     0.004 C 
BRANCH   2   3
ATOM      3  C   UNL     1       5.887 -13.961  21.945  1.00  0.00    -0.003 C 
ATOM      4  C   UNL     1       6.015 -14.321  20.469  1.00  0.00     0.004 C 
ENDBRANCH   2   3
ENDBRANCH   1   2
BRANCH   1   5
ATOM      5  C   UNL     1       6.307 -16.923  24.033  1.00  0.00    -0.023 C 
ATOM      6  C   UNL     1       7.321 -17.502  23.379  1.00  0.00     0.042 C 
BRANCH   6   7
ATOM      7  C   UNL     1       7.567 -18.958  23.387  1.00  0.00     0.152 C 
ATOM      8  O   UNL     1       8.681 -19.380  23.795  1.00  0.00    -0.295 OA
ATOM      9  C   UNL     1       6.540 -19.949  22.927  1.00  0.00     0.093 C 
ENDBRANCH   6   7
ENDBRANCH   1   5
TORSDOF 4
ENDMDL
MODEL 8
REMARK VINA RESULT:    -3.561      3.569      5.799
REMARK INTER + INTRA:          -4.504
REMARK INTER:                  -4.355
REMARK INTRA:                  -0.149
REMARK UNBOUND:                -0.110
REMARK SMILES CCCCC=CC(C)=O
REMARK SMILES IDX 4 1 3 2 2 3 1 4 5 5 6 6 7 7 9 8 8 9
REMARK H PARENT
REMARK Flexibility Score: inf
ROOT
ATOM      1  C   UNL     1       5.568 -14.069  20.947  1.00  0.00     0.027 C 
ENDROOT
BRANCH   1   2
ATOM      2  C   UNL     1       6.744 -14.828  21.572  1.00  0.00     0.004 C 
BRANCH   2   3
ATOM      3  C   UNL     1       6.883 -14.497  23.063  1.00  0.00    -0.003 C 
ATOM      4  C   UNL     1       6.196 -15.548  23.928  1.00  0.00     0.004 C 
ENDBRANCH   2   3
ENDBRANCH   1   2
BRANCH   1   5
ATOM      5  C   UNL     1       5.946 -13.471  19.624  1.00  0.00    -0.023 C 
ATOM      6  C   UNL     1       6.693 -14.145  18.741  1.00  0.00     0.042 C 
BRANCH   6   7
ATOM      7  C   UNL     1       7.099 -13.594  17.433  1.00  0.00     0.152 C 
ATOM      8  O   UNL     1       6.503 -13.994  16.398  1.00  0.00    -0.295 OA
ATOM      9  C   UNL     1       8.194 -12.578  17.292  1.00  0.00     0.093 C 
ENDBRANCH   6   7
ENDBRANCH   1   5
TORSDOF 4
ENDMDL
MODEL 9
REMARK VINA RESULT:    -3.526      2.133      5.492
REMARK INTER + INTRA:          -4.460
REMARK INTER:                  -4.211
REMARK INTRA:                  -0.249
REMARK UNBOUND:                -0.110
REMARK SMILES CCCCC=CC(C)=O
REMARK SMILES IDX 4 1 3 2 2 3 1 4 5 5 6 6 7 7 9 8 8 9
REMARK H PARENT
REMARK Flexibility Score: inf
ROOT
ATOM      1  C   UNL     1      10.282 -14.889  24.058  1.00  0.00     0.027 C 
ENDROOT
BRANCH   1   2
ATOM      2  C   UNL     1      10.844 -16.148  24.727  1.00  0.00     0.004 C 
BRANCH   2   3
ATOM      3  C   UNL     1      10.312 -16.295  26.158  1.00  0.00    -0.003 C 
ATOM      4  C   UNL     1       9.461 -17.552  26.304  1.00  0.00     0.004 C 
ENDBRANCH   2   3
ENDBRANCH   1   2
BRANCH   1   5
ATOM      5  C   UNL     1       8.920 -15.142  23.477  1.00  0.00    -0.023 C 
ATOM      6  C   UNL     1       7.835 -14.514  23.946  1.00  0.00     0.042 C 
BRANCH   6   7
ATOM      7  C   UNL     1       6.475 -14.737  23.415  1.00  0.00     0.152 C 
ATOM      8  O   UNL     1       5.706 -15.520  24.034  1.00  0.00    -0.295 OA
ATOM      9  C   UNL     1       5.978 -14.068  22.168  1.00  0.00     0.093 C 
ENDBRANCH   6   7
ENDBRANCH   1   5
TORSDOF 4
ENDMDL
