MODEL 1
REMARK VINA RESULT:    -4.227      0.000      0.000
REMARK INTER + INTRA:          -4.495
REMARK INTER:                  -4.474
REMARK INTRA:                  -0.021
REMARK UNBOUND:                -0.021
REMARK SMILES O=C([O-])c1cccnc1
REMARK SMILES IDX 4 1 5 2 9 3 6 4 8 5 7 6 2 7 1 8 3 9
REMARK H PARENT
REMARK Flexibility Score: inf
ROOT
ATOM      1  C   UNL     1      32.425  13.197  15.785  1.00  0.00     0.016 A 
ATOM      2  C   UNL     1      33.640  13.152  15.080  1.00  0.00     0.013 A 
ATOM      3  C   UNL     1      32.241  14.216  16.735  1.00  0.00     0.120 A 
ATOM      4  C   UNL     1      34.631  14.104  15.329  1.00  0.00     0.021 A 
ATOM      5  N   UNL     1      33.223  15.131  16.959  1.00  0.00    -0.264 NA
ATOM      6  C   UNL     1      34.401  15.097  16.282  1.00  0.00     0.111 A 
ENDROOT
BRANCH   1   7
ATOM      7  C   UNL     1      31.364  12.197  15.535  1.00  0.00     0.073 C 
ATOM      8  O   UNL     1      30.603  11.826  16.467  1.00  0.00    -0.545 OA
ATOM      9  O   UNL     1      31.194  11.654  14.267  1.00  0.00    -0.545 OA
ENDBRANCH   1   7
TORSDOF 1
ENDMDL
MODEL 2
REMARK VINA RESULT:    -4.121      2.793      3.813
REMARK INTER + INTRA:          -4.383
REMARK INTER:                  -4.365
REMARK INTRA:                  -0.018
REMARK UNBOUND:                -0.021
REMARK SMILES O=C([O-])c1cccnc1
REMARK SMILES IDX 4 1 5 2 9 3 6 4 8 5 7 6 2 7 1 8 3 9
REMARK H PARENT
REMARK Flexibility Score: inf
ROOT
ATOM      1  C   UNL     1      32.697  13.648  15.143  1.00  0.00     0.016 A 
ATOM      2  C   UNL     1      32.532  12.254  15.079  1.00  0.00     0.013 A 
ATOM      3  C   UNL     1      31.668  14.466  14.646  1.00  0.00     0.120 A 
ATOM      4  C   UNL     1      31.368  11.710  14.533  1.00  0.00     0.021 A 
ATOM      5  N   UNL     1      30.544  13.910  14.118  1.00  0.00    -0.264 NA
ATOM      6  C   UNL     1      30.374  12.564  14.053  1.00  0.00     0.111 A 
ENDROOT
BRANCH   1   7
ATOM      7  C   UNL     1      33.923  14.242  15.718  1.00  0.00     0.073 C 
ATOM      8  O   UNL     1      35.056  13.953  15.250  1.00  0.00    -0.545 OA
ATOM      9  O   UNL     1      33.840  15.130  16.786  1.00  0.00    -0.545 OA
ENDBRANCH   1   7
TORSDOF 1
ENDMDL
MODEL 3
REMARK VINA RESULT:    -4.078      7.406      8.072
REMARK INTER + INTRA:          -4.337
REMARK INTER:                  -4.321
REMARK INTRA:                  -0.016
REMARK UNBOUND:                -0.021
REMARK SMILES O=C([O-])c1cccnc1
REMARK SMILES IDX 4 1 5 2 9 3 6 4 8 5 7 6 2 7 1 8 3 9
REMARK H PARENT
REMARK Flexibility Score: inf
ROOT
ATOM      1  C   UNL     1      36.128  18.772  11.778  1.00  0.00     0.016 A 
ATOM      2  C   UNL     1      37.042  18.762  12.845  1.00  0.00     0.013 A 
ATOM      3  C   UNL     1      36.584  18.394  10.504  1.00  0.00     0.120 A 
ATOM      4  C   UNL     1      38.368  18.382  12.629  1.00  0.00     0.021 A 
ATOM      5  N   UNL     1      37.881  18.028  10.320  1.00  0.00    -0.264 NA
ATOM      6  C   UNL     1      38.773  18.014  11.345  1.00  0.00     0.111 A 
ENDROOT
BRANCH   1   7
ATOM      7  C   UNL     1      34.719  19.171  11.988  1.00  0.00     0.073 C 
ATOM      8  O   UNL     1      33.843  18.309  12.261  1.00  0.00    -0.545 OA
ATOM      9  O   UNL     1      34.344  20.506  11.885  1.00  0.00    -0.545 OA
ENDBRANCH   1   7
TORSDOF 1
ENDMDL
MODEL 4
REMARK VINA RESULT:    -4.050      8.456      9.395
REMARK INTER + INTRA:          -4.308
REMARK INTER:                  -4.286
REMARK INTRA:                  -0.022
REMARK UNBOUND:                -0.021
REMARK SMILES O=C([O-])c1cccnc1
REMARK SMILES IDX 4 1 5 2 9 3 6 4 8 5 7 6 2 7 1 8 3 9
REMARK H PARENT
REMARK Flexibility Score: inf
ROOT
ATOM      1  C   UNL     1      38.403  18.240  10.749  1.00  0.00     0.016 A 
ATOM      2  C   UNL     1      38.705  18.415  12.110  1.00  0.00     0.013 A 
ATOM      3  C   UNL     1      37.063  18.359  10.341  1.00  0.00     0.120 A 
ATOM      4  C   UNL     1      37.688  18.700  13.023  1.00  0.00     0.021 A 
ATOM      5  N   UNL     1      36.091  18.637  11.252  1.00  0.00    -0.264 NA
ATOM      6  C   UNL     1      36.373  18.809  12.570  1.00  0.00     0.111 A 
ENDROOT
BRANCH   1   7
ATOM      7  C   UNL     1      39.466  17.938   9.767  1.00  0.00     0.073 C 
ATOM      8  O   UNL     1      40.641  18.355   9.946  1.00  0.00    -0.545 OA
ATOM      9  O   UNL     1      39.181  17.190   8.630  1.00  0.00    -0.545 OA
ENDBRANCH   1   7
TORSDOF 1
ENDMDL
MODEL 5
REMARK VINA RESULT:    -4.035      8.495      9.299
REMARK INTER + INTRA:          -4.292
REMARK INTER:                  -4.273
REMARK INTRA:                  -0.019
REMARK UNBOUND:                -0.021
REMARK SMILES O=C([O-])c1cccnc1
REMARK SMILES IDX 4 1 5 2 9 3 6 4 8 5 7 6 2 7 1 8 3 9
REMARK H PARENT
REMARK Flexibility Score: inf
ROOT
ATOM      1  C   UNL     1      37.896  18.295  10.343  1.00  0.00     0.016 A 
ATOM      2  C   UNL     1      36.572  18.479  10.774  1.00  0.00     0.013 A 
ATOM      3  C   UNL     1      38.921  18.319  11.304  1.00  0.00     0.120 A 
ATOM      4  C   UNL     1      36.296  18.679  12.128  1.00  0.00     0.021 A 
ATOM      5  N   UNL     1      38.626  18.517  12.618  1.00  0.00    -0.264 NA
ATOM      6  C   UNL     1      37.348  18.695  13.045  1.00  0.00     0.111 A 
ENDROOT
BRANCH   1   7
ATOM      7  C   UNL     1      38.208  18.081   8.913  1.00  0.00     0.073 C 
ATOM      8  O   UNL     1      38.970  17.143   8.558  1.00  0.00    -0.545 OA
ATOM      9  O   UNL     1      37.663  18.914   7.943  1.00  0.00    -0.545 OA
ENDBRANCH   1   7
TORSDOF 1
ENDMDL
MODEL 6
REMARK VINA RESULT:    -3.974      6.514      7.454
REMARK INTER + INTRA:          -4.227
REMARK INTER:                  -4.208
REMARK INTRA:                  -0.019
REMARK UNBOUND:                -0.021
REMARK SMILES O=C([O-])c1cccnc1
REMARK SMILES IDX 4 1 5 2 9 3 6 4 8 5 7 6 2 7 1 8 3 9
REMARK H PARENT
REMARK Flexibility Score: inf
ROOT
ATOM      1  C   UNL     1      35.836  18.191  12.370  1.00  0.00     0.016 A 
ATOM      2  C   UNL     1      35.235  19.389  11.948  1.00  0.00     0.013 A 
ATOM      3  C   UNL     1      35.005  17.132  12.773  1.00  0.00     0.120 A 
ATOM      4  C   UNL     1      33.844  19.509  11.935  1.00  0.00     0.021 A 
ATOM      5  N   UNL     1      33.652  17.275  12.751  1.00  0.00    -0.264 NA
ATOM      6  C   UNL     1      33.060  18.429  12.344  1.00  0.00     0.111 A 
ENDROOT
BRANCH   1   7
ATOM      7  C   UNL     1      37.308  18.045  12.391  1.00  0.00     0.073 C 
ATOM      8  O   UNL     1      38.030  18.914  12.947  1.00  0.00    -0.545 OA
ATOM      9  O   UNL     1      37.913  16.944  11.795  1.00  0.00    -0.545 OA
ENDBRANCH   1   7
TORSDOF 1
ENDMDL
MODEL 7
REMARK VINA RESULT:    -3.888      7.195      8.113
REMARK INTER + INTRA:          -4.137
REMARK INTER:                  -4.121
REMARK INTRA:                  -0.016
REMARK UNBOUND:                -0.021
REMARK SMILES O=C([O-])c1cccnc1
REMARK SMILES IDX 4 1 5 2 9 3 6 4 8 5 7 6 2 7 1 8 3 9
REMARK H PARENT
REMARK Flexibility Score: inf
ROOT
ATOM      1  C   UNL     1      36.780  18.414  11.715  1.00  0.00     0.016 A 
ATOM      2  C   UNL     1      37.127  18.389  10.354  1.00  0.00     0.013 A 
ATOM      3  C   UNL     1      37.811  18.375  12.668  1.00  0.00     0.120 A 
ATOM      4  C   UNL     1      38.469  18.326   9.973  1.00  0.00     0.021 A 
ATOM      5  N   UNL     1      39.111  18.314  12.271  1.00  0.00    -0.264 NA
ATOM      6  C   UNL     1      39.458  18.290  10.957  1.00  0.00     0.111 A 
ENDROOT
BRANCH   1   7
ATOM      7  C   UNL     1      35.364  18.481  12.138  1.00  0.00     0.073 C 
ATOM      8  O   UNL     1      34.734  19.570  12.096  1.00  0.00    -0.545 OA
ATOM      9  O   UNL     1      34.710  17.339  12.588  1.00  0.00    -0.545 OA
ENDBRANCH   1   7
TORSDOF 1
ENDMDL
MODEL 8
REMARK VINA RESULT:    -3.886      7.588      8.449
REMARK INTER + INTRA:          -4.134
REMARK INTER:                  -4.117
REMARK INTRA:                  -0.017
REMARK UNBOUND:                -0.021
REMARK SMILES O=C([O-])c1cccnc1
REMARK SMILES IDX 4 1 5 2 9 3 6 4 8 5 7 6 2 7 1 8 3 9
REMARK H PARENT
REMARK Flexibility Score: inf
ROOT
ATOM      1  C   UNL     1      35.573  19.064  11.518  1.00  0.00     0.016 A 
ATOM      2  C   UNL     1      34.680  20.041  11.988  1.00  0.00     0.013 A 
ATOM      3  C   UNL     1      35.861  19.028  10.142  1.00  0.00     0.120 A 
ATOM      4  C   UNL     1      34.101  20.948  11.099  1.00  0.00     0.021 A 
ATOM      5  N   UNL     1      35.283  19.923   9.297  1.00  0.00    -0.264 NA
ATOM      6  C   UNL     1      34.419  20.873   9.742  1.00  0.00     0.111 A 
ENDROOT
BRANCH   1   7
ATOM      7  C   UNL     1      36.197  18.094  12.444  1.00  0.00     0.073 C 
ATOM      8  O   UNL     1      37.124  18.452  13.217  1.00  0.00    -0.545 OA
ATOM      9  O   UNL     1      35.766  16.772  12.473  1.00  0.00    -0.545 OA
ENDBRANCH   1   7
TORSDOF 1
ENDMDL
MODEL 9
REMARK VINA RESULT:    -3.868      8.552      9.506
REMARK INTER + INTRA:          -4.115
REMARK INTER:                  -4.098
REMARK INTRA:                  -0.018
REMARK UNBOUND:                -0.021
REMARK SMILES O=C([O-])c1cccnc1
REMARK SMILES IDX 4 1 5 2 9 3 6 4 8 5 7 6 2 7 1 8 3 9
REMARK H PARENT
REMARK Flexibility Score: inf
ROOT
ATOM      1  C   UNL     1      37.602  18.405  10.372  1.00  0.00     0.016 A 
ATOM      2  C   UNL     1      38.490  18.814   9.363  1.00  0.00     0.013 A 
ATOM      3  C   UNL     1      36.234  18.686  10.213  1.00  0.00     0.120 A 
ATOM      4  C   UNL     1      38.010  19.482   8.235  1.00  0.00     0.021 A 
ATOM      5  N   UNL     1      35.792  19.340   9.104  1.00  0.00    -0.264 NA
ATOM      6  C   UNL     1      36.643  19.738   8.122  1.00  0.00     0.111 A 
ENDROOT
BRANCH   1   7
ATOM      7  C   UNL     1      38.091  17.696  11.574  1.00  0.00     0.073 C 
ATOM      8  O   UNL     1      37.681  16.536  11.844  1.00  0.00    -0.545 OA
ATOM      9  O   UNL     1      39.010  18.302  12.423  1.00  0.00    -0.545 OA
ENDBRANCH   1   7
TORSDOF 1
ENDMDL
