MODEL 1
REMARK VINA RESULT:    -7.196      0.000      0.000
REMARK INTER + INTRA:          -7.196
REMARK INTER:                  -7.196
REMARK INTRA:                   0.000
REMARK UNBOUND:                 0.000
REMARK SMILES O=c1ccc2ccccc2o1
REMARK SMILES IDX 7 1 8 2 9 3 10 4 5 5 6 6 4 7 3 8 2 9 1 10 11 11
REMARK H PARENT
REMARK Flexibility Score: inf
ROOT
ATOM      1  C   UNL     1       2.703  -4.906   2.616  1.00  0.00     0.001 A 
ATOM      2  C   UNL     1       2.464  -6.282   2.684  1.00  0.00     0.004 A 
ATOM      3  C   UNL     1       1.561  -6.884   1.801  1.00  0.00     0.048 A 
ATOM      4  C   UNL     1       0.893  -6.110   0.846  1.00  0.00     0.138 A 
ATOM      5  C   UNL     1       1.134  -4.720   0.777  1.00  0.00     0.018 A 
ATOM      6  C   UNL     1       2.040  -4.123   1.665  1.00  0.00     0.012 A 
ATOM      7  C   UNL     1       0.452  -3.973  -0.188  1.00  0.00     0.019 A 
ATOM      8  C   UNL     1      -0.438  -4.615  -1.047  1.00  0.00     0.094 A 
ATOM      9  C   UNL     1      -0.627  -5.996  -0.921  1.00  0.00     0.336 A 
ATOM     10  O   UNL     1      -1.428  -6.594  -1.687  1.00  0.00    -0.246 OA
ATOM     11  O   UNL     1       0.034  -6.684   0.006  1.00  0.00    -0.423 OA
ENDROOT
TORSDOF 0
ENDMDL
MODEL 2
REMARK VINA RESULT:    -6.814      0.707      0.891
REMARK INTER + INTRA:          -6.814
REMARK INTER:                  -6.814
REMARK INTRA:                   0.000
REMARK UNBOUND:                 0.000
REMARK SMILES O=c1ccc2ccccc2o1
REMARK SMILES IDX 7 1 8 2 9 3 10 4 5 5 6 6 4 7 3 8 2 9 1 10 11 11
REMARK H PARENT
REMARK Flexibility Score: inf
ROOT
ATOM      1  C   UNL     1       3.093  -5.972   2.998  1.00  0.00     0.001 A 
ATOM      2  C   UNL     1       2.577  -7.239   2.707  1.00  0.00     0.004 A 
ATOM      3  C   UNL     1       1.585  -7.388   1.731  1.00  0.00     0.048 A 
ATOM      4  C   UNL     1       1.107  -6.268   1.041  1.00  0.00     0.138 A 
ATOM      5  C   UNL     1       1.629  -4.989   1.334  1.00  0.00     0.018 A 
ATOM      6  C   UNL     1       2.623  -4.846   2.314  1.00  0.00     0.012 A 
ATOM      7  C   UNL     1       1.132  -3.889   0.628  1.00  0.00     0.019 A 
ATOM      8  C   UNL     1       0.144  -4.085  -0.336  1.00  0.00     0.094 A 
ATOM      9  C   UNL     1      -0.326  -5.381  -0.573  1.00  0.00     0.336 A 
ATOM     10  O   UNL     1      -1.218  -5.578  -1.439  1.00  0.00    -0.246 OA
ATOM     11  O   UNL     1       0.164  -6.411   0.112  1.00  0.00    -0.423 OA
ENDROOT
TORSDOF 0
ENDMDL
MODEL 3
REMARK VINA RESULT:    -6.682      2.550      4.438
REMARK INTER + INTRA:          -6.682
REMARK INTER:                  -6.682
REMARK INTRA:                   0.000
REMARK UNBOUND:                 0.000
REMARK SMILES O=c1ccc2ccccc2o1
REMARK SMILES IDX 7 1 8 2 9 3 10 4 5 5 6 6 4 7 3 8 2 9 1 10 11 11
REMARK H PARENT
REMARK Flexibility Score: inf
ROOT
ATOM      1  C   UNL     1       0.367  -4.503   0.208  1.00  0.00     0.001 A 
ATOM      2  C   UNL     1       1.154  -3.595   0.924  1.00  0.00     0.004 A 
ATOM      3  C   UNL     1       2.077  -4.055   1.869  1.00  0.00     0.048 A 
ATOM      4  C   UNL     1       2.216  -5.428   2.102  1.00  0.00     0.138 A 
ATOM      5  C   UNL     1       1.421  -6.345   1.379  1.00  0.00     0.018 A 
ATOM      6  C   UNL     1       0.498  -5.877   0.433  1.00  0.00     0.012 A 
ATOM      7  C   UNL     1       1.583  -7.710   1.633  1.00  0.00     0.019 A 
ATOM      8  C   UNL     1       2.515  -8.124   2.583  1.00  0.00     0.094 A 
ATOM      9  C   UNL     1       3.267  -7.159   3.261  1.00  0.00     0.336 A 
ATOM     10  O   UNL     1       4.114  -7.512   4.123  1.00  0.00    -0.246 OA
ATOM     11  O   UNL     1       3.095  -5.865   3.001  1.00  0.00    -0.423 OA
ENDROOT
TORSDOF 0
ENDMDL
MODEL 4
REMARK VINA RESULT:    -6.634      1.616      3.815
REMARK INTER + INTRA:          -6.634
REMARK INTER:                  -6.634
REMARK INTRA:                   0.000
REMARK UNBOUND:                 0.000
REMARK SMILES O=c1ccc2ccccc2o1
REMARK SMILES IDX 7 1 8 2 9 3 10 4 5 5 6 6 4 7 3 8 2 9 1 10 11 11
REMARK H PARENT
REMARK Flexibility Score: inf
ROOT
ATOM      1  C   UNL     1      -0.241  -4.107  -0.765  1.00  0.00     0.001 A 
ATOM      2  C   UNL     1      -0.593  -5.457  -0.865  1.00  0.00     0.004 A 
ATOM      3  C   UNL     1       0.037  -6.410  -0.056  1.00  0.00     0.048 A 
ATOM      4  C   UNL     1       1.021  -6.015   0.856  1.00  0.00     0.138 A 
ATOM      5  C   UNL     1       1.377  -4.651   0.957  1.00  0.00     0.018 A 
ATOM      6  C   UNL     1       0.742  -3.701   0.144  1.00  0.00     0.012 A 
ATOM      7  C   UNL     1       2.363  -4.287   1.878  1.00  0.00     0.019 A 
ATOM      8  C   UNL     1       2.963  -5.270   2.663  1.00  0.00     0.094 A 
ATOM      9  C   UNL     1       2.561  -6.601   2.508  1.00  0.00     0.336 A 
ATOM     10  O   UNL     1       3.091  -7.504   3.208  1.00  0.00    -0.246 OA
ATOM     11  O   UNL     1       1.619  -6.922   1.625  1.00  0.00    -0.423 OA
ENDROOT
TORSDOF 0
ENDMDL
MODEL 5
REMARK VINA RESULT:    -6.365      2.017      4.371
REMARK INTER + INTRA:          -6.365
REMARK INTER:                  -6.365
REMARK INTRA:                   0.000
REMARK UNBOUND:                 0.000
REMARK SMILES O=c1ccc2ccccc2o1
REMARK SMILES IDX 7 1 8 2 9 3 10 4 5 5 6 6 4 7 3 8 2 9 1 10 11 11
REMARK H PARENT
REMARK Flexibility Score: inf
ROOT
ATOM      1  C   UNL     1      -0.764  -6.246  -0.862  1.00  0.00     0.001 A 
ATOM      2  C   UNL     1      -0.634  -4.883  -1.145  1.00  0.00     0.004 A 
ATOM      3  C   UNL     1       0.260  -4.093  -0.414  1.00  0.00     0.048 A 
ATOM      4  C   UNL     1       1.030  -4.666   0.604  1.00  0.00     0.138 A 
ATOM      5  C   UNL     1       0.899  -6.044   0.891  1.00  0.00     0.018 A 
ATOM      6  C   UNL     1       0.000  -6.829   0.154  1.00  0.00     0.012 A 
ATOM      7  C   UNL     1       1.682  -6.588   1.913  1.00  0.00     0.019 A 
ATOM      8  C   UNL     1       2.560  -5.764   2.615  1.00  0.00     0.094 A 
ATOM      9  C   UNL     1       2.636  -4.408   2.276  1.00  0.00     0.336 A 
ATOM     10  O   UNL     1       3.423  -3.648   2.899  1.00  0.00    -0.246 OA
ATOM     11  O   UNL     1       1.881  -3.915   1.298  1.00  0.00    -0.423 OA
ENDROOT
TORSDOF 0
ENDMDL
MODEL 6
REMARK VINA RESULT:    -5.774      1.733      2.544
REMARK INTER + INTRA:          -5.774
REMARK INTER:                  -5.774
REMARK INTRA:                   0.000
REMARK UNBOUND:                 0.000
REMARK SMILES O=c1ccc2ccccc2o1
REMARK SMILES IDX 7 1 8 2 9 3 10 4 5 5 6 6 4 7 3 8 2 9 1 10 11 11
REMARK H PARENT
REMARK Flexibility Score: inf
ROOT
ATOM      1  C   UNL     1       2.608  -7.664   2.817  1.00  0.00     0.001 A 
ATOM      2  C   UNL     1       3.240  -6.459   3.139  1.00  0.00     0.004 A 
ATOM      3  C   UNL     1       2.862  -5.273   2.499  1.00  0.00     0.048 A 
ATOM      4  C   UNL     1       1.847  -5.290   1.536  1.00  0.00     0.138 A 
ATOM      5  C   UNL     1       1.209  -6.507   1.211  1.00  0.00     0.018 A 
ATOM      6  C   UNL     1       1.593  -7.692   1.855  1.00  0.00     0.012 A 
ATOM      7  C   UNL     1       0.199  -6.492   0.245  1.00  0.00     0.019 A 
ATOM      8  C   UNL     1      -0.146  -5.288  -0.366  1.00  0.00     0.094 A 
ATOM      9  C   UNL     1       0.530  -4.120   0.005  1.00  0.00     0.336 A 
ATOM     10  O   UNL     1       0.233  -3.022  -0.535  1.00  0.00    -0.246 OA
ATOM     11  O   UNL     1       1.487  -4.161   0.929  1.00  0.00    -0.423 OA
ENDROOT
TORSDOF 0
ENDMDL
MODEL 7
REMARK VINA RESULT:    -5.081      0.976      2.084
REMARK INTER + INTRA:          -5.081
REMARK INTER:                  -5.081
REMARK INTRA:                   0.000
REMARK UNBOUND:                 0.000
REMARK SMILES O=c1ccc2ccccc2o1
REMARK SMILES IDX 7 1 8 2 9 3 10 4 5 5 6 6 4 7 3 8 2 9 1 10 11 11
REMARK H PARENT
REMARK Flexibility Score: inf
ROOT
ATOM      1  C   UNL     1       2.618  -5.387   2.622  1.00  0.00     0.001 A 
ATOM      2  C   UNL     1       2.630  -4.223   1.846  1.00  0.00     0.004 A 
ATOM      3  C   UNL     1       1.780  -4.104   0.742  1.00  0.00     0.048 A 
ATOM      4  C   UNL     1       0.912  -5.150   0.409  1.00  0.00     0.138 A 
ATOM      5  C   UNL     1       0.900  -6.326   1.192  1.00  0.00     0.018 A 
ATOM      6  C   UNL     1       1.756  -6.439   2.298  1.00  0.00     0.012 A 
ATOM      7  C   UNL     1       0.023  -7.354   0.836  1.00  0.00     0.019 A 
ATOM      8  C   UNL     1      -0.808  -7.192  -0.272  1.00  0.00     0.094 A 
ATOM      9  C   UNL     1      -0.741  -6.000  -1.002  1.00  0.00     0.336 A 
ATOM     10  O   UNL     1      -1.482  -5.834  -2.006  1.00  0.00    -0.246 OA
ATOM     11  O   UNL     1       0.103  -5.036  -0.641  1.00  0.00    -0.423 OA
ENDROOT
TORSDOF 0
ENDMDL
MODEL 8
REMARK VINA RESULT:    -4.578      2.605      3.548
REMARK INTER + INTRA:          -4.578
REMARK INTER:                  -4.578
REMARK INTRA:                   0.000
REMARK UNBOUND:                 0.000
REMARK SMILES O=c1ccc2ccccc2o1
REMARK SMILES IDX 7 1 8 2 9 3 10 4 5 5 6 6 4 7 3 8 2 9 1 10 11 11
REMARK H PARENT
REMARK Flexibility Score: inf
ROOT
ATOM      1  C   UNL     1       1.770  -3.500   1.861  1.00  0.00     0.001 A 
ATOM      2  C   UNL     1       3.019  -3.773   2.428  1.00  0.00     0.004 A 
ATOM      3  C   UNL     1       3.433  -5.096   2.615  1.00  0.00     0.048 A 
ATOM      4  C   UNL     1       2.599  -6.152   2.234  1.00  0.00     0.138 A 
ATOM      5  C   UNL     1       1.337  -5.877   1.661  1.00  0.00     0.018 A 
ATOM      6  C   UNL     1       0.927  -4.548   1.477  1.00  0.00     0.012 A 
ATOM      7  C   UNL     1       0.525  -6.952   1.290  1.00  0.00     0.019 A 
ATOM      8  C   UNL     1       0.979  -8.255   1.494  1.00  0.00     0.094 A 
ATOM      9  C   UNL     1       2.240  -8.452   2.067  1.00  0.00     0.336 A 
ATOM     10  O   UNL     1       2.668  -9.620   2.260  1.00  0.00    -0.246 OA
ATOM     11  O   UNL     1       2.994  -7.411   2.411  1.00  0.00    -0.423 OA
ENDROOT
TORSDOF 0
ENDMDL
