MODEL 1
REMARK VINA RESULT:    -4.806      0.000      0.000
REMARK INTER + INTRA:          -5.776
REMARK INTER:                  -5.649
REMARK INTRA:                  -0.127
REMARK UNBOUND:                -0.127
REMARK SMILES O=C([O-])C=Cc1ccc(O)c(O)c1
REMARK SMILES IDX 6 1 13 2 7 3 11 4 8 5 9 6 5 7 4 8 2 9 1 10 3 11 12 12 10 14
REMARK H PARENT 12 13 10 15
REMARK Flexibility Score: inf
ROOT
ATOM      1  C   UNL     1     -59.086  17.004 -18.097  1.00  0.00    -0.022 A 
ATOM      2  C   UNL     1     -60.345  16.904 -17.468  1.00  0.00     0.058 A 
ATOM      3  C   UNL     1     -58.936  16.494 -19.396  1.00  0.00     0.012 A 
ATOM      4  C   UNL     1     -61.432  16.330 -18.136  1.00  0.00     0.157 A 
ATOM      5  C   UNL     1     -60.021  15.921 -20.065  1.00  0.00     0.051 A 
ATOM      6  C   UNL     1     -61.272  15.838 -19.443  1.00  0.00     0.157 A 
ENDROOT
BRANCH   1   7
ATOM      7  C   UNL     1     -57.902  17.595 -17.424  1.00  0.00     0.010 C 
ATOM      8  C   UNL     1     -57.644  18.909 -17.391  1.00  0.00     0.025 C 
BRANCH   8   9
ATOM      9  C   UNL     1     -56.451  19.450 -16.721  1.00  0.00     0.064 C 
ATOM     10  O   UNL     1     -55.330  18.914 -16.922  1.00  0.00    -0.545 OA
ATOM     11  O   UNL     1     -56.540  20.545 -15.870  1.00  0.00    -0.545 OA
ENDBRANCH   8   9
ENDBRANCH   1   7
BRANCH   4  12
ATOM     12  O   UNL     1     -62.662  16.250 -17.485  1.00  0.00    -0.504 OA
ATOM     13  H   UNL     1     -63.137  15.368 -17.336  1.00  0.00     0.293 HD
ENDBRANCH   4  12
BRANCH   6  14
ATOM     14  O   UNL     1     -62.352  15.268 -20.114  1.00  0.00    -0.504 OA
ATOM     15  H   UNL     1     -63.231  15.761 -20.220  1.00  0.00     0.293 HD
ENDBRANCH   6  14
TORSDOF 4
ENDMDL
MODEL 2
REMARK VINA RESULT:    -4.656      9.919     11.298
REMARK INTER + INTRA:          -5.600
REMARK INTER:                  -5.477
REMARK INTRA:                  -0.123
REMARK UNBOUND:                -0.127
REMARK SMILES O=C([O-])C=Cc1ccc(O)c(O)c1
REMARK SMILES IDX 6 1 13 2 7 3 11 4 8 5 9 6 5 7 4 8 2 9 1 10 3 11 12 12 10 14
REMARK H PARENT 12 13 10 15
REMARK Flexibility Score: inf
ROOT
ATOM      1  C   UNL     1     -59.122  26.634 -14.650  1.00  0.00    -0.022 A 
ATOM      2  C   UNL     1     -59.284  27.464 -15.779  1.00  0.00     0.058 A 
ATOM      3  C   UNL     1     -57.939  25.888 -14.523  1.00  0.00     0.012 A 
ATOM      4  C   UNL     1     -58.274  27.562 -16.743  1.00  0.00     0.157 A 
ATOM      5  C   UNL     1     -56.930  25.986 -15.483  1.00  0.00     0.051 A 
ATOM      6  C   UNL     1     -57.089  26.823 -16.594  1.00  0.00     0.157 A 
ENDROOT
BRANCH   1   7
ATOM      7  C   UNL     1     -60.169  26.489 -13.608  1.00  0.00     0.010 C 
ATOM      8  C   UNL     1     -60.949  27.496 -13.192  1.00  0.00     0.025 C 
BRANCH   8   9
ATOM      9  C   UNL     1     -61.968  27.309 -12.147  1.00  0.00     0.064 C 
ATOM     10  O   UNL     1     -62.735  28.262 -11.850  1.00  0.00    -0.545 OA
ATOM     11  O   UNL     1     -62.101  26.095 -11.484  1.00  0.00    -0.545 OA
ENDBRANCH   8   9
ENDBRANCH   1   7
BRANCH   4  12
ATOM     12  O   UNL     1     -58.468  28.394 -17.845  1.00  0.00    -0.504 OA
ATOM     13  H   UNL     1     -57.699  28.862 -18.309  1.00  0.00     0.293 HD
ENDBRANCH   4  12
BRANCH   6  14
ATOM     14  O   UNL     1     -56.079  26.919 -17.549  1.00  0.00    -0.504 OA
ATOM     15  H   UNL     1     -56.258  26.747 -18.531  1.00  0.00     0.293 HD
ENDBRANCH   6  14
TORSDOF 4
ENDMDL
MODEL 3
REMARK VINA RESULT:    -4.521      9.537     10.336
REMARK INTER + INTRA:          -5.441
REMARK INTER:                  -5.288
REMARK INTRA:                  -0.152
REMARK UNBOUND:                -0.127
REMARK SMILES O=C([O-])C=Cc1ccc(O)c(O)c1
REMARK SMILES IDX 6 1 13 2 7 3 11 4 8 5 9 6 5 7 4 8 2 9 1 10 3 11 12 12 10 14
REMARK H PARENT 12 13 10 15
REMARK Flexibility Score: inf
ROOT
ATOM      1  C   UNL     1     -57.974  25.740 -14.567  1.00  0.00    -0.022 A 
ATOM      2  C   UNL     1     -56.939  25.923 -15.508  1.00  0.00     0.058 A 
ATOM      3  C   UNL     1     -59.158  26.482 -14.710  1.00  0.00     0.012 A 
ATOM      4  C   UNL     1     -57.098  26.809 -16.580  1.00  0.00     0.157 A 
ATOM      5  C   UNL     1     -59.319  27.366 -15.780  1.00  0.00     0.051 A 
ATOM      6  C   UNL     1     -58.295  27.532 -16.720  1.00  0.00     0.157 A 
ENDROOT
BRANCH   1   7
ATOM      7  C   UNL     1     -57.847  24.820 -13.410  1.00  0.00     0.010 C 
ATOM      8  C   UNL     1     -58.618  24.889 -12.316  1.00  0.00     0.025 C 
BRANCH   8   9
ATOM      9  C   UNL     1     -58.449  23.962 -11.186  1.00  0.00     0.064 C 
ATOM     10  O   UNL     1     -57.312  23.480 -10.943  1.00  0.00    -0.545 OA
ATOM     11  O   UNL     1     -59.525  23.609 -10.380  1.00  0.00    -0.545 OA
ENDBRANCH   8   9
ENDBRANCH   1   7
BRANCH   4  12
ATOM     12  O   UNL     1     -56.055  26.963 -17.492  1.00  0.00    -0.504 OA
ATOM     13  H   UNL     1     -56.143  26.690 -18.463  1.00  0.00     0.293 HD
ENDBRANCH   4  12
BRANCH   6  14
ATOM     14  O   UNL     1     -58.459  28.413 -17.786  1.00  0.00    -0.504 OA
ATOM     15  H   UNL     1     -57.731  28.554 -18.477  1.00  0.00     0.293 HD
ENDBRANCH   6  14
TORSDOF 4
ENDMDL
MODEL 4
REMARK VINA RESULT:    -4.404      8.725     10.035
REMARK INTER + INTRA:          -5.304
REMARK INTER:                  -5.183
REMARK INTRA:                  -0.121
REMARK UNBOUND:                -0.127
REMARK SMILES O=C([O-])C=Cc1ccc(O)c(O)c1
REMARK SMILES IDX 6 1 13 2 7 3 11 4 8 5 9 6 5 7 4 8 2 9 1 10 3 11 12 12 10 14
REMARK H PARENT 12 13 10 15
REMARK Flexibility Score: inf
ROOT
ATOM      1  C   UNL     1     -58.013  25.795 -14.498  1.00  0.00    -0.022 A 
ATOM      2  C   UNL     1     -56.973  25.959 -15.436  1.00  0.00     0.058 A 
ATOM      3  C   UNL     1     -59.198  26.529 -14.666  1.00  0.00     0.012 A 
ATOM      4  C   UNL     1     -57.127  26.819 -16.529  1.00  0.00     0.157 A 
ATOM      5  C   UNL     1     -59.355  27.388 -15.756  1.00  0.00     0.051 A 
ATOM      6  C   UNL     1     -58.325  27.535 -16.694  1.00  0.00     0.157 A 
ENDROOT
BRANCH   1   7
ATOM      7  C   UNL     1     -57.891  24.903 -13.318  1.00  0.00     0.010 C 
ATOM      8  C   UNL     1     -57.189  23.761 -13.317  1.00  0.00     0.025 C 
BRANCH   8   9
ATOM      9  C   UNL     1     -57.105  22.901 -12.126  1.00  0.00     0.064 C 
ATOM     10  O   UNL     1     -55.998  22.749 -11.547  1.00  0.00    -0.545 OA
ATOM     11  O   UNL     1     -58.230  22.255 -11.627  1.00  0.00    -0.545 OA
ENDBRANCH   8   9
ENDBRANCH   1   7
BRANCH   4  12
ATOM     12  O   UNL     1     -56.079  26.955 -17.438  1.00  0.00    -0.504 OA
ATOM     13  H   UNL     1     -55.652  27.851 -17.638  1.00  0.00     0.293 HD
ENDBRANCH   4  12
BRANCH   6  14
ATOM     14  O   UNL     1     -58.486  28.391 -17.781  1.00  0.00    -0.504 OA
ATOM     15  H   UNL     1     -57.689  28.775 -18.277  1.00  0.00     0.293 HD
ENDBRANCH   6  14
TORSDOF 4
ENDMDL
MODEL 5
REMARK VINA RESULT:    -4.364      9.642     10.414
REMARK INTER + INTRA:          -5.257
REMARK INTER:                  -5.104
REMARK INTRA:                  -0.153
REMARK UNBOUND:                -0.127
REMARK SMILES O=C([O-])C=Cc1ccc(O)c(O)c1
REMARK SMILES IDX 6 1 13 2 7 3 11 4 8 5 9 6 5 7 4 8 2 9 1 10 3 11 12 12 10 14
REMARK H PARENT 12 13 10 15
REMARK Flexibility Score: inf
ROOT
ATOM      1  C   UNL     1     -58.273  25.941 -14.505  1.00  0.00    -0.022 A 
ATOM      2  C   UNL     1     -58.724  26.823 -15.509  1.00  0.00     0.058 A 
ATOM      3  C   UNL     1     -57.003  25.356 -14.639  1.00  0.00     0.012 A 
ATOM      4  C   UNL     1     -57.912  27.130 -16.607  1.00  0.00     0.157 A 
ATOM      5  C   UNL     1     -56.191  25.662 -15.733  1.00  0.00     0.051 A 
ATOM      6  C   UNL     1     -56.637  26.550 -16.719  1.00  0.00     0.157 A 
ENDROOT
BRANCH   1   7
ATOM      7  C   UNL     1     -59.103  25.578 -13.330  1.00  0.00     0.010 C 
ATOM      8  C   UNL     1     -58.623  24.957 -12.244  1.00  0.00     0.025 C 
BRANCH   8   9
ATOM      9  C   UNL     1     -59.486  24.606 -11.105  1.00  0.00     0.064 C 
ATOM     10  O   UNL     1     -60.476  25.333 -10.828  1.00  0.00    -0.545 OA
ATOM     11  O   UNL     1     -59.228  23.482 -10.328  1.00  0.00    -0.545 OA
ENDBRANCH   8   9
ENDBRANCH   1   7
BRANCH   4  12
ATOM     12  O   UNL     1     -58.390  28.008 -17.579  1.00  0.00    -0.504 OA
ATOM     13  H   UNL     1     -58.003  28.935 -17.704  1.00  0.00     0.293 HD
ENDBRANCH   4  12
BRANCH   6  14
ATOM     14  O   UNL     1     -55.823  26.854 -17.808  1.00  0.00    -0.504 OA
ATOM     15  H   UNL     1     -55.961  26.419 -18.713  1.00  0.00     0.293 HD
ENDBRANCH   6  14
TORSDOF 4
ENDMDL
MODEL 6
REMARK VINA RESULT:    -3.950     10.014     11.063
REMARK INTER + INTRA:          -4.770
REMARK INTER:                  -4.618
REMARK INTRA:                  -0.153
REMARK UNBOUND:                -0.127
REMARK SMILES O=C([O-])C=Cc1ccc(O)c(O)c1
REMARK SMILES IDX 6 1 13 2 7 3 11 4 8 5 9 6 5 7 4 8 2 9 1 10 3 11 12 12 10 14
REMARK H PARENT 12 13 10 15
REMARK Flexibility Score: inf
ROOT
ATOM      1  C   UNL     1     -58.576  26.400 -14.461  1.00  0.00    -0.022 A 
ATOM      2  C   UNL     1     -57.222  26.024 -14.340  1.00  0.00     0.058 A 
ATOM      3  C   UNL     1     -59.012  26.977 -15.665  1.00  0.00     0.012 A 
ATOM      4  C   UNL     1     -56.334  26.199 -15.407  1.00  0.00     0.157 A 
ATOM      5  C   UNL     1     -58.128  27.152 -16.732  1.00  0.00     0.051 A 
ATOM      6  C   UNL     1     -56.789  26.762 -16.611  1.00  0.00     0.157 A 
ENDROOT
BRANCH   1   7
ATOM      7  C   UNL     1     -59.551  26.244 -13.354  1.00  0.00     0.010 C 
ATOM      8  C   UNL     1     -60.699  26.931 -13.270  1.00  0.00     0.025 C 
BRANCH   8   9
ATOM      9  C   UNL     1     -61.632  26.751 -12.146  1.00  0.00     0.064 C 
ATOM     10  O   UNL     1     -61.534  25.730 -11.415  1.00  0.00    -0.545 OA
ATOM     11  O   UNL     1     -62.619  27.690 -11.875  1.00  0.00    -0.545 OA
ENDBRANCH   8   9
ENDBRANCH   1   7
BRANCH   4  12
ATOM     12  O   UNL     1     -55.004  25.813 -15.252  1.00  0.00    -0.504 OA
ATOM     13  H   UNL     1     -54.682  24.882 -15.484  1.00  0.00     0.293 HD
ENDBRANCH   4  12
BRANCH   6  14
ATOM     14  O   UNL     1     -55.910  26.936 -17.678  1.00  0.00    -0.504 OA
ATOM     15  H   UNL     1     -55.309  26.185 -18.000  1.00  0.00     0.293 HD
ENDBRANCH   6  14
TORSDOF 4
ENDMDL
MODEL 7
REMARK VINA RESULT:    -3.927     16.440     17.927
REMARK INTER + INTRA:          -4.743
REMARK INTER:                  -4.599
REMARK INTRA:                  -0.144
REMARK UNBOUND:                -0.127
REMARK SMILES O=C([O-])C=Cc1ccc(O)c(O)c1
REMARK SMILES IDX 6 1 13 2 7 3 11 4 8 5 9 6 5 7 4 8 2 9 1 10 3 11 12 12 10 14
REMARK H PARENT 12 13 10 15
REMARK Flexibility Score: inf
ROOT
ATOM      1  C   UNL     1     -52.392  16.048  -2.202  1.00  0.00    -0.022 A 
ATOM      2  C   UNL     1     -51.479  15.114  -2.733  1.00  0.00     0.058 A 
ATOM      3  C   UNL     1     -53.073  15.729  -1.016  1.00  0.00     0.012 A 
ATOM      4  C   UNL     1     -51.236  13.901  -2.078  1.00  0.00     0.157 A 
ATOM      5  C   UNL     1     -52.831  14.520  -0.360  1.00  0.00     0.051 A 
ATOM      6  C   UNL     1     -51.912  13.603  -0.883  1.00  0.00     0.157 A 
ENDROOT
BRANCH   1   7
ATOM      7  C   UNL     1     -52.690  17.341  -2.867  1.00  0.00     0.010 C 
ATOM      8  C   UNL     1     -52.785  18.509  -2.215  1.00  0.00     0.025 C 
BRANCH   8   9
ATOM      9  C   UNL     1     -53.093  19.766  -2.915  1.00  0.00     0.064 C 
ATOM     10  O   UNL     1     -52.901  19.849  -4.156  1.00  0.00    -0.545 OA
ATOM     11  O   UNL     1     -53.595  20.865  -2.228  1.00  0.00    -0.545 OA
ENDBRANCH   8   9
ENDBRANCH   1   7
BRANCH   4  12
ATOM     12  O   UNL     1     -50.325  13.003  -2.631  1.00  0.00    -0.504 OA
ATOM     13  H   UNL     1     -49.475  13.310  -3.087  1.00  0.00     0.293 HD
ENDBRANCH   4  12
BRANCH   6  14
ATOM     14  O   UNL     1     -51.672  12.399  -0.225  1.00  0.00    -0.504 OA
ATOM     15  H   UNL     1     -51.030  11.709  -0.597  1.00  0.00     0.293 HD
ENDBRANCH   6  14
TORSDOF 4
ENDMDL
MODEL 8
REMARK VINA RESULT:    -3.921      1.642      2.640
REMARK INTER + INTRA:          -4.736
REMARK INTER:                  -4.611
REMARK INTRA:                  -0.125
REMARK UNBOUND:                -0.127
REMARK SMILES O=C([O-])C=Cc1ccc(O)c(O)c1
REMARK SMILES IDX 6 1 13 2 7 3 11 4 8 5 9 6 5 7 4 8 2 9 1 10 3 11 12 12 10 14
REMARK H PARENT 12 13 10 15
REMARK Flexibility Score: inf
ROOT
ATOM      1  C   UNL     1     -58.301  17.946 -17.085  1.00  0.00    -0.022 A 
ATOM      2  C   UNL     1     -58.471  16.653 -17.621  1.00  0.00     0.058 A 
ATOM      3  C   UNL     1     -59.440  18.690 -16.737  1.00  0.00     0.012 A 
ATOM      4  C   UNL     1     -59.751  16.110 -17.782  1.00  0.00     0.157 A 
ATOM      5  C   UNL     1     -60.718  18.149 -16.896  1.00  0.00     0.051 A 
ATOM      6  C   UNL     1     -60.881  16.859 -17.415  1.00  0.00     0.157 A 
ENDROOT
BRANCH   1   7
ATOM      7  C   UNL     1     -56.964  18.567 -16.906  1.00  0.00     0.010 C 
ATOM      8  C   UNL     1     -55.819  17.996 -17.304  1.00  0.00     0.025 C 
BRANCH   8   9
ATOM      9  C   UNL     1     -54.515  18.645 -17.096  1.00  0.00     0.064 C 
ATOM     10  O   UNL     1     -54.280  19.233 -16.008  1.00  0.00    -0.545 OA
ATOM     11  O   UNL     1     -53.534  18.618 -18.081  1.00  0.00    -0.545 OA
ENDBRANCH   8   9
ENDBRANCH   1   7
BRANCH   4  12
ATOM     12  O   UNL     1     -59.881  14.827 -18.314  1.00  0.00    -0.504 OA
ATOM     13  H   UNL     1     -59.080  14.236 -18.496  1.00  0.00     0.293 HD
ENDBRANCH   4  12
BRANCH   6  14
ATOM     14  O   UNL     1     -62.157  16.323 -17.570  1.00  0.00    -0.504 OA
ATOM     15  H   UNL     1     -62.437  15.856 -18.425  1.00  0.00     0.293 HD
ENDBRANCH   6  14
TORSDOF 4
ENDMDL
MODEL 9
REMARK VINA RESULT:    -3.851      7.960      9.356
REMARK INTER + INTRA:          -4.654
REMARK INTER:                  -4.516
REMARK INTRA:                  -0.138
REMARK UNBOUND:                -0.127
REMARK SMILES O=C([O-])C=Cc1ccc(O)c(O)c1
REMARK SMILES IDX 6 1 13 2 7 3 11 4 8 5 9 6 5 7 4 8 2 9 1 10 3 11 12 12 10 14
REMARK H PARENT 12 13 10 15
REMARK Flexibility Score: inf
ROOT
ATOM      1  C   UNL     1     -56.720  25.253 -15.147  1.00  0.00    -0.022 A 
ATOM      2  C   UNL     1     -57.969  25.814 -14.812  1.00  0.00     0.058 A 
ATOM      3  C   UNL     1     -56.069  25.696 -16.311  1.00  0.00     0.012 A 
ATOM      4  C   UNL     1     -58.541  26.812 -15.609  1.00  0.00     0.157 A 
ATOM      5  C   UNL     1     -56.638  26.693 -17.107  1.00  0.00     0.051 A 
ATOM      6  C   UNL     1     -57.871  27.257 -16.761  1.00  0.00     0.157 A 
ENDROOT
BRANCH   1   7
ATOM      7  C   UNL     1     -56.080  24.185 -14.339  1.00  0.00     0.010 C 
ATOM      8  C   UNL     1     -55.720  22.992 -14.832  1.00  0.00     0.025 C 
BRANCH   8   9
ATOM      9  C   UNL     1     -55.098  21.959 -13.989  1.00  0.00     0.064 C 
ATOM     10  O   UNL     1     -54.202  21.219 -14.473  1.00  0.00    -0.545 OA
ATOM     11  O   UNL     1     -55.483  21.786 -12.665  1.00  0.00    -0.545 OA
ENDBRANCH   8   9
ENDBRANCH   1   7
BRANCH   4  12
ATOM     12  O   UNL     1     -59.776  27.345 -15.245  1.00  0.00    -0.504 OA
ATOM     13  H   UNL     1     -60.271  27.041 -14.416  1.00  0.00     0.293 HD
ENDBRANCH   4  12
BRANCH   6  14
ATOM     14  O   UNL     1     -58.433  28.253 -17.557  1.00  0.00    -0.504 OA
ATOM     15  H   UNL     1     -59.396  28.203 -17.870  1.00  0.00     0.293 HD
ENDBRANCH   6  14
TORSDOF 4
ENDMDL
