MODEL 1
REMARK VINA RESULT:    -2.144      0.000      0.000
REMARK INTER + INTRA:          -4.416
REMARK INTER:                  -3.147
REMARK INTRA:                  -1.269
REMARK UNBOUND:                -1.269
REMARK SMILES CCCCCC(=O)CCCCC
REMARK SMILES IDX 6 1 7 2 5 3 4 4 3 5 2 6 1 7 8 8 9 9 10 10 11 11 12 12
REMARK H PARENT
REMARK Flexibility Score: inf
ROOT
ATOM      1  C   UNL     1     130.128 146.273 138.190  1.00  0.00     0.132 C 
ATOM      2  O   UNL     1     130.621 146.474 137.090  1.00  0.00    -0.300 OA
ENDROOT
BRANCH   1   3
ATOM      3  C   UNL     1     130.951 146.518 139.425  1.00  0.00     0.075 C 
BRANCH   3   4
ATOM      4  C   UNL     1     132.404 146.076 139.206  1.00  0.00     0.008 C 
BRANCH   4   5
ATOM      5  C   UNL     1     132.622 144.577 139.473  1.00  0.00     0.000 C 
BRANCH   5   6
ATOM      6  C   UNL     1     133.293 143.804 138.323  1.00  0.00    -0.003 C 
ATOM      7  C   UNL     1     132.306 143.358 137.245  1.00  0.00     0.004 C 
ENDBRANCH   5   6
ENDBRANCH   4   5
ENDBRANCH   3   4
ENDBRANCH   1   3
BRANCH   1   8
ATOM      8  C   UNL     1     128.704 145.784 138.286  1.00  0.00     0.075 C 
BRANCH   8   9
ATOM      9  C   UNL     1     128.547 144.691 139.351  1.00  0.00     0.008 C 
BRANCH   9  10
ATOM     10  C   UNL     1     128.923 143.300 138.810  1.00  0.00     0.000 C 
BRANCH  10  11
ATOM     11  C   UNL     1     129.627 142.429 139.861  1.00  0.00    -0.003 C 
ATOM     12  C   UNL     1     130.128 141.103 139.291  1.00  0.00     0.004 C 
ENDBRANCH  10  11
ENDBRANCH   9  10
ENDBRANCH   8   9
ENDBRANCH   1   8
TORSDOF 8
ENDMDL
MODEL 2
REMARK VINA RESULT:    -2.068      1.162      3.598
REMARK INTER + INTRA:          -4.304
REMARK INTER:                  -2.928
REMARK INTRA:                  -1.377
REMARK UNBOUND:                -1.269
REMARK SMILES CCCCCC(=O)CCCCC
REMARK SMILES IDX 6 1 7 2 5 3 4 4 3 5 2 6 1 7 8 8 9 9 10 10 11 11 12 12
REMARK H PARENT
REMARK Flexibility Score: inf
ROOT
ATOM      1  C   UNL     1     129.965 146.045 139.006  1.00  0.00     0.132 C 
ATOM      2  O   UNL     1     129.975 146.639 140.073  1.00  0.00    -0.300 OA
ENDROOT
BRANCH   1   3
ATOM      3  C   UNL     1     128.675 145.463 138.495  1.00  0.00     0.075 C 
BRANCH   3   4
ATOM      4  C   UNL     1     128.298 144.203 139.284  1.00  0.00     0.008 C 
BRANCH   4   5
ATOM      5  C   UNL     1     128.803 142.907 138.625  1.00  0.00     0.000 C 
BRANCH   5   6
ATOM      6  C   UNL     1     129.654 142.005 139.537  1.00  0.00    -0.003 C 
ATOM      7  C   UNL     1     130.191 142.733 140.768  1.00  0.00     0.004 C 
ENDBRANCH   5   6
ENDBRANCH   4   5
ENDBRANCH   3   4
ENDBRANCH   1   3
BRANCH   1   8
ATOM      8  C   UNL     1     131.246 145.908 138.221  1.00  0.00     0.075 C 
BRANCH   8   9
ATOM      9  C   UNL     1     132.385 145.344 139.082  1.00  0.00     0.008 C 
BRANCH   9  10
ATOM     10  C   UNL     1     132.902 143.998 138.545  1.00  0.00     0.000 C 
BRANCH  10  11
ATOM     11  C   UNL     1     132.216 143.585 137.234  1.00  0.00    -0.003 C 
ATOM     12  C   UNL     1     132.341 142.089 136.947  1.00  0.00     0.004 C 
ENDBRANCH  10  11
ENDBRANCH   9  10
ENDBRANCH   8   9
ENDBRANCH   1   8
TORSDOF 8
ENDMDL
MODEL 3
REMARK VINA RESULT:    -2.035      1.442      3.454
REMARK INTER + INTRA:          -4.256
REMARK INTER:                  -2.912
REMARK INTRA:                  -1.344
REMARK UNBOUND:                -1.269
REMARK SMILES CCCCCC(=O)CCCCC
REMARK SMILES IDX 6 1 7 2 5 3 4 4 3 5 2 6 1 7 8 8 9 9 10 10 11 11 12 12
REMARK H PARENT
REMARK Flexibility Score: inf
ROOT
ATOM      1  C   UNL     1     129.526 146.064 138.908  1.00  0.00     0.132 C 
ATOM      2  O   UNL     1     129.552 146.645 139.983  1.00  0.00    -0.300 OA
ENDROOT
BRANCH   1   3
ATOM      3  C   UNL     1     128.376 145.146 138.591  1.00  0.00     0.075 C 
BRANCH   3   4
ATOM      4  C   UNL     1     128.459 143.864 139.431  1.00  0.00     0.008 C 
BRANCH   4   5
ATOM      5  C   UNL     1     128.571 142.591 138.575  1.00  0.00     0.000 C 
BRANCH   5   6
ATOM      6  C   UNL     1     129.789 141.703 138.889  1.00  0.00    -0.003 C 
ATOM      7  C   UNL     1     130.723 141.523 137.693  1.00  0.00     0.004 C 
ENDBRANCH   5   6
ENDBRANCH   4   5
ENDBRANCH   3   4
ENDBRANCH   1   3
BRANCH   1   8
ATOM      8  C   UNL     1     130.644 146.281 137.920  1.00  0.00     0.075 C 
BRANCH   8   9
ATOM      9  C   UNL     1     131.626 145.101 137.901  1.00  0.00     0.008 C 
BRANCH   9  10
ATOM     10  C   UNL     1     132.623 145.161 139.071  1.00  0.00     0.000 C 
BRANCH  10  11
ATOM     11  C   UNL     1     132.607 143.885 139.925  1.00  0.00    -0.003 C 
ATOM     12  C   UNL     1     131.735 144.017 141.173  1.00  0.00     0.004 C 
ENDBRANCH  10  11
ENDBRANCH   9  10
ENDBRANCH   8   9
ENDBRANCH   1   8
TORSDOF 8
ENDMDL
MODEL 4
REMARK VINA RESULT:    -2.023      1.477      2.191
REMARK INTER + INTRA:          -4.239
REMARK INTER:                  -2.985
REMARK INTRA:                  -1.254
REMARK UNBOUND:                -1.269
REMARK SMILES CCCCCC(=O)CCCCC
REMARK SMILES IDX 6 1 7 2 5 3 4 4 3 5 2 6 1 7 8 8 9 9 10 10 11 11 12 12
REMARK H PARENT
REMARK Flexibility Score: inf
ROOT
ATOM      1  C   UNL     1     128.729 145.217 139.469  1.00  0.00     0.132 C 
ATOM      2  O   UNL     1     129.023 145.640 140.577  1.00  0.00    -0.300 OA
ENDROOT
BRANCH   1   3
ATOM      3  C   UNL     1     129.162 145.981 138.247  1.00  0.00     0.075 C 
BRANCH   3   4
ATOM      4  C   UNL     1     130.652 146.337 138.330  1.00  0.00     0.008 C 
BRANCH   4   5
ATOM      5  C   UNL     1     131.572 145.168 137.935  1.00  0.00     0.000 C 
BRANCH   5   6
ATOM      6  C   UNL     1     132.632 144.792 138.986  1.00  0.00    -0.003 C 
ATOM      7  C   UNL     1     133.634 143.756 138.482  1.00  0.00     0.004 C 
ENDBRANCH   5   6
ENDBRANCH   4   5
ENDBRANCH   3   4
ENDBRANCH   1   3
BRANCH   1   8
ATOM      8  C   UNL     1     127.938 143.939 139.348  1.00  0.00     0.075 C 
BRANCH   8   9
ATOM      9  C   UNL     1     128.753 142.826 138.675  1.00  0.00     0.008 C 
BRANCH   9  10
ATOM     10  C   UNL     1     129.854 142.277 139.599  1.00  0.00     0.000 C 
BRANCH  10  11
ATOM     11  C   UNL     1     130.788 141.291 138.882  1.00  0.00    -0.003 C 
ATOM     12  C   UNL     1     130.831 141.508 137.370  1.00  0.00     0.004 C 
ENDBRANCH  10  11
ENDBRANCH   9  10
ENDBRANCH   8   9
ENDBRANCH   1   8
TORSDOF 8
ENDMDL
MODEL 5
REMARK VINA RESULT:    -1.980      1.524      3.469
REMARK INTER + INTRA:          -4.175
REMARK INTER:                  -2.787
REMARK INTRA:                  -1.389
REMARK UNBOUND:                -1.269
REMARK SMILES CCCCCC(=O)CCCCC
REMARK SMILES IDX 6 1 7 2 5 3 4 4 3 5 2 6 1 7 8 8 9 9 10 10 11 11 12 12
REMARK H PARENT
REMARK Flexibility Score: inf
ROOT
ATOM      1  C   UNL     1     129.292 144.696 139.273  1.00  0.00     0.132 C 
ATOM      2  O   UNL     1     129.188 144.861 140.479  1.00  0.00    -0.300 OA
ENDROOT
BRANCH   1   3
ATOM      3  C   UNL     1     129.178 143.307 138.704  1.00  0.00     0.075 C 
BRANCH   3   4
ATOM      4  C   UNL     1     130.016 142.315 139.522  1.00  0.00     0.008 C 
BRANCH   4   5
ATOM      5  C   UNL     1     131.352 141.958 138.846  1.00  0.00     0.000 C 
BRANCH   5   6
ATOM      6  C   UNL     1     131.291 141.831 137.313  1.00  0.00    -0.003 C 
ATOM      7  C   UNL     1     132.343 142.679 136.600  1.00  0.00     0.004 C 
ENDBRANCH   5   6
ENDBRANCH   4   5
ENDBRANCH   3   4
ENDBRANCH   1   3
BRANCH   1   8
ATOM      8  C   UNL     1     129.532 145.887 138.379  1.00  0.00     0.075 C 
BRANCH   8   9
ATOM      9  C   UNL     1     130.971 145.919 137.845  1.00  0.00     0.008 C 
BRANCH   9  10
ATOM     10  C   UNL     1     131.974 146.379 138.917  1.00  0.00     0.000 C 
BRANCH  10  11
ATOM     11  C   UNL     1     132.974 145.278 139.301  1.00  0.00    -0.003 C 
ATOM     12  C   UNL     1     132.780 144.773 140.730  1.00  0.00     0.004 C 
ENDBRANCH  10  11
ENDBRANCH   9  10
ENDBRANCH   8   9
ENDBRANCH   1   8
TORSDOF 8
ENDMDL
MODEL 6
REMARK VINA RESULT:    -1.977     10.273     12.487
REMARK INTER + INTRA:          -4.171
REMARK INTER:                  -2.857
REMARK INTRA:                  -1.314
REMARK UNBOUND:                -1.269
REMARK SMILES CCCCCC(=O)CCCCC
REMARK SMILES IDX 6 1 7 2 5 3 4 4 3 5 2 6 1 7 8 8 9 9 10 10 11 11 12 12
REMARK H PARENT
REMARK Flexibility Score: inf
ROOT
ATOM      1  C   UNL     1     128.033 132.808 139.176  1.00  0.00     0.132 C 
ATOM      2  O   UNL     1     127.920 133.035 140.372  1.00  0.00    -0.300 OA
ENDROOT
BRANCH   1   3
ATOM      3  C   UNL     1     127.915 131.393 138.678  1.00  0.00     0.075 C 
BRANCH   3   4
ATOM      4  C   UNL     1     129.014 130.510 139.284  1.00  0.00     0.008 C 
BRANCH   4   5
ATOM      5  C   UNL     1     130.358 130.632 138.545  1.00  0.00     0.000 C 
BRANCH   5   6
ATOM      6  C   UNL     1     131.565 130.959 139.444  1.00  0.00    -0.003 C 
ATOM      7  C   UNL     1     131.165 131.587 140.777  1.00  0.00     0.004 C 
ENDBRANCH   5   6
ENDBRANCH   4   5
ENDBRANCH   3   4
ENDBRANCH   1   3
BRANCH   1   8
ATOM      8  C   UNL     1     128.289 133.950 138.226  1.00  0.00     0.075 C 
BRANCH   8   9
ATOM      9  C   UNL     1     129.374 134.900 138.753  1.00  0.00     0.008 C 
BRANCH   9  10
ATOM     10  C   UNL     1     130.786 134.443 138.348  1.00  0.00     0.000 C 
BRANCH  10  11
ATOM     11  C   UNL     1     130.911 134.181 136.840  1.00  0.00    -0.003 C 
ATOM     12  C   UNL     1     132.064 133.238 136.496  1.00  0.00     0.004 C 
ENDBRANCH  10  11
ENDBRANCH   9  10
ENDBRANCH   8   9
ENDBRANCH   1   8
TORSDOF 8
ENDMDL
MODEL 7
REMARK VINA RESULT:    -1.968      1.835      4.904
REMARK INTER + INTRA:          -4.158
REMARK INTER:                  -3.077
REMARK INTRA:                  -1.081
REMARK UNBOUND:                -1.269
REMARK SMILES CCCCCC(=O)CCCCC
REMARK SMILES IDX 6 1 7 2 5 3 4 4 3 5 2 6 1 7 8 8 9 9 10 10 11 11 12 12
REMARK H PARENT
REMARK Flexibility Score: inf
ROOT
ATOM      1  C   UNL     1     131.709 141.517 137.519  1.00  0.00     0.132 C 
ATOM      2  O   UNL     1     131.301 141.377 136.375  1.00  0.00    -0.300 OA
ENDROOT
BRANCH   1   3
ATOM      3  C   UNL     1     131.193 140.610 138.604  1.00  0.00     0.075 C 
BRANCH   3   4
ATOM      4  C   UNL     1     130.344 141.396 139.610  1.00  0.00     0.008 C 
BRANCH   4   5
ATOM      5  C   UNL     1     128.899 141.622 139.131  1.00  0.00     0.000 C 
BRANCH   5   6
ATOM      6  C   UNL     1     128.577 143.064 138.700  1.00  0.00    -0.003 C 
ATOM      7  C   UNL     1     128.811 144.087 139.810  1.00  0.00     0.004 C 
ENDBRANCH   5   6
ENDBRANCH   4   5
ENDBRANCH   3   4
ENDBRANCH   1   3
BRANCH   1   8
ATOM      8  C   UNL     1     132.720 142.594 137.820  1.00  0.00     0.075 C 
BRANCH   8   9
ATOM      9  C   UNL     1     132.131 143.999 137.628  1.00  0.00     0.008 C 
BRANCH   9  10
ATOM     10  C   UNL     1     132.438 144.921 138.821  1.00  0.00     0.000 C 
BRANCH  10  11
ATOM     11  C   UNL     1     131.716 146.273 138.722  1.00  0.00    -0.003 C 
ATOM     12  C   UNL     1     130.746 146.342 137.544  1.00  0.00     0.004 C 
ENDBRANCH  10  11
ENDBRANCH   9  10
ENDBRANCH   8   9
ENDBRANCH   1   8
TORSDOF 8
ENDMDL
MODEL 8
REMARK VINA RESULT:    -1.909     10.469     12.820
REMARK INTER + INTRA:          -4.070
REMARK INTER:                  -2.719
REMARK INTRA:                  -1.351
REMARK UNBOUND:                -1.269
REMARK SMILES CCCCCC(=O)CCCCC
REMARK SMILES IDX 6 1 7 2 5 3 4 4 3 5 2 6 1 7 8 8 9 9 10 10 11 11 12 12
REMARK H PARENT
REMARK Flexibility Score: inf
ROOT
ATOM      1  C   UNL     1     144.220 144.177 140.737  1.00  0.00     0.132 C 
ATOM      2  O   UNL     1     144.628 143.978 141.872  1.00  0.00    -0.300 OA
ENDROOT
BRANCH   1   3
ATOM      3  C   UNL     1     145.143 144.786 139.716  1.00  0.00     0.075 C 
BRANCH   3   4
ATOM      4  C   UNL     1     144.880 146.291 139.577  1.00  0.00     0.008 C 
BRANCH   4   5
ATOM      5  C   UNL     1     144.092 146.649 138.304  1.00  0.00     0.000 C 
BRANCH   5   6
ATOM      6  C   UNL     1     142.765 147.389 138.550  1.00  0.00    -0.003 C 
ATOM      7  C   UNL     1     142.424 147.530 140.032  1.00  0.00     0.004 C 
ENDBRANCH   5   6
ENDBRANCH   4   5
ENDBRANCH   3   4
ENDBRANCH   1   3
BRANCH   1   8
ATOM      8  C   UNL     1     142.802 143.808 140.384  1.00  0.00     0.075 C 
BRANCH   8   9
ATOM      9  C   UNL     1     142.715 143.118 139.015  1.00  0.00     0.008 C 
BRANCH   9  10
ATOM     10  C   UNL     1     141.708 143.811 138.082  1.00  0.00     0.000 C 
BRANCH  10  11
ATOM     11  C   UNL     1     140.509 144.398 138.841  1.00  0.00    -0.003 C 
ATOM     12  C   UNL     1     139.710 145.398 138.006  1.00  0.00     0.004 C 
ENDBRANCH  10  11
ENDBRANCH   9  10
ENDBRANCH   8   9
ENDBRANCH   1   8
TORSDOF 8
ENDMDL
MODEL 9
REMARK VINA RESULT:    -1.902      1.236      4.180
REMARK INTER + INTRA:          -4.061
REMARK INTER:                  -3.166
REMARK INTRA:                  -0.895
REMARK UNBOUND:                -1.269
REMARK SMILES CCCCCC(=O)CCCCC
REMARK SMILES IDX 6 1 7 2 5 3 4 4 3 5 2 6 1 7 8 8 9 9 10 10 11 11 12 12
REMARK H PARENT
REMARK Flexibility Score: inf
ROOT
ATOM      1  C   UNL     1     130.587 145.850 137.897  1.00  0.00     0.132 C 
ATOM      2  O   UNL     1     130.544 146.648 136.973  1.00  0.00    -0.300 OA
ENDROOT
BRANCH   1   3
ATOM      3  C   UNL     1     129.602 145.975 139.028  1.00  0.00     0.075 C 
BRANCH   3   4
ATOM      4  C   UNL     1     128.305 145.222 138.705  1.00  0.00     0.008 C 
BRANCH   4   5
ATOM      5  C   UNL     1     127.932 144.181 139.776  1.00  0.00     0.000 C 
BRANCH   5   6
ATOM      6  C   UNL     1     128.779 142.896 139.754  1.00  0.00    -0.003 C 
ATOM      7  C   UNL     1     128.802 142.218 138.385  1.00  0.00     0.004 C 
ENDBRANCH   5   6
ENDBRANCH   4   5
ENDBRANCH   3   4
ENDBRANCH   1   3
BRANCH   1   8
ATOM      8  C   UNL     1     131.624 144.755 137.885  1.00  0.00     0.075 C 
BRANCH   8   9
ATOM      9  C   UNL     1     132.164 144.465 139.292  1.00  0.00     0.008 C 
BRANCH   9  10
ATOM     10  C   UNL     1     133.637 144.881 139.442  1.00  0.00     0.000 C 
BRANCH  10  11
ATOM     11  C   UNL     1     133.817 146.092 140.369  1.00  0.00    -0.003 C 
ATOM     12  C   UNL     1     133.267 147.384 139.768  1.00  0.00     0.004 C 
ENDBRANCH  10  11
ENDBRANCH   9  10
ENDBRANCH   8   9
ENDBRANCH   1   8
TORSDOF 8
ENDMDL
