MODEL 1
REMARK VINA RESULT:    -7.373      0.000      0.000
REMARK INTER + INTRA:          -8.055
REMARK INTER:                  -7.804
REMARK INTRA:                  -0.251
REMARK UNBOUND:                -0.251
REMARK SMILES O=c1cc(-c2ccccc2)oc2ccccc12
REMARK SMILES IDX 4 1 3 2 2 3 1 4 17 5 16 6 15 7 14 8 13 9 12 10 11 11 5 12
REMARK SMILES IDX 8 13 7 14 9 15 6 16 10 17
REMARK H PARENT
REMARK Flexibility Score: inf
ROOT
ATOM      1  C   UNL     1       4.448   0.561 -23.029  1.00  0.00     0.138 A 
ATOM      2  C   UNL     1       5.452  -0.409 -23.238  1.00  0.00     0.100 A 
ATOM      3  C   UNL     1       5.089  -1.739 -23.456  1.00  0.00     0.193 A 
ATOM      4  O   UNL     1       5.986  -2.606 -23.643  1.00  0.00    -0.289 OA
ATOM      5  C   UNL     1       3.732  -2.092 -23.465  1.00  0.00     0.065 A 
ATOM      6  C   UNL     1       3.299  -3.414 -23.679  1.00  0.00     0.016 A 
ATOM      7  C   UNL     1       1.932  -3.711 -23.678  1.00  0.00     0.001 A 
ATOM      8  C   UNL     1       0.993  -2.698 -23.464  1.00  0.00     0.004 A 
ATOM      9  C   UNL     1       1.415  -1.383 -23.251  1.00  0.00     0.048 A 
ATOM     10  C   UNL     1       2.779  -1.074 -23.250  1.00  0.00     0.138 A 
ATOM     11  O   UNL     1       3.171   0.180 -23.046  1.00  0.00    -0.456 OA
ENDROOT
BRANCH   1  12
ATOM     12  C   UNL     1       4.750   2.006 -22.788  1.00  0.00     0.017 A 
ATOM     13  C   UNL     1       5.395   4.726 -22.400  1.00  0.00     0.000 A 
ATOM     14  C   UNL     1       6.148   3.949 -23.279  1.00  0.00     0.001 A 
ATOM     15  C   UNL     1       4.324   4.158 -21.711  1.00  0.00     0.001 A 
ATOM     16  C   UNL     1       5.830   2.602 -23.474  1.00  0.00     0.012 A 
ATOM     17  C   UNL     1       3.999   2.810 -21.900  1.00  0.00     0.012 A 
ENDBRANCH   1  12
TORSDOF 1
ENDMDL
MODEL 2
REMARK VINA RESULT:    -7.059      1.163      1.189
REMARK INTER + INTRA:          -7.722
REMARK INTER:                  -7.462
REMARK INTRA:                  -0.260
REMARK UNBOUND:                -0.251
REMARK SMILES O=c1cc(-c2ccccc2)oc2ccccc12
REMARK SMILES IDX 4 1 3 2 2 3 1 4 17 5 16 6 15 7 14 8 13 9 12 10 11 11 5 12
REMARK SMILES IDX 8 13 7 14 9 15 6 16 10 17
REMARK H PARENT
REMARK Flexibility Score: inf
ROOT
ATOM      1  C   UNL     1       4.360   0.786 -23.349  1.00  0.00     0.138 A 
ATOM      2  C   UNL     1       4.712   0.195 -24.581  1.00  0.00     0.100 A 
ATOM      3  C   UNL     1       4.318  -1.116 -24.853  1.00  0.00     0.193 A 
ATOM      4  O   UNL     1       4.632  -1.644 -25.955  1.00  0.00    -0.289 OA
ATOM      5  C   UNL     1       3.577  -1.827 -23.898  1.00  0.00     0.065 A 
ATOM      6  C   UNL     1       3.149  -3.150 -24.110  1.00  0.00     0.016 A 
ATOM      7  C   UNL     1       2.412  -3.813 -23.123  1.00  0.00     0.001 A 
ATOM      8  C   UNL     1       2.099  -3.165 -21.924  1.00  0.00     0.004 A 
ATOM      9  C   UNL     1       2.521  -1.851 -21.707  1.00  0.00     0.048 A 
ATOM     10  C   UNL     1       3.259  -1.178 -22.687  1.00  0.00     0.138 A 
ATOM     11  O   UNL     1       3.655   0.073 -22.471  1.00  0.00    -0.456 OA
ENDROOT
BRANCH   1  12
ATOM     12  C   UNL     1       4.742   2.183 -22.979  1.00  0.00     0.017 A 
ATOM     13  C   UNL     1       5.536   4.817 -22.347  1.00  0.00     0.000 A 
ATOM     14  C   UNL     1       6.236   4.089 -23.307  1.00  0.00     0.001 A 
ATOM     15  C   UNL     1       4.443   4.243 -21.697  1.00  0.00     0.001 A 
ATOM     16  C   UNL     1       5.845   2.785 -23.623  1.00  0.00     0.012 A 
ATOM     17  C   UNL     1       4.045   2.938 -22.006  1.00  0.00     0.012 A 
ENDBRANCH   1  12
TORSDOF 1
ENDMDL
MODEL 3
REMARK VINA RESULT:    -6.824      1.760      2.369
REMARK INTER + INTRA:          -7.474
REMARK INTER:                  -7.227
REMARK INTRA:                  -0.247
REMARK UNBOUND:                -0.251
REMARK SMILES O=c1cc(-c2ccccc2)oc2ccccc12
REMARK SMILES IDX 4 1 3 2 2 3 1 4 17 5 16 6 15 7 14 8 13 9 12 10 11 11 5 12
REMARK SMILES IDX 8 13 7 14 9 15 6 16 10 17
REMARK H PARENT
REMARK Flexibility Score: inf
ROOT
ATOM      1  C   UNL     1       4.569   1.695 -22.995  1.00  0.00     0.138 A 
ATOM      2  C   UNL     1       3.975   0.904 -21.989  1.00  0.00     0.100 A 
ATOM      3  C   UNL     1       3.683  -0.436 -22.248  1.00  0.00     0.193 A 
ATOM      4  O   UNL     1       3.151  -1.143 -21.349  1.00  0.00    -0.289 OA
ATOM      5  C   UNL     1       3.985  -0.977 -23.506  1.00  0.00     0.065 A 
ATOM      6  C   UNL     1       3.716  -2.319 -23.833  1.00  0.00     0.016 A 
ATOM      7  C   UNL     1       4.039  -2.807 -25.104  1.00  0.00     0.001 A 
ATOM      8  C   UNL     1       4.627  -1.965 -26.052  1.00  0.00     0.004 A 
ATOM      9  C   UNL     1       4.897  -0.632 -25.735  1.00  0.00     0.048 A 
ATOM     10  C   UNL     1       4.579  -0.132 -24.468  1.00  0.00     0.138 A 
ATOM     11  O   UNL     1       4.839   1.138 -24.176  1.00  0.00    -0.456 OA
ENDROOT
BRANCH   1  12
ATOM     12  C   UNL     1       4.915   3.136 -22.798  1.00  0.00     0.017 A 
ATOM     13  C   UNL     1       5.653   5.842 -22.475  1.00  0.00     0.000 A 
ATOM     14  C   UNL     1       6.521   4.952 -23.105  1.00  0.00     0.001 A 
ATOM     15  C   UNL     1       4.419   5.393 -22.003  1.00  0.00     0.001 A 
ATOM     16  C   UNL     1       6.158   3.612 -23.268  1.00  0.00     0.012 A 
ATOM     17  C   UNL     1       4.048   4.054 -22.161  1.00  0.00     0.012 A 
ENDBRANCH   1  12
TORSDOF 1
ENDMDL
MODEL 4
REMARK VINA RESULT:    -6.797      1.933      2.958
REMARK INTER + INTRA:          -7.445
REMARK INTER:                  -7.209
REMARK INTRA:                  -0.237
REMARK UNBOUND:                -0.251
REMARK SMILES O=c1cc(-c2ccccc2)oc2ccccc12
REMARK SMILES IDX 4 1 3 2 2 3 1 4 17 5 16 6 15 7 14 8 13 9 12 10 11 11 5 12
REMARK SMILES IDX 8 13 7 14 9 15 6 16 10 17
REMARK H PARENT
REMARK Flexibility Score: inf
ROOT
ATOM      1  C   UNL     1       4.392   2.065 -24.037  1.00  0.00     0.138 A 
ATOM      2  C   UNL     1       3.476   1.915 -25.100  1.00  0.00     0.100 A 
ATOM      3  C   UNL     1       3.143   0.636 -25.547  1.00  0.00     0.193 A 
ATOM      4  O   UNL     1       2.325   0.501 -26.497  1.00  0.00    -0.289 OA
ATOM      5  C   UNL     1       3.723  -0.483 -24.932  1.00  0.00     0.065 A 
ATOM      6  C   UNL     1       3.430  -1.800 -25.333  1.00  0.00     0.016 A 
ATOM      7  C   UNL     1       4.037  -2.880 -24.684  1.00  0.00     0.001 A 
ATOM      8  C   UNL     1       4.936  -2.657 -23.637  1.00  0.00     0.004 A 
ATOM      9  C   UNL     1       5.231  -1.353 -23.233  1.00  0.00     0.048 A 
ATOM     10  C   UNL     1       4.631  -0.264 -23.874  1.00  0.00     0.138 A 
ATOM     11  O   UNL     1       4.918   0.973 -23.482  1.00  0.00    -0.456 OA
ENDROOT
BRANCH   1  12
ATOM     12  C   UNL     1       4.802   3.398 -23.499  1.00  0.00     0.017 A 
ATOM     13  C   UNL     1       5.481   5.936 -22.467  1.00  0.00     0.000 A 
ATOM     14  C   UNL     1       4.144   5.556 -22.560  1.00  0.00     0.001 A 
ATOM     15  C   UNL     1       6.484   5.062 -22.885  1.00  0.00     0.001 A 
ATOM     16  C   UNL     1       3.804   4.300 -23.069  1.00  0.00     0.012 A 
ATOM     17  C   UNL     1       6.154   3.803 -23.397  1.00  0.00     0.012 A 
ENDBRANCH   1  12
TORSDOF 1
ENDMDL
MODEL 5
REMARK VINA RESULT:    -6.741      1.527      5.923
REMARK INTER + INTRA:          -7.386
REMARK INTER:                  -7.121
REMARK INTRA:                  -0.265
REMARK UNBOUND:                -0.251
REMARK SMILES O=c1cc(-c2ccccc2)oc2ccccc12
REMARK SMILES IDX 4 1 3 2 2 3 1 4 17 5 16 6 15 7 14 8 13 9 12 10 11 11 5 12
REMARK SMILES IDX 8 13 7 14 9 15 6 16 10 17
REMARK H PARENT
REMARK Flexibility Score: inf
ROOT
ATOM      1  C   UNL     1       3.916   0.016 -23.601  1.00  0.00     0.138 A 
ATOM      2  C   UNL     1       4.467   0.349 -24.857  1.00  0.00     0.100 A 
ATOM      3  C   UNL     1       4.966   1.634 -25.071  1.00  0.00     0.193 A 
ATOM      4  O   UNL     1       5.459   1.932 -26.193  1.00  0.00    -0.289 OA
ATOM      5  C   UNL     1       4.914   2.577 -24.034  1.00  0.00     0.065 A 
ATOM      6  C   UNL     1       5.399   3.889 -24.183  1.00  0.00     0.016 A 
ATOM      7  C   UNL     1       5.322   4.789 -23.115  1.00  0.00     0.001 A 
ATOM      8  C   UNL     1       4.763   4.390 -21.898  1.00  0.00     0.004 A 
ATOM      9  C   UNL     1       4.279   3.089 -21.742  1.00  0.00     0.048 A 
ATOM     10  C   UNL     1       4.350   2.180 -22.803  1.00  0.00     0.138 A 
ATOM     11  O   UNL     1       3.887   0.944 -22.645  1.00  0.00    -0.456 OA
ENDROOT
BRANCH   1  12
ATOM     12  C   UNL     1       3.360  -1.337 -23.290  1.00  0.00     0.017 A 
ATOM     13  C   UNL     1       2.349  -3.924 -22.787  1.00  0.00     0.000 A 
ATOM     14  C   UNL     1       3.040  -3.663 -23.969  1.00  0.00     0.001 A 
ATOM     15  C   UNL     1       2.156  -2.905 -21.853  1.00  0.00     0.001 A 
ATOM     16  C   UNL     1       3.543  -2.383 -24.220  1.00  0.00     0.012 A 
ATOM     17  C   UNL     1       2.655  -1.622 -22.097  1.00  0.00     0.012 A 
ENDBRANCH   1  12
TORSDOF 1
ENDMDL
MODEL 6
REMARK VINA RESULT:    -6.721      1.932      3.006
REMARK INTER + INTRA:          -7.365
REMARK INTER:                  -7.135
REMARK INTRA:                  -0.230
REMARK UNBOUND:                -0.251
REMARK SMILES O=c1cc(-c2ccccc2)oc2ccccc12
REMARK SMILES IDX 4 1 3 2 2 3 1 4 17 5 16 6 15 7 14 8 13 9 12 10 11 11 5 12
REMARK SMILES IDX 8 13 7 14 9 15 6 16 10 17
REMARK H PARENT
REMARK Flexibility Score: inf
ROOT
ATOM      1  C   UNL     1       4.622   2.304 -23.301  1.00  0.00     0.138 A 
ATOM      2  C   UNL     1       4.211   1.383 -22.315  1.00  0.00     0.100 A 
ATOM      3  C   UNL     1       4.014   0.045 -22.660  1.00  0.00     0.193 A 
ATOM      4  O   UNL     1       3.647  -0.778 -21.778  1.00  0.00    -0.289 OA
ATOM      5  C   UNL     1       4.229  -0.365 -23.984  1.00  0.00     0.065 A 
ATOM      6  C   UNL     1       4.049  -1.698 -24.398  1.00  0.00     0.016 A 
ATOM      7  C   UNL     1       4.278  -2.052 -25.731  1.00  0.00     0.001 A 
ATOM      8  C   UNL     1       4.685  -1.086 -26.656  1.00  0.00     0.004 A 
ATOM      9  C   UNL     1       4.866   0.239 -26.252  1.00  0.00     0.048 A 
ATOM     10  C   UNL     1       4.640   0.606 -24.922  1.00  0.00     0.138 A 
ATOM     11  O   UNL     1       4.815   1.869 -24.547  1.00  0.00    -0.456 OA
ENDROOT
BRANCH   1  12
ATOM     12  C   UNL     1       4.855   3.753 -23.015  1.00  0.00     0.017 A 
ATOM     13  C   UNL     1       5.198   6.498 -22.453  1.00  0.00     0.000 A 
ATOM     14  C   UNL     1       3.936   5.916 -22.344  1.00  0.00     0.001 A 
ATOM     15  C   UNL     1       6.291   5.723 -22.842  1.00  0.00     0.001 A 
ATOM     16  C   UNL     1       3.764   4.557 -22.621  1.00  0.00     0.012 A 
ATOM     17  C   UNL     1       6.127   4.362 -23.121  1.00  0.00     0.012 A 
ENDBRANCH   1  12
TORSDOF 1
ENDMDL
MODEL 7
REMARK VINA RESULT:    -6.620      1.719      5.907
REMARK INTER + INTRA:          -7.257
REMARK INTER:                  -7.006
REMARK INTRA:                  -0.251
REMARK UNBOUND:                -0.251
REMARK SMILES O=c1cc(-c2ccccc2)oc2ccccc12
REMARK SMILES IDX 4 1 3 2 2 3 1 4 17 5 16 6 15 7 14 8 13 9 12 10 11 11 5 12
REMARK SMILES IDX 8 13 7 14 9 15 6 16 10 17
REMARK H PARENT
REMARK Flexibility Score: inf
ROOT
ATOM      1  C   UNL     1       3.172  -0.782 -23.411  1.00  0.00     0.138 A 
ATOM      2  C   UNL     1       4.248  -0.546 -22.528  1.00  0.00     0.100 A 
ATOM      3  C   UNL     1       5.008   0.616 -22.665  1.00  0.00     0.193 A 
ATOM      4  O   UNL     1       5.970   0.827 -21.876  1.00  0.00    -0.289 OA
ATOM      5  C   UNL     1       4.692   1.533 -23.678  1.00  0.00     0.065 A 
ATOM      6  C   UNL     1       5.419   2.723 -23.871  1.00  0.00     0.016 A 
ATOM      7  C   UNL     1       5.060   3.602 -24.897  1.00  0.00     0.001 A 
ATOM      8  C   UNL     1       3.981   3.303 -25.735  1.00  0.00     0.004 A 
ATOM      9  C   UNL     1       3.256   2.124 -25.550  1.00  0.00     0.048 A 
ATOM     10  C   UNL     1       3.605   1.237 -24.527  1.00  0.00     0.138 A 
ATOM     11  O   UNL     1       2.908   0.117 -24.359  1.00  0.00    -0.456 OA
ENDROOT
BRANCH   1  12
ATOM     12  C   UNL     1       2.308  -2.000 -23.333  1.00  0.00     0.017 A 
ATOM     13  C   UNL     1       0.757  -4.352 -23.158  1.00  0.00     0.000 A 
ATOM     14  C   UNL     1       2.124  -4.396 -22.889  1.00  0.00     0.001 A 
ATOM     15  C   UNL     1       0.156  -3.144 -23.515  1.00  0.00     0.001 A 
ATOM     16  C   UNL     1       2.894  -3.233 -22.973  1.00  0.00     0.012 A 
ATOM     17  C   UNL     1       0.920  -1.976 -23.603  1.00  0.00     0.012 A 
ENDBRANCH   1  12
TORSDOF 1
ENDMDL
MODEL 8
REMARK VINA RESULT:    -6.577      1.656      6.218
REMARK INTER + INTRA:          -7.212
REMARK INTER:                  -6.991
REMARK INTRA:                  -0.221
REMARK UNBOUND:                -0.251
REMARK SMILES O=c1cc(-c2ccccc2)oc2ccccc12
REMARK SMILES IDX 4 1 3 2 2 3 1 4 17 5 16 6 15 7 14 8 13 9 12 10 11 11 5 12
REMARK SMILES IDX 8 13 7 14 9 15 6 16 10 17
REMARK H PARENT
REMARK Flexibility Score: inf
ROOT
ATOM      1  C   UNL     1       2.649  -1.216 -24.102  1.00  0.00     0.138 A 
ATOM      2  C   UNL     1       2.612  -0.624 -25.381  1.00  0.00     0.100 A 
ATOM      3  C   UNL     1       3.215   0.619 -25.583  1.00  0.00     0.193 A 
ATOM      4  O   UNL     1       3.181   1.149 -26.727  1.00  0.00    -0.289 OA
ATOM      5  C   UNL     1       3.850   1.260 -24.510  1.00  0.00     0.065 A 
ATOM      6  C   UNL     1       4.477   2.513 -24.645  1.00  0.00     0.016 A 
ATOM      7  C   UNL     1       5.096   3.107 -23.541  1.00  0.00     0.001 A 
ATOM      8  C   UNL     1       5.094   2.462 -22.301  1.00  0.00     0.004 A 
ATOM      9  C   UNL     1       4.475   1.218 -22.159  1.00  0.00     0.048 A 
ATOM     10  C   UNL     1       3.852   0.613 -23.256  1.00  0.00     0.138 A 
ATOM     11  O   UNL     1       3.265  -0.571 -23.111  1.00  0.00    -0.456 OA
ENDROOT
BRANCH   1  12
ATOM     12  C   UNL     1       2.029  -2.543 -23.801  1.00  0.00     0.017 A 
ATOM     13  C   UNL     1       0.948  -5.090 -23.242  1.00  0.00     0.000 A 
ATOM     14  C   UNL     1       2.309  -4.954 -23.509  1.00  0.00     0.001 A 
ATOM     15  C   UNL     1       0.120  -3.967 -23.252  1.00  0.00     0.001 A 
ATOM     16  C   UNL     1       2.847  -3.694 -23.785  1.00  0.00     0.012 A 
ATOM     17  C   UNL     1       0.651  -2.703 -23.528  1.00  0.00     0.012 A 
ENDBRANCH   1  12
TORSDOF 1
ENDMDL
MODEL 9
REMARK VINA RESULT:    -6.482      2.507      6.637
REMARK INTER + INTRA:          -7.112
REMARK INTER:                  -6.860
REMARK INTRA:                  -0.252
REMARK UNBOUND:                -0.251
REMARK SMILES O=c1cc(-c2ccccc2)oc2ccccc12
REMARK SMILES IDX 4 1 3 2 2 3 1 4 17 5 16 6 15 7 14 8 13 9 12 10 11 11 5 12
REMARK SMILES IDX 8 13 7 14 9 15 6 16 10 17
REMARK H PARENT
REMARK Flexibility Score: inf
ROOT
ATOM      1  C   UNL     1       4.433   1.776 -24.441  1.00  0.00     0.138 A 
ATOM      2  C   UNL     1       3.461   2.441 -25.218  1.00  0.00     0.100 A 
ATOM      3  C   UNL     1       3.342   3.829 -25.132  1.00  0.00     0.193 A 
ATOM      4  O   UNL     1       2.473   4.423 -25.827  1.00  0.00    -0.289 OA
ATOM      5  C   UNL     1       4.191   4.543 -24.274  1.00  0.00     0.065 A 
ATOM      6  C   UNL     1       4.123   5.942 -24.140  1.00  0.00     0.016 A 
ATOM      7  C   UNL     1       4.995   6.604 -23.270  1.00  0.00     0.001 A 
ATOM      8  C   UNL     1       5.934   5.880 -22.530  1.00  0.00     0.004 A 
ATOM      9  C   UNL     1       6.008   4.491 -22.657  1.00  0.00     0.048 A 
ATOM     10  C   UNL     1       5.141   3.818 -23.525  1.00  0.00     0.138 A 
ATOM     11  O   UNL     1       5.219   2.495 -23.639  1.00  0.00    -0.456 OA
ENDROOT
BRANCH   1  12
ATOM     12  C   UNL     1       4.626   0.294 -24.474  1.00  0.00     0.017 A 
ATOM     13  C   UNL     1       5.010  -2.502 -24.438  1.00  0.00     0.000 A 
ATOM     14  C   UNL     1       5.154  -1.764 -23.265  1.00  0.00     0.001 A 
ATOM     15  C   UNL     1       4.677  -1.859 -25.630  1.00  0.00     0.001 A 
ATOM     16  C   UNL     1       4.964  -0.379 -23.279  1.00  0.00     0.012 A 
ATOM     17  C   UNL     1       4.485  -0.473 -25.653  1.00  0.00     0.012 A 
ENDBRANCH   1  12
TORSDOF 1
ENDMDL
