MODEL 1
REMARK VINA RESULT:    -3.953      0.000      0.000
REMARK INTER + INTRA:          -4.644
REMARK INTER:                  -4.646
REMARK INTRA:                   0.002
REMARK UNBOUND:                 0.002
REMARK SMILES CCCCC(=O)[O-]
REMARK SMILES IDX 4 1 5 2 6 3 7 4 3 5 2 6 1 7
REMARK H PARENT
REMARK Flexibility Score: inf
ROOT
ATOM      1  C   UNL     1      49.175  53.346  42.852  1.00  0.00     0.053 C 
ENDROOT
BRANCH   1   2
ATOM      2  C   UNL     1      48.006  54.078  42.268  1.00  0.00     0.041 C 
ATOM      3  O   UNL     1      48.165  55.212  41.743  1.00  0.00    -0.550 OA
ATOM      4  O   UNL     1      46.734  53.523  42.334  1.00  0.00    -0.550 OA
ENDBRANCH   1   2
BRANCH   1   5
ATOM      5  C   UNL     1      49.133  53.340  44.385  1.00  0.00     0.006 C 
BRANCH   5   6
ATOM      6  C   UNL     1      48.974  54.752  44.968  1.00  0.00    -0.003 C 
ATOM      7  C   UNL     1      50.146  55.645  44.574  1.00  0.00     0.004 C 
ENDBRANCH   5   6
ENDBRANCH   1   5
TORSDOF 3
ENDMDL
MODEL 2
REMARK VINA RESULT:    -3.889     16.678     17.279
REMARK INTER + INTRA:          -4.569
REMARK INTER:                  -4.932
REMARK INTRA:                   0.363
REMARK UNBOUND:                 0.002
REMARK SMILES CCCCC(=O)[O-]
REMARK SMILES IDX 4 1 5 2 6 3 7 4 3 5 2 6 1 7
REMARK H PARENT
REMARK Flexibility Score: inf
ROOT
ATOM      1  C   UNL     1      37.609  63.302  51.634  1.00  0.00     0.053 C 
ENDROOT
BRANCH   1   2
ATOM      2  C   UNL     1      36.137  63.316  51.359  1.00  0.00     0.041 C 
ATOM      3  O   UNL     1      35.421  64.260  51.785  1.00  0.00    -0.550 OA
ATOM      4  O   UNL     1      35.549  62.268  50.661  1.00  0.00    -0.550 OA
ENDBRANCH   1   2
BRANCH   1   5
ATOM      5  C   UNL     1      37.914  62.882  53.077  1.00  0.00     0.006 C 
BRANCH   5   6
ATOM      6  C   UNL     1      36.738  62.136  53.725  1.00  0.00    -0.003 C 
ATOM      7  C   UNL     1      36.736  60.662  53.331  1.00  0.00     0.004 C 
ENDBRANCH   5   6
ENDBRANCH   1   5
TORSDOF 3
ENDMDL
MODEL 3
REMARK VINA RESULT:    -3.662      7.254      7.912
REMARK INTER + INTRA:          -4.302
REMARK INTER:                  -4.202
REMARK INTRA:                  -0.101
REMARK UNBOUND:                 0.002
REMARK SMILES CCCCC(=O)[O-]
REMARK SMILES IDX 4 1 5 2 6 3 7 4 3 5 2 6 1 7
REMARK H PARENT
REMARK Flexibility Score: inf
ROOT
ATOM      1  C   UNL     1      43.561  57.747  46.605  1.00  0.00     0.053 C 
ENDROOT
BRANCH   1   2
ATOM      2  C   UNL     1      42.536  57.373  45.579  1.00  0.00     0.041 C 
ATOM      3  O   UNL     1      41.310  57.416  45.863  1.00  0.00    -0.550 OA
ATOM      4  O   UNL     1      42.936  56.944  44.320  1.00  0.00    -0.550 OA
ENDBRANCH   1   2
BRANCH   1   5
ATOM      5  C   UNL     1      43.363  56.974  47.915  1.00  0.00     0.006 C 
BRANCH   5   6
ATOM      6  C   UNL     1      43.074  57.906  49.102  1.00  0.00    -0.003 C 
ATOM      7  C   UNL     1      41.574  58.119  49.281  1.00  0.00     0.004 C 
ENDBRANCH   5   6
ENDBRANCH   1   5
TORSDOF 3
ENDMDL
MODEL 4
REMARK VINA RESULT:    -3.636      7.793      8.528
REMARK INTER + INTRA:          -4.271
REMARK INTER:                  -4.167
REMARK INTRA:                  -0.104
REMARK UNBOUND:                 0.002
REMARK SMILES CCCCC(=O)[O-]
REMARK SMILES IDX 4 1 5 2 6 3 7 4 3 5 2 6 1 7
REMARK H PARENT
REMARK Flexibility Score: inf
ROOT
ATOM      1  C   UNL     1      44.117  57.788  47.533  1.00  0.00     0.053 C 
ENDROOT
BRANCH   1   2
ATOM      2  C   UNL     1      45.203  58.018  48.538  1.00  0.00     0.041 C 
ATOM      3  O   UNL     1      46.243  57.309  48.523  1.00  0.00    -0.550 OA
ATOM      4  O   UNL     1      45.051  58.994  49.515  1.00  0.00    -0.550 OA
ENDBRANCH   1   2
BRANCH   1   5
ATOM      5  C   UNL     1      43.719  59.086  46.818  1.00  0.00     0.006 C 
BRANCH   5   6
ATOM      6  C   UNL     1      42.225  59.404  46.980  1.00  0.00    -0.003 C 
ATOM      7  C   UNL     1      41.975  60.253  48.222  1.00  0.00     0.004 C 
ENDBRANCH   5   6
ENDBRANCH   1   5
TORSDOF 3
ENDMDL
MODEL 5
REMARK VINA RESULT:    -3.633      9.030      9.777
REMARK INTER + INTRA:          -4.268
REMARK INTER:                  -4.163
REMARK INTRA:                  -0.104
REMARK UNBOUND:                 0.002
REMARK SMILES CCCCC(=O)[O-]
REMARK SMILES IDX 4 1 5 2 6 3 7 4 3 5 2 6 1 7
REMARK H PARENT
REMARK Flexibility Score: inf
ROOT
ATOM      1  C   UNL     1      42.065  59.458  48.621  1.00  0.00     0.053 C 
ENDROOT
BRANCH   1   2
ATOM      2  C   UNL     1      43.035  60.462  49.164  1.00  0.00     0.041 C 
ATOM      3  O   UNL     1      44.274  60.249  49.096  1.00  0.00    -0.550 OA
ATOM      4  O   UNL     1      42.569  61.618  49.778  1.00  0.00    -0.550 OA
ENDBRANCH   1   2
BRANCH   1   5
ATOM      5  C   UNL     1      42.236  58.086  49.285  1.00  0.00     0.006 C 
BRANCH   5   6
ATOM      6  C   UNL     1      42.520  56.977  48.262  1.00  0.00    -0.003 C 
ATOM      7  C   UNL     1      44.000  56.933  47.894  1.00  0.00     0.004 C 
ENDBRANCH   5   6
ENDBRANCH   1   5
TORSDOF 3
ENDMDL
MODEL 6
REMARK VINA RESULT:    -3.615      9.248     10.016
REMARK INTER + INTRA:          -4.247
REMARK INTER:                  -4.117
REMARK INTRA:                  -0.131
REMARK UNBOUND:                 0.002
REMARK SMILES CCCCC(=O)[O-]
REMARK SMILES IDX 4 1 5 2 6 3 7 4 3 5 2 6 1 7
REMARK H PARENT
REMARK Flexibility Score: inf
ROOT
ATOM      1  C   UNL     1      42.973  59.921  47.874  1.00  0.00     0.053 C 
ENDROOT
BRANCH   1   2
ATOM      2  C   UNL     1      43.632  60.466  49.104  1.00  0.00     0.041 C 
ATOM      3  O   UNL     1      44.742  60.010  49.485  1.00  0.00    -0.550 OA
ATOM      4  O   UNL     1      43.002  61.454  49.851  1.00  0.00    -0.550 OA
ENDBRANCH   1   2
BRANCH   1   5
ATOM      5  C   UNL     1      41.616  59.281  48.192  1.00  0.00     0.006 C 
BRANCH   5   6
ATOM      6  C   UNL     1      41.753  58.058  49.112  1.00  0.00    -0.003 C 
ATOM      7  C   UNL     1      42.570  56.956  48.446  1.00  0.00     0.004 C 
ENDBRANCH   5   6
ENDBRANCH   1   5
TORSDOF 3
ENDMDL
MODEL 7
REMARK VINA RESULT:    -3.601      8.654      9.432
REMARK INTER + INTRA:          -4.230
REMARK INTER:                  -4.128
REMARK INTRA:                  -0.103
REMARK UNBOUND:                 0.002
REMARK SMILES CCCCC(=O)[O-]
REMARK SMILES IDX 4 1 5 2 6 3 7 4 3 5 2 6 1 7
REMARK H PARENT
REMARK Flexibility Score: inf
ROOT
ATOM      1  C   UNL     1      41.681  58.949  48.404  1.00  0.00     0.053 C 
ENDROOT
BRANCH   1   2
ATOM      2  C   UNL     1      40.548  57.999  48.163  1.00  0.00     0.041 C 
ATOM      3  O   UNL     1      39.629  57.878  49.015  1.00  0.00    -0.550 OA
ATOM      4  O   UNL     1      40.526  57.221  47.012  1.00  0.00    -0.550 OA
ENDBRANCH   1   2
BRANCH   1   5
ATOM      5  C   UNL     1      42.231  59.523  47.092  1.00  0.00     0.006 C 
BRANCH   5   6
ATOM      6  C   UNL     1      43.668  59.060  46.812  1.00  0.00    -0.003 C 
ATOM      7  C   UNL     1      43.702  58.001  45.715  1.00  0.00     0.004 C 
ENDBRANCH   5   6
ENDBRANCH   1   5
TORSDOF 3
ENDMDL
MODEL 8
REMARK VINA RESULT:    -3.581      8.921      9.581
REMARK INTER + INTRA:          -4.207
REMARK INTER:                  -4.080
REMARK INTRA:                  -0.127
REMARK UNBOUND:                 0.002
REMARK SMILES CCCCC(=O)[O-]
REMARK SMILES IDX 4 1 5 2 6 3 7 4 3 5 2 6 1 7
REMARK H PARENT
REMARK Flexibility Score: inf
ROOT
ATOM      1  C   UNL     1      41.888  57.405  48.321  1.00  0.00     0.053 C 
ENDROOT
BRANCH   1   2
ATOM      2  C   UNL     1      40.553  57.414  47.642  1.00  0.00     0.041 C 
ATOM      3  O   UNL     1      40.475  57.256  46.394  1.00  0.00    -0.550 OA
ATOM      4  O   UNL     1      39.397  57.632  48.381  1.00  0.00    -0.550 OA
ENDBRANCH   1   2
BRANCH   1   5
ATOM      5  C   UNL     1      42.123  58.688  49.128  1.00  0.00     0.006 C 
BRANCH   5   6
ATOM      6  C   UNL     1      42.175  59.936  48.234  1.00  0.00    -0.003 C 
ATOM      7  C   UNL     1      43.344  59.864  47.257  1.00  0.00     0.004 C 
ENDBRANCH   5   6
ENDBRANCH   1   5
TORSDOF 3
ENDMDL
MODEL 9
REMARK VINA RESULT:    -3.574      8.296      9.121
REMARK INTER + INTRA:          -4.199
REMARK INTER:                  -4.067
REMARK INTRA:                  -0.131
REMARK UNBOUND:                 0.002
REMARK SMILES CCCCC(=O)[O-]
REMARK SMILES IDX 4 1 5 2 6 3 7 4 3 5 2 6 1 7
REMARK H PARENT
REMARK Flexibility Score: inf
ROOT
ATOM      1  C   UNL     1      44.984  57.959  48.469  1.00  0.00     0.053 C 
ENDROOT
BRANCH   1   2
ATOM      2  C   UNL     1      45.047  58.993  49.551  1.00  0.00     0.041 C 
ATOM      3  O   UNL     1      45.587  58.724  50.656  1.00  0.00    -0.550 OA
ATOM      4  O   UNL     1      44.477  60.245  49.351  1.00  0.00    -0.550 OA
ENDBRANCH   1   2
BRANCH   1   5
ATOM      5  C   UNL     1      43.576  57.845  47.873  1.00  0.00     0.006 C 
BRANCH   5   6
ATOM      6  C   UNL     1      42.591  57.164  48.835  1.00  0.00    -0.003 C 
ATOM      7  C   UNL     1      41.463  58.111  49.230  1.00  0.00     0.004 C 
ENDBRANCH   5   6
ENDBRANCH   1   5
TORSDOF 3
ENDMDL
