MODEL 1
REMARK VINA RESULT:    -6.205      0.000      0.000
REMARK INTER + INTRA:         -12.221
REMARK INTER:                 -11.284
REMARK INTRA:                  -0.938
REMARK UNBOUND:                -0.938
REMARK SMILES CCCCCCCCCCCCCC[C@H](C)C(=O)[O-]
REMARK SMILES IDX 9 1 10 2 11 3 12 4 13 5 14 6 15 7 16 8 17 9 18 10 19 11 8 12
REMARK SMILES IDX 7 13 6 14 5 15 4 16 3 17 2 18 1 19
REMARK H PARENT
REMARK Flexibility Score: inf
ROOT
ATOM      1  C   UNL     1       6.543 -31.326  23.062  1.00  0.00     0.000 C 
ENDROOT
BRANCH   1   2
ATOM      2  C   UNL     1       7.662 -31.305  22.005  1.00  0.00     0.000 C 
BRANCH   2   3
ATOM      3  C   UNL     1       7.836 -29.928  21.348  1.00  0.00     0.000 C 
BRANCH   3   4
ATOM      4  C   UNL     1       9.052 -29.194  21.928  1.00  0.00     0.000 C 
BRANCH   4   5
ATOM      5  C   UNL     1      10.015 -30.176  22.612  1.00  0.00     0.001 C 
BRANCH   5   6
ATOM      6  C   UNL     1      11.494 -29.784  22.406  1.00  0.00     0.009 C 
BRANCH   6   7
ATOM      7  C   UNL     1      12.391 -30.087  23.627  1.00  0.00     0.032 C 
ATOM      8  C   UNL     1      13.589 -29.133  23.728  1.00  0.00     0.014 C 
BRANCH   7   9
ATOM      9  C   UNL     1      12.881 -31.507  23.557  1.00  0.00     0.044 C 
ATOM     10  O   UNL     1      13.062 -32.061  22.441  1.00  0.00    -0.550 OA
ATOM     11  O   UNL     1      13.142 -32.218  24.724  1.00  0.00    -0.550 OA
ENDBRANCH   7   9
ENDBRANCH   6   7
ENDBRANCH   5   6
ENDBRANCH   4   5
ENDBRANCH   3   4
ENDBRANCH   2   3
ENDBRANCH   1   2
BRANCH   1  12
ATOM     12  C   UNL     1       6.978 -30.906  24.480  1.00  0.00     0.000 C 
BRANCH  12  13
ATOM     13  C   UNL     1       5.960 -30.041  25.252  1.00  0.00    -0.000 C 
BRANCH  13  14
ATOM     14  C   UNL     1       4.712 -29.634  24.446  1.00  0.00    -0.000 C 
BRANCH  14  15
ATOM     15  C   UNL     1       3.730 -28.716  25.197  1.00  0.00    -0.000 C 
BRANCH  15  16
ATOM     16  C   UNL     1       2.245 -29.001  24.878  1.00  0.00    -0.000 C 
BRANCH  16  17
ATOM     17  C   UNL     1       1.900 -28.728  23.404  1.00  0.00    -0.000 C 
BRANCH  17  18
ATOM     18  C   UNL     1       0.524 -29.285  23.007  1.00  0.00    -0.003 C 
ATOM     19  C   UNL     1       0.473 -30.812  23.033  1.00  0.00     0.004 C 
ENDBRANCH  17  18
ENDBRANCH  16  17
ENDBRANCH  15  16
ENDBRANCH  14  15
ENDBRANCH  13  14
ENDBRANCH  12  13
ENDBRANCH   1  12
TORSDOF 14
ENDMDL
MODEL 2
REMARK VINA RESULT:    -6.193      2.270      3.422
REMARK INTER + INTRA:         -12.199
REMARK INTER:                 -10.703
REMARK INTRA:                  -1.496
REMARK UNBOUND:                -0.938
REMARK SMILES CCCCCCCCCCCCCC[C@H](C)C(=O)[O-]
REMARK SMILES IDX 9 1 10 2 11 3 12 4 13 5 14 6 15 7 16 8 17 9 18 10 19 11 8 12
REMARK SMILES IDX 7 13 6 14 5 15 4 16 3 17 2 18 1 19
REMARK H PARENT
REMARK Flexibility Score: inf
ROOT
ATOM      1  C   UNL     1       8.866 -30.625  25.428  1.00  0.00     0.000 C 
ENDROOT
BRANCH   1   2
ATOM      2  C   UNL     1       9.620 -31.945  25.195  1.00  0.00     0.000 C 
BRANCH   2   3
ATOM      3  C   UNL     1      10.495 -31.918  23.934  1.00  0.00     0.000 C 
BRANCH   3   4
ATOM      4  C   UNL     1      11.165 -30.549  23.760  1.00  0.00     0.000 C 
BRANCH   4   5
ATOM      5  C   UNL     1      10.776 -29.910  22.418  1.00  0.00     0.001 C 
BRANCH   5   6
ATOM      6  C   UNL     1      10.143 -30.930  21.447  1.00  0.00     0.009 C 
BRANCH   6   7
ATOM      7  C   UNL     1       8.669 -30.623  21.100  1.00  0.00     0.032 C 
ATOM      8  C   UNL     1       8.124 -29.411  21.866  1.00  0.00     0.014 C 
BRANCH   7   9
ATOM      9  C   UNL     1       7.817 -31.829  21.391  1.00  0.00     0.044 C 
ATOM     10  O   UNL     1       8.060 -32.927  20.825  1.00  0.00    -0.550 OA
ATOM     11  O   UNL     1       6.759 -31.740  22.289  1.00  0.00    -0.550 OA
ENDBRANCH   7   9
ENDBRANCH   6   7
ENDBRANCH   5   6
ENDBRANCH   4   5
ENDBRANCH   3   4
ENDBRANCH   2   3
ENDBRANCH   1   2
BRANCH   1  12
ATOM     12  C   UNL     1       7.335 -30.761  25.552  1.00  0.00     0.000 C 
BRANCH  12  13
ATOM     13  C   UNL     1       6.536 -29.467  25.290  1.00  0.00    -0.000 C 
BRANCH  13  14
ATOM     14  C   UNL     1       5.059 -29.682  24.909  1.00  0.00    -0.000 C 
BRANCH  14  15
ATOM     15  C   UNL     1       4.052 -28.865  25.741  1.00  0.00    -0.000 C 
BRANCH  15  16
ATOM     16  C   UNL     1       2.603 -28.943  25.212  1.00  0.00    -0.000 C 
BRANCH  16  17
ATOM     17  C   UNL     1       2.519 -29.614  23.830  1.00  0.00    -0.000 C 
BRANCH  17  18
ATOM     18  C   UNL     1       1.151 -29.413  23.158  1.00  0.00    -0.003 C 
ATOM     19  C   UNL     1       0.266 -30.656  23.233  1.00  0.00     0.004 C 
ENDBRANCH  17  18
ENDBRANCH  16  17
ENDBRANCH  15  16
ENDBRANCH  14  15
ENDBRANCH  13  14
ENDBRANCH  12  13
ENDBRANCH   1  12
TORSDOF 14
ENDMDL
MODEL 3
REMARK VINA RESULT:    -6.149      1.576      2.359
REMARK INTER + INTRA:         -12.119
REMARK INTER:                 -11.028
REMARK INTRA:                  -1.092
REMARK UNBOUND:                -0.938
REMARK SMILES CCCCCCCCCCCCCC[C@H](C)C(=O)[O-]
REMARK SMILES IDX 9 1 10 2 11 3 12 4 13 5 14 6 15 7 16 8 17 9 18 10 19 11 8 12
REMARK SMILES IDX 7 13 6 14 5 15 4 16 3 17 2 18 1 19
REMARK H PARENT
REMARK Flexibility Score: inf
ROOT
ATOM      1  C   UNL     1       7.376 -30.049  23.886  1.00  0.00     0.000 C 
ENDROOT
BRANCH   1   2
ATOM      2  C   UNL     1       7.762 -29.161  22.690  1.00  0.00     0.000 C 
BRANCH   2   3
ATOM      3  C   UNL     1       7.791 -29.930  21.361  1.00  0.00     0.000 C 
BRANCH   3   4
ATOM      4  C   UNL     1       7.386 -31.395  21.566  1.00  0.00     0.000 C 
BRANCH   4   5
ATOM      5  C   UNL     1       8.539 -32.342  21.204  1.00  0.00     0.001 C 
BRANCH   5   6
ATOM      6  C   UNL     1       9.714 -31.601  20.530  1.00  0.00     0.009 C 
BRANCH   6   7
ATOM      7  C   UNL     1      11.104 -32.074  21.014  1.00  0.00     0.032 C 
ATOM      8  C   UNL     1      11.067 -33.480  21.625  1.00  0.00     0.014 C 
BRANCH   7   9
ATOM      9  C   UNL     1      11.648 -31.099  22.022  1.00  0.00     0.044 C 
ATOM     10  O   UNL     1      12.527 -31.465  22.846  1.00  0.00    -0.550 OA
ATOM     11  O   UNL     1      11.187 -29.788  22.049  1.00  0.00    -0.550 OA
ENDBRANCH   7   9
ENDBRANCH   6   7
ENDBRANCH   5   6
ENDBRANCH   4   5
ENDBRANCH   3   4
ENDBRANCH   2   3
ENDBRANCH   1   2
BRANCH   1  12
ATOM     12  C   UNL     1       7.038 -29.285  25.183  1.00  0.00     0.000 C 
BRANCH  12  13
ATOM     13  C   UNL     1       5.842 -29.843  25.982  1.00  0.00    -0.000 C 
BRANCH  13  14
ATOM     14  C   UNL     1       4.516 -29.087  25.777  1.00  0.00    -0.000 C 
BRANCH  14  15
ATOM     15  C   UNL     1       3.789 -29.405  24.457  1.00  0.00    -0.000 C 
BRANCH  15  16
ATOM     16  C   UNL     1       2.270 -29.128  24.503  1.00  0.00    -0.000 C 
BRANCH  16  17
ATOM     17  C   UNL     1       1.722 -28.641  23.150  1.00  0.00    -0.000 C 
BRANCH  17  18
ATOM     18  C   UNL     1       0.401 -29.327  22.766  1.00  0.00    -0.003 C 
ATOM     19  C   UNL     1       0.378 -30.812  23.125  1.00  0.00     0.004 C 
ENDBRANCH  17  18
ENDBRANCH  16  17
ENDBRANCH  15  16
ENDBRANCH  14  15
ENDBRANCH  13  14
ENDBRANCH  12  13
ENDBRANCH   1  12
TORSDOF 14
ENDMDL
MODEL 4
REMARK VINA RESULT:    -6.111      1.521      1.963
REMARK INTER + INTRA:         -12.050
REMARK INTER:                 -10.827
REMARK INTRA:                  -1.223
REMARK UNBOUND:                -0.938
REMARK SMILES CCCCCCCCCCCCCC[C@H](C)C(=O)[O-]
REMARK SMILES IDX 9 1 10 2 11 3 12 4 13 5 14 6 15 7 16 8 17 9 18 10 19 11 8 12
REMARK SMILES IDX 7 13 6 14 5 15 4 16 3 17 2 18 1 19
REMARK H PARENT
REMARK Flexibility Score: inf
ROOT
ATOM      1  C   UNL     1       7.811 -30.305  21.878  1.00  0.00     0.000 C 
ENDROOT
BRANCH   1   2
ATOM      2  C   UNL     1       7.495 -31.810  21.929  1.00  0.00     0.000 C 
BRANCH   2   3
ATOM      3  C   UNL     1       8.194 -32.605  20.816  1.00  0.00     0.000 C 
BRANCH   3   4
ATOM      4  C   UNL     1       9.565 -32.000  20.488  1.00  0.00     0.000 C 
BRANCH   4   5
ATOM      5  C   UNL     1      10.697 -32.826  21.119  1.00  0.00     0.001 C 
BRANCH   5   6
ATOM      6  C   UNL     1      11.875 -31.942  21.585  1.00  0.00     0.009 C 
BRANCH   6   7
ATOM      7  C   UNL     1      11.448 -30.777  22.505  1.00  0.00     0.032 C 
ATOM      8  C   UNL     1      11.463 -29.422  21.786  1.00  0.00     0.014 C 
BRANCH   7   9
ATOM      9  C   UNL     1      12.354 -30.721  23.705  1.00  0.00     0.044 C 
ATOM     10  O   UNL     1      12.507 -29.640  24.334  1.00  0.00    -0.550 OA
ATOM     11  O   UNL     1      13.027 -31.861  24.130  1.00  0.00    -0.550 OA
ENDBRANCH   7   9
ENDBRANCH   6   7
ENDBRANCH   5   6
ENDBRANCH   4   5
ENDBRANCH   3   4
ENDBRANCH   2   3
ENDBRANCH   1   2
BRANCH   1  12
ATOM     12  C   UNL     1       7.496 -29.528  23.172  1.00  0.00     0.000 C 
BRANCH  12  13
ATOM     13  C   UNL     1       6.604 -30.274  24.186  1.00  0.00    -0.000 C 
BRANCH  13  14
ATOM     14  C   UNL     1       5.154 -29.761  24.274  1.00  0.00    -0.000 C 
BRANCH  14  15
ATOM     15  C   UNL     1       4.714 -29.303  25.677  1.00  0.00    -0.000 C 
BRANCH  15  16
ATOM     16  C   UNL     1       3.331 -28.617  25.701  1.00  0.00    -0.000 C 
BRANCH  16  17
ATOM     17  C   UNL     1       2.645 -28.633  24.324  1.00  0.00    -0.000 C 
BRANCH  17  18
ATOM     18  C   UNL     1       1.253 -29.283  24.365  1.00  0.00    -0.003 C 
ATOM     19  C   UNL     1       1.121 -30.463  23.403  1.00  0.00     0.004 C 
ENDBRANCH  17  18
ENDBRANCH  16  17
ENDBRANCH  15  16
ENDBRANCH  14  15
ENDBRANCH  13  14
ENDBRANCH  12  13
ENDBRANCH   1  12
TORSDOF 14
ENDMDL
MODEL 5
REMARK VINA RESULT:    -6.109      3.899      6.406
REMARK INTER + INTRA:         -12.046
REMARK INTER:                  -9.962
REMARK INTRA:                  -2.084
REMARK UNBOUND:                -0.938
REMARK SMILES CCCCCCCCCCCCCC[C@H](C)C(=O)[O-]
REMARK SMILES IDX 9 1 10 2 11 3 12 4 13 5 14 6 15 7 16 8 17 9 18 10 19 11 8 12
REMARK SMILES IDX 7 13 6 14 5 15 4 16 3 17 2 18 1 19
REMARK H PARENT
REMARK Flexibility Score: inf
ROOT
ATOM      1  C   UNL     1       7.425 -31.777  21.638  1.00  0.00     0.000 C 
ENDROOT
BRANCH   1   2
ATOM      2  C   UNL     1       8.492 -32.605  20.899  1.00  0.00     0.000 C 
BRANCH   2   3
ATOM      3  C   UNL     1       9.860 -31.909  20.854  1.00  0.00     0.000 C 
BRANCH   3   4
ATOM      4  C   UNL     1      10.995 -32.935  20.741  1.00  0.00     0.000 C 
BRANCH   4   5
ATOM      5  C   UNL     1      11.955 -32.830  21.936  1.00  0.00     0.001 C 
BRANCH   5   6
ATOM      6  C   UNL     1      11.528 -33.737  23.110  1.00  0.00     0.009 C 
BRANCH   6   7
ATOM      7  C   UNL     1      12.647 -33.970  24.150  1.00  0.00     0.032 C 
ATOM      8  C   UNL     1      14.010 -33.451  23.676  1.00  0.00     0.014 C 
BRANCH   7   9
ATOM      9  C   UNL     1      12.748 -35.438  24.466  1.00  0.00     0.044 C 
ATOM     10  O   UNL     1      11.705 -36.134  24.582  1.00  0.00    -0.550 OA
ATOM     11  O   UNL     1      13.993 -36.036  24.628  1.00  0.00    -0.550 OA
ENDBRANCH   7   9
ENDBRANCH   6   7
ENDBRANCH   5   6
ENDBRANCH   4   5
ENDBRANCH   3   4
ENDBRANCH   2   3
ENDBRANCH   1   2
BRANCH   1  12
ATOM     12  C   UNL     1       7.929 -30.449  22.238  1.00  0.00     0.000 C 
BRANCH  12  13
ATOM     13  C   UNL     1       8.055 -30.429  23.775  1.00  0.00    -0.000 C 
BRANCH  13  14
ATOM     14  C   UNL     1       8.899 -31.571  24.373  1.00  0.00    -0.000 C 
BRANCH  14  15
ATOM     15  C   UNL     1      10.076 -31.112  25.254  1.00  0.00    -0.000 C 
BRANCH  15  16
ATOM     16  C   UNL     1      11.189 -30.382  24.471  1.00  0.00    -0.000 C 
BRANCH  16  17
ATOM     17  C   UNL     1      12.550 -30.451  25.185  1.00  0.00    -0.000 C 
BRANCH  17  18
ATOM     18  C   UNL     1      13.397 -29.188  24.966  1.00  0.00    -0.003 C 
ATOM     19  C   UNL     1      13.674 -28.910  23.489  1.00  0.00     0.004 C 
ENDBRANCH  17  18
ENDBRANCH  16  17
ENDBRANCH  15  16
ENDBRANCH  14  15
ENDBRANCH  13  14
ENDBRANCH  12  13
ENDBRANCH   1  12
TORSDOF 14
ENDMDL
MODEL 6
REMARK VINA RESULT:    -6.070      3.601      7.588
REMARK INTER + INTRA:         -11.976
REMARK INTER:                  -9.456
REMARK INTRA:                  -2.520
REMARK UNBOUND:                -0.938
REMARK SMILES CCCCCCCCCCCCCC[C@H](C)C(=O)[O-]
REMARK SMILES IDX 9 1 10 2 11 3 12 4 13 5 14 6 15 7 16 8 17 9 18 10 19 11 8 12
REMARK SMILES IDX 7 13 6 14 5 15 4 16 3 17 2 18 1 19
REMARK H PARENT
REMARK Flexibility Score: inf
ROOT
ATOM      1  C   UNL     1      11.453 -30.457  21.623  1.00  0.00     0.000 C 
ENDROOT
BRANCH   1   2
ATOM      2  C   UNL     1      11.479 -31.955  21.270  1.00  0.00     0.000 C 
BRANCH   2   3
ATOM      3  C   UNL     1      10.149 -32.661  21.567  1.00  0.00     0.000 C 
BRANCH   3   4
ATOM      4  C   UNL     1       9.032 -32.135  20.656  1.00  0.00     0.000 C 
BRANCH   4   5
ATOM      5  C   UNL     1       7.692 -32.076  21.404  1.00  0.00     0.001 C 
BRANCH   5   6
ATOM      6  C   UNL     1       7.845 -31.523  22.837  1.00  0.00     0.009 C 
BRANCH   6   7
ATOM      7  C   UNL     1       7.178 -30.145  23.044  1.00  0.00     0.032 C 
ATOM      8  C   UNL     1       7.880 -29.028  22.261  1.00  0.00     0.014 C 
BRANCH   7   9
ATOM      9  C   UNL     1       7.164 -29.803  24.509  1.00  0.00     0.044 C 
ATOM     10  O   UNL     1       6.069 -29.643  25.110  1.00  0.00    -0.550 OA
ATOM     11  O   UNL     1       8.357 -29.665  25.209  1.00  0.00    -0.550 OA
ENDBRANCH   7   9
ENDBRANCH   6   7
ENDBRANCH   5   6
ENDBRANCH   4   5
ENDBRANCH   3   4
ENDBRANCH   2   3
ENDBRANCH   1   2
BRANCH   1  12
ATOM     12  C   UNL     1      11.207 -30.142  23.112  1.00  0.00     0.000 C 
BRANCH  12  13
ATOM     13  C   UNL     1      12.440 -30.284  24.027  1.00  0.00    -0.000 C 
BRANCH  13  14
ATOM     14  C   UNL     1      12.248 -31.222  25.235  1.00  0.00    -0.000 C 
BRANCH  14  15
ATOM     15  C   UNL     1      11.020 -32.147  25.145  1.00  0.00    -0.000 C 
BRANCH  15  16
ATOM     16  C   UNL     1      11.321 -33.616  25.515  1.00  0.00    -0.000 C 
BRANCH  16  17
ATOM     17  C   UNL     1      11.814 -34.434  24.309  1.00  0.00    -0.000 C 
BRANCH  17  18
ATOM     18  C   UNL     1      13.341 -34.610  24.300  1.00  0.00    -0.003 C 
ATOM     19  C   UNL     1      14.044 -33.639  23.351  1.00  0.00     0.004 C 
ENDBRANCH  17  18
ENDBRANCH  16  17
ENDBRANCH  15  16
ENDBRANCH  14  15
ENDBRANCH  13  14
ENDBRANCH  12  13
ENDBRANCH   1  12
TORSDOF 14
ENDMDL
MODEL 7
REMARK VINA RESULT:    -5.981      3.351      5.336
REMARK INTER + INTRA:         -11.815
REMARK INTER:                  -9.865
REMARK INTRA:                  -1.949
REMARK UNBOUND:                -0.938
REMARK SMILES CCCCCCCCCCCCCC[C@H](C)C(=O)[O-]
REMARK SMILES IDX 9 1 10 2 11 3 12 4 13 5 14 6 15 7 16 8 17 9 18 10 19 11 8 12
REMARK SMILES IDX 7 13 6 14 5 15 4 16 3 17 2 18 1 19
REMARK H PARENT
REMARK Flexibility Score: inf
ROOT
ATOM      1  C   UNL     1      11.346 -30.726  21.529  1.00  0.00     0.000 C 
ENDROOT
BRANCH   1   2
ATOM      2  C   UNL     1      11.713 -29.750  22.660  1.00  0.00     0.000 C 
BRANCH   2   3
ATOM      3  C   UNL     1      13.007 -30.140  23.389  1.00  0.00     0.000 C 
BRANCH   3   4
ATOM      4  C   UNL     1      12.865 -29.942  24.903  1.00  0.00     0.000 C 
BRANCH   4   5
ATOM      5  C   UNL     1      12.707 -31.290  25.623  1.00  0.00     0.001 C 
BRANCH   5   6
ATOM      6  C   UNL     1      13.050 -32.485  24.708  1.00  0.00     0.009 C 
BRANCH   6   7
ATOM      7  C   UNL     1      13.149 -33.832  25.459  1.00  0.00     0.032 C 
ATOM      8  C   UNL     1      14.381 -34.647  25.047  1.00  0.00     0.014 C 
BRANCH   7   9
ATOM      9  C   UNL     1      11.904 -34.641  25.216  1.00  0.00     0.044 C 
ATOM     10  O   UNL     1      10.809 -34.287  25.728  1.00  0.00    -0.550 OA
ATOM     11  O   UNL     1      11.952 -35.781  24.422  1.00  0.00    -0.550 OA
ENDBRANCH   7   9
ENDBRANCH   6   7
ENDBRANCH   5   6
ENDBRANCH   4   5
ENDBRANCH   3   4
ENDBRANCH   2   3
ENDBRANCH   1   2
BRANCH   1  12
ATOM     12  C   UNL     1      10.499 -31.939  21.964  1.00  0.00     0.000 C 
BRANCH  12  13
ATOM     13  C   UNL     1       9.366 -32.333  20.993  1.00  0.00    -0.000 C 
BRANCH  13  14
ATOM     14  C   UNL     1       7.968 -31.821  21.386  1.00  0.00    -0.000 C 
BRANCH  14  15
ATOM     15  C   UNL     1       7.867 -30.295  21.570  1.00  0.00    -0.000 C 
BRANCH  15  16
ATOM     16  C   UNL     1       7.410 -29.870  22.983  1.00  0.00    -0.000 C 
BRANCH  16  17
ATOM     17  C   UNL     1       6.890 -31.056  23.813  1.00  0.00    -0.000 C 
BRANCH  17  18
ATOM     18  C   UNL     1       7.523 -31.120  25.212  1.00  0.00    -0.003 C 
ATOM     19  C   UNL     1       9.050 -31.165  25.170  1.00  0.00     0.004 C 
ENDBRANCH  17  18
ENDBRANCH  16  17
ENDBRANCH  15  16
ENDBRANCH  14  15
ENDBRANCH  13  14
ENDBRANCH  12  13
ENDBRANCH   1  12
TORSDOF 14
ENDMDL
MODEL 8
REMARK VINA RESULT:    -5.970      3.047      5.229
REMARK INTER + INTRA:         -11.793
REMARK INTER:                  -9.484
REMARK INTRA:                  -2.309
REMARK UNBOUND:                -0.938
REMARK SMILES CCCCCCCCCCCCCC[C@H](C)C(=O)[O-]
REMARK SMILES IDX 9 1 10 2 11 3 12 4 13 5 14 6 15 7 16 8 17 9 18 10 19 11 8 12
REMARK SMILES IDX 7 13 6 14 5 15 4 16 3 17 2 18 1 19
REMARK H PARENT
REMARK Flexibility Score: inf
ROOT
ATOM      1  C   UNL     1       7.612 -31.607  25.684  1.00  0.00     0.000 C 
ENDROOT
BRANCH   1   2
ATOM      2  C   UNL     1       9.100 -31.219  25.759  1.00  0.00     0.000 C 
BRANCH   2   3
ATOM      3  C   UNL     1       9.927 -31.801  24.604  1.00  0.00     0.000 C 
BRANCH   3   4
ATOM      4  C   UNL     1      10.857 -30.738  24.005  1.00  0.00     0.000 C 
BRANCH   4   5
ATOM      5  C   UNL     1      12.321 -31.200  24.047  1.00  0.00     0.001 C 
BRANCH   5   6
ATOM      6  C   UNL     1      12.534 -32.380  25.019  1.00  0.00     0.009 C 
BRANCH   6   7
ATOM      7  C   UNL     1      13.530 -33.440  24.498  1.00  0.00     0.032 C 
ATOM      8  C   UNL     1      13.956 -33.185  23.047  1.00  0.00     0.014 C 
BRANCH   7   9
ATOM      9  C   UNL     1      12.918 -34.810  24.611  1.00  0.00     0.044 C 
ATOM     10  O   UNL     1      13.627 -35.836  24.441  1.00  0.00    -0.550 OA
ATOM     11  O   UNL     1      11.567 -34.952  24.906  1.00  0.00    -0.550 OA
ENDBRANCH   7   9
ENDBRANCH   6   7
ENDBRANCH   5   6
ENDBRANCH   4   5
ENDBRANCH   3   4
ENDBRANCH   2   3
ENDBRANCH   1   2
BRANCH   1  12
ATOM     12  C   UNL     1       6.657 -30.458  25.301  1.00  0.00     0.000 C 
BRANCH  12  13
ATOM     13  C   UNL     1       6.332 -30.346  23.797  1.00  0.00    -0.000 C 
BRANCH  13  14
ATOM     14  C   UNL     1       7.416 -29.655  22.949  1.00  0.00    -0.000 C 
BRANCH  14  15
ATOM     15  C   UNL     1       7.760 -30.374  21.631  1.00  0.00    -0.000 C 
BRANCH  15  16
ATOM     16  C   UNL     1       7.390 -31.874  21.626  1.00  0.00    -0.000 C 
BRANCH  16  17
ATOM     17  C   UNL     1       8.482 -32.745  20.982  1.00  0.00    -0.000 C 
BRANCH  17  18
ATOM     18  C   UNL     1       9.738 -31.940  20.612  1.00  0.00    -0.003 C 
ATOM     19  C   UNL     1      11.031 -32.719  20.847  1.00  0.00     0.004 C 
ENDBRANCH  17  18
ENDBRANCH  16  17
ENDBRANCH  15  16
ENDBRANCH  14  15
ENDBRANCH  13  14
ENDBRANCH  12  13
ENDBRANCH   1  12
TORSDOF 14
ENDMDL
MODEL 9
REMARK VINA RESULT:    -5.927      2.937      4.730
REMARK INTER + INTRA:         -11.715
REMARK INTER:                  -9.099
REMARK INTRA:                  -2.617
REMARK UNBOUND:                -0.938
REMARK SMILES CCCCCCCCCCCCCC[C@H](C)C(=O)[O-]
REMARK SMILES IDX 9 1 10 2 11 3 12 4 13 5 14 6 15 7 16 8 17 9 18 10 19 11 8 12
REMARK SMILES IDX 7 13 6 14 5 15 4 16 3 17 2 18 1 19
REMARK H PARENT
REMARK Flexibility Score: inf
ROOT
ATOM      1  C   UNL     1       9.227 -31.670  25.145  1.00  0.00     0.000 C 
ENDROOT
BRANCH   1   2
ATOM      2  C   UNL     1      10.015 -32.604  26.080  1.00  0.00     0.000 C 
BRANCH   2   3
ATOM      3  C   UNL     1      11.193 -33.296  25.379  1.00  0.00     0.000 C 
BRANCH   3   4
ATOM      4  C   UNL     1      11.127 -33.087  23.861  1.00  0.00     0.000 C 
BRANCH   4   5
ATOM      5  C   UNL     1      12.536 -33.011  23.253  1.00  0.00     0.001 C 
BRANCH   5   6
ATOM      6  C   UNL     1      12.761 -31.705  22.460  1.00  0.00     0.009 C 
BRANCH   6   7
ATOM      7  C   UNL     1      12.070 -30.473  23.088  1.00  0.00     0.032 C 
ATOM      8  C   UNL     1      11.635 -29.444  22.037  1.00  0.00     0.014 C 
BRANCH   7   9
ATOM      9  C   UNL     1      12.996 -29.823  24.079  1.00  0.00     0.044 C 
ATOM     10  O   UNL     1      12.987 -30.183  25.285  1.00  0.00    -0.550 OA
ATOM     11  O   UNL     1      13.870 -28.821  23.670  1.00  0.00    -0.550 OA
ENDBRANCH   7   9
ENDBRANCH   6   7
ENDBRANCH   5   6
ENDBRANCH   4   5
ENDBRANCH   3   4
ENDBRANCH   2   3
ENDBRANCH   1   2
BRANCH   1  12
ATOM     12  C   UNL     1       8.987 -30.249  25.693  1.00  0.00     0.000 C 
BRANCH  12  13
ATOM     13  C   UNL     1       7.727 -29.540  25.152  1.00  0.00    -0.000 C 
BRANCH  13  14
ATOM     14  C   UNL     1       6.627 -30.482  24.627  1.00  0.00    -0.000 C 
BRANCH  14  15
ATOM     15  C   UNL     1       6.499 -30.532  23.093  1.00  0.00    -0.000 C 
BRANCH  15  16
ATOM     16  C   UNL     1       7.409 -29.523  22.360  1.00  0.00    -0.000 C 
BRANCH  16  17
ATOM     17  C   UNL     1       8.226 -30.180  21.235  1.00  0.00    -0.000 C 
BRANCH  17  18
ATOM     18  C   UNL     1       8.522 -31.663  21.508  1.00  0.00    -0.003 C 
ATOM     19  C   UNL     1       9.587 -32.237  20.576  1.00  0.00     0.004 C 
ENDBRANCH  17  18
ENDBRANCH  16  17
ENDBRANCH  15  16
ENDBRANCH  14  15
ENDBRANCH  13  14
ENDBRANCH  12  13
ENDBRANCH   1  12
TORSDOF 14
ENDMDL
