MODEL 1
REMARK VINA RESULT:    -5.420      0.000      0.000
REMARK INTER + INTRA:          -7.186
REMARK INTER:                  -7.005
REMARK INTRA:                  -0.182
REMARK UNBOUND:                -0.182
REMARK SMILES CCO[C@@H]1O[C@H](CO)[C@@H](O)[C@@H](O)[C@H]1O
REMARK SMILES IDX 4 1 13 2 11 3 9 4 6 5 5 6 3 7 2 8 1 9 14 10 12 12 7 14 8 15
REMARK SMILES IDX 10 17
REMARK H PARENT 14 11 12 13 8 16 10 18
REMARK Flexibility Score: inf
ROOT
ATOM      1  C   UNL     1     -20.059 -28.755   2.042  1.00  0.00     0.281 C 
ATOM      2  C   UNL     1     -21.102 -27.734   1.556  1.00  0.00     0.202 C 
ATOM      3  C   UNL     1     -20.478 -26.333   1.468  1.00  0.00     0.179 C 
ATOM      4  C   UNL     1     -19.203 -26.372   0.618  1.00  0.00     0.177 C 
ATOM      5  C   UNL     1     -18.247 -27.490   1.103  1.00  0.00     0.178 C 
ATOM      6  O   UNL     1     -18.881 -28.760   1.240  1.00  0.00    -0.341 OA
ENDROOT
BRANCH   1   7
ATOM      7  O   UNL     1     -19.757 -28.525   3.408  1.00  0.00    -0.350 OA
BRANCH   7   8
ATOM      8  C   UNL     1     -20.528 -29.374   4.233  1.00  0.00     0.160 C 
ATOM      9  C   UNL     1     -20.638 -30.742   3.576  1.00  0.00     0.035 C 
ENDBRANCH   7   8
ENDBRANCH   1   7
BRANCH   2  10
ATOM     10  O   UNL     1     -21.597 -28.140   0.304  1.00  0.00    -0.385 OA
ATOM     11  H   UNL     1     -22.096 -28.987   0.450  1.00  0.00     0.211 HD
ENDBRANCH   2  10
BRANCH   3  12
ATOM     12  O   UNL     1     -21.388 -25.418   0.914  1.00  0.00    -0.387 OA
ATOM     13  H   UNL     1     -21.639 -24.788   1.639  1.00  0.00     0.211 HD
ENDBRANCH   3  12
BRANCH   5  14
ATOM     14  C   UNL     1     -17.428 -27.083   2.348  1.00  0.00     0.191 C 
BRANCH  14  15
ATOM     15  O   UNL     1     -16.054 -27.210   2.098  1.00  0.00    -0.394 OA
ATOM     16  H   UNL     1     -15.713 -27.905   2.720  1.00  0.00     0.210 HD
ENDBRANCH  14  15
ENDBRANCH   5  14
BRANCH   4  17
ATOM     17  O   UNL     1     -19.539 -26.586  -0.730  1.00  0.00    -0.387 OA
ATOM     18  H   UNL     1     -19.140 -25.840  -1.250  1.00  0.00     0.211 HD
ENDBRANCH   4  17
TORSDOF 7
ENDMDL
MODEL 2
REMARK VINA RESULT:    -5.243     12.924     15.412
REMARK INTER + INTRA:          -6.957
REMARK INTER:                  -6.737
REMARK INTRA:                  -0.220
REMARK UNBOUND:                -0.182
REMARK SMILES CCO[C@@H]1O[C@H](CO)[C@@H](O)[C@@H](O)[C@H]1O
REMARK SMILES IDX 4 1 13 2 11 3 9 4 6 5 5 6 3 7 2 8 1 9 14 10 12 12 7 14 8 15
REMARK SMILES IDX 10 17
REMARK H PARENT 14 11 12 13 8 16 10 18
REMARK Flexibility Score: inf
ROOT
ATOM      1  C   UNL     1     -20.908 -27.679  16.056  1.00  0.00     0.281 C 
ATOM      2  C   UNL     1     -21.990 -26.918  16.841  1.00  0.00     0.202 C 
ATOM      3  C   UNL     1     -23.198 -27.830  17.109  1.00  0.00     0.179 C 
ATOM      4  C   UNL     1     -22.742 -29.131  17.779  1.00  0.00     0.177 C 
ATOM      5  C   UNL     1     -21.583 -29.787  16.988  1.00  0.00     0.178 C 
ATOM      6  O   UNL     1     -20.513 -28.888  16.697  1.00  0.00    -0.341 OA
ENDROOT
BRANCH   1   7
ATOM      7  O   UNL     1     -21.348 -27.914  14.729  1.00  0.00    -0.350 OA
BRANCH   7   8
ATOM      8  C   UNL     1     -20.255 -27.881  13.835  1.00  0.00     0.160 C 
ATOM      9  C   UNL     1     -20.389 -29.028  12.844  1.00  0.00     0.035 C 
ENDBRANCH   7   8
ENDBRANCH   1   7
BRANCH   2  10
ATOM     10  O   UNL     1     -21.442 -26.449  18.048  1.00  0.00    -0.385 OA
ATOM     11  H   UNL     1     -20.707 -27.071  18.294  1.00  0.00     0.211 HD
ENDBRANCH   2  10
BRANCH   3  12
ATOM     12  O   UNL     1     -24.139 -27.182  17.925  1.00  0.00    -0.387 OA
ATOM     13  H   UNL     1     -24.167 -27.682  18.782  1.00  0.00     0.211 HD
ENDBRANCH   3  12
BRANCH   5  14
ATOM     14  C   UNL     1     -22.068 -30.572  15.750  1.00  0.00     0.191 C 
BRANCH  14  15
ATOM     15  O   UNL     1     -22.627 -31.800  16.132  1.00  0.00    -0.394 OA
ATOM     16  H   UNL     1     -22.639 -31.812  17.125  1.00  0.00     0.210 HD
ENDBRANCH  14  15
ENDBRANCH   5  14
BRANCH   4  17
ATOM     17  O   UNL     1     -22.328 -28.865  19.095  1.00  0.00    -0.387 OA
ATOM     18  H   UNL     1     -21.444 -29.303  19.216  1.00  0.00     0.211 HD
ENDBRANCH   4  17
TORSDOF 7
ENDMDL
MODEL 3
REMARK VINA RESULT:    -4.953     13.524     15.570
REMARK INTER + INTRA:          -6.583
REMARK INTER:                  -6.141
REMARK INTRA:                  -0.442
REMARK UNBOUND:                -0.182
REMARK SMILES CCO[C@@H]1O[C@H](CO)[C@@H](O)[C@@H](O)[C@H]1O
REMARK SMILES IDX 4 1 13 2 11 3 9 4 6 5 5 6 3 7 2 8 1 9 14 10 12 12 7 14 8 15
REMARK SMILES IDX 10 17
REMARK H PARENT 14 11 12 13 8 16 10 18
REMARK Flexibility Score: inf
ROOT
ATOM      1  C   UNL     1     -22.769 -27.017  17.435  1.00  0.00     0.281 C 
ATOM      2  C   UNL     1     -22.890 -28.536  17.643  1.00  0.00     0.202 C 
ATOM      3  C   UNL     1     -22.186 -29.290  16.504  1.00  0.00     0.179 C 
ATOM      4  C   UNL     1     -20.742 -28.797  16.353  1.00  0.00     0.177 C 
ATOM      5  C   UNL     1     -20.693 -27.252  16.251  1.00  0.00     0.178 C 
ATOM      6  O   UNL     1     -21.418 -26.590  17.286  1.00  0.00    -0.341 OA
ENDROOT
BRANCH   1   7
ATOM      7  O   UNL     1     -23.565 -26.615  16.333  1.00  0.00    -0.350 OA
BRANCH   7   8
ATOM      8  C   UNL     1     -24.297 -25.450  16.654  1.00  0.00     0.160 C 
ATOM      9  C   UNL     1     -24.915 -24.885  15.383  1.00  0.00     0.035 C 
ENDBRANCH   7   8
ENDBRANCH   1   7
BRANCH   2  10
ATOM     10  O   UNL     1     -22.332 -28.877  18.888  1.00  0.00    -0.385 OA
ATOM     11  H   UNL     1     -23.071 -28.859  19.552  1.00  0.00     0.211 HD
ENDBRANCH   2  10
BRANCH   3  12
ATOM     12  O   UNL     1     -22.189 -30.674  16.748  1.00  0.00    -0.387 OA
ATOM     13  H   UNL     1     -23.138 -30.941  16.864  1.00  0.00     0.211 HD
ENDBRANCH   3  12
BRANCH   5  14
ATOM     14  C   UNL     1     -21.039 -26.731  14.839  1.00  0.00     0.191 C 
BRANCH  14  15
ATOM     15  O   UNL     1     -21.219 -25.341  14.856  1.00  0.00    -0.394 OA
ATOM     16  H   UNL     1     -20.428 -24.956  15.318  1.00  0.00     0.210 HD
ENDBRANCH  14  15
ENDBRANCH   5  14
BRANCH   4  17
ATOM     17  O   UNL     1     -19.979 -29.225  17.453  1.00  0.00    -0.387 OA
ATOM     18  H   UNL     1     -20.618 -29.536  18.147  1.00  0.00     0.211 HD
ENDBRANCH   4  17
TORSDOF 7
ENDMDL
MODEL 4
REMARK VINA RESULT:    -4.900      1.695      4.207
REMARK INTER + INTRA:          -6.513
REMARK INTER:                  -6.074
REMARK INTRA:                  -0.439
REMARK UNBOUND:                -0.182
REMARK SMILES CCO[C@@H]1O[C@H](CO)[C@@H](O)[C@@H](O)[C@H]1O
REMARK SMILES IDX 4 1 13 2 11 3 9 4 6 5 5 6 3 7 2 8 1 9 14 10 12 12 7 14 8 15
REMARK SMILES IDX 10 17
REMARK H PARENT 14 11 12 13 8 16 10 18
REMARK Flexibility Score: inf
ROOT
ATOM      1  C   UNL     1     -20.982 -26.336   0.589  1.00  0.00     0.281 C 
ATOM      2  C   UNL     1     -19.448 -26.231   0.527  1.00  0.00     0.202 C 
ATOM      3  C   UNL     1     -18.817 -26.896   1.761  1.00  0.00     0.179 C 
ATOM      4  C   UNL     1     -19.337 -28.330   1.916  1.00  0.00     0.177 C 
ATOM      5  C   UNL     1     -20.885 -28.367   1.866  1.00  0.00     0.178 C 
ATOM      6  O   UNL     1     -21.434 -27.678   0.744  1.00  0.00    -0.341 OA
ENDROOT
BRANCH   1   7
ATOM      7  O   UNL     1     -21.484 -25.496   1.614  1.00  0.00    -0.350 OA
BRANCH   7   8
ATOM      8  C   UNL     1     -22.542 -24.699   1.124  1.00  0.00     0.160 C 
ATOM      9  C   UNL     1     -23.311 -24.116   2.300  1.00  0.00     0.035 C 
ENDBRANCH   7   8
ENDBRANCH   1   7
BRANCH   2  10
ATOM     10  O   UNL     1     -18.991 -26.838  -0.656  1.00  0.00    -0.385 OA
ATOM     11  H   UNL     1     -18.018 -27.004  -0.539  1.00  0.00     0.211 HD
ENDBRANCH   2  10
BRANCH   3  12
ATOM     12  O   UNL     1     -17.417 -26.909   1.656  1.00  0.00    -0.387 OA
ATOM     13  H   UNL     1     -17.152 -27.850   1.486  1.00  0.00     0.211 HD
ENDBRANCH   3  12
BRANCH   5  14
ATOM     14  C   UNL     1     -21.540 -27.965   3.205  1.00  0.00     0.191 C 
BRANCH  14  15
ATOM     15  O   UNL     1     -22.916 -27.758   3.039  1.00  0.00    -0.394 OA
ATOM     16  H   UNL     1     -23.326 -28.652   2.904  1.00  0.00     0.210 HD
ENDBRANCH  14  15
ENDBRANCH   5  14
BRANCH   4  17
ATOM     17  O   UNL     1     -18.809 -29.137   0.894  1.00  0.00    -0.387 OA
ATOM     18  H   UNL     1     -17.961 -28.712   0.597  1.00  0.00     0.211 HD
ENDBRANCH   4  17
TORSDOF 7
ENDMDL
MODEL 5
REMARK VINA RESULT:    -4.771     13.507     15.703
REMARK INTER + INTRA:          -6.347
REMARK INTER:                  -6.136
REMARK INTRA:                  -0.211
REMARK UNBOUND:                -0.182
REMARK SMILES CCO[C@@H]1O[C@H](CO)[C@@H](O)[C@@H](O)[C@H]1O
REMARK SMILES IDX 4 1 13 2 11 3 9 4 6 5 5 6 3 7 2 8 1 9 14 10 12 12 7 14 8 15
REMARK SMILES IDX 10 17
REMARK H PARENT 14 11 12 13 8 16 10 18
REMARK Flexibility Score: inf
ROOT
ATOM      1  C   UNL     1     -21.145 -26.775  16.479  1.00  0.00     0.281 C 
ATOM      2  C   UNL     1     -22.405 -26.409  17.282  1.00  0.00     0.202 C 
ATOM      3  C   UNL     1     -23.426 -27.557  17.229  1.00  0.00     0.179 C 
ATOM      4  C   UNL     1     -22.770 -28.872  17.665  1.00  0.00     0.177 C 
ATOM      5  C   UNL     1     -21.455 -29.122  16.885  1.00  0.00     0.178 C 
ATOM      6  O   UNL     1     -20.565 -28.007  16.899  1.00  0.00    -0.341 OA
ENDROOT
BRANCH   1   7
ATOM      7  O   UNL     1     -21.442 -26.787  15.093  1.00  0.00    -0.350 OA
BRANCH   7   8
ATOM      8  C   UNL     1     -21.206 -25.513  14.528  1.00  0.00     0.160 C 
ATOM      9  C   UNL     1     -19.857 -24.998  15.008  1.00  0.00     0.035 C 
ENDBRANCH   7   8
ENDBRANCH   1   7
BRANCH   2  10
ATOM     10  O   UNL     1     -22.040 -26.128  18.611  1.00  0.00    -0.385 OA
ATOM     11  H   UNL     1     -22.043 -26.992  19.102  1.00  0.00     0.211 HD
ENDBRANCH   2  10
BRANCH   3  12
ATOM     12  O   UNL     1     -24.527 -27.281  18.055  1.00  0.00    -0.387 OA
ATOM     13  H   UNL     1     -25.096 -26.630  17.566  1.00  0.00     0.211 HD
ENDBRANCH   3  12
BRANCH   5  14
ATOM     14  C   UNL     1     -21.694 -29.689  15.469  1.00  0.00     0.191 C 
BRANCH  14  15
ATOM     15  O   UNL     1     -22.182 -31.001  15.538  1.00  0.00    -0.394 OA
ATOM     16  H   UNL     1     -23.172 -30.941  15.487  1.00  0.00     0.210 HD
ENDBRANCH  14  15
ENDBRANCH   5  14
BRANCH   4  17
ATOM     17  O   UNL     1     -22.503 -28.833  19.044  1.00  0.00    -0.387 OA
ATOM     18  H   UNL     1     -22.438 -29.774  19.354  1.00  0.00     0.211 HD
ENDBRANCH   4  17
TORSDOF 7
ENDMDL
MODEL 6
REMARK VINA RESULT:    -4.708      2.079      2.511
REMARK INTER + INTRA:          -6.266
REMARK INTER:                  -5.847
REMARK INTRA:                  -0.419
REMARK UNBOUND:                -0.182
REMARK SMILES CCO[C@@H]1O[C@H](CO)[C@@H](O)[C@@H](O)[C@H]1O
REMARK SMILES IDX 4 1 13 2 11 3 9 4 6 5 5 6 3 7 2 8 1 9 14 10 12 12 7 14 8 15
REMARK SMILES IDX 10 17
REMARK H PARENT 14 11 12 13 8 16 10 18
REMARK Flexibility Score: inf
ROOT
ATOM      1  C   UNL     1     -22.191 -27.107   1.657  1.00  0.00     0.281 C 
ATOM      2  C   UNL     1     -22.303 -25.815   0.829  1.00  0.00     0.202 C 
ATOM      3  C   UNL     1     -20.937 -25.115   0.744  1.00  0.00     0.179 C 
ATOM      4  C   UNL     1     -19.871 -26.092   0.233  1.00  0.00     0.177 C 
ATOM      5  C   UNL     1     -19.888 -27.408   1.050  1.00  0.00     0.178 C 
ATOM      6  O   UNL     1     -21.186 -27.989   1.166  1.00  0.00    -0.341 OA
ENDROOT
BRANCH   1   7
ATOM      7  O   UNL     1     -21.983 -26.790   3.023  1.00  0.00    -0.350 OA
BRANCH   7   8
ATOM      8  C   UNL     1     -23.192 -26.901   3.745  1.00  0.00     0.160 C 
ATOM      9  C   UNL     1     -23.698 -28.333   3.652  1.00  0.00     0.035 C 
ENDBRANCH   7   8
ENDBRANCH   1   7
BRANCH   2  10
ATOM     10  O   UNL     1     -22.784 -26.129  -0.454  1.00  0.00    -0.385 OA
ATOM     11  H   UNL     1     -22.023 -26.020  -1.084  1.00  0.00     0.211 HD
ENDBRANCH   2  10
BRANCH   3  12
ATOM     12  O   UNL     1     -21.003 -24.000  -0.107  1.00  0.00    -0.387 OA
ATOM     13  H   UNL     1     -20.392 -23.315   0.272  1.00  0.00     0.211 HD
ENDBRANCH   3  12
BRANCH   5  14
ATOM     14  C   UNL     1     -19.154 -27.286   2.403  1.00  0.00     0.191 C 
BRANCH  14  15
ATOM     15  O   UNL     1     -19.452 -28.381   3.227  1.00  0.00    -0.394 OA
ATOM     16  H   UNL     1     -19.984 -29.015   2.678  1.00  0.00     0.210 HD
ENDBRANCH  14  15
ENDBRANCH   5  14
BRANCH   4  17
ATOM     17  O   UNL     1     -20.099 -26.372  -1.125  1.00  0.00    -0.387 OA
ATOM     18  H   UNL     1     -20.986 -25.990  -1.355  1.00  0.00     0.211 HD
ENDBRANCH   4  17
TORSDOF 7
ENDMDL
MODEL 7
REMARK VINA RESULT:    -4.699      6.379      8.058
REMARK INTER + INTRA:          -6.254
REMARK INTER:                  -5.862
REMARK INTRA:                  -0.392
REMARK UNBOUND:                -0.182
REMARK SMILES CCO[C@@H]1O[C@H](CO)[C@@H](O)[C@@H](O)[C@H]1O
REMARK SMILES IDX 4 1 13 2 11 3 9 4 6 5 5 6 3 7 2 8 1 9 14 10 12 12 7 14 8 15
REMARK SMILES IDX 10 17
REMARK H PARENT 14 11 12 13 8 16 10 18
REMARK Flexibility Score: inf
ROOT
ATOM      1  C   UNL     1     -16.200 -27.317   9.499  1.00  0.00     0.281 C 
ATOM      2  C   UNL     1     -17.320 -28.371   9.450  1.00  0.00     0.202 C 
ATOM      3  C   UNL     1     -18.141 -28.221   8.160  1.00  0.00     0.179 C 
ATOM      4  C   UNL     1     -17.216 -28.239   6.937  1.00  0.00     0.177 C 
ATOM      5  C   UNL     1     -16.057 -27.225   7.103  1.00  0.00     0.178 C 
ATOM      6  O   UNL     1     -15.365 -27.350   8.345  1.00  0.00    -0.341 OA
ENDROOT
BRANCH   1   7
ATOM      7  O   UNL     1     -16.757 -26.029   9.700  1.00  0.00    -0.350 OA
BRANCH   7   8
ATOM      8  C   UNL     1     -16.945 -25.784  11.079  1.00  0.00     0.160 C 
ATOM      9  C   UNL     1     -15.586 -25.691  11.758  1.00  0.00     0.035 C 
ENDBRANCH   7   8
ENDBRANCH   1   7
BRANCH   2  10
ATOM     10  O   UNL     1     -16.750 -29.654   9.533  1.00  0.00    -0.385 OA
ATOM     11  H   UNL     1     -17.501 -30.301   9.604  1.00  0.00     0.211 HD
ENDBRANCH   2  10
BRANCH   3  12
ATOM     12  O   UNL     1     -19.089 -29.252   8.051  1.00  0.00    -0.387 OA
ATOM     13  H   UNL     1     -19.956 -28.876   8.355  1.00  0.00     0.211 HD
ENDBRANCH   3  12
BRANCH   5  14
ATOM     14  C   UNL     1     -16.477 -25.773   6.788  1.00  0.00     0.191 C 
BRANCH  14  15
ATOM     15  O   UNL     1     -15.419 -24.887   7.034  1.00  0.00    -0.394 OA
ATOM     16  H   UNL     1     -15.115 -25.058   7.964  1.00  0.00     0.210 HD
ENDBRANCH  14  15
ENDBRANCH   5  14
BRANCH   4  17
ATOM     17  O   UNL     1     -16.694 -29.532   6.758  1.00  0.00    -0.387 OA
ATOM     18  H   UNL     1     -16.972 -29.834   5.853  1.00  0.00     0.211 HD
ENDBRANCH   4  17
TORSDOF 7
ENDMDL
MODEL 8
REMARK VINA RESULT:    -4.635      6.761      9.054
REMARK INTER + INTRA:          -6.172
REMARK INTER:                  -5.984
REMARK INTRA:                  -0.187
REMARK UNBOUND:                -0.182
REMARK SMILES CCO[C@@H]1O[C@H](CO)[C@@H](O)[C@@H](O)[C@H]1O
REMARK SMILES IDX 4 1 13 2 11 3 9 4 6 5 5 6 3 7 2 8 1 9 14 10 12 12 7 14 8 15
REMARK SMILES IDX 10 17
REMARK H PARENT 14 11 12 13 8 16 10 18
REMARK Flexibility Score: inf
ROOT
ATOM      1  C   UNL     1     -24.766 -28.915   6.155  1.00  0.00     0.281 C 
ATOM      2  C   UNL     1     -24.474 -27.928   7.298  1.00  0.00     0.202 C 
ATOM      3  C   UNL     1     -25.785 -27.351   7.854  1.00  0.00     0.179 C 
ATOM      4  C   UNL     1     -26.742 -28.484   8.241  1.00  0.00     0.177 C 
ATOM      5  C   UNL     1     -26.907 -29.492   7.076  1.00  0.00     0.178 C 
ATOM      6  O   UNL     1     -25.667 -29.950   6.540  1.00  0.00    -0.341 OA
ENDROOT
BRANCH   1   7
ATOM      7  O   UNL     1     -25.238 -28.213   5.017  1.00  0.00    -0.350 OA
BRANCH   7   8
ATOM      8  C   UNL     1     -24.196 -28.040   4.079  1.00  0.00     0.160 C 
ATOM      9  C   UNL     1     -23.850 -29.388   3.465  1.00  0.00     0.035 C 
ENDBRANCH   7   8
ENDBRANCH   1   7
BRANCH   2  10
ATOM     10  O   UNL     1     -23.752 -28.590   8.306  1.00  0.00    -0.385 OA
ATOM     11  H   UNL     1     -22.797 -28.586   8.030  1.00  0.00     0.211 HD
ENDBRANCH   2  10
BRANCH   3  12
ATOM     12  O   UNL     1     -25.535 -26.540   8.973  1.00  0.00    -0.387 OA
ATOM     13  H   UNL     1     -26.383 -26.496   9.489  1.00  0.00     0.211 HD
ENDBRANCH   3  12
BRANCH   5  14
ATOM     14  C   UNL     1     -27.893 -29.004   5.993  1.00  0.00     0.191 C 
BRANCH  14  15
ATOM     15  O   UNL     1     -29.089 -29.734   6.048  1.00  0.00    -0.394 OA
ATOM     16  H   UNL     1     -29.056 -30.393   5.306  1.00  0.00     0.210 HD
ENDBRANCH  14  15
ENDBRANCH   5  14
BRANCH   4  17
ATOM     17  O   UNL     1     -26.253 -29.148   9.379  1.00  0.00    -0.387 OA
ATOM     18  H   UNL     1     -25.546 -28.571   9.770  1.00  0.00     0.211 HD
ENDBRANCH   4  17
TORSDOF 7
ENDMDL
MODEL 9
REMARK VINA RESULT:    -4.556      8.195     10.228
REMARK INTER + INTRA:          -6.070
REMARK INTER:                  -5.664
REMARK INTRA:                  -0.406
REMARK UNBOUND:                -0.182
REMARK SMILES CCO[C@@H]1O[C@H](CO)[C@@H](O)[C@@H](O)[C@H]1O
REMARK SMILES IDX 4 1 13 2 11 3 9 4 6 5 5 6 3 7 2 8 1 9 14 10 12 12 7 14 8 15
REMARK SMILES IDX 10 17
REMARK H PARENT 14 11 12 13 8 16 10 18
REMARK Flexibility Score: inf
ROOT
ATOM      1  C   UNL     1     -21.468 -32.145   9.265  1.00  0.00     0.281 C 
ATOM      2  C   UNL     1     -20.359 -31.082   9.332  1.00  0.00     0.202 C 
ATOM      3  C   UNL     1     -20.486 -30.257  10.622  1.00  0.00     0.179 C 
ATOM      4  C   UNL     1     -20.532 -31.183  11.842  1.00  0.00     0.177 C 
ATOM      5  C   UNL     1     -21.602 -32.289  11.659  1.00  0.00     0.178 C 
ATOM      6  O   UNL     1     -21.495 -32.983  10.417  1.00  0.00    -0.341 OA
ENDROOT
BRANCH   1   7
ATOM      7  O   UNL     1     -22.723 -31.523   9.047  1.00  0.00    -0.350 OA
BRANCH   7   8
ATOM      8  C   UNL     1     -22.767 -30.941   7.760  1.00  0.00     0.160 C 
ATOM      9  C   UNL     1     -22.895 -32.043   6.719  1.00  0.00     0.035 C 
ENDBRANCH   7   8
ENDBRANCH   1   7
BRANCH   2  10
ATOM     10  O   UNL     1     -19.106 -31.717   9.266  1.00  0.00    -0.385 OA
ATOM     11  H   UNL     1     -18.715 -31.497   8.379  1.00  0.00     0.211 HD
ENDBRANCH   2  10
BRANCH   3  12
ATOM     12  O   UNL     1     -19.409 -29.363  10.748  1.00  0.00    -0.387 OA
ATOM     13  H   UNL     1     -19.652 -28.722  11.466  1.00  0.00     0.211 HD
ENDBRANCH   3  12
BRANCH   5  14
ATOM     14  C   UNL     1     -23.035 -31.794  11.955  1.00  0.00     0.191 C 
BRANCH  14  15
ATOM     15  O   UNL     1     -23.976 -32.779  11.624  1.00  0.00    -0.394 OA
ATOM     16  H   UNL     1     -23.975 -32.854  10.633  1.00  0.00     0.210 HD
ENDBRANCH  14  15
ENDBRANCH   5  14
BRANCH   4  17
ATOM     17  O   UNL     1     -19.271 -31.771  12.039  1.00  0.00    -0.387 OA
ATOM     18  H   UNL     1     -18.650 -31.348  11.389  1.00  0.00     0.211 HD
ENDBRANCH   4  17
TORSDOF 7
ENDMDL
