MODEL 1
REMARK VINA RESULT:     3.909      0.000      0.000
REMARK INTER + INTRA:           6.794
REMARK INTER:                   5.966
REMARK INTRA:                   0.828
REMARK UNBOUND:                 0.828
REMARK SMILES CC(=O)CCC=C(C)CCC=C(C)CCC=C(C)C
REMARK SMILES IDX 10 1 11 2 12 3 13 4 14 5 15 6 16 7 18 8 17 9 19 10 9 11 7 12
REMARK SMILES IDX 6 13 8 14 5 15 4 16 2 17 3 18 1 19
REMARK H PARENT
REMARK Flexibility Score: inf
ROOT
ATOM      1  C   UNL     1      -2.911  -8.839  -4.923  1.00  0.00     0.032 C 
ENDROOT
BRANCH   1   2
ATOM      2  C   UNL     1      -3.289  -7.390  -5.137  1.00  0.00    -0.028 C 
ATOM      3  C   UNL     1      -2.430  -6.345  -5.188  1.00  0.00    -0.077 C 
ATOM      4  C   UNL     1      -3.001  -4.975  -5.454  1.00  0.00     0.039 C 
BRANCH   3   5
ATOM      5  C   UNL     1      -0.934  -6.482  -4.977  1.00  0.00     0.034 C 
BRANCH   5   6
ATOM      6  C   UNL     1      -0.262  -7.175  -6.169  1.00  0.00     0.032 C 
BRANCH   6   7
ATOM      7  C   UNL     1       1.074  -7.749  -5.769  1.00  0.00    -0.028 C 
ATOM      8  C   UNL     1       3.383  -7.700  -4.876  1.00  0.00     0.039 C 
ATOM      9  C   UNL     1       2.099  -7.018  -5.274  1.00  0.00    -0.080 C 
ATOM     10  C   UNL     1       2.022  -5.517  -5.137  1.00  0.00     0.039 C 
ENDBRANCH   6   7
ENDBRANCH   5   6
ENDBRANCH   3   5
ENDBRANCH   1   2
BRANCH   1  11
ATOM     11  C   UNL     1      -4.102  -9.772  -5.193  1.00  0.00     0.034 C 
BRANCH  11  12
ATOM     12  C   UNL     1      -4.300 -10.032  -6.677  1.00  0.00    -0.077 C 
ATOM     13  C   UNL     1      -4.707 -11.226  -7.165  1.00  0.00    -0.028 C 
ATOM     14  C   UNL     1      -4.045  -8.912  -7.653  1.00  0.00     0.039 C 
BRANCH  13  15
ATOM     15  C   UNL     1      -4.926 -12.467  -6.336  1.00  0.00     0.035 C 
BRANCH  15  16
ATOM     16  C   UNL     1      -5.661 -12.126  -5.036  1.00  0.00     0.079 C 
BRANCH  16  17
ATOM     17  C   UNL     1      -7.042 -11.602  -5.328  1.00  0.00     0.130 C 
ATOM     18  O   UNL     1      -7.843 -12.312  -5.916  1.00  0.00    -0.300 OA
ATOM     19  C   UNL     1      -7.460 -10.225  -4.903  1.00  0.00     0.087 C 
ENDBRANCH  16  17
ENDBRANCH  15  16
ENDBRANCH  13  15
ENDBRANCH  11  12
ENDBRANCH   1  11
TORSDOF 9
ENDMDL
MODEL 2
REMARK VINA RESULT:     6.339     19.004     22.042
REMARK INTER + INTRA:          10.502
REMARK INTER:                   9.273
REMARK INTRA:                   1.229
REMARK UNBOUND:                 0.828
REMARK SMILES CC(=O)CCC=C(C)CCC=C(C)CCC=C(C)C
REMARK SMILES IDX 10 1 11 2 12 3 13 4 14 5 15 6 16 7 18 8 17 9 19 10 9 11 7 12
REMARK SMILES IDX 6 13 8 14 5 15 4 16 2 17 3 18 1 19
REMARK H PARENT
REMARK Flexibility Score: inf
ROOT
ATOM      1  C   UNL     1      -8.600 -18.878 -21.944  1.00  0.00     0.032 C 
ENDROOT
BRANCH   1   2
ATOM      2  C   UNL     1      -9.570 -19.355 -23.002  1.00  0.00    -0.028 C 
ATOM      3  C   UNL     1      -9.237 -19.892 -24.200  1.00  0.00    -0.077 C 
ATOM      4  C   UNL     1     -10.355 -20.348 -25.103  1.00  0.00     0.039 C 
BRANCH   3   5
ATOM      5  C   UNL     1      -7.805 -20.043 -24.679  1.00  0.00     0.034 C 
BRANCH   5   6
ATOM      6  C   UNL     1      -7.513 -21.481 -25.125  1.00  0.00     0.032 C 
BRANCH   6   7
ATOM      7  C   UNL     1      -6.050 -21.805 -24.959  1.00  0.00    -0.028 C 
ATOM      8  C   UNL     1      -4.056 -23.268 -24.826  1.00  0.00     0.039 C 
ATOM      9  C   UNL     1      -5.542 -23.059 -24.970  1.00  0.00    -0.080 C 
ATOM     10  C   UNL     1      -6.422 -24.280 -25.080  1.00  0.00     0.039 C 
ENDBRANCH   6   7
ENDBRANCH   5   6
ENDBRANCH   3   5
ENDBRANCH   1   2
BRANCH   1  11
ATOM     11  C   UNL     1      -8.530 -17.343 -21.904  1.00  0.00     0.034 C 
BRANCH  11  12
ATOM     12  C   UNL     1      -8.346 -16.741 -23.286  1.00  0.00    -0.077 C 
ATOM     13  C   UNL     1      -8.865 -15.544 -23.642  1.00  0.00    -0.028 C 
ATOM     14  C   UNL     1      -7.541 -17.502 -24.309  1.00  0.00     0.039 C 
BRANCH  13  15
ATOM     15  C   UNL     1      -9.758 -14.699 -22.768  1.00  0.00     0.035 C 
BRANCH  15  16
ATOM     16  C   UNL     1      -9.678 -13.225 -23.179  1.00  0.00     0.079 C 
BRANCH  16  17
ATOM     17  C   UNL     1      -8.262 -12.722 -23.076  1.00  0.00     0.130 C 
ATOM     18  O   UNL     1      -7.750 -12.586 -21.976  1.00  0.00    -0.300 OA
ATOM     19  C   UNL     1      -7.461 -12.392 -24.301  1.00  0.00     0.087 C 
ENDBRANCH  16  17
ENDBRANCH  15  16
ENDBRANCH  13  15
ENDBRANCH  11  12
ENDBRANCH   1  11
TORSDOF 9
ENDMDL
