MODEL 1
REMARK VINA RESULT:    -3.378      0.000      0.000
REMARK INTER + INTRA:          -3.731
REMARK INTER:                  -3.575
REMARK INTRA:                  -0.155
REMARK UNBOUND:                -0.155
REMARK SMILES C=C(C)[C@H]1CC=C(C)C(=O)C1
REMARK SMILES IDX 8 1 7 2 6 3 5 4 4 5 11 6 9 7 10 8 2 9 1 10 3 11
REMARK H PARENT
REMARK Flexibility Score: inf
ROOT
ATOM      1  C   UNL     1     199.337 154.541 165.592  1.00  0.00     0.048 C 
ATOM      2  C   UNL     1     199.967 153.271 165.091  1.00  0.00    -0.012 C 
ATOM      3  C   UNL     1     200.452 153.214 163.840  1.00  0.00    -0.019 C 
ATOM      4  C   UNL     1     201.091 151.970 163.278  1.00  0.00     0.036 C 
ATOM      5  C   UNL     1     200.545 150.671 163.913  1.00  0.00     0.025 C 
ATOM      6  C   UNL     1     200.576 150.777 165.450  1.00  0.00     0.089 C 
ATOM      7  C   UNL     1     199.929 152.048 165.927  1.00  0.00     0.158 C 
ATOM      8  O   UNL     1     199.388 152.074 167.066  1.00  0.00    -0.295 OA
ENDROOT
BRANCH   5   9
ATOM      9  C   UNL     1     199.162 150.251 163.410  1.00  0.00    -0.077 C 
ATOM     10  C   UNL     1     198.744 150.699 162.213  1.00  0.00     0.008 C 
ATOM     11  C   UNL     1     198.280 149.298 164.185  1.00  0.00     0.039 C 
ENDBRANCH   5   9
TORSDOF 1
ENDMDL
MODEL 2
REMARK VINA RESULT:    -3.365      3.052      5.106
REMARK INTER + INTRA:          -3.717
REMARK INTER:                  -3.568
REMARK INTRA:                  -0.150
REMARK UNBOUND:                -0.155
REMARK SMILES C=C(C)[C@H]1CC=C(C)C(=O)C1
REMARK SMILES IDX 8 1 7 2 6 3 5 4 4 5 11 6 9 7 10 8 2 9 1 10 3 11
REMARK H PARENT
REMARK Flexibility Score: inf
ROOT
ATOM      1  C   UNL     1     195.875 151.476 160.000  1.00  0.00     0.048 C 
ATOM      2  C   UNL     1     197.106 150.779 160.510  1.00  0.00    -0.012 C 
ATOM      3  C   UNL     1     196.997 149.856 161.480  1.00  0.00    -0.019 C 
ATOM      4  C   UNL     1     198.193 149.126 162.036  1.00  0.00     0.036 C 
ATOM      5  C   UNL     1     199.498 149.950 161.949  1.00  0.00     0.025 C 
ATOM      6  C   UNL     1     199.683 150.503 160.523  1.00  0.00     0.089 C 
ATOM      7  C   UNL     1     198.445 151.207 160.041  1.00  0.00     0.158 C 
ATOM      8  O   UNL     1     198.555 152.139 159.200  1.00  0.00    -0.295 OA
ENDROOT
BRANCH   5   9
ATOM      9  C   UNL     1     199.620 151.057 162.998  1.00  0.00    -0.077 C 
ATOM     10  C   UNL     1     199.244 150.797 164.263  1.00  0.00     0.008 C 
ATOM     11  C   UNL     1     200.211 152.411 162.673  1.00  0.00     0.039 C 
ENDBRANCH   5   9
TORSDOF 1
ENDMDL
MODEL 3
REMARK VINA RESULT:    -3.362     15.887     17.358
REMARK INTER + INTRA:          -3.714
REMARK INTER:                  -3.570
REMARK INTRA:                  -0.144
REMARK UNBOUND:                -0.155
REMARK SMILES C=C(C)[C@H]1CC=C(C)C(=O)C1
REMARK SMILES IDX 8 1 7 2 6 3 5 4 4 5 11 6 9 7 10 8 2 9 1 10 3 11
REMARK H PARENT
REMARK Flexibility Score: inf
ROOT
ATOM      1  C   UNL     1     210.871 160.024 161.163  1.00  0.00     0.048 C 
ATOM      2  C   UNL     1     212.058 160.184 160.255  1.00  0.00    -0.012 C 
ATOM      3  C   UNL     1     212.691 159.096 159.786  1.00  0.00    -0.019 C 
ATOM      4  C   UNL     1     213.890 159.189 158.876  1.00  0.00     0.036 C 
ATOM      5  C   UNL     1     214.710 160.482 159.088  1.00  0.00     0.025 C 
ATOM      6  C   UNL     1     213.781 161.711 159.064  1.00  0.00     0.089 C 
ATOM      7  C   UNL     1     212.610 161.533 159.990  1.00  0.00     0.158 C 
ATOM      8  O   UNL     1     212.073 162.551 160.506  1.00  0.00    -0.295 OA
ENDROOT
BRANCH   5   9
ATOM      9  C   UNL     1     215.594 160.474 160.337  1.00  0.00    -0.077 C 
ATOM     10  C   UNL     1     216.116 161.636 160.769  1.00  0.00     0.008 C 
ATOM     11  C   UNL     1     215.844 159.216 161.138  1.00  0.00     0.039 C 
ENDBRANCH   5   9
TORSDOF 1
ENDMDL
MODEL 4
REMARK VINA RESULT:    -3.327      3.227      4.514
REMARK INTER + INTRA:          -3.676
REMARK INTER:                  -3.503
REMARK INTRA:                  -0.173
REMARK UNBOUND:                -0.155
REMARK SMILES C=C(C)[C@H]1CC=C(C)C(=O)C1
REMARK SMILES IDX 8 1 7 2 6 3 5 4 4 5 11 6 9 7 10 8 2 9 1 10 3 11
REMARK H PARENT
REMARK Flexibility Score: inf
ROOT
ATOM      1  C   UNL     1     199.584 151.725 161.474  1.00  0.00     0.048 C 
ATOM      2  C   UNL     1     198.784 150.738 162.276  1.00  0.00    -0.012 C 
ATOM      3  C   UNL     1     199.119 150.488 163.553  1.00  0.00    -0.019 C 
ATOM      4  C   UNL     1     198.359 149.506 164.409  1.00  0.00     0.036 C 
ATOM      5  C   UNL     1     197.697 148.376 163.588  1.00  0.00     0.025 C 
ATOM      6  C   UNL     1     196.893 148.971 162.416  1.00  0.00     0.089 C 
ATOM      7  C   UNL     1     197.718 149.945 161.621  1.00  0.00     0.158 C 
ATOM      8  O   UNL     1     197.465 150.110 160.397  1.00  0.00    -0.295 OA
ENDROOT
BRANCH   5   9
ATOM      9  C   UNL     1     198.663 147.291 163.108  1.00  0.00    -0.077 C 
ATOM     10  C   UNL     1     199.726 146.984 163.873  1.00  0.00     0.008 C 
ATOM     11  C   UNL     1     198.424 146.507 161.837  1.00  0.00     0.039 C 
ENDBRANCH   5   9
TORSDOF 1
ENDMDL
MODEL 5
REMARK VINA RESULT:    -3.325     15.606     17.084
REMARK INTER + INTRA:          -3.674
REMARK INTER:                  -3.532
REMARK INTRA:                  -0.142
REMARK UNBOUND:                -0.155
REMARK SMILES C=C(C)[C@H]1CC=C(C)C(=O)C1
REMARK SMILES IDX 8 1 7 2 6 3 5 4 4 5 11 6 9 7 10 8 2 9 1 10 3 11
REMARK H PARENT
REMARK Flexibility Score: inf
ROOT
ATOM      1  C   UNL     1     212.039 159.271 162.691  1.00  0.00     0.048 C 
ATOM      2  C   UNL     1     212.835 159.234 161.416  1.00  0.00    -0.012 C 
ATOM      3  C   UNL     1     214.119 158.839 161.442  1.00  0.00    -0.019 C 
ATOM      4  C   UNL     1     214.971 158.785 160.199  1.00  0.00     0.036 C 
ATOM      5  C   UNL     1     214.539 159.809 159.125  1.00  0.00     0.025 C 
ATOM      6  C   UNL     1     213.022 159.709 158.875  1.00  0.00     0.089 C 
ATOM      7  C   UNL     1     212.247 159.761 160.162  1.00  0.00     0.158 C 
ATOM      8  O   UNL     1     211.074 160.221 160.156  1.00  0.00    -0.295 OA
ENDROOT
BRANCH   5   9
ATOM      9  C   UNL     1     214.963 161.250 159.416  1.00  0.00    -0.077 C 
ATOM     10  C   UNL     1     214.253 162.257 158.876  1.00  0.00     0.008 C 
ATOM     11  C   UNL     1     216.111 161.579 160.344  1.00  0.00     0.039 C 
ENDBRANCH   5   9
TORSDOF 1
ENDMDL
MODEL 6
REMARK VINA RESULT:    -3.274     16.091     17.573
REMARK INTER + INTRA:          -3.620
REMARK INTER:                  -3.549
REMARK INTRA:                  -0.071
REMARK UNBOUND:                -0.155
REMARK SMILES C=C(C)[C@H]1CC=C(C)C(=O)C1
REMARK SMILES IDX 8 1 7 2 6 3 5 4 4 5 11 6 9 7 10 8 2 9 1 10 3 11
REMARK H PARENT
REMARK Flexibility Score: inf
ROOT
ATOM      1  C   UNL     1     214.986 143.075 168.416  1.00  0.00     0.048 C 
ATOM      2  C   UNL     1     214.888 144.457 168.998  1.00  0.00    -0.012 C 
ATOM      3  C   UNL     1     216.003 145.180 169.194  1.00  0.00    -0.019 C 
ATOM      4  C   UNL     1     215.971 146.570 169.777  1.00  0.00     0.036 C 
ATOM      5  C   UNL     1     214.771 146.801 170.722  1.00  0.00     0.025 C 
ATOM      6  C   UNL     1     213.463 146.355 170.039  1.00  0.00     0.089 C 
ATOM      7  C   UNL     1     213.581 144.966 169.478  1.00  0.00     0.158 C 
ATOM      8  O   UNL     1     212.548 144.251 169.382  1.00  0.00    -0.295 OA
ENDROOT
BRANCH   5   9
ATOM      9  C   UNL     1     214.922 146.167 172.107  1.00  0.00    -0.077 C 
ATOM     10  C   UNL     1     213.925 146.310 172.998  1.00  0.00     0.008 C 
ATOM     11  C   UNL     1     216.125 145.329 172.480  1.00  0.00     0.039 C 
ENDBRANCH   5   9
TORSDOF 1
ENDMDL
MODEL 7
REMARK VINA RESULT:    -3.246      1.756      2.561
REMARK INTER + INTRA:          -3.591
REMARK INTER:                  -3.439
REMARK INTRA:                  -0.152
REMARK UNBOUND:                -0.155
REMARK SMILES C=C(C)[C@H]1CC=C(C)C(=O)C1
REMARK SMILES IDX 8 1 7 2 6 3 5 4 4 5 11 6 9 7 10 8 2 9 1 10 3 11
REMARK H PARENT
REMARK Flexibility Score: inf
ROOT
ATOM      1  C   UNL     1     199.777 152.324 165.120  1.00  0.00     0.048 C 
ATOM      2  C   UNL     1     199.830 151.496 163.867  1.00  0.00    -0.012 C 
ATOM      3  C   UNL     1     199.780 152.097 162.667  1.00  0.00    -0.019 C 
ATOM      4  C   UNL     1     199.824 151.322 161.374  1.00  0.00     0.036 C 
ATOM      5  C   UNL     1     199.246 149.894 161.506  1.00  0.00     0.025 C 
ATOM      6  C   UNL     1     199.876 149.175 162.713  1.00  0.00     0.089 C 
ATOM      7  C   UNL     1     199.800 150.017 163.956  1.00  0.00     0.158 C 
ATOM      8  O   UNL     1     199.751 149.450 165.082  1.00  0.00    -0.295 OA
ENDROOT
BRANCH   5   9
ATOM      9  C   UNL     1     197.718 149.830 161.553  1.00  0.00    -0.077 C 
ATOM     10  C   UNL     1     197.010 150.616 160.722  1.00  0.00     0.008 C 
ATOM     11  C   UNL     1     196.981 148.865 162.455  1.00  0.00     0.039 C 
ENDBRANCH   5   9
TORSDOF 1
ENDMDL
MODEL 8
REMARK VINA RESULT:    -3.223     14.817     16.251
REMARK INTER + INTRA:          -3.567
REMARK INTER:                  -3.432
REMARK INTRA:                  -0.135
REMARK UNBOUND:                -0.155
REMARK SMILES C=C(C)[C@H]1CC=C(C)C(=O)C1
REMARK SMILES IDX 8 1 7 2 6 3 5 4 4 5 11 6 9 7 10 8 2 9 1 10 3 11
REMARK H PARENT
REMARK Flexibility Score: inf
ROOT
ATOM      1  C   UNL     1     209.870 160.857 160.387  1.00  0.00     0.048 C 
ATOM      2  C   UNL     1     211.241 160.506 160.893  1.00  0.00    -0.012 C 
ATOM      3  C   UNL     1     212.060 161.477 161.330  1.00  0.00    -0.019 C 
ATOM      4  C   UNL     1     213.447 161.191 161.845  1.00  0.00     0.036 C 
ATOM      5  C   UNL     1     214.077 159.928 161.216  1.00  0.00     0.025 C 
ATOM      6  C   UNL     1     213.095 158.743 161.307  1.00  0.00     0.089 C 
ATOM      7  C   UNL     1     211.736 159.114 160.783  1.00  0.00     0.158 C 
ATOM      8  O   UNL     1     211.003 158.217 160.286  1.00  0.00    -0.295 OA
ENDROOT
BRANCH   5   9
ATOM      9  C   UNL     1     214.590 160.118 159.787  1.00  0.00    -0.077 C 
ATOM     10  C   UNL     1     214.613 159.059 158.959  1.00  0.00     0.008 C 
ATOM     11  C   UNL     1     215.008 161.472 159.257  1.00  0.00     0.039 C 
ENDBRANCH   5   9
TORSDOF 1
ENDMDL
