MODEL 1
REMARK VINA RESULT:    -5.113      0.000      0.000
REMARK INTER + INTRA:         -10.868
REMARK INTER:                  -9.297
REMARK INTRA:                  -1.571
REMARK UNBOUND:                -1.571
REMARK SMILES CCCCCCCCCCCCCCCC(=O)[O-]
REMARK SMILES IDX 9 1 10 2 11 3 12 4 13 5 14 6 15 7 16 8 17 9 18 10 8 11 7 12
REMARK SMILES IDX 6 13 5 14 4 15 3 16 2 17 1 18
REMARK H PARENT
REMARK Flexibility Score: inf
ROOT
ATOM      1  C   UNL     1      -3.777  11.820  -7.403  1.00  0.00     0.000 C 
ENDROOT
BRANCH   1   2
ATOM      2  C   UNL     1      -5.253  11.855  -7.843  1.00  0.00     0.000 C 
BRANCH   2   3
ATOM      3  C   UNL     1      -5.509  12.504  -9.214  1.00  0.00     0.000 C 
BRANCH   3   4
ATOM      4  C   UNL     1      -5.955  11.492 -10.283  1.00  0.00     0.000 C 
BRANCH   4   5
ATOM      5  C   UNL     1      -4.795  11.040 -11.186  1.00  0.00     0.000 C 
BRANCH   5   6
ATOM      6  C   UNL     1      -4.452   9.550 -11.010  1.00  0.00     0.006 C 
BRANCH   6   7
ATOM      7  C   UNL     1      -5.699   8.696 -10.746  1.00  0.00     0.053 C 
BRANCH   7   8
ATOM      8  C   UNL     1      -5.380   7.233 -10.744  1.00  0.00     0.041 C 
ATOM      9  O   UNL     1      -5.257   6.610 -11.832  1.00  0.00    -0.550 OA
ATOM     10  O   UNL     1      -5.253   6.548  -9.542  1.00  0.00    -0.550 OA
ENDBRANCH   7   8
ENDBRANCH   6   7
ENDBRANCH   5   6
ENDBRANCH   4   5
ENDBRANCH   3   4
ENDBRANCH   2   3
ENDBRANCH   1   2
BRANCH   1  11
ATOM     11  C   UNL     1      -2.848  12.577  -8.367  1.00  0.00     0.000 C 
BRANCH  11  12
ATOM     12  C   UNL     1      -1.869  11.648  -9.100  1.00  0.00    -0.000 C 
BRANCH  12  13
ATOM     13  C   UNL     1      -1.674  10.306  -8.374  1.00  0.00    -0.000 C 
BRANCH  13  14
ATOM     14  C   UNL     1      -0.198  10.002  -8.065  1.00  0.00    -0.000 C 
BRANCH  14  15
ATOM     15  C   UNL     1       0.728  11.230  -8.197  1.00  0.00    -0.000 C 
BRANCH  15  16
ATOM     16  C   UNL     1       2.209  10.827  -8.310  1.00  0.00    -0.000 C 
BRANCH  16  17
ATOM     17  C   UNL     1       2.417   9.591  -9.198  1.00  0.00    -0.003 C 
ATOM     18  C   UNL     1       3.750   9.622  -9.946  1.00  0.00     0.004 C 
ENDBRANCH  16  17
ENDBRANCH  15  16
ENDBRANCH  14  15
ENDBRANCH  13  14
ENDBRANCH  12  13
ENDBRANCH  11  12
ENDBRANCH   1  11
TORSDOF 14
ENDMDL
MODEL 2
REMARK VINA RESULT:    -5.078      2.433      3.728
REMARK INTER + INTRA:         -10.805
REMARK INTER:                  -9.065
REMARK INTRA:                  -1.741
REMARK UNBOUND:                -1.571
REMARK SMILES CCCCCCCCCCCCCCCC(=O)[O-]
REMARK SMILES IDX 9 1 10 2 11 3 12 4 13 5 14 6 15 7 16 8 17 9 18 10 8 11 7 12
REMARK SMILES IDX 6 13 5 14 4 15 3 16 2 17 1 18
REMARK H PARENT
REMARK Flexibility Score: inf
ROOT
ATOM      1  C   UNL     1      -4.303   9.607 -11.010  1.00  0.00     0.000 C 
ENDROOT
BRANCH   1   2
ATOM      2  C   UNL     1      -4.995  10.957 -11.277  1.00  0.00     0.000 C 
BRANCH   2   3
ATOM      3  C   UNL     1      -6.446  11.056 -10.776  1.00  0.00     0.000 C 
BRANCH   3   4
ATOM      4  C   UNL     1      -6.566  11.783  -9.425  1.00  0.00     0.000 C 
BRANCH   4   5
ATOM      5  C   UNL     1      -5.537  12.916  -9.274  1.00  0.00     0.000 C 
BRANCH   5   6
ATOM      6  C   UNL     1      -4.787  12.860  -7.931  1.00  0.00     0.006 C 
BRANCH   6   7
ATOM      7  C   UNL     1      -5.134  11.601  -7.125  1.00  0.00     0.053 C 
BRANCH   7   8
ATOM      8  C   UNL     1      -4.112  11.319  -6.068  1.00  0.00     0.041 C 
ATOM      9  O   UNL     1      -3.327  12.227  -5.687  1.00  0.00    -0.550 OA
ATOM     10  O   UNL     1      -4.001  10.044  -5.528  1.00  0.00    -0.550 OA
ENDBRANCH   7   8
ENDBRANCH   6   7
ENDBRANCH   5   6
ENDBRANCH   4   5
ENDBRANCH   3   4
ENDBRANCH   2   3
ENDBRANCH   1   2
BRANCH   1  11
ATOM     11  C   UNL     1      -3.418   9.628  -9.752  1.00  0.00     0.000 C 
BRANCH  11  12
ATOM     12  C   UNL     1      -2.442  10.814  -9.733  1.00  0.00    -0.000 C 
BRANCH  12  13
ATOM     13  C   UNL     1      -1.461  10.752  -8.550  1.00  0.00    -0.000 C 
BRANCH  13  14
ATOM     14  C   UNL     1      -0.569  12.001  -8.446  1.00  0.00    -0.000 C 
BRANCH  14  15
ATOM     15  C   UNL     1       0.932  11.679  -8.287  1.00  0.00    -0.000 C 
BRANCH  15  16
ATOM     16  C   UNL     1       1.240  10.200  -8.574  1.00  0.00    -0.000 C 
BRANCH  16  17
ATOM     17  C   UNL     1       2.729   9.864  -8.406  1.00  0.00    -0.003 C 
ATOM     18  C   UNL     1       3.441   9.660  -9.744  1.00  0.00     0.004 C 
ENDBRANCH  16  17
ENDBRANCH  15  16
ENDBRANCH  14  15
ENDBRANCH  13  14
ENDBRANCH  12  13
ENDBRANCH  11  12
ENDBRANCH   1  11
TORSDOF 14
ENDMDL
MODEL 3
REMARK VINA RESULT:    -5.014      3.441      7.016
REMARK INTER + INTRA:         -10.689
REMARK INTER:                  -8.775
REMARK INTRA:                  -1.913
REMARK UNBOUND:                -1.571
REMARK SMILES CCCCCCCCCCCCCCCC(=O)[O-]
REMARK SMILES IDX 9 1 10 2 11 3 12 4 13 5 14 6 15 7 16 8 17 9 18 10 8 11 7 12
REMARK SMILES IDX 6 13 5 14 4 15 3 16 2 17 1 18
REMARK H PARENT
REMARK Flexibility Score: inf
ROOT
ATOM      1  C   UNL     1      -3.490  11.055 -10.358  1.00  0.00     0.000 C 
ENDROOT
BRANCH   1   2
ATOM      2  C   UNL     1      -2.959   9.933  -9.445  1.00  0.00     0.000 C 
BRANCH   2   3
ATOM      3  C   UNL     1      -1.993  10.396  -8.340  1.00  0.00     0.000 C 
BRANCH   3   4
ATOM      4  C   UNL     1      -1.492  11.835  -8.546  1.00  0.00     0.000 C 
BRANCH   4   5
ATOM      5  C   UNL     1       0.037  11.948  -8.428  1.00  0.00     0.000 C 
BRANCH   5   6
ATOM      6  C   UNL     1       0.666  10.752  -7.692  1.00  0.00     0.006 C 
BRANCH   6   7
ATOM      7  C   UNL     1       1.401   9.804  -8.650  1.00  0.00     0.053 C 
BRANCH   7   8
ATOM      8  C   UNL     1       2.879  10.050  -8.647  1.00  0.00     0.041 C 
ATOM      9  O   UNL     1       3.420  10.645  -7.679  1.00  0.00    -0.550 OA
ATOM     10  O   UNL     1       3.653   9.653  -9.730  1.00  0.00    -0.550 OA
ENDBRANCH   7   8
ENDBRANCH   6   7
ENDBRANCH   5   6
ENDBRANCH   4   5
ENDBRANCH   3   4
ENDBRANCH   2   3
ENDBRANCH   1   2
BRANCH   1  11
ATOM     11  C   UNL     1      -4.659  10.597 -11.248  1.00  0.00     0.000 C 
BRANCH  11  12
ATOM     12  C   UNL     1      -5.970  11.334 -10.932  1.00  0.00    -0.000 C 
BRANCH  12  13
ATOM     13  C   UNL     1      -7.067  10.389 -10.414  1.00  0.00    -0.000 C 
BRANCH  13  14
ATOM     14  C   UNL     1      -6.560   8.957 -10.177  1.00  0.00    -0.000 C 
BRANCH  14  15
ATOM     15  C   UNL     1      -6.364   8.606  -8.687  1.00  0.00    -0.000 C 
BRANCH  15  16
ATOM     16  C   UNL     1      -6.767   9.766  -7.762  1.00  0.00    -0.000 C 
BRANCH  16  17
ATOM     17  C   UNL     1      -5.572  10.350  -6.993  1.00  0.00    -0.003 C 
ATOM     18  C   UNL     1      -5.393  11.849  -7.235  1.00  0.00     0.004 C 
ENDBRANCH  16  17
ENDBRANCH  15  16
ENDBRANCH  14  15
ENDBRANCH  13  14
ENDBRANCH  12  13
ENDBRANCH  11  12
ENDBRANCH   1  11
TORSDOF 14
ENDMDL
MODEL 4
REMARK VINA RESULT:    -4.999      3.097      6.519
REMARK INTER + INTRA:         -10.661
REMARK INTER:                  -9.124
REMARK INTRA:                  -1.537
REMARK UNBOUND:                -1.571
REMARK SMILES CCCCCCCCCCCCCCCC(=O)[O-]
REMARK SMILES IDX 9 1 10 2 11 3 12 4 13 5 14 6 15 7 16 8 17 9 18 10 8 11 7 12
REMARK SMILES IDX 6 13 5 14 4 15 3 16 2 17 1 18
REMARK H PARENT
REMARK Flexibility Score: inf
ROOT
ATOM      1  C   UNL     1      -4.735  12.005  -7.219  1.00  0.00     0.000 C 
ENDROOT
BRANCH   1   2
ATOM      2  C   UNL     1      -3.370  11.302  -7.099  1.00  0.00     0.000 C 
BRANCH   2   3
ATOM      3  C   UNL     1      -3.037  10.326  -8.241  1.00  0.00     0.000 C 
BRANCH   3   4
ATOM      4  C   UNL     1      -1.852  10.793  -9.104  1.00  0.00     0.000 C 
BRANCH   4   5
ATOM      5  C   UNL     1      -1.114  11.993  -8.488  1.00  0.00     0.000 C 
BRANCH   5   6
ATOM      6  C   UNL     1       0.410  11.785  -8.428  1.00  0.00     0.006 C 
BRANCH   6   7
ATOM      7  C   UNL     1       0.787  10.305  -8.280  1.00  0.00     0.053 C 
BRANCH   7   8
ATOM      8  C   UNL     1       2.240  10.071  -8.557  1.00  0.00     0.041 C 
ATOM      9  O   UNL     1       3.114  10.516  -7.768  1.00  0.00    -0.550 OA
ATOM     10  O   UNL     1       2.630   9.394  -9.706  1.00  0.00    -0.550 OA
ENDBRANCH   7   8
ENDBRANCH   6   7
ENDBRANCH   5   6
ENDBRANCH   4   5
ENDBRANCH   3   4
ENDBRANCH   2   3
ENDBRANCH   1   2
BRANCH   1  11
ATOM     11  C   UNL     1      -4.841  12.894  -8.470  1.00  0.00     0.000 C 
BRANCH  11  12
ATOM     12  C   UNL     1      -6.032  12.518  -9.365  1.00  0.00    -0.000 C 
BRANCH  12  13
ATOM     13  C   UNL     1      -5.652  11.504 -10.458  1.00  0.00    -0.000 C 
BRANCH  13  14
ATOM     14  C   UNL     1      -6.695  10.387 -10.625  1.00  0.00    -0.000 C 
BRANCH  14  15
ATOM     15  C   UNL     1      -6.181   8.991 -10.212  1.00  0.00    -0.000 C 
BRANCH  15  16
ATOM     16  C   UNL     1      -4.884   8.612 -10.947  1.00  0.00    -0.000 C 
BRANCH  16  17
ATOM     17  C   UNL     1      -4.665   7.093 -11.012  1.00  0.00    -0.003 C 
ATOM     18  C   UNL     1      -5.977   6.309 -11.005  1.00  0.00     0.004 C 
ENDBRANCH  16  17
ENDBRANCH  15  16
ENDBRANCH  14  15
ENDBRANCH  13  14
ENDBRANCH  12  13
ENDBRANCH  11  12
ENDBRANCH   1  11
TORSDOF 14
ENDMDL
MODEL 5
REMARK VINA RESULT:    -4.978      3.312      6.624
REMARK INTER + INTRA:         -10.623
REMARK INTER:                  -8.740
REMARK INTRA:                  -1.883
REMARK UNBOUND:                -1.571
REMARK SMILES CCCCCCCCCCCCCCCC(=O)[O-]
REMARK SMILES IDX 9 1 10 2 11 3 12 4 13 5 14 6 15 7 16 8 17 9 18 10 8 11 7 12
REMARK SMILES IDX 6 13 5 14 4 15 3 16 2 17 1 18
REMARK H PARENT
REMARK Flexibility Score: inf
ROOT
ATOM      1  C   UNL     1      -2.763  10.321  -7.669  1.00  0.00     0.000 C 
ENDROOT
BRANCH   1   2
ATOM      2  C   UNL     1      -3.282  11.690  -7.189  1.00  0.00     0.000 C 
BRANCH   2   3
ATOM      3  C   UNL     1      -2.289  12.500  -6.337  1.00  0.00     0.000 C 
BRANCH   3   4
ATOM      4  C   UNL     1      -1.132  13.089  -7.162  1.00  0.00     0.000 C 
BRANCH   4   5
ATOM      5  C   UNL     1       0.161  12.267  -7.030  1.00  0.00     0.000 C 
BRANCH   5   6
ATOM      6  C   UNL     1       0.741  11.851  -8.394  1.00  0.00     0.006 C 
BRANCH   6   7
ATOM      7  C   UNL     1       1.081  10.355  -8.446  1.00  0.00     0.053 C 
BRANCH   7   8
ATOM      8  C   UNL     1       2.550  10.126  -8.631  1.00  0.00     0.041 C 
ATOM      9  O   UNL     1       2.967   9.447  -9.605  1.00  0.00    -0.550 OA
ATOM     10  O   UNL     1       3.456  10.633  -7.707  1.00  0.00    -0.550 OA
ENDBRANCH   7   8
ENDBRANCH   6   7
ENDBRANCH   5   6
ENDBRANCH   4   5
ENDBRANCH   3   4
ENDBRANCH   2   3
ENDBRANCH   1   2
BRANCH   1  11
ATOM     11  C   UNL     1      -2.538  10.267  -9.189  1.00  0.00     0.000 C 
BRANCH  11  12
ATOM     12  C   UNL     1      -3.329  11.347  -9.945  1.00  0.00    -0.000 C 
BRANCH  12  13
ATOM     13  C   UNL     1      -4.261  10.754 -11.015  1.00  0.00    -0.000 C 
BRANCH  13  14
ATOM     14  C   UNL     1      -5.747  10.846 -10.631  1.00  0.00    -0.000 C 
BRANCH  14  15
ATOM     15  C   UNL     1      -6.428   9.472 -10.453  1.00  0.00    -0.000 C 
BRANCH  15  16
ATOM     16  C   UNL     1      -5.837   8.683  -9.272  1.00  0.00    -0.000 C 
BRANCH  16  17
ATOM     17  C   UNL     1      -5.430   7.254  -9.663  1.00  0.00    -0.003 C 
ATOM     18  C   UNL     1      -4.850   7.173 -11.075  1.00  0.00     0.004 C 
ENDBRANCH  16  17
ENDBRANCH  15  16
ENDBRANCH  14  15
ENDBRANCH  13  14
ENDBRANCH  12  13
ENDBRANCH  11  12
ENDBRANCH   1  11
TORSDOF 14
ENDMDL
MODEL 6
REMARK VINA RESULT:    -4.897      3.424      7.053
REMARK INTER + INTRA:         -10.476
REMARK INTER:                  -8.406
REMARK INTRA:                  -2.070
REMARK UNBOUND:                -1.571
REMARK SMILES CCCCCCCCCCCCCCCC(=O)[O-]
REMARK SMILES IDX 9 1 10 2 11 3 12 4 13 5 14 6 15 7 16 8 17 9 18 10 8 11 7 12
REMARK SMILES IDX 6 13 5 14 4 15 3 16 2 17 1 18
REMARK H PARENT
REMARK Flexibility Score: inf
ROOT
ATOM      1  C   UNL     1      -3.162   9.642  -9.858  1.00  0.00     0.000 C 
ENDROOT
BRANCH   1   2
ATOM      2  C   UNL     1      -2.682  11.106  -9.829  1.00  0.00     0.000 C 
BRANCH   2   3
ATOM      3  C   UNL     1      -1.534  11.396  -8.846  1.00  0.00     0.000 C 
BRANCH   3   4
ATOM      4  C   UNL     1      -0.947  10.120  -8.217  1.00  0.00     0.000 C 
BRANCH   4   5
ATOM      5  C   UNL     1       0.591  10.109  -8.238  1.00  0.00     0.000 C 
BRANCH   5   6
ATOM      6  C   UNL     1       1.198  11.508  -8.031  1.00  0.00     0.006 C 
BRANCH   6   7
ATOM      7  C   UNL     1       1.736  11.700  -6.606  1.00  0.00     0.053 C 
BRANCH   7   8
ATOM      8  C   UNL     1       0.781  12.477  -5.753  1.00  0.00     0.041 C 
ATOM      9  O   UNL     1      -0.114  11.879  -5.099  1.00  0.00    -0.550 OA
ATOM     10  O   UNL     1       0.856  13.863  -5.707  1.00  0.00    -0.550 OA
ENDBRANCH   7   8
ENDBRANCH   6   7
ENDBRANCH   5   6
ENDBRANCH   4   5
ENDBRANCH   3   4
ENDBRANCH   2   3
ENDBRANCH   1   2
BRANCH   1  11
ATOM     11  C   UNL     1      -4.456   9.454 -10.668  1.00  0.00     0.000 C 
BRANCH  11  12
ATOM     12  C   UNL     1      -4.947  10.759 -11.313  1.00  0.00    -0.000 C 
BRANCH  12  13
ATOM     13  C   UNL     1      -6.414  11.071 -10.969  1.00  0.00    -0.000 C 
BRANCH  13  14
ATOM     14  C   UNL     1      -6.615  11.440  -9.490  1.00  0.00    -0.000 C 
BRANCH  14  15
ATOM     15  C   UNL     1      -5.794  12.666  -9.039  1.00  0.00    -0.000 C 
BRANCH  15  16
ATOM     16  C   UNL     1      -5.395  12.581  -7.556  1.00  0.00    -0.000 C 
BRANCH  16  17
ATOM     17  C   UNL     1      -5.628  11.184  -6.962  1.00  0.00    -0.003 C 
ATOM     18  C   UNL     1      -4.329  10.510  -6.517  1.00  0.00     0.004 C 
ENDBRANCH  16  17
ENDBRANCH  15  16
ENDBRANCH  14  15
ENDBRANCH  13  14
ENDBRANCH  12  13
ENDBRANCH  11  12
ENDBRANCH   1  11
TORSDOF 14
ENDMDL
MODEL 7
REMARK VINA RESULT:    -4.873      1.332      2.087
REMARK INTER + INTRA:         -10.432
REMARK INTER:                  -9.092
REMARK INTRA:                  -1.340
REMARK UNBOUND:                -1.571
REMARK SMILES CCCCCCCCCCCCCCCC(=O)[O-]
REMARK SMILES IDX 9 1 10 2 11 3 12 4 13 5 14 6 15 7 16 8 17 9 18 10 8 11 7 12
REMARK SMILES IDX 6 13 5 14 4 15 3 16 2 17 1 18
REMARK H PARENT
REMARK Flexibility Score: inf
ROOT
ATOM      1  C   UNL     1      -2.864  11.937  -9.525  1.00  0.00     0.000 C 
ENDROOT
BRANCH   1   2
ATOM      2  C   UNL     1      -2.848  10.404  -9.665  1.00  0.00     0.000 C 
BRANCH   2   3
ATOM      3  C   UNL     1      -3.773   9.840 -10.759  1.00  0.00     0.000 C 
BRANCH   3   4
ATOM      4  C   UNL     1      -5.059  10.665 -10.940  1.00  0.00     0.000 C 
BRANCH   4   5
ATOM      5  C   UNL     1      -6.302   9.945 -10.391  1.00  0.00     0.000 C 
BRANCH   5   6
ATOM      6  C   UNL     1      -5.965   8.592  -9.741  1.00  0.00     0.006 C 
BRANCH   6   7
ATOM      7  C   UNL     1      -6.931   7.482 -10.180  1.00  0.00     0.053 C 
BRANCH   7   8
ATOM      8  C   UNL     1      -6.225   6.398 -10.934  1.00  0.00     0.041 C 
ATOM      9  O   UNL     1      -6.789   5.288 -11.123  1.00  0.00    -0.550 OA
ATOM     10  O   UNL     1      -4.931   6.599 -11.396  1.00  0.00    -0.550 OA
ENDBRANCH   7   8
ENDBRANCH   6   7
ENDBRANCH   5   6
ENDBRANCH   4   5
ENDBRANCH   3   4
ENDBRANCH   2   3
ENDBRANCH   1   2
BRANCH   1  11
ATOM     11  C   UNL     1      -3.211  12.403  -8.100  1.00  0.00     0.000 C 
BRANCH  11  12
ATOM     12  C   UNL     1      -2.030  13.088  -7.396  1.00  0.00    -0.000 C 
BRANCH  12  13
ATOM     13  C   UNL     1      -1.217  12.115  -6.526  1.00  0.00    -0.000 C 
BRANCH  13  14
ATOM     14  C   UNL     1       0.297  12.205  -6.782  1.00  0.00    -0.000 C 
BRANCH  14  15
ATOM     15  C   UNL     1       0.712  11.774  -8.205  1.00  0.00    -0.000 C 
BRANCH  15  16
ATOM     16  C   UNL     1       0.666  10.247  -8.382  1.00  0.00    -0.000 C 
BRANCH  16  17
ATOM     17  C   UNL     1       1.998   9.671  -8.886  1.00  0.00    -0.003 C 
ATOM     18  C   UNL     1       3.206  10.473  -8.400  1.00  0.00     0.004 C 
ENDBRANCH  16  17
ENDBRANCH  15  16
ENDBRANCH  14  15
ENDBRANCH  13  14
ENDBRANCH  12  13
ENDBRANCH  11  12
ENDBRANCH   1  11
TORSDOF 14
ENDMDL
MODEL 8
REMARK VINA RESULT:    -4.831      2.833      6.514
REMARK INTER + INTRA:         -10.356
REMARK INTER:                  -8.428
REMARK INTRA:                  -1.928
REMARK UNBOUND:                -1.571
REMARK SMILES CCCCCCCCCCCCCCCC(=O)[O-]
REMARK SMILES IDX 9 1 10 2 11 3 12 4 13 5 14 6 15 7 16 8 17 9 18 10 8 11 7 12
REMARK SMILES IDX 6 13 5 14 4 15 3 16 2 17 1 18
REMARK H PARENT
REMARK Flexibility Score: inf
ROOT
ATOM      1  C   UNL     1      -3.099  11.266  -7.351  1.00  0.00     0.000 C 
ENDROOT
BRANCH   1   2
ATOM      2  C   UNL     1      -2.308  11.647  -8.617  1.00  0.00     0.000 C 
BRANCH   2   3
ATOM      3  C   UNL     1      -1.217  12.712  -8.409  1.00  0.00     0.000 C 
BRANCH   3   4
ATOM      4  C   UNL     1      -1.068  13.137  -6.938  1.00  0.00     0.000 C 
BRANCH   4   5
ATOM      5  C   UNL     1       0.370  12.968  -6.420  1.00  0.00     0.000 C 
BRANCH   5   6
ATOM      6  C   UNL     1       0.853  11.508  -6.474  1.00  0.00     0.006 C 
BRANCH   6   7
ATOM      7  C   UNL     1       2.006  11.316  -7.469  1.00  0.00     0.053 C 
BRANCH   7   8
ATOM      8  C   UNL     1       1.723  10.213  -8.441  1.00  0.00     0.041 C 
ATOM      9  O   UNL     1       0.577   9.695  -8.495  1.00  0.00    -0.550 OA
ATOM     10  O   UNL     1       2.734   9.732  -9.263  1.00  0.00    -0.550 OA
ENDBRANCH   7   8
ENDBRANCH   6   7
ENDBRANCH   5   6
ENDBRANCH   4   5
ENDBRANCH   3   4
ENDBRANCH   2   3
ENDBRANCH   1   2
BRANCH   1  11
ATOM     11  C   UNL     1      -4.612  11.495  -7.501  1.00  0.00     0.000 C 
BRANCH  11  12
ATOM     12  C   UNL     1      -4.953  12.915  -7.979  1.00  0.00    -0.000 C 
BRANCH  12  13
ATOM     13  C   UNL     1      -5.549  12.932  -9.397  1.00  0.00    -0.000 C 
BRANCH  13  14
ATOM     14  C   UNL     1      -6.482  11.740  -9.668  1.00  0.00    -0.000 C 
BRANCH  14  15
ATOM     15  C   UNL     1      -6.174  10.999 -10.987  1.00  0.00    -0.000 C 
BRANCH  15  16
ATOM     16  C   UNL     1      -4.677  10.679 -11.135  1.00  0.00    -0.000 C 
BRANCH  16  17
ATOM     17  C   UNL     1      -4.389   9.171 -11.096  1.00  0.00    -0.003 C 
ATOM     18  C   UNL     1      -4.802   8.527  -9.773  1.00  0.00     0.004 C 
ENDBRANCH  16  17
ENDBRANCH  15  16
ENDBRANCH  14  15
ENDBRANCH  13  14
ENDBRANCH  12  13
ENDBRANCH  11  12
ENDBRANCH   1  11
TORSDOF 14
ENDMDL
MODEL 9
REMARK VINA RESULT:    -4.795      3.453      6.827
REMARK INTER + INTRA:         -10.291
REMARK INTER:                  -8.297
REMARK INTRA:                  -1.994
REMARK UNBOUND:                -1.571
REMARK SMILES CCCCCCCCCCCCCCCC(=O)[O-]
REMARK SMILES IDX 9 1 10 2 11 3 12 4 13 5 14 6 15 7 16 8 17 9 18 10 8 11 7 12
REMARK SMILES IDX 6 13 5 14 4 15 3 16 2 17 1 18
REMARK H PARENT
REMARK Flexibility Score: inf
ROOT
ATOM      1  C   UNL     1      -3.896  10.786  -7.257  1.00  0.00     0.000 C 
ENDROOT
BRANCH   1   2
ATOM      2  C   UNL     1      -2.974  11.983  -7.557  1.00  0.00     0.000 C 
BRANCH   2   3
ATOM      3  C   UNL     1      -2.017  11.786  -8.746  1.00  0.00     0.000 C 
BRANCH   3   4
ATOM      4  C   UNL     1      -1.486  10.346  -8.856  1.00  0.00     0.000 C 
BRANCH   4   5
ATOM      5  C   UNL     1      -0.241  10.110  -7.986  1.00  0.00     0.000 C 
BRANCH   5   6
ATOM      6  C   UNL     1       0.806  11.229  -8.132  1.00  0.00     0.006 C 
BRANCH   6   7
ATOM      7  C   UNL     1       1.670  11.381  -6.873  1.00  0.00     0.053 C 
BRANCH   7   8
ATOM      8  C   UNL     1       1.346  12.637  -6.125  1.00  0.00     0.041 C 
ATOM      9  O   UNL     1       2.199  13.155  -5.357  1.00  0.00    -0.550 OA
ATOM     10  O   UNL     1       0.089  13.216  -6.247  1.00  0.00    -0.550 OA
ENDBRANCH   7   8
ENDBRANCH   6   7
ENDBRANCH   5   6
ENDBRANCH   4   5
ENDBRANCH   3   4
ENDBRANCH   2   3
ENDBRANCH   1   2
BRANCH   1  11
ATOM     11  C   UNL     1      -5.378  11.090  -7.538  1.00  0.00     0.000 C 
BRANCH  11  12
ATOM     12  C   UNL     1      -5.602  12.516  -8.064  1.00  0.00    -0.000 C 
BRANCH  12  13
ATOM     13  C   UNL     1      -6.111  12.537  -9.515  1.00  0.00    -0.000 C 
BRANCH  13  14
ATOM     14  C   UNL     1      -6.076  11.150 -10.180  1.00  0.00    -0.000 C 
BRANCH  14  15
ATOM     15  C   UNL     1      -4.908  10.968 -11.173  1.00  0.00    -0.000 C 
BRANCH  15  16
ATOM     16  C   UNL     1      -4.283   9.565 -11.079  1.00  0.00    -0.000 C 
BRANCH  16  17
ATOM     17  C   UNL     1      -5.201   8.558 -10.370  1.00  0.00    -0.003 C 
ATOM     18  C   UNL     1      -5.095   7.151 -10.960  1.00  0.00     0.004 C 
ENDBRANCH  16  17
ENDBRANCH  15  16
ENDBRANCH  14  15
ENDBRANCH  13  14
ENDBRANCH  12  13
ENDBRANCH  11  12
ENDBRANCH   1  11
TORSDOF 14
ENDMDL
