MODEL 1
REMARK VINA RESULT:    -3.832      0.000      0.000
REMARK INTER + INTRA:          -4.916
REMARK INTER:                  -5.400
REMARK INTRA:                   0.484
REMARK UNBOUND:                 0.484
REMARK SMILES CC1=CCC(=C(C)C)C(=O)CC(C)=CCC1
REMARK SMILES IDX 12 1 14 2 13 3 15 4 16 5 2 6 1 7 3 8 11 10 9 11 10 12 5 13
REMARK SMILES IDX 6 14 7 15 8 16 4 17
REMARK H PARENT
REMARK Flexibility Score: 60.00
ROOT
ATOM      1  C   UNL     1     103.609 134.570 122.247  1.00  0.00    -0.070 C 
ATOM      2  C   UNL     1     103.100 135.756 122.656  1.00  0.00    -0.027 C 
ATOM      3  C   UNL     1     105.081 134.502 121.928  1.00  0.00     0.039 C 
ENDROOT
BRANCH   2   4
ATOM      4  C   UNL     1     101.666 135.991 123.073  1.00  0.00     0.032 C 
BRANCH   4   5
ATOM      5  C   UNL     1     101.511 135.978 124.600  1.00  0.00     0.034 C 
BRANCH   5   6
ATOM      6  C   UNL     1     100.276 135.229 125.080  1.00  0.00    -0.077 C 
ATOM      7  C   UNL     1      98.965 135.968 125.169  1.00  0.00     0.039 C 
ATOM      8  C   UNL     1     100.285 133.918 125.417  1.00  0.00    -0.023 CG0
ATOM      9  G   UNL     1     101.508 133.033 125.458  1.00  0.00     0.000 G0
ENDBRANCH   5   6
ENDBRANCH   4   5
ENDBRANCH   2   4
BRANCH   1  10
ATOM     10  C   UNL     1     102.765 133.319 122.093  1.00  0.00     0.111 C 
BRANCH  10  11
ATOM     11  C   UNL     1     102.867 132.445 123.311  1.00  0.00     0.163 C 
ATOM     12  O   UNL     1     103.978 131.932 123.614  1.00  0.00    -0.294 OA
BRANCH  11  13
ATOM     13  C   UNL     1     101.688 132.190 124.178  1.00  0.00    -0.002 C 
ATOM     14  C   UNL     1     100.788 131.225 123.848  1.00  0.00    -0.069 C 
ATOM     15  C   UNL     1      99.554 130.988 124.690  1.00  0.00     0.039 C 
ATOM     16  C   UNL     1     101.009 130.325 122.652  1.00  0.00     0.039 C 
BRANCH  13  17
ATOM     17  C   UNL     1     101.501 133.026 125.441  1.00  0.00     0.066 CG0
ATOM     18  G   UNL     1     100.288 133.926 125.401  1.00  0.00     0.000 G0
ENDBRANCH  13  17
ENDBRANCH  11  13
ENDBRANCH  10  11
ENDBRANCH   1  10
TORSDOF 0
ENDMDL
MODEL 2
REMARK VINA RESULT:    -3.486      1.573      3.715
REMARK INTER + INTRA:          -4.429
REMARK INTER:                  -5.210
REMARK INTRA:                   0.781
REMARK UNBOUND:                 0.484
REMARK SMILES CC1=CCC(=C(C)C)C(=O)CC(C)=CCC1
REMARK SMILES IDX 12 1 14 2 13 3 15 4 16 5 2 6 1 7 3 8 11 10 9 11 10 12 5 13
REMARK SMILES IDX 6 14 7 15 8 16 4 17
REMARK H PARENT
REMARK Flexibility Score: 60.00
ROOT
ATOM      1  C   UNL     1     102.835 134.159 122.766  1.00  0.00    -0.070 C 
ATOM      2  C   UNL     1     102.623 133.100 121.950  1.00  0.00    -0.027 C 
ATOM      3  C   UNL     1     102.479 135.532 122.253  1.00  0.00     0.039 C 
ENDROOT
BRANCH   2   4
ATOM      4  C   UNL     1     102.864 131.654 122.318  1.00  0.00     0.032 C 
BRANCH   4   5
ATOM      5  C   UNL     1     101.978 131.214 123.492  1.00  0.00     0.034 C 
BRANCH   5   6
ATOM      6  C   UNL     1     100.531 131.667 123.365  1.00  0.00    -0.077 C 
ATOM      7  C   UNL     1      99.719 131.190 122.187  1.00  0.00     0.039 C 
ATOM      8  C   UNL     1      99.919 132.467 124.269  1.00  0.00    -0.023 CG0
ATOM      9  G   UNL     1     100.583 133.098 125.470  1.00  0.00     0.000 G0
ENDBRANCH   5   6
ENDBRANCH   4   5
ENDBRANCH   2   4
BRANCH   1  10
ATOM     10  C   UNL     1     103.415 134.023 124.160  1.00  0.00     0.111 C 
BRANCH  10  11
ATOM     11  C   UNL     1     102.570 134.747 125.171  1.00  0.00     0.163 C 
ATOM     12  O   UNL     1     103.112 135.574 125.953  1.00  0.00    -0.294 OA
BRANCH  11  13
ATOM     13  C   UNL     1     101.104 134.523 125.250  1.00  0.00    -0.002 C 
ATOM     14  C   UNL     1     100.241 135.567 125.116  1.00  0.00    -0.069 C 
ATOM     15  C   UNL     1      98.748 135.367 125.248  1.00  0.00     0.039 C 
ATOM     16  C   UNL     1     100.741 136.957 124.790  1.00  0.00     0.039 C 
BRANCH  13  17
ATOM     17  C   UNL     1     100.580 133.109 125.485  1.00  0.00     0.066 CG0
ATOM     18  G   UNL     1      99.920 132.497 124.272  1.00  0.00     0.000 G0
ENDBRANCH  13  17
ENDBRANCH  11  13
ENDBRANCH  10  11
ENDBRANCH   1  10
TORSDOF 0
ENDMDL
MODEL 3
REMARK VINA RESULT:    -3.394      1.859      3.583
REMARK INTER + INTRA:          -4.299
REMARK INTER:                  -5.249
REMARK INTRA:                   0.950
REMARK UNBOUND:                 0.484
REMARK SMILES CC1=CCC(=C(C)C)C(=O)CC(C)=CCC1
REMARK SMILES IDX 12 1 14 2 13 3 15 4 16 5 2 6 1 7 3 8 11 10 9 11 10 12 5 13
REMARK SMILES IDX 6 14 7 15 8 16 4 17
REMARK H PARENT
REMARK Flexibility Score: 60.00
ROOT
ATOM      1  C   UNL     1     100.460 134.961 125.511  1.00  0.00    -0.070 C 
ATOM      2  C   UNL     1     101.594 135.696 125.421  1.00  0.00    -0.027 C 
ATOM      3  C   UNL     1      99.139 135.684 125.426  1.00  0.00     0.039 C 
ENDROOT
BRANCH   2   4
ATOM      4  C   UNL     1     102.998 135.135 125.425  1.00  0.00     0.032 C 
BRANCH   4   5
ATOM      5  C   UNL     1     103.677 135.298 124.059  1.00  0.00     0.034 C 
BRANCH   5   6
ATOM      6  C   UNL     1     102.725 135.136 122.882  1.00  0.00    -0.077 C 
ATOM      7  C   UNL     1     102.359 136.352 122.069  1.00  0.00     0.039 C 
ATOM      8  C   UNL     1     102.198 133.947 122.510  1.00  0.00    -0.023 CG0
ATOM      9  G   UNL     1     102.391 132.637 123.237  1.00  0.00     0.000 G0
ENDBRANCH   5   6
ENDBRANCH   4   5
ENDBRANCH   2   4
BRANCH   1  10
ATOM     10  C   UNL     1     100.465 133.456 125.697  1.00  0.00     0.111 C 
BRANCH  10  11
ATOM     11  C   UNL     1     100.073 132.754 124.427  1.00  0.00     0.163 C 
ATOM     12  O   UNL     1      98.885 132.836 124.015  1.00  0.00    -0.294 OA
BRANCH  11  13
ATOM     13  C   UNL     1     101.066 131.981 123.637  1.00  0.00    -0.002 C 
ATOM     14  C   UNL     1     100.803 130.697 123.272  1.00  0.00    -0.069 C 
ATOM     15  C   UNL     1     101.822 129.878 122.513  1.00  0.00     0.039 C 
ATOM     16  C   UNL     1      99.467 130.055 123.575  1.00  0.00     0.039 C 
BRANCH  13  17
ATOM     17  C   UNL     1     102.380 132.647 123.241  1.00  0.00     0.066 CG0
ATOM     18  G   UNL     1     102.201 133.946 122.491  1.00  0.00     0.000 G0
ENDBRANCH  13  17
ENDBRANCH  11  13
ENDBRANCH  10  11
ENDBRANCH   1  10
TORSDOF 0
ENDMDL
MODEL 4
REMARK VINA RESULT:    -3.388     13.700     15.885
REMARK INTER + INTRA:          -4.291
REMARK INTER:                  -4.781
REMARK INTRA:                   0.490
REMARK UNBOUND:                 0.484
REMARK SMILES CC1=CCC(=C(C)C)C(=O)CC(C)=CCC1
REMARK SMILES IDX 12 1 14 2 13 3 15 4 16 5 2 6 1 7 3 8 11 10 9 11 10 12 5 13
REMARK SMILES IDX 6 14 7 15 8 16 4 17
REMARK H PARENT
REMARK Flexibility Score: 60.00
ROOT
ATOM      1  C   UNL     1      96.642 139.054 135.931  1.00  0.00    -0.070 C 
ATOM      2  C   UNL     1      97.644 139.249 135.041  1.00  0.00    -0.027 C 
ATOM      3  C   UNL     1      96.761 137.897 136.890  1.00  0.00     0.039 C 
ENDROOT
BRANCH   2   4
ATOM      4  C   UNL     1      97.720 140.388 134.050  1.00  0.00     0.032 C 
BRANCH   4   5
ATOM      5  C   UNL     1      98.952 141.270 134.295  1.00  0.00     0.034 C 
BRANCH   5   6
ATOM      6  C   UNL     1      99.078 141.754 135.733  1.00  0.00    -0.077 C 
ATOM      7  C   UNL     1     100.257 141.298 136.554  1.00  0.00     0.039 C 
ATOM      8  C   UNL     1      98.191 142.595 136.315  1.00  0.00    -0.023 CG0
ATOM      9  G   UNL     1      96.918 143.102 135.681  1.00  0.00     0.000 G0
ENDBRANCH   5   6
ENDBRANCH   4   5
ENDBRANCH   2   4
BRANCH   1  10
ATOM     10  C   UNL     1      95.414 139.942 135.999  1.00  0.00     0.111 C 
BRANCH  10  11
ATOM     11  C   UNL     1      95.672 141.157 136.845  1.00  0.00     0.163 C 
ATOM     12  O   UNL     1      95.940 141.013 138.069  1.00  0.00    -0.294 OA
BRANCH  11  13
ATOM     13  C   UNL     1      95.637 142.523 136.263  1.00  0.00    -0.002 C 
ATOM     14  C   UNL     1      94.477 143.234 136.247  1.00  0.00    -0.069 C 
ATOM     15  C   UNL     1      94.411 144.604 135.612  1.00  0.00     0.039 C 
ATOM     16  C   UNL     1      93.222 142.698 136.900  1.00  0.00     0.039 C 
BRANCH  13  17
ATOM     17  C   UNL     1      96.919 143.116 135.686  1.00  0.00     0.066 CG0
ATOM     18  G   UNL     1      98.179 142.574 136.318  1.00  0.00     0.000 G0
ENDBRANCH  13  17
ENDBRANCH  11  13
ENDBRANCH  10  11
ENDBRANCH   1  10
TORSDOF 0
ENDMDL
MODEL 5
REMARK VINA RESULT:    -3.354     13.944     16.012
REMARK INTER + INTRA:          -4.243
REMARK INTER:                  -4.815
REMARK INTRA:                   0.572
REMARK UNBOUND:                 0.484
REMARK SMILES CC1=CCC(=C(C)C)C(=O)CC(C)=CCC1
REMARK SMILES IDX 12 1 14 2 13 3 15 4 16 5 2 6 1 7 3 8 11 10 9 11 10 12 5 13
REMARK SMILES IDX 6 14 7 15 8 16 4 17
REMARK H PARENT
REMARK Flexibility Score: 60.00
ROOT
ATOM      1  C   UNL     1      97.900 140.754 135.029  1.00  0.00    -0.070 C 
ATOM      2  C   UNL     1      97.374 139.515 134.883  1.00  0.00    -0.027 C 
ATOM      3  C   UNL     1      98.015 141.624 133.803  1.00  0.00     0.039 C 
ENDROOT
BRANCH   2   4
ATOM      4  C   UNL     1      97.130 138.535 136.008  1.00  0.00     0.032 C 
BRANCH   4   5
ATOM      5  C   UNL     1      95.630 138.329 136.264  1.00  0.00     0.034 C 
BRANCH   5   6
ATOM      6  C   UNL     1      95.126 139.030 137.518  1.00  0.00    -0.077 C 
ATOM      7  C   UNL     1      94.974 138.230 138.787  1.00  0.00     0.039 C 
ATOM      8  C   UNL     1      94.820 140.347 137.563  1.00  0.00    -0.023 CG0
ATOM      9  G   UNL     1      94.842 141.292 136.384  1.00  0.00     0.000 G0
ENDBRANCH   5   6
ENDBRANCH   4   5
ENDBRANCH   2   4
BRANCH   1  10
ATOM     10  C   UNL     1      98.380 141.295 136.362  1.00  0.00     0.111 C 
BRANCH  10  11
ATOM     11  C   UNL     1      97.254 141.943 137.119  1.00  0.00     0.163 C 
ATOM     12  O   UNL     1      97.395 142.188 138.347  1.00  0.00    -0.294 OA
BRANCH  11  13
ATOM     13  C   UNL     1      95.987 142.320 136.442  1.00  0.00    -0.002 C 
ATOM     14  C   UNL     1      95.849 143.553 135.881  1.00  0.00    -0.069 C 
ATOM     15  C   UNL     1      94.548 143.973 135.235  1.00  0.00     0.039 C 
ATOM     16  C   UNL     1      97.002 144.531 135.846  1.00  0.00     0.039 C 
BRANCH  13  17
ATOM     17  C   UNL     1      94.846 141.309 136.384  1.00  0.00     0.066 CG0
ATOM     18  G   UNL     1      94.823 140.352 137.553  1.00  0.00     0.000 G0
ENDBRANCH  13  17
ENDBRANCH  11  13
ENDBRANCH  10  11
ENDBRANCH   1  10
TORSDOF 0
ENDMDL
MODEL 6
REMARK VINA RESULT:    -3.298      1.651      3.959
REMARK INTER + INTRA:          -4.164
REMARK INTER:                  -4.627
REMARK INTRA:                   0.464
REMARK UNBOUND:                 0.484
REMARK SMILES CC1=CCC(=C(C)C)C(=O)CC(C)=CCC1
REMARK SMILES IDX 12 1 14 2 13 3 15 4 16 5 2 6 1 7 3 8 11 10 9 11 10 12 5 13
REMARK SMILES IDX 6 14 7 15 8 16 4 17
REMARK H PARENT
REMARK Flexibility Score: 60.00
ROOT
ATOM      1  C   UNL     1     101.017 136.032 124.748  1.00  0.00    -0.070 C 
ATOM      2  C   UNL     1      99.923 135.404 125.238  1.00  0.00    -0.027 C 
ATOM      3  C   UNL     1     101.323 137.420 125.252  1.00  0.00     0.039 C 
ENDROOT
BRANCH   2   4
ATOM      4  C   UNL     1      99.499 133.995 124.893  1.00  0.00     0.032 C 
BRANCH   4   5
ATOM      5  C   UNL     1     100.454 132.953 125.494  1.00  0.00     0.034 C 
BRANCH   5   6
ATOM      6  C   UNL     1     100.766 131.799 124.552  1.00  0.00    -0.077 C 
ATOM      7  C   UNL     1      99.628 130.962 124.025  1.00  0.00     0.039 C 
ATOM      8  C   UNL     1     102.018 131.491 124.142  1.00  0.00    -0.023 CG0
ATOM      9  G   UNL     1     103.285 132.166 124.612  1.00  0.00     0.000 G0
ENDBRANCH   5   6
ENDBRANCH   4   5
ENDBRANCH   2   4
BRANCH   1  10
ATOM     10  C   UNL     1     101.937 135.404 123.718  1.00  0.00     0.111 C 
BRANCH  10  11
ATOM     11  C   UNL     1     103.107 134.730 124.378  1.00  0.00     0.163 C 
ATOM     12  O   UNL     1     103.630 135.255 125.397  1.00  0.00    -0.294 OA
BRANCH  11  13
ATOM     13  C   UNL     1     103.644 133.443 123.865  1.00  0.00    -0.002 C 
ATOM     14  C   UNL     1     104.432 133.422 122.756  1.00  0.00    -0.069 C 
ATOM     15  C   UNL     1     104.944 132.117 122.189  1.00  0.00     0.039 C 
ATOM     16  C   UNL     1     104.858 134.703 122.074  1.00  0.00     0.039 C 
BRANCH  13  17
ATOM     17  C   UNL     1     103.301 132.150 124.599  1.00  0.00     0.066 CG0
ATOM     18  G   UNL     1     102.009 131.516 124.140  1.00  0.00     0.000 G0
ENDBRANCH  13  17
ENDBRANCH  11  13
ENDBRANCH  10  11
ENDBRANCH   1  10
TORSDOF 0
ENDMDL
MODEL 7
REMARK VINA RESULT:    -3.238     14.623     16.774
REMARK INTER + INTRA:          -4.079
REMARK INTER:                  -4.412
REMARK INTRA:                   0.334
REMARK UNBOUND:                 0.484
REMARK SMILES CC1=CCC(=C(C)C)C(=O)CC(C)=CCC1
REMARK SMILES IDX 12 1 14 2 13 3 15 4 16 5 2 6 1 7 3 8 11 10 9 11 10 12 5 13
REMARK SMILES IDX 6 14 7 15 8 16 4 17
REMARK H PARENT
REMARK Flexibility Score: 60.00
ROOT
ATOM      1  C   UNL     1      96.354 143.649 134.492  1.00  0.00    -0.070 C 
ATOM      2  C   UNL     1      97.401 142.792 134.460  1.00  0.00    -0.027 C 
ATOM      3  C   UNL     1      96.633 145.116 134.284  1.00  0.00     0.039 C 
ENDROOT
BRANCH   2   4
ATOM      4  C   UNL     1      97.300 141.289 134.589  1.00  0.00     0.032 C 
BRANCH   4   5
ATOM      5  C   UNL     1      97.310 140.844 136.058  1.00  0.00     0.034 C 
BRANCH   5   6
ATOM      6  C   UNL     1      96.133 139.954 136.432  1.00  0.00    -0.077 C 
ATOM      7  C   UNL     1      96.088 138.545 135.898  1.00  0.00     0.039 C 
ATOM      8  C   UNL     1      95.125 140.355 137.241  1.00  0.00    -0.023 CG0
ATOM      9  G   UNL     1      94.960 141.742 137.814  1.00  0.00     0.000 G0
ENDBRANCH   5   6
ENDBRANCH   4   5
ENDBRANCH   2   4
BRANCH   1  10
ATOM     10  C   UNL     1      94.925 143.199 134.731  1.00  0.00     0.111 C 
BRANCH  10  11
ATOM     11  C   UNL     1      94.446 143.620 136.092  1.00  0.00     0.163 C 
ATOM     12  O   UNL     1      94.451 144.843 136.398  1.00  0.00    -0.294 OA
BRANCH  11  13
ATOM     13  C   UNL     1      93.945 142.626 137.075  1.00  0.00    -0.002 C 
ATOM     14  C   UNL     1      92.610 142.498 137.303  1.00  0.00    -0.069 C 
ATOM     15  C   UNL     1      92.085 141.529 138.338  1.00  0.00     0.039 C 
ATOM     16  C   UNL     1      91.600 143.290 136.502  1.00  0.00     0.039 C 
BRANCH  13  17
ATOM     17  C   UNL     1      94.947 141.752 137.823  1.00  0.00     0.066 CG0
ATOM     18  G   UNL     1      95.112 140.372 137.230  1.00  0.00     0.000 G0
ENDBRANCH  13  17
ENDBRANCH  11  13
ENDBRANCH  10  11
ENDBRANCH   1  10
TORSDOF 0
ENDMDL
MODEL 8
REMARK VINA RESULT:    -3.193     13.869     16.163
REMARK INTER + INTRA:          -4.016
REMARK INTER:                  -4.381
REMARK INTRA:                   0.365
REMARK UNBOUND:                 0.484
REMARK SMILES CC1=CCC(=C(C)C)C(=O)CC(C)=CCC1
REMARK SMILES IDX 12 1 14 2 13 3 15 4 16 5 2 6 1 7 3 8 11 10 9 11 10 12 5 13
REMARK SMILES IDX 6 14 7 15 8 16 4 17
REMARK H PARENT
REMARK Flexibility Score: 60.00
ROOT
ATOM      1  C   UNL     1      97.313 142.096 134.680  1.00  0.00    -0.070 C 
ATOM      2  C   UNL     1      97.794 140.944 134.157  1.00  0.00    -0.027 C 
ATOM      3  C   UNL     1      97.012 143.232 133.735  1.00  0.00     0.039 C 
ENDROOT
BRANCH   2   4
ATOM      4  C   UNL     1      98.093 139.688 134.944  1.00  0.00     0.032 C 
BRANCH   4   5
ATOM      5  C   UNL     1      96.810 138.923 135.298  1.00  0.00     0.034 C 
BRANCH   5   6
ATOM      6  C   UNL     1      96.752 138.470 136.750  1.00  0.00    -0.077 C 
ATOM      7  C   UNL     1      97.749 137.449 137.234  1.00  0.00     0.039 C 
ATOM      8  C   UNL     1      95.858 138.952 137.645  1.00  0.00    -0.023 CG0
ATOM      9  G   UNL     1      94.744 139.924 137.333  1.00  0.00     0.000 G0
ENDBRANCH   5   6
ENDBRANCH   4   5
ENDBRANCH   2   4
BRANCH   1  10
ATOM     10  C   UNL     1      97.070 142.291 136.164  1.00  0.00     0.111 C 
BRANCH  10  11
ATOM     11  C   UNL     1      95.603 142.234 136.484  1.00  0.00     0.163 C 
ATOM     12  O   UNL     1      94.791 142.900 135.786  1.00  0.00    -0.294 OA
BRANCH  11  13
ATOM     13  C   UNL     1      95.087 141.392 137.594  1.00  0.00    -0.002 C 
ATOM     14  C   UNL     1      94.928 141.918 138.838  1.00  0.00    -0.069 C 
ATOM     15  C   UNL     1      94.455 141.062 139.992  1.00  0.00     0.039 C 
ATOM     16  C   UNL     1      95.176 143.386 139.105  1.00  0.00     0.039 C 
BRANCH  13  17
ATOM     17  C   UNL     1      94.741 139.932 137.318  1.00  0.00     0.066 CG0
ATOM     18  G   UNL     1      95.857 138.970 137.647  1.00  0.00     0.000 G0
ENDBRANCH  13  17
ENDBRANCH  11  13
ENDBRANCH  10  11
ENDBRANCH   1  10
TORSDOF 0
ENDMDL
MODEL 9
REMARK VINA RESULT:    -3.187     14.063     16.671
REMARK INTER + INTRA:          -4.007
REMARK INTER:                  -4.432
REMARK INTRA:                   0.425
REMARK UNBOUND:                 0.484
REMARK SMILES CC1=CCC(=C(C)C)C(=O)CC(C)=CCC1
REMARK SMILES IDX 12 1 14 2 13 3 15 4 16 5 2 6 1 7 3 8 11 10 9 11 10 12 5 13
REMARK SMILES IDX 6 14 7 15 8 16 4 17
REMARK H PARENT
REMARK Flexibility Score: 60.00
ROOT
ATOM      1  C   UNL     1      95.055 144.641 135.355  1.00  0.00    -0.070 C 
ATOM      2  C   UNL     1      93.880 144.463 136.002  1.00  0.00    -0.027 C 
ATOM      3  C   UNL     1      95.688 146.009 135.398  1.00  0.00     0.039 C 
ENDROOT
BRANCH   2   4
ATOM      4  C   UNL     1      93.136 143.152 136.113  1.00  0.00     0.032 C 
BRANCH   4   5
ATOM      5  C   UNL     1      93.030 142.683 137.571  1.00  0.00     0.034 C 
BRANCH   5   6
ATOM      6  C   UNL     1      94.352 142.732 138.324  1.00  0.00    -0.077 C 
ATOM      7  C   UNL     1      94.497 143.691 139.479  1.00  0.00     0.039 C 
ATOM      8  C   UNL     1      95.409 141.943 138.024  1.00  0.00    -0.023 CG0
ATOM      9  G   UNL     1      95.479 140.975 136.866  1.00  0.00     0.000 G0
ENDBRANCH   5   6
ENDBRANCH   4   5
ENDBRANCH   2   4
BRANCH   1  10
ATOM     10  C   UNL     1      95.752 143.532 134.590  1.00  0.00     0.111 C 
BRANCH  10  11
ATOM     11  C   UNL     1      96.725 142.798 135.470  1.00  0.00     0.163 C 
ATOM     12  O   UNL     1      97.712 143.416 135.953  1.00  0.00    -0.294 OA
BRANCH  11  13
ATOM     13  C   UNL     1      96.533 141.362 135.801  1.00  0.00    -0.002 C 
ATOM     14  C   UNL     1      97.269 140.408 135.169  1.00  0.00    -0.069 C 
ATOM     15  C   UNL     1      97.051 138.939 135.453  1.00  0.00     0.039 C 
ATOM     16  C   UNL     1      98.361 140.782 134.191  1.00  0.00     0.039 C 
BRANCH  13  17
ATOM     17  C   UNL     1      95.501 140.975 136.855  1.00  0.00     0.066 CG0
ATOM     18  G   UNL     1      95.416 141.947 138.008  1.00  0.00     0.000 G0
ENDBRANCH  13  17
ENDBRANCH  11  13
ENDBRANCH  10  11
ENDBRANCH   1  10
TORSDOF 0
ENDMDL
