MODEL 1
REMARK VINA RESULT:    -3.920      0.000      0.000
REMARK INTER + INTRA:          -4.279
REMARK INTER:                  -4.263
REMARK INTRA:                  -0.015
REMARK UNBOUND:                -0.015
REMARK SMILES OCc1ccco1
REMARK SMILES IDX 2 1 3 2 5 3 6 4 4 5 7 6 1 7
REMARK H PARENT 1 8
REMARK Flexibility Score: inf
ROOT
ATOM      1  C   UNL     1     -20.206  16.030 -29.286  1.00  0.00     0.231 C 
ENDROOT
BRANCH   1   2
ATOM      2  C   UNL     1     -19.434  15.053 -28.462  1.00  0.00     0.129 A 
ATOM      3  C   UNL     1     -17.941  14.147 -27.131  1.00  0.00     0.042 A 
ATOM      4  C   UNL     1     -18.813  13.195 -27.622  1.00  0.00     0.195 A 
ATOM      5  C   UNL     1     -18.339  15.349 -27.676  1.00  0.00     0.048 A 
ATOM      6  O   UNL     1     -19.690  13.767 -28.416  1.00  0.00    -0.467 OA
ENDBRANCH   1   2
BRANCH   1   7
ATOM      7  O   UNL     1     -20.309  17.241 -28.593  1.00  0.00    -0.388 OA
ATOM      8  H   UNL     1     -19.822  17.912 -29.139  1.00  0.00     0.211 HD
ENDBRANCH   1   7
TORSDOF 2
ENDMDL
MODEL 2
REMARK VINA RESULT:    -3.871     10.827     11.159
REMARK INTER + INTRA:          -4.225
REMARK INTER:                  -4.202
REMARK INTRA:                  -0.023
REMARK UNBOUND:                -0.015
REMARK SMILES OCc1ccco1
REMARK SMILES IDX 2 1 3 2 5 3 6 4 4 5 7 6 1 7
REMARK H PARENT 1 8
REMARK Flexibility Score: inf
ROOT
ATOM      1  C   UNL     1     -14.203  17.998 -18.181  1.00  0.00     0.231 C 
ENDROOT
BRANCH   1   2
ATOM      2  C   UNL     1     -13.319  17.204 -19.085  1.00  0.00     0.129 A 
ATOM      3  C   UNL     1     -12.218  15.553 -20.026  1.00  0.00     0.042 A 
ATOM      4  C   UNL     1     -11.907  16.761 -20.619  1.00  0.00     0.195 A 
ATOM      5  C   UNL     1     -13.128  15.838 -19.031  1.00  0.00     0.048 A 
ATOM      6  O   UNL     1     -12.578  17.727 -20.033  1.00  0.00    -0.467 OA
ENDBRANCH   1   2
BRANCH   1   7
ATOM      7  O   UNL     1     -14.082  19.357 -18.495  1.00  0.00    -0.388 OA
ATOM      8  H   UNL     1     -13.111  19.559 -18.468  1.00  0.00     0.211 HD
ENDBRANCH   1   7
TORSDOF 2
ENDMDL
MODEL 3
REMARK VINA RESULT:    -3.822      1.341      3.351
REMARK INTER + INTRA:          -4.172
REMARK INTER:                  -4.156
REMARK INTRA:                  -0.016
REMARK UNBOUND:                -0.015
REMARK SMILES OCc1ccco1
REMARK SMILES IDX 2 1 3 2 5 3 6 4 4 5 7 6 1 7
REMARK H PARENT 1 8
REMARK Flexibility Score: inf
ROOT
ATOM      1  C   UNL     1     -18.770  14.111 -27.490  1.00  0.00     0.231 C 
ENDROOT
BRANCH   1   2
ATOM      2  C   UNL     1     -19.320  15.228 -28.313  1.00  0.00     0.129 A 
ATOM      3  C   UNL     1     -20.171  16.397 -29.965  1.00  0.00     0.042 A 
ATOM      4  C   UNL     1     -19.891  17.203 -28.879  1.00  0.00     0.195 A 
ATOM      5  C   UNL     1     -19.800  15.121 -29.602  1.00  0.00     0.048 A 
ATOM      6  O   UNL     1     -19.381  16.476 -27.911  1.00  0.00    -0.467 OA
ENDBRANCH   1   2
BRANCH   1   7
ATOM      7  O   UNL     1     -17.373  14.204 -27.459  1.00  0.00    -0.388 OA
ATOM      8  H   UNL     1     -17.133  14.401 -26.516  1.00  0.00     0.211 HD
ENDBRANCH   1   7
TORSDOF 2
ENDMDL
MODEL 4
REMARK VINA RESULT:    -3.750      1.190      1.499
REMARK INTER + INTRA:          -4.094
REMARK INTER:                  -4.080
REMARK INTRA:                  -0.013
REMARK UNBOUND:                -0.015
REMARK SMILES OCc1ccco1
REMARK SMILES IDX 2 1 3 2 5 3 6 4 4 5 7 6 1 7
REMARK H PARENT 1 8
REMARK Flexibility Score: inf
ROOT
ATOM      1  C   UNL     1     -19.301  15.398 -28.287  1.00  0.00     0.231 C 
ENDROOT
BRANCH   1   2
ATOM      2  C   UNL     1     -18.820  14.122 -27.679  1.00  0.00     0.129 A 
ATOM      3  C   UNL     1     -17.567  12.596 -26.719  1.00  0.00     0.042 A 
ATOM      4  C   UNL     1     -18.803  12.082 -27.061  1.00  0.00     0.195 A 
ATOM      5  C   UNL     1     -17.575  13.914 -27.121  1.00  0.00     0.048 A 
ATOM      6  O   UNL     1     -19.526  13.017 -27.635  1.00  0.00    -0.467 OA
ENDBRANCH   1   2
BRANCH   1   7
ATOM      7  O   UNL     1     -19.441  16.364 -27.285  1.00  0.00    -0.388 OA
ATOM      8  H   UNL     1     -18.993  17.181 -27.627  1.00  0.00     0.211 HD
ENDBRANCH   1   7
TORSDOF 2
ENDMDL
MODEL 5
REMARK VINA RESULT:    -3.717      1.392      2.013
REMARK INTER + INTRA:          -4.058
REMARK INTER:                  -4.044
REMARK INTRA:                  -0.015
REMARK UNBOUND:                -0.015
REMARK SMILES OCc1ccco1
REMARK SMILES IDX 2 1 3 2 5 3 6 4 4 5 7 6 1 7
REMARK H PARENT 1 8
REMARK Flexibility Score: inf
ROOT
ATOM      1  C   UNL     1     -20.925  15.906 -30.125  1.00  0.00     0.231 C 
ENDROOT
BRANCH   1   2
ATOM      2  C   UNL     1     -19.945  15.531 -29.063  1.00  0.00     0.129 A 
ATOM      3  C   UNL     1     -18.600  14.390 -27.755  1.00  0.00     0.042 A 
ATOM      4  C   UNL     1     -18.661  15.715 -27.371  1.00  0.00     0.195 A 
ATOM      5  C   UNL     1     -19.432  14.268 -28.846  1.00  0.00     0.048 A 
ATOM      6  O   UNL     1     -19.474  16.369 -28.169  1.00  0.00    -0.467 OA
ENDBRANCH   1   2
BRANCH   1   7
ATOM      7  O   UNL     1     -22.186  15.401 -29.789  1.00  0.00    -0.388 OA
ATOM      8  H   UNL     1     -22.087  14.414 -29.759  1.00  0.00     0.211 HD
ENDBRANCH   1   7
TORSDOF 2
ENDMDL
MODEL 6
REMARK VINA RESULT:    -3.709     10.259     11.018
REMARK INTER + INTRA:          -4.049
REMARK INTER:                  -4.032
REMARK INTRA:                  -0.017
REMARK UNBOUND:                -0.015
REMARK SMILES OCc1ccco1
REMARK SMILES IDX 2 1 3 2 5 3 6 4 4 5 7 6 1 7
REMARK H PARENT 1 8
REMARK Flexibility Score: inf
ROOT
ATOM      1  C   UNL     1     -13.624  18.037 -18.070  1.00  0.00     0.231 C 
ENDROOT
BRANCH   1   2
ATOM      2  C   UNL     1     -13.524  16.699 -18.726  1.00  0.00     0.129 A 
ATOM      3  C   UNL     1     -13.857  14.979 -20.049  1.00  0.00     0.042 A 
ATOM      4  C   UNL     1     -12.907  14.691 -19.089  1.00  0.00     0.195 A 
ATOM      5  C   UNL     1     -14.260  16.276 -19.813  1.00  0.00     0.048 A 
ATOM      6  O   UNL     1     -12.733  15.736 -18.313  1.00  0.00    -0.467 OA
ENDBRANCH   1   2
BRANCH   1   7
ATOM      7  O   UNL     1     -14.698  18.743 -18.624  1.00  0.00    -0.388 OA
ATOM      8  H   UNL     1     -15.461  18.108 -18.648  1.00  0.00     0.211 HD
ENDBRANCH   1   7
TORSDOF 2
ENDMDL
MODEL 7
REMARK VINA RESULT:    -3.687     15.875     16.518
REMARK INTER + INTRA:          -4.025
REMARK INTER:                  -4.008
REMARK INTRA:                  -0.018
REMARK UNBOUND:                -0.015
REMARK SMILES OCc1ccco1
REMARK SMILES IDX 2 1 3 2 5 3 6 4 4 5 7 6 1 7
REMARK H PARENT 1 8
REMARK Flexibility Score: inf
ROOT
ATOM      1  C   UNL     1     -20.232  21.168 -11.691  1.00  0.00     0.231 C 
ENDROOT
BRANCH   1   2
ATOM      2  C   UNL     1     -19.985  21.774 -13.033  1.00  0.00     0.129 A 
ATOM      3  C   UNL     1     -19.079  22.863 -14.711  1.00  0.00     0.042 A 
ATOM      4  C   UNL     1     -20.333  22.390 -15.044  1.00  0.00     0.195 A 
ATOM      5  C   UNL     1     -18.854  22.469 -13.410  1.00  0.00     0.048 A 
ATOM      6  O   UNL     1     -20.849  21.747 -14.022  1.00  0.00    -0.467 OA
ENDBRANCH   1   2
BRANCH   1   7
ATOM      7  O   UNL     1     -20.615  19.831 -11.851  1.00  0.00    -0.388 OA
ATOM      8  H   UNL     1     -20.269  19.552 -12.739  1.00  0.00     0.211 HD
ENDBRANCH   1   7
TORSDOF 2
ENDMDL
MODEL 8
REMARK VINA RESULT:    -3.527      1.627      3.252
REMARK INTER + INTRA:          -3.852
REMARK INTER:                  -3.832
REMARK INTRA:                  -0.020
REMARK UNBOUND:                -0.015
REMARK SMILES OCc1ccco1
REMARK SMILES IDX 2 1 3 2 5 3 6 4 4 5 7 6 1 7
REMARK H PARENT 1 8
REMARK Flexibility Score: inf
ROOT
ATOM      1  C   UNL     1     -19.922  11.749 -26.761  1.00  0.00     0.231 C 
ENDROOT
BRANCH   1   2
ATOM      2  C   UNL     1     -19.225  13.017 -27.129  1.00  0.00     0.129 A 
ATOM      3  C   UNL     1     -17.701  14.577 -27.384  1.00  0.00     0.042 A 
ATOM      4  C   UNL     1     -18.931  15.003 -27.845  1.00  0.00     0.195 A 
ATOM      5  C   UNL     1     -17.890  13.294 -26.918  1.00  0.00     0.048 A 
ATOM      6  O   UNL     1     -19.820  14.051 -27.676  1.00  0.00    -0.467 OA
ENDBRANCH   1   2
BRANCH   1   7
ATOM      7  O   UNL     1     -21.085  12.053 -26.044  1.00  0.00    -0.388 OA
ATOM      8  H   UNL     1     -21.585  12.708 -26.598  1.00  0.00     0.211 HD
ENDBRANCH   1   7
TORSDOF 2
ENDMDL
MODEL 9
REMARK VINA RESULT:    -3.436     10.461     10.840
REMARK INTER + INTRA:          -3.753
REMARK INTER:                  -3.734
REMARK INTRA:                  -0.018
REMARK UNBOUND:                -0.015
REMARK SMILES OCc1ccco1
REMARK SMILES IDX 2 1 3 2 5 3 6 4 4 5 7 6 1 7
REMARK H PARENT 1 8
REMARK Flexibility Score: inf
ROOT
ATOM      1  C   UNL     1     -13.614  13.477 -18.921  1.00  0.00     0.231 C 
ENDROOT
BRANCH   1   2
ATOM      2  C   UNL     1     -13.193  14.823 -19.413  1.00  0.00     0.129 A 
ATOM      3  C   UNL     1     -12.034  16.472 -20.283  1.00  0.00     0.042 A 
ATOM      4  C   UNL     1     -13.244  16.920 -19.790  1.00  0.00     0.195 A 
ATOM      5  C   UNL     1     -11.998  15.117 -20.037  1.00  0.00     0.048 A 
ATOM      6  O   UNL     1     -13.911  15.913 -19.275  1.00  0.00    -0.467 OA
ENDBRANCH   1   2
BRANCH   1   7
ATOM      7  O   UNL     1     -14.923  13.219 -19.346  1.00  0.00    -0.388 OA
ATOM      8  H   UNL     1     -15.111  12.277 -19.093  1.00  0.00     0.211 HD
ENDBRANCH   1   7
TORSDOF 2
ENDMDL
