MODEL 1
REMARK VINA RESULT:    -3.232      0.000      0.000
REMARK INTER + INTRA:          -4.194
REMARK INTER:                  -3.799
REMARK INTRA:                  -0.396
REMARK UNBOUND:                -0.396
REMARK SMILES [NH3+][C@H](CO)C(=O)[O-]
REMARK SMILES IDX 3 1 2 2 1 3 5 7 6 8 7 9 4 10
REMARK H PARENT 1 4 1 5 1 6 4 11
REMARK Flexibility Score: inf
ROOT
ATOM      1  C   UNL     1     127.227 125.698 124.994  1.00  0.00     0.227 C 
ENDROOT
BRANCH   1   2
ATOM      2  C   UNL     1     127.044 127.213 124.802  1.00  0.00     0.253 C 
BRANCH   2   3
ATOM      3  N   UNL     1     126.262 127.800 125.898  1.00  0.00    -0.348 N 
ATOM      4  H   UNL     1     126.585 128.779 126.077  1.00  0.00     0.345 HD
ATOM      5  H   UNL     1     125.251 127.834 125.632  1.00  0.00     0.345 HD
ATOM      6  H   UNL     1     126.365 127.239 126.775  1.00  0.00     0.345 HD
ENDBRANCH   2   3
BRANCH   2   7
ATOM      7  C   UNL     1     128.377 127.900 124.660  1.00  0.00     0.102 C 
ATOM      8  O   UNL     1     128.972 128.362 125.671  1.00  0.00    -0.544 OA
ATOM      9  O   UNL     1     128.978 127.994 123.411  1.00  0.00    -0.544 OA
ENDBRANCH   2   7
ENDBRANCH   1   2
BRANCH   1  10
ATOM     10  O   UNL     1     128.574 125.338 124.843  1.00  0.00    -0.390 OA
ATOM     11  H   UNL     1     128.601 124.347 124.891  1.00  0.00     0.210 HD
ENDBRANCH   1  10
TORSDOF 4
ENDMDL
MODEL 2
REMARK VINA RESULT:    -3.039      2.171      2.295
REMARK INTER + INTRA:          -3.968
REMARK INTER:                  -3.746
REMARK INTRA:                  -0.222
REMARK UNBOUND:                -0.396
REMARK SMILES [NH3+][C@H](CO)C(=O)[O-]
REMARK SMILES IDX 3 1 2 2 1 3 5 7 6 8 7 9 4 10
REMARK H PARENT 1 4 1 5 1 6 4 11
REMARK Flexibility Score: inf
ROOT
ATOM      1  C   UNL     1     127.581 124.995 124.998  1.00  0.00     0.227 C 
ENDROOT
BRANCH   1   2
ATOM      2  C   UNL     1     128.411 126.185 125.509  1.00  0.00     0.253 C 
BRANCH   2   3
ATOM      3  N   UNL     1     129.822 126.056 125.124  1.00  0.00    -0.348 N 
ATOM      4  H   UNL     1     130.428 126.154 125.970  1.00  0.00     0.345 HD
ATOM      5  H   UNL     1     129.990 125.109 124.711  1.00  0.00     0.345 HD
ATOM      6  H   UNL     1     130.089 126.786 124.424  1.00  0.00     0.345 HD
ENDBRANCH   2   3
BRANCH   2   7
ATOM      7  C   UNL     1     127.834 127.488 125.019  1.00  0.00     0.102 C 
ATOM      8  O   UNL     1     126.626 127.566 124.671  1.00  0.00    -0.544 OA
ATOM      9  O   UNL     1     128.629 128.627 124.987  1.00  0.00    -0.544 OA
ENDBRANCH   2   7
ENDBRANCH   1   2
BRANCH   1  10
ATOM     10  O   UNL     1     126.367 124.901 125.694  1.00  0.00    -0.390 OA
ATOM     11  H   UNL     1     126.012 125.826 125.753  1.00  0.00     0.210 HD
ENDBRANCH   1  10
TORSDOF 4
ENDMDL
MODEL 3
REMARK VINA RESULT:    -2.980      1.720      2.051
REMARK INTER + INTRA:          -3.898
REMARK INTER:                  -3.671
REMARK INTRA:                  -0.227
REMARK UNBOUND:                -0.396
REMARK SMILES [NH3+][C@H](CO)C(=O)[O-]
REMARK SMILES IDX 3 1 2 2 1 3 5 7 6 8 7 9 4 10
REMARK H PARENT 1 4 1 5 1 6 4 11
REMARK Flexibility Score: inf
ROOT
ATOM      1  C   UNL     1     127.230 125.573 124.882  1.00  0.00     0.227 C 
ENDROOT
BRANCH   1   2
ATOM      2  C   UNL     1     128.380 126.521 124.502  1.00  0.00     0.253 C 
BRANCH   2   3
ATOM      3  N   UNL     1     127.980 127.445 123.434  1.00  0.00    -0.348 N 
ATOM      4  H   UNL     1     128.420 128.381 123.594  1.00  0.00     0.345 HD
ATOM      5  H   UNL     1     128.311 127.083 122.510  1.00  0.00     0.345 HD
ATOM      6  H   UNL     1     126.940 127.557 123.403  1.00  0.00     0.345 HD
ENDBRANCH   2   3
BRANCH   2   7
ATOM      7  C   UNL     1     128.875 127.273 125.711  1.00  0.00     0.102 C 
ATOM      8  O   UNL     1     129.025 128.523 125.672  1.00  0.00    -0.544 OA
ATOM      9  O   UNL     1     129.134 126.589 126.892  1.00  0.00    -0.544 OA
ENDBRANCH   2   7
ENDBRANCH   1   2
BRANCH   1  10
ATOM     10  O   UNL     1     127.722 124.425 125.518  1.00  0.00    -0.390 OA
ATOM     11  H   UNL     1     127.695 124.616 126.491  1.00  0.00     0.210 HD
ENDBRANCH   1  10
TORSDOF 4
ENDMDL
MODEL 4
REMARK VINA RESULT:    -2.741      2.089      2.302
REMARK INTER + INTRA:          -3.618
REMARK INTER:                  -3.601
REMARK INTRA:                  -0.017
REMARK UNBOUND:                -0.396
REMARK SMILES [NH3+][C@H](CO)C(=O)[O-]
REMARK SMILES IDX 3 1 2 2 1 3 5 7 6 8 7 9 4 10
REMARK H PARENT 1 4 1 5 1 6 4 11
REMARK Flexibility Score: inf
ROOT
ATOM      1  C   UNL     1     126.794 127.073 124.891  1.00  0.00     0.227 C 
ENDROOT
BRANCH   1   2
ATOM      2  C   UNL     1     128.168 126.383 124.873  1.00  0.00     0.253 C 
BRANCH   2   3
ATOM      3  N   UNL     1     128.035 124.932 124.689  1.00  0.00    -0.348 N 
ATOM      4  H   UNL     1     128.644 124.432 125.377  1.00  0.00     0.345 HD
ATOM      5  H   UNL     1     127.044 124.644 124.862  1.00  0.00     0.345 HD
ATOM      6  H   UNL     1     128.308 124.649 123.720  1.00  0.00     0.345 HD
ENDBRANCH   2   3
BRANCH   2   7
ATOM      7  C   UNL     1     129.055 126.982 123.812  1.00  0.00     0.102 C 
ATOM      8  O   UNL     1     130.124 127.571 124.126  1.00  0.00    -0.544 OA
ATOM      9  O   UNL     1     128.713 126.854 122.472  1.00  0.00    -0.544 OA
ENDBRANCH   2   7
ENDBRANCH   1   2
BRANCH   1  10
ATOM     10  O   UNL     1     126.684 127.930 125.996  1.00  0.00    -0.390 OA
ATOM     11  H   UNL     1     126.491 128.831 125.627  1.00  0.00     0.210 HD
ENDBRANCH   1  10
TORSDOF 4
ENDMDL
MODEL 5
REMARK VINA RESULT:    -2.376     15.229     15.921
REMARK INTER + INTRA:          -3.188
REMARK INTER:                  -2.963
REMARK INTRA:                  -0.225
REMARK UNBOUND:                -0.396
REMARK SMILES [NH3+][C@H](CO)C(=O)[O-]
REMARK SMILES IDX 3 1 2 2 1 3 5 7 6 8 7 9 4 10
REMARK H PARENT 1 4 1 5 1 6 4 11
REMARK Flexibility Score: inf
ROOT
ATOM      1  C   UNL     1     125.195 117.105 113.960  1.00  0.00     0.227 C 
ENDROOT
BRANCH   1   2
ATOM      2  C   UNL     1     126.007 116.331 112.907  1.00  0.00     0.253 C 
BRANCH   2   3
ATOM      3  N   UNL     1     125.164 115.923 111.777  1.00  0.00    -0.348 N 
ATOM      4  H   UNL     1     125.747 115.839 110.913  1.00  0.00     0.345 HD
ATOM      5  H   UNL     1     124.737 114.988 111.974  1.00  0.00     0.345 HD
ATOM      6  H   UNL     1     124.399 116.617 111.608  1.00  0.00     0.345 HD
ENDBRANCH   2   3
BRANCH   2   7
ATOM      7  C   UNL     1     127.186 117.143 112.437  1.00  0.00     0.102 C 
ATOM      8  O   UNL     1     128.042 117.568 113.258  1.00  0.00    -0.544 OA
ATOM      9  O   UNL     1     127.354 117.396 111.081  1.00  0.00    -0.544 OA
ENDBRANCH   2   7
ENDBRANCH   1   2
BRANCH   1  10
ATOM     10  O   UNL     1     125.903 117.192 115.167  1.00  0.00    -0.390 OA
ATOM     11  H   UNL     1     125.391 116.653 115.825  1.00  0.00     0.210 HD
ENDBRANCH   1  10
TORSDOF 4
ENDMDL
MODEL 6
REMARK VINA RESULT:    -2.348     14.258     14.720
REMARK INTER + INTRA:          -3.156
REMARK INTER:                  -2.927
REMARK INTRA:                  -0.229
REMARK UNBOUND:                -0.396
REMARK SMILES [NH3+][C@H](CO)C(=O)[O-]
REMARK SMILES IDX 3 1 2 2 1 3 5 7 6 8 7 9 4 10
REMARK H PARENT 1 4 1 5 1 6 4 11
REMARK Flexibility Score: inf
ROOT
ATOM      1  C   UNL     1     120.145 126.143 114.035  1.00  0.00     0.227 C 
ENDROOT
BRANCH   1   2
ATOM      2  C   UNL     1     120.298 127.239 112.967  1.00  0.00     0.253 C 
BRANCH   2   3
ATOM      3  N   UNL     1     121.028 126.742 111.794  1.00  0.00    -0.348 N 
ATOM      4  H   UNL     1     121.836 126.156 112.103  1.00  0.00     0.345 HD
ATOM      5  H   UNL     1     120.396 126.145 111.212  1.00  0.00     0.345 HD
ATOM      6  H   UNL     1     121.382 127.534 111.209  1.00  0.00     0.345 HD
ENDBRANCH   2   3
BRANCH   2   7
ATOM      7  C   UNL     1     118.954 127.794 112.573  1.00  0.00     0.102 C 
ATOM      8  O   UNL     1     118.337 128.585 113.335  1.00  0.00    -0.544 OA
ATOM      9  O   UNL     1     118.403 127.462 111.341  1.00  0.00    -0.544 OA
ENDBRANCH   2   7
ENDBRANCH   1   2
BRANCH   1  10
ATOM     10  O   UNL     1     119.590 126.670 115.210  1.00  0.00    -0.390 OA
ATOM     11  H   UNL     1     118.960 125.982 115.550  1.00  0.00     0.210 HD
ENDBRANCH   1  10
TORSDOF 4
ENDMDL
MODEL 7
REMARK VINA RESULT:    -2.337     20.637     21.471
REMARK INTER + INTRA:          -3.143
REMARK INTER:                  -2.915
REMARK INTRA:                  -0.228
REMARK UNBOUND:                -0.396
REMARK SMILES [NH3+][C@H](CO)C(=O)[O-]
REMARK SMILES IDX 3 1 2 2 1 3 5 7 6 8 7 9 4 10
REMARK H PARENT 1 4 1 5 1 6 4 11
REMARK Flexibility Score: inf
ROOT
ATOM      1  C   UNL     1     114.993 117.011 113.990  1.00  0.00     0.227 C 
ENDROOT
BRANCH   1   2
ATOM      2  C   UNL     1     113.952 116.821 112.874  1.00  0.00     0.253 C 
BRANCH   2   3
ATOM      3  N   UNL     1     114.188 117.746 111.759  1.00  0.00    -0.348 N 
ATOM      4  H   UNL     1     113.695 117.402 110.904  1.00  0.00     0.345 HD
ATOM      5  H   UNL     1     113.807 118.691 111.997  1.00  0.00     0.345 HD
ATOM      6  H   UNL     1     115.211 117.833 111.553  1.00  0.00     0.345 HD
ENDBRANCH   2   3
BRANCH   2   7
ATOM      7  C   UNL     1     113.935 115.392 112.396  1.00  0.00     0.102 C 
ATOM      8  O   UNL     1     114.311 115.100 111.229  1.00  0.00    -0.544 OA
ATOM      9  O   UNL     1     113.537 114.378 113.260  1.00  0.00    -0.544 OA
ENDBRANCH   2   7
ENDBRANCH   1   2
BRANCH   1  10
ATOM     10  O   UNL     1     114.639 116.275 115.130  1.00  0.00    -0.390 OA
ATOM     11  H   UNL     1     113.752 115.876 114.935  1.00  0.00     0.210 HD
ENDBRANCH   1  10
TORSDOF 4
ENDMDL
MODEL 8
REMARK VINA RESULT:    -2.309     15.015     15.645
REMARK INTER + INTRA:          -3.109
REMARK INTER:                  -2.774
REMARK INTRA:                  -0.335
REMARK UNBOUND:                -0.396
REMARK SMILES [NH3+][C@H](CO)C(=O)[O-]
REMARK SMILES IDX 3 1 2 2 1 3 5 7 6 8 7 9 4 10
REMARK H PARENT 1 4 1 5 1 6 4 11
REMARK Flexibility Score: inf
ROOT
ATOM      1  C   UNL     1     124.736 116.583 113.034  1.00  0.00     0.227 C 
ENDROOT
BRANCH   1   2
ATOM      2  C   UNL     1     125.758 117.544 113.664  1.00  0.00     0.253 C 
BRANCH   2   3
ATOM      3  N   UNL     1     125.910 117.294 115.103  1.00  0.00    -0.348 N 
ATOM      4  H   UNL     1     125.010 117.501 115.594  1.00  0.00     0.345 HD
ATOM      5  H   UNL     1     126.144 116.287 115.264  1.00  0.00     0.345 HD
ATOM      6  H   UNL     1     126.668 117.889 115.510  1.00  0.00     0.345 HD
ENDBRANCH   2   3
BRANCH   2   7
ATOM      7  C   UNL     1     127.085 117.452 112.957  1.00  0.00     0.102 C 
ATOM      8  O   UNL     1     128.079 116.921 113.521  1.00  0.00    -0.544 OA
ATOM      9  O   UNL     1     127.209 117.922 111.655  1.00  0.00    -0.544 OA
ENDBRANCH   2   7
ENDBRANCH   1   2
BRANCH   1  10
ATOM     10  O   UNL     1     125.351 115.758 112.082  1.00  0.00    -0.390 OA
ATOM     11  H   UNL     1     124.676 115.608 111.370  1.00  0.00     0.210 HD
ENDBRANCH   1  10
TORSDOF 4
ENDMDL
MODEL 9
REMARK VINA RESULT:    -2.280     13.997     14.524
REMARK INTER + INTRA:          -3.076
REMARK INTER:                  -2.711
REMARK INTRA:                  -0.365
REMARK UNBOUND:                -0.396
REMARK SMILES [NH3+][C@H](CO)C(=O)[O-]
REMARK SMILES IDX 3 1 2 2 1 3 5 7 6 8 7 9 4 10
REMARK H PARENT 1 4 1 5 1 6 4 11
REMARK Flexibility Score: inf
ROOT
ATOM      1  C   UNL     1     120.864 126.005 113.163  1.00  0.00     0.227 C 
ENDROOT
BRANCH   1   2
ATOM      2  C   UNL     1     119.459 126.373 113.667  1.00  0.00     0.253 C 
BRANCH   2   3
ATOM      3  N   UNL     1     119.471 126.686 115.102  1.00  0.00    -0.348 N 
ATOM      4  H   UNL     1     119.461 127.722 115.237  1.00  0.00     0.345 HD
ATOM      5  H   UNL     1     118.616 126.290 115.557  1.00  0.00     0.345 HD
ATOM      6  H   UNL     1     120.319 126.287 115.566  1.00  0.00     0.345 HD
ENDBRANCH   2   3
BRANCH   2   7
ATOM      7  C   UNL     1     118.886 127.516 112.870  1.00  0.00     0.102 C 
ATOM      8  O   UNL     1     118.819 128.673 113.363  1.00  0.00    -0.544 OA
ATOM      9  O   UNL     1     118.463 127.304 111.563  1.00  0.00    -0.544 OA
ENDBRANCH   2   7
ENDBRANCH   1   2
BRANCH   1  10
ATOM     10  O   UNL     1     121.313 126.939 112.219  1.00  0.00    -0.390 OA
ATOM     11  H   UNL     1     122.272 126.735 112.064  1.00  0.00     0.210 HD
ENDBRANCH   1  10
TORSDOF 4
ENDMDL
