MODEL 1
REMARK VINA RESULT:    -3.377      0.000      0.000
REMARK INTER + INTRA:          -3.923
REMARK INTER:                  -3.871
REMARK INTRA:                  -0.052
REMARK UNBOUND:                -0.052
REMARK SMILES CC(C)[C@H]([NH3+])C(=O)[O-]
REMARK SMILES IDX 4 1 5 2 6 6 7 7 8 8 2 9 1 10 3 11
REMARK H PARENT 5 3 5 4 5 5
REMARK Flexibility Score: inf
ROOT
ATOM      1  C   UNL     1     167.167 176.568  74.507  1.00  0.00     0.230 C 
ENDROOT
BRANCH   1   2
ATOM      2  N   UNL     1     167.777 177.687  75.239  1.00  0.00    -0.350 N 
ATOM      3  H   UNL     1     168.796 177.526  75.408  1.00  0.00     0.345 HD
ATOM      4  H   UNL     1     167.656 178.577  74.701  1.00  0.00     0.345 HD
ATOM      5  H   UNL     1     167.301 177.801  76.163  1.00  0.00     0.345 HD
ENDBRANCH   1   2
BRANCH   1   6
ATOM      6  C   UNL     1     166.338 175.714  75.438  1.00  0.00     0.099 C 
ATOM      7  O   UNL     1     166.857 174.719  76.010  1.00  0.00    -0.544 OA
ATOM      8  O   UNL     1     165.009 176.031  75.694  1.00  0.00    -0.544 OA
ENDBRANCH   1   6
BRANCH   1   9
ATOM      9  C   UNL     1     168.233 175.743  73.724  1.00  0.00     0.047 C 
ATOM     10  C   UNL     1     168.065 175.809  72.197  1.00  0.00     0.014 C 
ATOM     11  C   UNL     1     169.659 176.159  74.116  1.00  0.00     0.014 C 
ENDBRANCH   1   9
TORSDOF 3
ENDMDL
MODEL 2
REMARK VINA RESULT:    -3.350      2.548      3.179
REMARK INTER + INTRA:          -3.891
REMARK INTER:                  -3.819
REMARK INTRA:                  -0.072
REMARK UNBOUND:                -0.052
REMARK SMILES CC(C)[C@H]([NH3+])C(=O)[O-]
REMARK SMILES IDX 4 1 5 2 6 6 7 7 8 8 2 9 1 10 3 11
REMARK H PARENT 5 3 5 4 5 5
REMARK Flexibility Score: inf
ROOT
ATOM      1  C   UNL     1     167.945 176.415  74.671  1.00  0.00     0.230 C 
ENDROOT
BRANCH   1   2
ATOM      2  N   UNL     1     167.674 177.737  75.253  1.00  0.00    -0.350 N 
ATOM      3  H   UNL     1     168.514 178.121  75.741  1.00  0.00     0.345 HD
ATOM      4  H   UNL     1     167.378 178.405  74.504  1.00  0.00     0.345 HD
ATOM      5  H   UNL     1     166.893 177.660  75.944  1.00  0.00     0.345 HD
ENDBRANCH   1   2
BRANCH   1   6
ATOM      6  C   UNL     1     169.299 176.397  74.000  1.00  0.00     0.099 C 
ATOM      7  O   UNL     1     170.214 175.657  74.449  1.00  0.00    -0.544 OA
ATOM      8  O   UNL     1     169.541 177.170  72.871  1.00  0.00    -0.544 OA
ENDBRANCH   1   6
BRANCH   1   9
ATOM      9  C   UNL     1     166.798 175.957  73.720  1.00  0.00     0.047 C 
ATOM     10  C   UNL     1     166.900 174.483  73.294  1.00  0.00     0.014 C 
ATOM     11  C   UNL     1     165.418 176.233  74.338  1.00  0.00     0.014 C 
ENDBRANCH   1   9
TORSDOF 3
ENDMDL
MODEL 3
REMARK VINA RESULT:    -3.330      1.467      2.183
REMARK INTER + INTRA:          -3.869
REMARK INTER:                  -3.806
REMARK INTRA:                  -0.064
REMARK UNBOUND:                -0.052
REMARK SMILES CC(C)[C@H]([NH3+])C(=O)[O-]
REMARK SMILES IDX 4 1 5 2 6 6 7 7 8 8 2 9 1 10 3 11
REMARK H PARENT 5 3 5 4 5 5
REMARK Flexibility Score: inf
ROOT
ATOM      1  C   UNL     1     168.369 176.796  73.662  1.00  0.00     0.230 C 
ENDROOT
BRANCH   1   2
ATOM      2  N   UNL     1     169.782 176.875  74.056  1.00  0.00    -0.350 N 
ATOM      3  H   UNL     1     170.065 176.055  74.639  1.00  0.00     0.345 HD
ATOM      4  H   UNL     1     170.390 176.918  73.206  1.00  0.00     0.345 HD
ATOM      5  H   UNL     1     169.942 177.748  74.611  1.00  0.00     0.345 HD
ENDBRANCH   1   2
BRANCH   1   6
ATOM      6  C   UNL     1     167.509 176.403  74.841  1.00  0.00     0.099 C 
ATOM      7  O   UNL     1     166.581 177.163  75.225  1.00  0.00    -0.544 OA
ATOM      8  O   UNL     1     167.712 175.193  75.493  1.00  0.00    -0.544 OA
ENDBRANCH   1   6
BRANCH   1   9
ATOM      9  C   UNL     1     168.165 175.861  72.432  1.00  0.00     0.047 C 
ATOM     10  C   UNL     1     166.689 175.566  72.117  1.00  0.00     0.014 C 
ATOM     11  C   UNL     1     168.868 176.419  71.184  1.00  0.00     0.014 C 
ENDBRANCH   1   9
TORSDOF 3
ENDMDL
MODEL 4
REMARK VINA RESULT:    -3.300      3.414      3.898
REMARK INTER + INTRA:          -3.835
REMARK INTER:                  -3.800
REMARK INTRA:                  -0.035
REMARK UNBOUND:                -0.052
REMARK SMILES CC(C)[C@H]([NH3+])C(=O)[O-]
REMARK SMILES IDX 4 1 5 2 6 6 7 7 8 8 2 9 1 10 3 11
REMARK H PARENT 5 3 5 4 5 5
REMARK Flexibility Score: inf
ROOT
ATOM      1  C   UNL     1     167.740 175.839  72.682  1.00  0.00     0.230 C 
ENDROOT
BRANCH   1   2
ATOM      2  N   UNL     1     167.788 174.391  72.928  1.00  0.00    -0.350 N 
ATOM      3  H   UNL     1     168.772 174.050  73.018  1.00  0.00     0.345 HD
ATOM      4  H   UNL     1     167.262 174.158  73.801  1.00  0.00     0.345 HD
ATOM      5  H   UNL     1     167.333 173.887  72.132  1.00  0.00     0.345 HD
ENDBRANCH   1   2
BRANCH   1   6
ATOM      6  C   UNL     1     168.130 176.150  71.255  1.00  0.00     0.099 C 
ATOM      7  O   UNL     1     169.251 176.669  71.008  1.00  0.00    -0.544 OA
ATOM      8  O   UNL     1     167.275 175.841  70.204  1.00  0.00    -0.544 OA
ENDBRANCH   1   6
BRANCH   1   9
ATOM      9  C   UNL     1     168.590 176.629  73.722  1.00  0.00     0.047 C 
ATOM     10  C   UNL     1     167.756 177.260  74.850  1.00  0.00     0.014 C 
ATOM     11  C   UNL     1     169.700 175.750  74.319  1.00  0.00     0.014 C 
ENDBRANCH   1   9
TORSDOF 3
ENDMDL
MODEL 5
REMARK VINA RESULT:    -3.266      2.000      3.120
REMARK INTER + INTRA:          -3.796
REMARK INTER:                  -3.732
REMARK INTRA:                  -0.064
REMARK UNBOUND:                -0.052
REMARK SMILES CC(C)[C@H]([NH3+])C(=O)[O-]
REMARK SMILES IDX 4 1 5 2 6 6 7 7 8 8 2 9 1 10 3 11
REMARK H PARENT 5 3 5 4 5 5
REMARK Flexibility Score: inf
ROOT
ATOM      1  C   UNL     1     167.480 176.213  75.366  1.00  0.00     0.230 C 
ENDROOT
BRANCH   1   2
ATOM      2  N   UNL     1     167.894 177.593  75.076  1.00  0.00    -0.350 N 
ATOM      3  H   UNL     1     167.732 177.840  74.073  1.00  0.00     0.345 HD
ATOM      4  H   UNL     1     167.365 178.262  75.682  1.00  0.00     0.345 HD
ATOM      5  H   UNL     1     168.912 177.704  75.285  1.00  0.00     0.345 HD
ENDBRANCH   1   2
BRANCH   1   6
ATOM      6  C   UNL     1     168.399 175.228  74.682  1.00  0.00     0.099 C 
ATOM      7  O   UNL     1     169.288 175.640  73.892  1.00  0.00    -0.544 OA
ATOM      8  O   UNL     1     168.294 173.866  74.939  1.00  0.00    -0.544 OA
ENDBRANCH   1   6
BRANCH   1   9
ATOM      9  C   UNL     1     165.979 175.976  75.017  1.00  0.00     0.047 C 
ATOM     10  C   UNL     1     165.037 177.057  75.573  1.00  0.00     0.014 C 
ATOM     11  C   UNL     1     165.775 175.831  73.500  1.00  0.00     0.014 C 
ENDBRANCH   1   9
TORSDOF 3
ENDMDL
MODEL 6
REMARK VINA RESULT:    -3.240      2.839      3.244
REMARK INTER + INTRA:          -3.766
REMARK INTER:                  -3.690
REMARK INTRA:                  -0.076
REMARK UNBOUND:                -0.052
REMARK SMILES CC(C)[C@H]([NH3+])C(=O)[O-]
REMARK SMILES IDX 4 1 5 2 6 6 7 7 8 8 2 9 1 10 3 11
REMARK H PARENT 5 3 5 4 5 5
REMARK Flexibility Score: inf
ROOT
ATOM      1  C   UNL     1     163.900 175.740  74.820  1.00  0.00     0.230 C 
ENDROOT
BRANCH   1   2
ATOM      2  N   UNL     1     163.329 177.040  74.440  1.00  0.00    -0.350 N 
ATOM      3  H   UNL     1     162.948 177.022  73.466  1.00  0.00     0.345 HD
ATOM      4  H   UNL     1     162.563 177.303  75.102  1.00  0.00     0.345 HD
ATOM      5  H   UNL     1     164.069 177.776  74.493  1.00  0.00     0.345 HD
ENDBRANCH   1   2
BRANCH   1   6
ATOM      6  C   UNL     1     163.595 175.428  76.267  1.00  0.00     0.099 C 
ATOM      7  O   UNL     1     163.917 174.311  76.751  1.00  0.00    -0.544 OA
ATOM      8  O   UNL     1     162.987 176.375  77.082  1.00  0.00    -0.544 OA
ENDBRANCH   1   6
BRANCH   1   9
ATOM      9  C   UNL     1     165.423 175.663  74.496  1.00  0.00     0.047 C 
ATOM     10  C   UNL     1     165.738 175.707  72.992  1.00  0.00     0.014 C 
ATOM     11  C   UNL     1     166.205 176.764  75.230  1.00  0.00     0.014 C 
ENDBRANCH   1   9
TORSDOF 3
ENDMDL
MODEL 7
REMARK VINA RESULT:    -3.217      2.193      3.412
REMARK INTER + INTRA:          -3.739
REMARK INTER:                  -3.681
REMARK INTRA:                  -0.059
REMARK UNBOUND:                -0.052
REMARK SMILES CC(C)[C@H]([NH3+])C(=O)[O-]
REMARK SMILES IDX 4 1 5 2 6 6 7 7 8 8 2 9 1 10 3 11
REMARK H PARENT 5 3 5 4 5 5
REMARK Flexibility Score: inf
ROOT
ATOM      1  C   UNL     1     167.913 176.343  74.908  1.00  0.00     0.230 C 
ENDROOT
BRANCH   1   2
ATOM      2  N   UNL     1     167.770 177.766  75.249  1.00  0.00    -0.350 N 
ATOM      3  H   UNL     1     167.541 178.341  74.407  1.00  0.00     0.345 HD
ATOM      4  H   UNL     1     167.017 177.889  75.964  1.00  0.00     0.345 HD
ATOM      5  H   UNL     1     168.666 178.119  75.658  1.00  0.00     0.345 HD
ENDBRANCH   1   2
BRANCH   1   6
ATOM      6  C   UNL     1     168.549 176.184  73.547  1.00  0.00     0.099 C 
ATOM      7  O   UNL     1     168.146 175.282  72.766  1.00  0.00    -0.544 OA
ATOM      8  O   UNL     1     169.560 177.043  73.132  1.00  0.00    -0.544 OA
ENDBRANCH   1   6
BRANCH   1   9
ATOM      9  C   UNL     1     166.559 175.582  75.032  1.00  0.00     0.047 C 
ATOM     10  C   UNL     1     166.614 174.373  75.981  1.00  0.00     0.014 C 
ATOM     11  C   UNL     1     165.423 176.529  75.451  1.00  0.00     0.014 C 
ENDBRANCH   1   9
TORSDOF 3
ENDMDL
MODEL 8
REMARK VINA RESULT:    -3.202      2.557      2.936
REMARK INTER + INTRA:          -3.723
REMARK INTER:                  -3.676
REMARK INTRA:                  -0.047
REMARK UNBOUND:                -0.052
REMARK SMILES CC(C)[C@H]([NH3+])C(=O)[O-]
REMARK SMILES IDX 4 1 5 2 6 6 7 7 8 8 2 9 1 10 3 11
REMARK H PARENT 5 3 5 4 5 5
REMARK Flexibility Score: inf
ROOT
ATOM      1  C   UNL     1     164.859 175.774  73.993  1.00  0.00     0.230 C 
ENDROOT
BRANCH   1   2
ATOM      2  N   UNL     1     164.034 176.198  72.852  1.00  0.00    -0.350 N 
ATOM      3  H   UNL     1     164.146 177.218  72.655  1.00  0.00     0.345 HD
ATOM      4  H   UNL     1     164.295 175.653  71.998  1.00  0.00     0.345 HD
ATOM      5  H   UNL     1     163.026 176.009  73.061  1.00  0.00     0.345 HD
ENDBRANCH   1   2
BRANCH   1   6
ATOM      6  C   UNL     1     164.572 176.631  75.204  1.00  0.00     0.099 C 
ATOM      7  O   UNL     1     165.442 177.439  75.624  1.00  0.00    -0.544 OA
ATOM      8  O   UNL     1     163.342 176.558  75.847  1.00  0.00    -0.544 OA
ENDBRANCH   1   6
BRANCH   1   9
ATOM      9  C   UNL     1     166.374 175.740  73.626  1.00  0.00     0.047 C 
ATOM     10  C   UNL     1     167.164 174.649  74.368  1.00  0.00     0.014 C 
ATOM     11  C   UNL     1     166.578 175.599  72.110  1.00  0.00     0.014 C 
ENDBRANCH   1   9
TORSDOF 3
ENDMDL
MODEL 9
REMARK VINA RESULT:    -3.139      2.785      3.595
REMARK INTER + INTRA:          -3.650
REMARK INTER:                  -3.608
REMARK INTRA:                  -0.042
REMARK UNBOUND:                -0.052
REMARK SMILES CC(C)[C@H]([NH3+])C(=O)[O-]
REMARK SMILES IDX 4 1 5 2 6 6 7 7 8 8 2 9 1 10 3 11
REMARK H PARENT 5 3 5 4 5 5
REMARK Flexibility Score: inf
ROOT
ATOM      1  C   UNL     1     165.724 175.855  73.240  1.00  0.00     0.230 C 
ENDROOT
BRANCH   1   2
ATOM      2  N   UNL     1     164.314 176.175  72.979  1.00  0.00    -0.350 N 
ATOM      3  H   UNL     1     163.994 176.995  73.543  1.00  0.00     0.345 HD
ATOM      4  H   UNL     1     164.175 176.383  71.963  1.00  0.00     0.345 HD
ATOM      5  H   UNL     1     163.718 175.351  73.224  1.00  0.00     0.345 HD
ENDBRANCH   1   2
BRANCH   1   6
ATOM      6  C   UNL     1     166.016 174.414  72.894  1.00  0.00     0.099 C 
ATOM      7  O   UNL     1     165.091 173.666  72.480  1.00  0.00    -0.544 OA
ATOM      8  O   UNL     1     167.306 173.907  73.000  1.00  0.00    -0.544 OA
ENDBRANCH   1   6
BRANCH   1   9
ATOM      9  C   UNL     1     166.136 176.218  74.699  1.00  0.00     0.047 C 
ATOM     10  C   UNL     1     167.480 176.960  74.795  1.00  0.00     0.014 C 
ATOM     11  C   UNL     1     165.036 177.028  75.404  1.00  0.00     0.014 C 
ENDBRANCH   1   9
TORSDOF 3
ENDMDL
