MODEL 1
REMARK VINA RESULT:    -7.964      0.000      0.000
REMARK INTER + INTRA:          -9.675
REMARK INTER:                  -9.361
REMARK INTRA:                  -0.314
REMARK UNBOUND:                -0.314
REMARK SMILES O=c1cc(-c2ccc(O)c(O)c2)oc2cc(O)cc(O)c12
REMARK SMILES IDX 4 1 3 2 2 3 1 4 21 5 19 6 18 7 16 8 15 9 14 10 13 11 5 12
REMARK SMILES IDX 6 13 7 14 8 15 12 16 10 17 9 18 11 20 20 22 17 24
REMARK H PARENT 9 19 11 21 20 23 17 25
REMARK Flexibility Score: inf
ROOT
ATOM      1  C   UNL     1     -57.821  27.004 -22.572  1.00  0.00     0.138 A 
ATOM      2  C   UNL     1     -58.898  27.642 -21.944  1.00  0.00     0.100 A 
ATOM      3  C   UNL     1     -58.659  28.713 -21.081  1.00  0.00     0.197 A 
ATOM      4  O   UNL     1     -59.643  29.229 -20.490  1.00  0.00    -0.289 OA
ATOM      5  C   UNL     1     -57.335  29.169 -20.875  1.00  0.00     0.107 A 
ATOM      6  C   UNL     1     -56.972  30.272 -20.044  1.00  0.00     0.134 A 
ATOM      7  C   UNL     1     -55.619  30.567 -19.841  1.00  0.00     0.093 A 
ATOM      8  C   UNL     1     -54.617  29.838 -20.480  1.00  0.00     0.123 A 
ATOM      9  C   UNL     1     -54.961  28.789 -21.333  1.00  0.00     0.094 A 
ATOM     10  C   UNL     1     -56.300  28.447 -21.530  1.00  0.00     0.146 A 
ATOM     11  O   UNL     1     -56.584  27.430 -22.336  1.00  0.00    -0.456 OA
ENDROOT
BRANCH   1  12
ATOM     12  C   UNL     1     -58.018  25.861 -23.500  1.00  0.00     0.021 A 
ATOM     13  C   UNL     1     -59.215  25.123 -23.523  1.00  0.00     0.016 A 
ATOM     14  C   UNL     1     -59.368  24.047 -24.402  1.00  0.00     0.051 A 
ATOM     15  C   UNL     1     -58.328  23.686 -25.267  1.00  0.00     0.157 A 
ATOM     16  C   UNL     1     -56.973  25.484 -24.363  1.00  0.00     0.062 A 
ATOM     17  C   UNL     1     -57.123  24.408 -25.244  1.00  0.00     0.158 A 
BRANCH  15  18
ATOM     18  O   UNL     1     -58.485  22.613 -26.142  1.00  0.00    -0.504 OA
ATOM     19  H   UNL     1     -57.946  21.760 -26.039  1.00  0.00     0.293 HD
ENDBRANCH  15  18
BRANCH  17  20
ATOM     20  O   UNL     1     -56.066  24.071 -26.089  1.00  0.00    -0.504 OA
ATOM     21  H   UNL     1     -55.301  24.709 -26.274  1.00  0.00     0.293 HD
ENDBRANCH  17  20
ENDBRANCH   1  12
BRANCH   6  22
ATOM     22  O   UNL     1     -57.894  31.119 -19.420  1.00  0.00    -0.507 OA
ATOM     23  H   UNL     1     -57.829  32.124 -19.388  1.00  0.00     0.293 HD
ENDBRANCH   6  22
BRANCH   8  24
ATOM     24  O   UNL     1     -53.282  30.171 -20.265  1.00  0.00    -0.508 OA
ATOM     25  H   UNL     1     -52.745  30.683 -20.956  1.00  0.00     0.293 HD
ENDBRANCH   8  24
TORSDOF 5
ENDMDL
MODEL 2
REMARK VINA RESULT:    -7.728      6.326      9.761
REMARK INTER + INTRA:          -9.397
REMARK INTER:                  -9.126
REMARK INTRA:                  -0.271
REMARK UNBOUND:                -0.314
REMARK SMILES O=c1cc(-c2ccc(O)c(O)c2)oc2cc(O)cc(O)c12
REMARK SMILES IDX 4 1 3 2 2 3 1 4 21 5 19 6 18 7 16 8 15 9 14 10 13 11 5 12
REMARK SMILES IDX 6 13 7 14 8 15 12 16 10 17 9 18 11 20 20 22 17 24
REMARK H PARENT 9 19 11 21 20 23 17 25
REMARK Flexibility Score: inf
ROOT
ATOM      1  C   UNL     1     -59.985  20.584 -29.329  1.00  0.00     0.138 A 
ATOM      2  C   UNL     1     -60.468  21.527 -30.245  1.00  0.00     0.100 A 
ATOM      3  C   UNL     1     -60.199  22.882 -30.047  1.00  0.00     0.197 A 
ATOM      4  O   UNL     1     -60.693  23.710 -30.857  1.00  0.00    -0.289 OA
ATOM      5  C   UNL     1     -59.411  23.290 -28.943  1.00  0.00     0.107 A 
ATOM      6  C   UNL     1     -59.043  24.640 -28.659  1.00  0.00     0.134 A 
ATOM      7  C   UNL     1     -58.343  24.931 -27.482  1.00  0.00     0.093 A 
ATOM      8  C   UNL     1     -57.946  23.918 -26.609  1.00  0.00     0.123 A 
ATOM      9  C   UNL     1     -58.257  22.590 -26.902  1.00  0.00     0.094 A 
ATOM     10  C   UNL     1     -58.985  22.270 -28.050  1.00  0.00     0.146 A 
ATOM     11  O   UNL     1     -59.275  20.994 -28.283  1.00  0.00    -0.456 OA
ENDROOT
BRANCH   1  12
ATOM     12  C   UNL     1     -60.239  19.129 -29.492  1.00  0.00     0.021 A 
ATOM     13  C   UNL     1     -60.761  18.347 -28.445  1.00  0.00     0.016 A 
ATOM     14  C   UNL     1     -60.981  16.979 -28.626  1.00  0.00     0.051 A 
ATOM     15  C   UNL     1     -60.679  16.367 -29.848  1.00  0.00     0.157 A 
ATOM     16  C   UNL     1     -59.925  18.506 -30.713  1.00  0.00     0.062 A 
ATOM     17  C   UNL     1     -60.145  17.136 -30.896  1.00  0.00     0.158 A 
BRANCH  15  18
ATOM     18  O   UNL     1     -60.900  15.003 -30.024  1.00  0.00    -0.504 OA
ATOM     19  H   UNL     1     -61.651  14.658 -30.611  1.00  0.00     0.293 HD
ENDBRANCH  15  18
BRANCH  17  20
ATOM     20  O   UNL     1     -59.829  16.557 -32.124  1.00  0.00    -0.504 OA
ATOM     21  H   UNL     1     -59.096  15.864 -32.220  1.00  0.00     0.293 HD
ENDBRANCH  17  20
ENDBRANCH   1  12
BRANCH   6  22
ATOM     22  O   UNL     1     -59.318  25.721 -29.502  1.00  0.00    -0.507 OA
ATOM     23  H   UNL     1     -58.632  26.225 -30.041  1.00  0.00     0.293 HD
ENDBRANCH   6  22
BRANCH   8  24
ATOM     24  O   UNL     1     -57.237  24.244 -25.456  1.00  0.00    -0.508 OA
ATOM     25  H   UNL     1     -57.710  24.444 -24.581  1.00  0.00     0.293 HD
ENDBRANCH   8  24
TORSDOF 5
ENDMDL
MODEL 3
REMARK VINA RESULT:    -7.644      7.574     10.637
REMARK INTER + INTRA:          -9.298
REMARK INTER:                  -9.028
REMARK INTRA:                  -0.270
REMARK UNBOUND:                -0.314
REMARK SMILES O=c1cc(-c2ccc(O)c(O)c2)oc2cc(O)cc(O)c12
REMARK SMILES IDX 4 1 3 2 2 3 1 4 21 5 19 6 18 7 16 8 15 9 14 10 13 11 5 12
REMARK SMILES IDX 6 13 7 14 8 15 12 16 10 17 9 18 11 20 20 22 17 24
REMARK H PARENT 9 19 11 21 20 23 17 25
REMARK Flexibility Score: inf
ROOT
ATOM      1  C   UNL     1     -59.736  20.272 -29.704  1.00  0.00     0.138 A 
ATOM      2  C   UNL     1     -58.886  20.520 -28.618  1.00  0.00     0.100 A 
ATOM      3  C   UNL     1     -58.740  21.823 -28.138  1.00  0.00     0.197 A 
ATOM      4  O   UNL     1     -57.928  22.021 -27.198  1.00  0.00    -0.289 OA
ATOM      5  C   UNL     1     -59.478  22.877 -28.728  1.00  0.00     0.107 A 
ATOM      6  C   UNL     1     -59.436  24.239 -28.302  1.00  0.00     0.134 A 
ATOM      7  C   UNL     1     -60.135  25.211 -29.028  1.00  0.00     0.093 A 
ATOM      8  C   UNL     1     -60.921  24.865 -30.127  1.00  0.00     0.123 A 
ATOM      9  C   UNL     1     -61.009  23.530 -30.523  1.00  0.00     0.094 A 
ATOM     10  C   UNL     1     -60.296  22.541 -29.841  1.00  0.00     0.146 A 
ATOM     11  O   UNL     1     -60.393  21.284 -30.261  1.00  0.00    -0.456 OA
ENDROOT
BRANCH   1  12
ATOM     12  C   UNL     1     -59.931  18.906 -30.253  1.00  0.00     0.021 A 
ATOM     13  C   UNL     1     -59.777  18.630 -31.624  1.00  0.00     0.016 A 
ATOM     14  C   UNL     1     -59.976  17.336 -32.113  1.00  0.00     0.051 A 
ATOM     15  C   UNL     1     -60.338  16.299 -31.246  1.00  0.00     0.157 A 
ATOM     16  C   UNL     1     -60.308  17.862 -29.390  1.00  0.00     0.062 A 
ATOM     17  C   UNL     1     -60.507  16.565 -29.877  1.00  0.00     0.158 A 
BRANCH  15  18
ATOM     18  O   UNL     1     -60.535  15.010 -31.737  1.00  0.00    -0.504 OA
ATOM     19  H   UNL     1     -60.662  14.218 -31.117  1.00  0.00     0.293 HD
ENDBRANCH  15  18
BRANCH  17  20
ATOM     20  O   UNL     1     -60.872  15.556 -28.987  1.00  0.00    -0.504 OA
ATOM     21  H   UNL     1     -61.257  15.759 -28.071  1.00  0.00     0.293 HD
ENDBRANCH  17  20
ENDBRANCH   1  12
BRANCH   6  22
ATOM     22  O   UNL     1     -58.748  24.685 -27.169  1.00  0.00    -0.507 OA
ATOM     23  H   UNL     1     -57.986  25.345 -27.176  1.00  0.00     0.293 HD
ENDBRANCH   6  22
BRANCH   8  24
ATOM     24  O   UNL     1     -61.615  25.857 -30.815  1.00  0.00    -0.508 OA
ATOM     25  H   UNL     1     -62.223  25.635 -31.596  1.00  0.00     0.293 HD
ENDBRANCH   8  24
TORSDOF 5
ENDMDL
MODEL 4
REMARK VINA RESULT:    -7.301      4.539     10.701
REMARK INTER + INTRA:          -8.895
REMARK INTER:                  -8.597
REMARK INTRA:                  -0.298
REMARK UNBOUND:                -0.314
REMARK SMILES O=c1cc(-c2ccc(O)c(O)c2)oc2cc(O)cc(O)c12
REMARK SMILES IDX 4 1 3 2 2 3 1 4 21 5 19 6 18 7 16 8 15 9 14 10 13 11 5 12
REMARK SMILES IDX 6 13 7 14 8 15 12 16 10 17 9 18 11 20 20 22 17 24
REMARK H PARENT 9 19 11 21 20 23 17 25
REMARK Flexibility Score: inf
ROOT
ATOM      1  C   UNL     1     -58.384  22.225 -27.729  1.00  0.00     0.138 A 
ATOM      2  C   UNL     1     -58.012  22.442 -29.062  1.00  0.00     0.100 A 
ATOM      3  C   UNL     1     -58.362  21.508 -30.038  1.00  0.00     0.197 A 
ATOM      4  O   UNL     1     -57.966  21.704 -31.216  1.00  0.00    -0.289 OA
ATOM      5  C   UNL     1     -59.120  20.367 -29.680  1.00  0.00     0.107 A 
ATOM      6  C   UNL     1     -59.563  19.363 -30.594  1.00  0.00     0.134 A 
ATOM      7  C   UNL     1     -60.222  18.228 -30.106  1.00  0.00     0.093 A 
ATOM      8  C   UNL     1     -60.505  18.086 -28.749  1.00  0.00     0.123 A 
ATOM      9  C   UNL     1     -60.120  19.084 -27.852  1.00  0.00     0.094 A 
ATOM     10  C   UNL     1     -59.431  20.211 -28.302  1.00  0.00     0.146 A 
ATOM     11  O   UNL     1     -59.067  21.130 -27.413  1.00  0.00    -0.456 OA
ENDROOT
BRANCH   1  12
ATOM     12  C   UNL     1     -58.040  23.187 -26.651  1.00  0.00     0.021 A 
ATOM     13  C   UNL     1     -56.782  23.814 -26.591  1.00  0.00     0.016 A 
ATOM     14  C   UNL     1     -56.484  24.708 -25.559  1.00  0.00     0.051 A 
ATOM     15  C   UNL     1     -57.432  24.987 -24.567  1.00  0.00     0.157 A 
ATOM     16  C   UNL     1     -58.983  23.462 -25.644  1.00  0.00     0.062 A 
ATOM     17  C   UNL     1     -58.687  24.358 -24.610  1.00  0.00     0.158 A 
BRANCH  15  18
ATOM     18  O   UNL     1     -57.132  25.879 -23.540  1.00  0.00    -0.504 OA
ATOM     19  H   UNL     1     -57.160  25.598 -22.567  1.00  0.00     0.293 HD
ENDBRANCH  15  18
BRANCH  17  20
ATOM     20  O   UNL     1     -59.653  24.610 -23.636  1.00  0.00    -0.504 OA
ATOM     21  H   UNL     1     -60.065  23.867 -23.082  1.00  0.00     0.293 HD
ENDBRANCH  17  20
ENDBRANCH   1  12
BRANCH   6  22
ATOM     22  O   UNL     1     -59.405  19.442 -31.981  1.00  0.00    -0.507 OA
ATOM     23  H   UNL     1     -58.559  19.722 -32.453  1.00  0.00     0.293 HD
ENDBRANCH   6  22
BRANCH   8  24
ATOM     24  O   UNL     1     -61.176  16.950 -28.302  1.00  0.00    -0.508 OA
ATOM     25  H   UNL     1     -61.945  16.548 -28.827  1.00  0.00     0.293 HD
ENDBRANCH   8  24
TORSDOF 5
ENDMDL
MODEL 5
REMARK VINA RESULT:    -7.186      1.720      3.162
REMARK INTER + INTRA:          -8.760
REMARK INTER:                  -8.489
REMARK INTRA:                  -0.272
REMARK UNBOUND:                -0.314
REMARK SMILES O=c1cc(-c2ccc(O)c(O)c2)oc2cc(O)cc(O)c12
REMARK SMILES IDX 4 1 3 2 2 3 1 4 21 5 19 6 18 7 16 8 15 9 14 10 13 11 5 12
REMARK SMILES IDX 6 13 7 14 8 15 12 16 10 17 9 18 11 20 20 22 17 24
REMARK H PARENT 9 19 11 21 20 23 17 25
REMARK Flexibility Score: inf
ROOT
ATOM      1  C   UNL     1     -57.965  26.003 -23.653  1.00  0.00     0.138 A 
ATOM      2  C   UNL     1     -56.699  26.240 -23.104  1.00  0.00     0.100 A 
ATOM      3  C   UNL     1     -56.500  27.348 -22.279  1.00  0.00     0.197 A 
ATOM      4  O   UNL     1     -55.339  27.564 -21.845  1.00  0.00    -0.289 OA
ATOM      5  C   UNL     1     -57.588  28.202 -21.973  1.00  0.00     0.107 A 
ATOM      6  C   UNL     1     -57.513  29.342 -21.116  1.00  0.00     0.134 A 
ATOM      7  C   UNL     1     -58.633  30.168 -20.969  1.00  0.00     0.093 A 
ATOM      8  C   UNL     1     -59.840  29.867 -21.598  1.00  0.00     0.123 A 
ATOM      9  C   UNL     1     -59.939  28.728 -22.398  1.00  0.00     0.094 A 
ATOM     10  C   UNL     1     -58.831  27.902 -22.594  1.00  0.00     0.146 A 
ATOM     11  O   UNL     1     -58.962  26.837 -23.377  1.00  0.00    -0.456 OA
ENDROOT
BRANCH   1  12
ATOM     12  C   UNL     1     -58.233  24.838 -24.536  1.00  0.00     0.021 A 
ATOM     13  C   UNL     1     -59.312  23.966 -24.304  1.00  0.00     0.016 A 
ATOM     14  C   UNL     1     -59.533  22.873 -25.147  1.00  0.00     0.051 A 
ATOM     15  C   UNL     1     -58.680  22.628 -26.229  1.00  0.00     0.157 A 
ATOM     16  C   UNL     1     -57.372  24.579 -25.617  1.00  0.00     0.062 A 
ATOM     17  C   UNL     1     -57.592  23.486 -26.463  1.00  0.00     0.158 A 
BRANCH  15  18
ATOM     18  O   UNL     1     -58.904  21.538 -27.067  1.00  0.00    -0.504 OA
ATOM     19  H   UNL     1     -58.627  20.599 -26.803  1.00  0.00     0.293 HD
ENDBRANCH  15  18
BRANCH  17  20
ATOM     20  O   UNL     1     -56.720  23.268 -27.529  1.00  0.00    -0.504 OA
ATOM     21  H   UNL     1     -56.542  22.341 -27.898  1.00  0.00     0.293 HD
ENDBRANCH  17  20
ENDBRANCH   1  12
BRANCH   6  22
ATOM     22  O   UNL     1     -56.380  29.692 -20.375  1.00  0.00    -0.507 OA
ATOM     23  H   UNL     1     -55.594  29.086 -20.197  1.00  0.00     0.293 HD
ENDBRANCH   6  22
BRANCH   8  24
ATOM     24  O   UNL     1     -60.938  30.704 -21.415  1.00  0.00    -0.508 OA
ATOM     25  H   UNL     1     -61.660  30.794 -22.121  1.00  0.00     0.293 HD
ENDBRANCH   8  24
TORSDOF 5
ENDMDL
MODEL 6
REMARK VINA RESULT:    -7.171      2.149      6.872
REMARK INTER + INTRA:          -8.742
REMARK INTER:                  -8.454
REMARK INTRA:                  -0.288
REMARK UNBOUND:                -0.314
REMARK SMILES O=c1cc(-c2ccc(O)c(O)c2)oc2cc(O)cc(O)c12
REMARK SMILES IDX 4 1 3 2 2 3 1 4 21 5 19 6 18 7 16 8 15 9 14 10 13 11 5 12
REMARK SMILES IDX 6 13 7 14 8 15 12 16 10 17 9 18 11 20 20 22 17 24
REMARK H PARENT 9 19 11 21 20 23 17 25
REMARK Flexibility Score: inf
ROOT
ATOM      1  C   UNL     1     -57.449  28.743 -22.643  1.00  0.00     0.138 A 
ATOM      2  C   UNL     1     -58.158  29.503 -23.581  1.00  0.00     0.100 A 
ATOM      3  C   UNL     1     -58.795  28.866 -24.647  1.00  0.00     0.197 A 
ATOM      4  O   UNL     1     -59.378  29.581 -25.503  1.00  0.00    -0.289 OA
ATOM      5  C   UNL     1     -58.748  27.455 -24.753  1.00  0.00     0.107 A 
ATOM      6  C   UNL     1     -59.387  26.693 -25.778  1.00  0.00     0.134 A 
ATOM      7  C   UNL     1     -59.187  25.308 -25.834  1.00  0.00     0.093 A 
ATOM      8  C   UNL     1     -58.421  24.650 -24.873  1.00  0.00     0.123 A 
ATOM      9  C   UNL     1     -57.832  25.378 -23.839  1.00  0.00     0.094 A 
ATOM     10  C   UNL     1     -57.984  26.764 -23.774  1.00  0.00     0.146 A 
ATOM     11  O   UNL     1     -57.392  27.423 -22.782  1.00  0.00    -0.456 OA
ENDROOT
BRANCH   1  12
ATOM     12  C   UNL     1     -56.755  29.369 -21.488  1.00  0.00     0.021 A 
ATOM     13  C   UNL     1     -57.400  30.299 -20.652  1.00  0.00     0.016 A 
ATOM     14  C   UNL     1     -56.719  30.878 -19.578  1.00  0.00     0.051 A 
ATOM     15  C   UNL     1     -55.383  30.546 -19.324  1.00  0.00     0.157 A 
ATOM     16  C   UNL     1     -55.409  29.049 -21.235  1.00  0.00     0.062 A 
ATOM     17  C   UNL     1     -54.725  29.628 -20.159  1.00  0.00     0.158 A 
BRANCH  15  18
ATOM     18  O   UNL     1     -54.707  31.125 -18.252  1.00  0.00    -0.504 OA
ATOM     19  H   UNL     1     -53.698  31.077 -18.172  1.00  0.00     0.293 HD
ENDBRANCH  15  18
BRANCH  17  20
ATOM     20  O   UNL     1     -53.393  29.278 -19.937  1.00  0.00    -0.504 OA
ATOM     21  H   UNL     1     -53.109  28.720 -19.140  1.00  0.00     0.293 HD
ENDBRANCH  17  20
ENDBRANCH   1  12
BRANCH   6  22
ATOM     22  O   UNL     1     -60.240  27.237 -26.743  1.00  0.00    -0.507 OA
ATOM     23  H   UNL     1     -60.003  27.994 -27.365  1.00  0.00     0.293 HD
ENDBRANCH   6  22
BRANCH   8  24
ATOM     24  O   UNL     1     -58.256  23.269 -24.953  1.00  0.00    -0.508 OA
ATOM     25  H   UNL     1     -57.342  22.851 -25.089  1.00  0.00     0.293 HD
ENDBRANCH   8  24
TORSDOF 5
ENDMDL
MODEL 7
REMARK VINA RESULT:    -7.058      5.641      8.553
REMARK INTER + INTRA:          -8.610
REMARK INTER:                  -8.320
REMARK INTRA:                  -0.290
REMARK UNBOUND:                -0.314
REMARK SMILES O=c1cc(-c2ccc(O)c(O)c2)oc2cc(O)cc(O)c12
REMARK SMILES IDX 4 1 3 2 2 3 1 4 21 5 19 6 18 7 16 8 15 9 14 10 13 11 5 12
REMARK SMILES IDX 6 13 7 14 8 15 12 16 10 17 9 18 11 20 20 22 17 24
REMARK H PARENT 9 19 11 21 20 23 17 25
REMARK Flexibility Score: inf
ROOT
ATOM      1  C   UNL     1     -59.246  21.544 -28.394  1.00  0.00     0.138 A 
ATOM      2  C   UNL     1     -59.100  21.478 -27.003  1.00  0.00     0.100 A 
ATOM      3  C   UNL     1     -58.820  22.640 -26.282  1.00  0.00     0.197 A 
ATOM      4  O   UNL     1     -58.640  22.540 -25.041  1.00  0.00    -0.289 OA
ATOM      5  C   UNL     1     -58.720  23.881 -26.958  1.00  0.00     0.107 A 
ATOM      6  C   UNL     1     -58.471  25.136 -26.324  1.00  0.00     0.134 A 
ATOM      7  C   UNL     1     -58.295  26.282 -27.109  1.00  0.00     0.093 A 
ATOM      8  C   UNL     1     -58.417  26.232 -28.497  1.00  0.00     0.123 A 
ATOM      9  C   UNL     1     -58.709  25.019 -29.123  1.00  0.00     0.094 A 
ATOM     10  C   UNL     1     -58.856  23.852 -28.372  1.00  0.00     0.146 A 
ATOM     11  O   UNL     1     -59.116  22.715 -29.009  1.00  0.00    -0.456 OA
ENDROOT
BRANCH   1  12
ATOM     12  C   UNL     1     -59.548  20.339 -29.210  1.00  0.00     0.021 A 
ATOM     13  C   UNL     1     -59.281  20.294 -30.591  1.00  0.00     0.016 A 
ATOM     14  C   UNL     1     -59.584  19.150 -31.334  1.00  0.00     0.051 A 
ATOM     15  C   UNL     1     -60.164  18.036 -30.715  1.00  0.00     0.157 A 
ATOM     16  C   UNL     1     -60.143  19.222 -28.598  1.00  0.00     0.062 A 
ATOM     17  C   UNL     1     -60.447  18.075 -29.340  1.00  0.00     0.158 A 
BRANCH  15  18
ATOM     18  O   UNL     1     -60.464  16.897 -31.460  1.00  0.00    -0.504 OA
ATOM     19  H   UNL     1     -59.735  16.292 -31.822  1.00  0.00     0.293 HD
ENDBRANCH  15  18
BRANCH  17  20
ATOM     20  O   UNL     1     -61.028  16.984 -28.694  1.00  0.00    -0.504 OA
ATOM     21  H   UNL     1     -60.790  16.028 -28.931  1.00  0.00     0.293 HD
ENDBRANCH  17  20
ENDBRANCH   1  12
BRANCH   6  22
ATOM     22  O   UNL     1     -58.410  25.316 -24.939  1.00  0.00    -0.507 OA
ATOM     23  H   UNL     1     -58.335  24.574 -24.261  1.00  0.00     0.293 HD
ENDBRANCH   6  22
BRANCH   8  24
ATOM     24  O   UNL     1     -58.251  27.395 -29.244  1.00  0.00    -0.508 OA
ATOM     25  H   UNL     1     -58.817  28.219 -29.075  1.00  0.00     0.293 HD
ENDBRANCH   8  24
TORSDOF 5
ENDMDL
MODEL 8
REMARK VINA RESULT:    -6.853      2.616      7.601
REMARK INTER + INTRA:          -8.369
REMARK INTER:                  -8.053
REMARK INTRA:                  -0.316
REMARK UNBOUND:                -0.314
REMARK SMILES O=c1cc(-c2ccc(O)c(O)c2)oc2cc(O)cc(O)c12
REMARK SMILES IDX 4 1 3 2 2 3 1 4 21 5 19 6 18 7 16 8 15 9 14 10 13 11 5 12
REMARK SMILES IDX 6 13 7 14 8 15 12 16 10 17 9 18 11 20 20 22 17 24
REMARK H PARENT 9 19 11 21 20 23 17 25
REMARK Flexibility Score: inf
ROOT
ATOM      1  C   UNL     1     -58.811  27.119 -23.886  1.00  0.00     0.138 A 
ATOM      2  C   UNL     1     -57.986  25.998 -23.726  1.00  0.00     0.100 A 
ATOM      3  C   UNL     1     -57.763  25.145 -24.808  1.00  0.00     0.197 A 
ATOM      4  O   UNL     1     -57.062  24.117 -24.618  1.00  0.00    -0.289 OA
ATOM      5  C   UNL     1     -58.341  25.438 -26.067  1.00  0.00     0.107 A 
ATOM      6  C   UNL     1     -58.157  24.659 -27.249  1.00  0.00     0.134 A 
ATOM      7  C   UNL     1     -58.861  24.994 -28.412  1.00  0.00     0.093 A 
ATOM      8  C   UNL     1     -59.697  26.109 -28.454  1.00  0.00     0.123 A 
ATOM      9  C   UNL     1     -59.846  26.906 -27.318  1.00  0.00     0.094 A 
ATOM     10  C   UNL     1     -59.185  26.580 -26.133  1.00  0.00     0.146 A 
ATOM     11  O   UNL     1     -59.369  27.355 -25.069  1.00  0.00    -0.456 OA
ENDROOT
BRANCH   1  12
ATOM     12  C   UNL     1     -59.081  28.061 -22.770  1.00  0.00     0.021 A 
ATOM     13  C   UNL     1     -58.337  28.027 -21.576  1.00  0.00     0.016 A 
ATOM     14  C   UNL     1     -58.621  28.921 -20.539  1.00  0.00     0.051 A 
ATOM     15  C   UNL     1     -59.653  29.857 -20.673  1.00  0.00     0.157 A 
ATOM     16  C   UNL     1     -60.125  28.996 -22.892  1.00  0.00     0.062 A 
ATOM     17  C   UNL     1     -60.410  29.892 -21.855  1.00  0.00     0.158 A 
BRANCH  15  18
ATOM     18  O   UNL     1     -59.931  30.746 -19.637  1.00  0.00    -0.504 OA
ATOM     19  H   UNL     1     -60.879  30.908 -19.316  1.00  0.00     0.293 HD
ENDBRANCH  15  18
BRANCH  17  20
ATOM     20  O   UNL     1     -61.448  30.808 -22.019  1.00  0.00    -0.504 OA
ATOM     21  H   UNL     1     -61.861  30.997 -22.925  1.00  0.00     0.293 HD
ENDBRANCH  17  20
ENDBRANCH   1  12
BRANCH   6  22
ATOM     22  O   UNL     1     -57.284  23.571 -27.343  1.00  0.00    -0.507 OA
ATOM     23  H   UNL     1     -57.561  22.602 -27.330  1.00  0.00     0.293 HD
ENDBRANCH   6  22
BRANCH   8  24
ATOM     24  O   UNL     1     -60.370  26.420 -29.633  1.00  0.00    -0.508 OA
ATOM     25  H   UNL     1     -59.999  26.157 -30.540  1.00  0.00     0.293 HD
ENDBRANCH   8  24
TORSDOF 5
ENDMDL
MODEL 9
REMARK VINA RESULT:    -6.817      2.440      3.542
REMARK INTER + INTRA:          -8.326
REMARK INTER:                  -8.064
REMARK INTRA:                  -0.263
REMARK UNBOUND:                -0.314
REMARK SMILES O=c1cc(-c2ccc(O)c(O)c2)oc2cc(O)cc(O)c12
REMARK SMILES IDX 4 1 3 2 2 3 1 4 21 5 19 6 18 7 16 8 15 9 14 10 13 11 5 12
REMARK SMILES IDX 6 13 7 14 8 15 12 16 10 17 9 18 11 20 20 22 17 24
REMARK H PARENT 9 19 11 21 20 23 17 25
REMARK Flexibility Score: inf
ROOT
ATOM      1  C   UNL     1     -58.739  25.539 -25.298  1.00  0.00     0.138 A 
ATOM      2  C   UNL     1     -60.004  26.080 -25.032  1.00  0.00     0.100 A 
ATOM      3  C   UNL     1     -60.172  26.940 -23.946  1.00  0.00     0.197 A 
ATOM      4  O   UNL     1     -61.330  27.366 -23.700  1.00  0.00    -0.289 OA
ATOM      5  C   UNL     1     -59.057  27.289 -23.144  1.00  0.00     0.107 A 
ATOM      6  C   UNL     1     -59.101  28.183 -22.032  1.00  0.00     0.134 A 
ATOM      7  C   UNL     1     -57.953  28.372 -21.254  1.00  0.00     0.093 A 
ATOM      8  C   UNL     1     -56.749  27.748 -21.579  1.00  0.00     0.123 A 
ATOM      9  C   UNL     1     -56.682  26.911 -22.693  1.00  0.00     0.094 A 
ATOM     10  C   UNL     1     -57.818  26.674 -23.469  1.00  0.00     0.146 A 
ATOM     11  O   UNL     1     -57.716  25.856 -24.512  1.00  0.00    -0.456 OA
ENDROOT
BRANCH   1  12
ATOM     12  C   UNL     1     -58.503  24.621 -26.442  1.00  0.00     0.021 A 
ATOM     13  C   UNL     1     -58.278  23.244 -26.252  1.00  0.00     0.016 A 
ATOM     14  C   UNL     1     -58.050  22.407 -27.347  1.00  0.00     0.051 A 
ATOM     15  C   UNL     1     -58.035  22.927 -28.646  1.00  0.00     0.157 A 
ATOM     16  C   UNL     1     -58.473  25.138 -27.749  1.00  0.00     0.062 A 
ATOM     17  C   UNL     1     -58.245  24.301 -28.847  1.00  0.00     0.158 A 
BRANCH  15  18
ATOM     18  O   UNL     1     -57.807  22.087 -29.735  1.00  0.00    -0.504 OA
ATOM     19  H   UNL     1     -56.968  21.522 -29.804  1.00  0.00     0.293 HD
ENDBRANCH  15  18
BRANCH  17  20
ATOM     20  O   UNL     1     -58.232  24.852 -30.128  1.00  0.00    -0.504 OA
ATOM     21  H   UNL     1     -58.733  24.429 -30.901  1.00  0.00     0.293 HD
ENDBRANCH  17  20
ENDBRANCH   1  12
BRANCH   6  22
ATOM     22  O   UNL     1     -60.230  28.921 -21.664  1.00  0.00    -0.507 OA
ATOM     23  H   UNL     1     -61.082  28.532 -21.291  1.00  0.00     0.293 HD
ENDBRANCH   6  22
BRANCH   8  24
ATOM     24  O   UNL     1     -55.624  27.973 -20.791  1.00  0.00    -0.508 OA
ATOM     25  H   UNL     1     -54.915  27.259 -20.662  1.00  0.00     0.293 HD
ENDBRANCH   8  24
TORSDOF 5
ENDMDL
