MODEL 1
REMARK VINA RESULT:   118.096      0.000      0.000
REMARK INTER + INTRA:         128.659
REMARK INTER:                 128.452
REMARK INTRA:                   0.207
REMARK UNBOUND:                 0.207
REMARK SMILES C[C@@H]1[C@H](C)CC[C@@]2(C(=O)[O-])CC[C@@]3(C)C(=CC[C@H]4[C@@]5(C)CC[C@@H](O)C(C)(C)[C@H]5CC[C@]43C)[C@@H]12
REMARK SMILES IDX 7 1 6 2 11 3 33 4 5 5 12 6 15 7 2 8 3 9 13 10 16 11 1 12
REMARK SMILES IDX 4 13 14 14 31 15 17 16 18 17 30 18 32 19 19 20 29 21 28 22
REMARK SMILES IDX 21 23 20 24 25 25 22 26 23 27 26 28 27 29 8 30 9 31 10 32
REMARK SMILES IDX 24 33
REMARK H PARENT 24 34
REMARK Flexibility Score: inf
ROOT
ATOM      1  C   UNL     1      63.481 130.597  -7.212  1.00  0.00     0.017 C 
ATOM      2  C   UNL     1      64.725 130.790  -8.124  1.00  0.00     0.014 C 
ATOM      3  C   UNL     1      62.788 129.248  -7.519  1.00  0.00     0.014 C 
ATOM      4  C   UNL     1      63.882 130.621  -5.704  1.00  0.00     0.030 C 
ATOM      5  C   UNL     1      65.897 129.864  -7.783  1.00  0.00     0.004 C 
ATOM      6  C   UNL     1      61.491 129.067  -6.717  1.00  0.00     0.013 C 
ATOM      7  C   UNL     1      62.663 130.323  -4.810  1.00  0.00    -0.063 C 
ATOM      8  C   UNL     1      65.113 129.704  -5.379  1.00  0.00    -0.003 C 
ATOM      9  C   UNL     1      66.322 129.988  -6.311  1.00  0.00    -0.011 C 
ATOM     10  C   UNL     1      61.620 129.242  -5.156  1.00  0.00    -0.006 C 
ATOM     11  C   UNL     1      62.601 130.968  -3.633  1.00  0.00    -0.027 C 
ATOM     12  C   UNL     1      65.530 129.765  -3.898  1.00  0.00     0.008 C 
ATOM     13  C   UNL     1      67.032 131.331  -6.038  1.00  0.00     0.008 C 
ATOM     14  C   UNL     1      62.168 127.900  -4.583  1.00  0.00     0.017 C 
ATOM     15  C   UNL     1      60.182 129.604  -4.501  1.00  0.00    -0.020 C 
ATOM     16  C   UNL     1      61.444 130.928  -2.689  1.00  0.00     0.032 C 
ATOM     17  C   UNL     1      60.333 129.864  -2.954  1.00  0.00     0.006 C 
ATOM     18  C   UNL     1      59.573 130.901  -5.142  1.00  0.00     0.008 C 
ATOM     19  C   UNL     1      59.206 128.406  -4.764  1.00  0.00     0.012 C 
ATOM     20  C   UNL     1      58.943 130.185  -2.184  1.00  0.00    -0.025 C 
ATOM     21  C   UNL     1      58.687 131.785  -4.223  1.00  0.00     0.005 C 
ATOM     22  C   UNL     1      57.928 131.001  -3.118  1.00  0.00     0.003 C 
ATOM     23  C   UNL     1      59.233 130.942  -0.832  1.00  0.00     0.010 C 
ATOM     24  C   UNL     1      58.292 128.818  -1.771  1.00  0.00     0.012 C 
ATOM     25  C   UNL     1      56.785 131.835  -2.372  1.00  0.00    -0.006 C 
ATOM     26  C   UNL     1      58.009 131.550  -0.150  1.00  0.00     0.033 C 
ATOM     27  C   UNL     1      57.306 132.534  -1.084  1.00  0.00     0.120 C 
ATOM     28  C   UNL     1      55.598 130.898  -2.005  1.00  0.00     0.014 C 
ATOM     29  C   UNL     1      56.151 132.925  -3.283  1.00  0.00     0.014 C 
ENDROOT
BRANCH   1  30
ATOM     30  C   UNL     1      62.535 131.751  -7.540  1.00  0.00     0.048 C 
ATOM     31  O   UNL     1      62.843 132.932  -7.225  1.00  0.00    -0.550 OA
ATOM     32  O   UNL     1      61.286 131.516  -8.105  1.00  0.00    -0.550 OA
ENDBRANCH   1  30
BRANCH  27  33
ATOM     33  O   UNL     1      58.199 133.575  -1.406  1.00  0.00    -0.393 OA
ATOM     34  H   UNL     1      58.256 133.626  -2.396  1.00  0.00     0.210 HD
ENDBRANCH  27  33
TORSDOF 2
ENDMDL
