MODEL 1
REMARK VINA RESULT:    -4.463      0.000      0.000
REMARK INTER + INTRA:          -5.264
REMARK INTER:                  -5.115
REMARK INTRA:                  -0.149
REMARK UNBOUND:                -0.149
REMARK SMILES CC=Cc1ccc(O)c(OC)c1
REMARK SMILES IDX 4 1 12 2 9 3 7 4 6 5 5 6 3 7 1 8 2 9 10 10 11 11 8 12
REMARK H PARENT 8 13
REMARK Flexibility Score: inf
ROOT
ATOM      1  C   UNL     1     -18.931  20.585  42.007  1.00  0.00    -0.022 A 
ATOM      2  C   UNL     1     -18.239  19.457  41.535  1.00  0.00     0.058 A 
ATOM      3  C   UNL     1     -17.488  18.650  42.412  1.00  0.00     0.161 A 
ATOM      4  C   UNL     1     -17.426  18.990  43.775  1.00  0.00     0.157 A 
ATOM      5  C   UNL     1     -18.101  20.119  44.244  1.00  0.00     0.051 A 
ATOM      6  C   UNL     1     -18.844  20.916  43.372  1.00  0.00     0.012 A 
ENDROOT
BRANCH   1   7
ATOM      7  C   UNL     1     -19.699  21.405  41.036  1.00  0.00     0.003 C 
ATOM      8  C   UNL     1     -21.733  22.338  40.006  1.00  0.00     0.035 C 
ATOM      9  C   UNL     1     -21.033  21.501  41.029  1.00  0.00    -0.030 C 
ENDBRANCH   1   7
BRANCH   3  10
ATOM     10  O   UNL     1     -16.795  17.512  41.966  1.00  0.00    -0.493 OA
ATOM     11  C   UNL     1     -16.458  17.251  40.608  1.00  0.00     0.278 C 
ENDBRANCH   3  10
BRANCH   4  12
ATOM     12  O   UNL     1     -16.695  18.218  44.678  1.00  0.00    -0.504 OA
ATOM     13  H   UNL     1     -16.645  17.209  44.609  1.00  0.00     0.293 HD
ENDBRANCH   4  12
TORSDOF 3
ENDMDL
MODEL 2
REMARK VINA RESULT:    -4.266     13.572     14.318
REMARK INTER + INTRA:          -5.039
REMARK INTER:                  -4.895
REMARK INTRA:                  -0.144
REMARK UNBOUND:                -0.149
REMARK SMILES CC=Cc1ccc(O)c(OC)c1
REMARK SMILES IDX 4 1 12 2 9 3 7 4 6 5 5 6 3 7 1 8 2 9 10 10 11 11 8 12
REMARK H PARENT 8 13
REMARK Flexibility Score: inf
ROOT
ATOM      1  C   UNL     1      -8.726  28.904  44.815  1.00  0.00    -0.022 A 
ATOM      2  C   UNL     1      -7.606  28.147  45.199  1.00  0.00     0.058 A 
ATOM      3  C   UNL     1      -6.734  28.605  46.208  1.00  0.00     0.161 A 
ATOM      4  C   UNL     1      -6.989  29.841  46.826  1.00  0.00     0.157 A 
ATOM      5  C   UNL     1      -8.093  30.603  46.436  1.00  0.00     0.051 A 
ATOM      6  C   UNL     1      -8.954  30.146  45.437  1.00  0.00     0.012 A 
ENDROOT
BRANCH   1   7
ATOM      7  C   UNL     1      -9.604  28.378  43.740  1.00  0.00     0.003 C 
ATOM      8  C   UNL     1     -11.437  27.021  42.809  1.00  0.00     0.035 C 
ATOM      9  C   UNL     1     -10.606  27.516  43.949  1.00  0.00    -0.030 C 
ENDBRANCH   1   7
BRANCH   3  10
ATOM     10  O   UNL     1      -5.615  27.862  46.615  1.00  0.00    -0.493 OA
ATOM     11  C   UNL     1      -5.336  26.527  46.205  1.00  0.00     0.278 C 
ENDBRANCH   3  10
BRANCH   4  12
ATOM     12  O   UNL     1      -6.153  30.331  47.829  1.00  0.00    -0.504 OA
ATOM     13  H   UNL     1      -5.744  31.256  47.788  1.00  0.00     0.293 HD
ENDBRANCH   4  12
TORSDOF 3
ENDMDL
MODEL 3
REMARK VINA RESULT:    -4.157     13.916     14.843
REMARK INTER + INTRA:          -4.913
REMARK INTER:                  -4.750
REMARK INTRA:                  -0.163
REMARK UNBOUND:                -0.149
REMARK SMILES CC=Cc1ccc(O)c(OC)c1
REMARK SMILES IDX 4 1 12 2 9 3 7 4 6 5 5 6 3 7 1 8 2 9 10 10 11 11 8 12
REMARK H PARENT 8 13
REMARK Flexibility Score: inf
ROOT
ATOM      1  C   UNL     1      -8.207  28.354  45.034  1.00  0.00    -0.022 A 
ATOM      2  C   UNL     1      -7.832  29.492  45.768  1.00  0.00     0.058 A 
ATOM      3  C   UNL     1      -6.641  29.507  46.522  1.00  0.00     0.161 A 
ATOM      4  C   UNL     1      -5.828  28.361  46.543  1.00  0.00     0.157 A 
ATOM      5  C   UNL     1      -6.206  27.223  45.827  1.00  0.00     0.051 A 
ATOM      6  C   UNL     1      -7.386  27.212  45.081  1.00  0.00     0.012 A 
ENDROOT
BRANCH   1   7
ATOM      7  C   UNL     1      -9.477  28.391  44.266  1.00  0.00     0.003 C 
ATOM      8  C   UNL     1     -11.376  27.424  43.030  1.00  0.00     0.035 C 
ATOM      9  C   UNL     1     -10.107  27.301  43.811  1.00  0.00    -0.030 C 
ENDBRANCH   1   7
BRANCH   3  10
ATOM     10  O   UNL     1      -6.241  30.635  47.255  1.00  0.00    -0.493 OA
ATOM     11  C   UNL     1      -6.949  31.870  47.293  1.00  0.00     0.278 C 
ENDBRANCH   3  10
BRANCH   4  12
ATOM     12  O   UNL     1      -4.641  28.333  47.275  1.00  0.00    -0.504 OA
ATOM     13  H   UNL     1      -4.622  28.458  48.279  1.00  0.00     0.293 HD
ENDBRANCH   4  12
TORSDOF 3
ENDMDL
MODEL 4
REMARK VINA RESULT:    -4.135     14.584     15.598
REMARK INTER + INTRA:          -4.889
REMARK INTER:                  -4.725
REMARK INTRA:                  -0.164
REMARK UNBOUND:                -0.149
REMARK SMILES CC=Cc1ccc(O)c(OC)c1
REMARK SMILES IDX 4 1 12 2 9 3 7 4 6 5 5 6 3 7 1 8 2 9 10 10 11 11 8 12
REMARK H PARENT 8 13
REMARK Flexibility Score: inf
ROOT
ATOM      1  C   UNL     1      -6.882  29.870  46.583  1.00  0.00    -0.022 A 
ATOM      2  C   UNL     1      -7.866  29.265  45.784  1.00  0.00     0.058 A 
ATOM      3  C   UNL     1      -7.714  27.941  45.326  1.00  0.00     0.161 A 
ATOM      4  C   UNL     1      -6.553  27.226  45.670  1.00  0.00     0.157 A 
ATOM      5  C   UNL     1      -5.566  27.829  46.453  1.00  0.00     0.051 A 
ATOM      6  C   UNL     1      -5.722  29.141  46.903  1.00  0.00     0.012 A 
ENDROOT
BRANCH   1   7
ATOM      7  C   UNL     1      -7.091  31.271  47.029  1.00  0.00     0.003 C 
ATOM      8  C   UNL     1      -6.479  33.385  48.136  1.00  0.00     0.035 C 
ATOM      9  C   UNL     1      -6.185  31.981  47.710  1.00  0.00    -0.030 C 
ENDBRANCH   1   7
BRANCH   3  10
ATOM     10  O   UNL     1      -8.687  27.311  44.534  1.00  0.00    -0.493 OA
ATOM     11  C   UNL     1      -9.893  27.926  44.092  1.00  0.00     0.278 C 
ENDBRANCH   3  10
BRANCH   4  12
ATOM     12  O   UNL     1      -6.362  25.912  45.240  1.00  0.00    -0.504 OA
ATOM     13  H   UNL     1      -6.772  25.121  45.720  1.00  0.00     0.293 HD
ENDBRANCH   4  12
TORSDOF 3
ENDMDL
MODEL 5
REMARK VINA RESULT:    -4.106      5.290      7.603
REMARK INTER + INTRA:          -4.855
REMARK INTER:                  -4.701
REMARK INTRA:                  -0.154
REMARK UNBOUND:                -0.149
REMARK SMILES CC=Cc1ccc(O)c(OC)c1
REMARK SMILES IDX 4 1 12 2 9 3 7 4 6 5 5 6 3 7 1 8 2 9 10 10 11 11 8 12
REMARK H PARENT 8 13
REMARK Flexibility Score: inf
ROOT
ATOM      1  C   UNL     1     -21.897  21.917  38.485  1.00  0.00    -0.022 A 
ATOM      2  C   UNL     1     -21.378  22.134  37.198  1.00  0.00     0.058 A 
ATOM      3  C   UNL     1     -22.098  21.742  36.052  1.00  0.00     0.161 A 
ATOM      4  C   UNL     1     -23.348  21.117  36.207  1.00  0.00     0.157 A 
ATOM      5  C   UNL     1     -23.860  20.887  37.486  1.00  0.00     0.051 A 
ATOM      6  C   UNL     1     -23.143  21.276  38.618  1.00  0.00     0.012 A 
ENDROOT
BRANCH   1   7
ATOM      7  C   UNL     1     -21.090  22.341  39.658  1.00  0.00     0.003 C 
ATOM      8  C   UNL     1     -19.883  22.018  41.781  1.00  0.00     0.035 C 
ATOM      9  C   UNL     1     -20.681  21.509  40.623  1.00  0.00    -0.030 C 
ENDBRANCH   1   7
BRANCH   3  10
ATOM     10  O   UNL     1     -21.605  21.957  34.755  1.00  0.00    -0.493 OA
ATOM     11  C   UNL     1     -20.567  22.874  34.425  1.00  0.00     0.278 C 
ENDBRANCH   3  10
BRANCH   4  12
ATOM     12  O   UNL     1     -24.095  20.715  35.099  1.00  0.00    -0.504 OA
ATOM     13  H   UNL     1     -24.833  20.026  35.167  1.00  0.00     0.293 HD
ENDBRANCH   4  12
TORSDOF 3
ENDMDL
MODEL 6
REMARK VINA RESULT:    -4.103     16.489     17.712
REMARK INTER + INTRA:          -4.852
REMARK INTER:                  -4.675
REMARK INTRA:                  -0.177
REMARK UNBOUND:                -0.149
REMARK SMILES CC=Cc1ccc(O)c(OC)c1
REMARK SMILES IDX 4 1 12 2 9 3 7 4 6 5 5 6 3 7 1 8 2 9 10 10 11 11 8 12
REMARK H PARENT 8 13
REMARK Flexibility Score: inf
ROOT
ATOM      1  C   UNL     1      -6.093  29.615  46.714  1.00  0.00    -0.022 A 
ATOM      2  C   UNL     1      -5.139  30.639  46.843  1.00  0.00     0.058 A 
ATOM      3  C   UNL     1      -5.534  31.988  46.942  1.00  0.00     0.161 A 
ATOM      4  C   UNL     1      -6.903  32.307  46.898  1.00  0.00     0.157 A 
ATOM      5  C   UNL     1      -7.853  31.294  46.754  1.00  0.00     0.051 A 
ATOM      6  C   UNL     1      -7.457  29.959  46.657  1.00  0.00     0.012 A 
ENDROOT
BRANCH   1   7
ATOM      7  C   UNL     1      -5.620  28.212  46.604  1.00  0.00     0.003 C 
ATOM      8  C   UNL     1      -5.848  25.799  46.166  1.00  0.00     0.035 C 
ATOM      9  C   UNL     1      -6.398  27.188  46.237  1.00  0.00    -0.030 C 
ENDBRANCH   1   7
BRANCH   3  10
ATOM     10  O   UNL     1      -4.601  33.027  47.082  1.00  0.00    -0.493 OA
ATOM     11  C   UNL     1      -4.066  33.473  48.324  1.00  0.00     0.278 C 
ENDBRANCH   3  10
BRANCH   4  12
ATOM     12  O   UNL     1      -7.338  33.630  46.993  1.00  0.00    -0.504 OA
ATOM     13  H   UNL     1      -7.062  34.338  46.325  1.00  0.00     0.293 HD
ENDBRANCH   4  12
TORSDOF 3
ENDMDL
MODEL 7
REMARK VINA RESULT:    -4.087      4.772      5.784
REMARK INTER + INTRA:          -4.834
REMARK INTER:                  -4.661
REMARK INTRA:                  -0.173
REMARK UNBOUND:                -0.149
REMARK SMILES CC=Cc1ccc(O)c(OC)c1
REMARK SMILES IDX 4 1 12 2 9 3 7 4 6 5 5 6 3 7 1 8 2 9 10 10 11 11 8 12
REMARK H PARENT 8 13
REMARK Flexibility Score: inf
ROOT
ATOM      1  C   UNL     1     -21.572  22.207  39.141  1.00  0.00    -0.022 A 
ATOM      2  C   UNL     1     -20.751  23.320  38.889  1.00  0.00     0.058 A 
ATOM      3  C   UNL     1     -20.098  23.991  39.942  1.00  0.00     0.161 A 
ATOM      4  C   UNL     1     -20.283  23.542  41.261  1.00  0.00     0.157 A 
ATOM      5  C   UNL     1     -21.110  22.446  41.517  1.00  0.00     0.051 A 
ATOM      6  C   UNL     1     -21.755  21.784  40.471  1.00  0.00     0.012 A 
ENDROOT
BRANCH   1   7
ATOM      7  C   UNL     1     -22.243  21.545  37.994  1.00  0.00     0.003 C 
ATOM      8  C   UNL     1     -22.609  21.010  35.618  1.00  0.00     0.035 C 
ATOM      9  C   UNL     1     -21.870  21.701  36.719  1.00  0.00    -0.030 C 
ENDBRANCH   1   7
BRANCH   3  10
ATOM     10  O   UNL     1     -19.265  25.098  39.715  1.00  0.00    -0.493 OA
ATOM     11  C   UNL     1     -17.892  25.016  39.348  1.00  0.00     0.278 C 
ENDBRANCH   3  10
BRANCH   4  12
ATOM     12  O   UNL     1     -19.655  24.176  42.334  1.00  0.00    -0.504 OA
ATOM     13  H   UNL     1     -18.661  24.368  42.340  1.00  0.00     0.293 HD
ENDBRANCH   4  12
TORSDOF 3
ENDMDL
MODEL 8
REMARK VINA RESULT:    -4.080     16.034     17.037
REMARK INTER + INTRA:          -4.825
REMARK INTER:                  -4.646
REMARK INTRA:                  -0.179
REMARK UNBOUND:                -0.149
REMARK SMILES CC=Cc1ccc(O)c(OC)c1
REMARK SMILES IDX 4 1 12 2 9 3 7 4 6 5 5 6 3 7 1 8 2 9 10 10 11 11 8 12
REMARK H PARENT 8 13
REMARK Flexibility Score: inf
ROOT
ATOM      1  C   UNL     1      -6.346  31.295  47.294  1.00  0.00    -0.022 A 
ATOM      2  C   UNL     1      -5.553  30.144  47.154  1.00  0.00     0.058 A 
ATOM      3  C   UNL     1      -6.058  28.989  46.524  1.00  0.00     0.161 A 
ATOM      4  C   UNL     1      -7.378  28.994  46.041  1.00  0.00     0.157 A 
ATOM      5  C   UNL     1      -8.174  30.131  46.192  1.00  0.00     0.051 A 
ATOM      6  C   UNL     1      -7.669  31.273  46.817  1.00  0.00     0.012 A 
ENDROOT
BRANCH   1   7
ATOM      7  C   UNL     1      -5.765  32.479  47.976  1.00  0.00     0.003 C 
ATOM      8  C   UNL     1      -5.829  34.647  49.144  1.00  0.00     0.035 C 
ATOM      9  C   UNL     1      -6.492  33.480  48.485  1.00  0.00    -0.030 C 
ENDBRANCH   1   7
BRANCH   3  10
ATOM     10  O   UNL     1      -5.282  27.830  46.363  1.00  0.00    -0.493 OA
ATOM     11  C   UNL     1      -4.368  27.610  45.294  1.00  0.00     0.278 C 
ENDBRANCH   3  10
BRANCH   4  12
ATOM     12  O   UNL     1      -7.918  27.873  45.409  1.00  0.00    -0.504 OA
ATOM     13  H   UNL     1      -8.170  27.035  45.918  1.00  0.00     0.293 HD
ENDBRANCH   4  12
TORSDOF 3
ENDMDL
MODEL 9
REMARK VINA RESULT:    -3.921      3.849      5.856
REMARK INTER + INTRA:          -4.644
REMARK INTER:                  -4.470
REMARK INTRA:                  -0.174
REMARK UNBOUND:                -0.149
REMARK SMILES CC=Cc1ccc(O)c(OC)c1
REMARK SMILES IDX 4 1 12 2 9 3 7 4 6 5 5 6 3 7 1 8 2 9 10 10 11 11 8 12
REMARK H PARENT 8 13
REMARK Flexibility Score: inf
ROOT
ATOM      1  C   UNL     1     -20.035  21.392  41.344  1.00  0.00    -0.022 A 
ATOM      2  C   UNL     1     -19.292  22.458  40.811  1.00  0.00     0.058 A 
ATOM      3  C   UNL     1     -19.908  23.685  40.498  1.00  0.00     0.161 A 
ATOM      4  C   UNL     1     -21.289  23.834  40.715  1.00  0.00     0.157 A 
ATOM      5  C   UNL     1     -22.034  22.772  41.231  1.00  0.00     0.051 A 
ATOM      6  C   UNL     1     -21.419  21.557  41.540  1.00  0.00     0.012 A 
ENDROOT
BRANCH   1   7
ATOM      7  C   UNL     1     -19.335  20.118  41.646  1.00  0.00     0.003 C 
ATOM      8  C   UNL     1     -17.375  18.656  41.949  1.00  0.00     0.035 C 
ATOM      9  C   UNL     1     -18.004  19.979  41.649  1.00  0.00    -0.030 C 
ENDBRANCH   1   7
BRANCH   3  10
ATOM     10  O   UNL     1     -19.185  24.768  39.973  1.00  0.00    -0.493 OA
ATOM     11  C   UNL     1     -18.883  24.947  38.593  1.00  0.00     0.278 C 
ENDBRANCH   3  10
BRANCH   4  12
ATOM     12  O   UNL     1     -21.940  25.033  40.420  1.00  0.00    -0.504 OA
ATOM     13  H   UNL     1     -22.946  25.130  40.481  1.00  0.00     0.293 HD
ENDBRANCH   4  12
TORSDOF 3
ENDMDL
