MODEL 1
REMARK VINA RESULT:    -2.161      0.000      0.000
REMARK INTER + INTRA:          -4.706
REMARK INTER:                  -3.425
REMARK INTRA:                  -1.281
REMARK UNBOUND:                -1.281
REMARK SMILES CCCCCCCCCCCC=O
REMARK SMILES IDX 7 1 6 2 5 3 4 4 3 5 2 6 1 7 8 8 9 9 10 10 11 11 12 12 13 13
REMARK H PARENT
REMARK Flexibility Score: inf
ROOT
ATOM      1  C   UNL     1     132.670 144.791 139.095  1.00  0.00     0.000 C 
ENDROOT
BRANCH   1   2
ATOM      2  C   UNL     1     133.244 143.668 138.212  1.00  0.00     0.000 C 
BRANCH   2   3
ATOM      3  C   UNL     1     132.291 143.270 137.073  1.00  0.00    -0.000 C 
BRANCH   3   4
ATOM      4  C   UNL     1     132.177 141.745 136.907  1.00  0.00    -0.000 C 
BRANCH   4   5
ATOM      5  C   UNL     1     131.229 141.108 137.935  1.00  0.00    -0.000 C 
BRANCH   5   6
ATOM      6  C   UNL     1     130.025 142.004 138.261  1.00  0.00    -0.003 C 
ATOM      7  C   UNL     1     129.893 142.221 139.766  1.00  0.00     0.004 C 
ENDBRANCH   5   6
ENDBRANCH   4   5
ENDBRANCH   3   4
ENDBRANCH   2   3
ENDBRANCH   1   2
BRANCH   1   8
ATOM      8  C   UNL     1     131.621 145.649 138.364  1.00  0.00     0.000 C 
BRANCH   8   9
ATOM      9  C   UNL     1     130.857 146.641 139.260  1.00  0.00     0.000 C 
BRANCH   9  10
ATOM     10  C   UNL     1     129.465 146.133 139.664  1.00  0.00     0.008 C 
BRANCH  10  11
ATOM     11  C   UNL     1     128.737 145.515 138.466  1.00  0.00     0.072 C 
BRANCH  11  12
ATOM     12  C   UNL     1     127.970 146.557 137.708  1.00  0.00     0.224 C 
ATOM     13  O   UNL     1     128.373 146.960 136.628  1.00  0.00    -0.303 OA
ENDBRANCH  11  12
ENDBRANCH  10  11
ENDBRANCH   9  10
ENDBRANCH   8   9
ENDBRANCH   1   8
TORSDOF 10
ENDMDL
MODEL 2
REMARK VINA RESULT:    -2.157      2.534      5.077
REMARK INTER + INTRA:          -4.699
REMARK INTER:                  -3.590
REMARK INTRA:                  -1.110
REMARK UNBOUND:                -1.281
REMARK SMILES CCCCCCCCCCCC=O
REMARK SMILES IDX 7 1 6 2 5 3 4 4 3 5 2 6 1 7 8 8 9 9 10 10 11 11 12 12 13 13
REMARK H PARENT
REMARK Flexibility Score: inf
ROOT
ATOM      1  C   UNL     1     129.529 145.952 138.375  1.00  0.00     0.000 C 
ENDROOT
BRANCH   1   2
ATOM      2  C   UNL     1     130.967 146.273 137.929  1.00  0.00     0.000 C 
BRANCH   2   3
ATOM      3  C   UNL     1     132.019 145.774 138.931  1.00  0.00    -0.000 C 
BRANCH   3   4
ATOM      4  C   UNL     1     132.927 146.905 139.444  1.00  0.00    -0.000 C 
BRANCH   4   5
ATOM      5  C   UNL     1     132.142 148.010 140.167  1.00  0.00    -0.000 C 
BRANCH   5   6
ATOM      6  C   UNL     1     131.507 147.522 141.478  1.00  0.00    -0.003 C 
ATOM      7  C   UNL     1     130.022 147.868 141.531  1.00  0.00     0.004 C 
ENDBRANCH   5   6
ENDBRANCH   4   5
ENDBRANCH   3   4
ENDBRANCH   2   3
ENDBRANCH   1   2
BRANCH   1   8
ATOM      8  C   UNL     1     129.445 144.699 139.265  1.00  0.00     0.000 C 
BRANCH   8   9
ATOM      9  C   UNL     1     128.389 143.666 138.832  1.00  0.00     0.000 C 
BRANCH   9  10
ATOM     10  C   UNL     1     128.985 142.276 138.564  1.00  0.00     0.008 C 
BRANCH  10  11
ATOM     11  C   UNL     1     130.514 142.308 138.651  1.00  0.00     0.072 C 
BRANCH  11  12
ATOM     12  C   UNL     1     131.134 141.721 137.419  1.00  0.00     0.224 C 
ATOM     13  O   UNL     1     131.585 140.586 137.432  1.00  0.00    -0.303 OA
ENDBRANCH  11  12
ENDBRANCH  10  11
ENDBRANCH   9  10
ENDBRANCH   8   9
ENDBRANCH   1   8
TORSDOF 10
ENDMDL
MODEL 3
REMARK VINA RESULT:    -2.130      1.989      4.254
REMARK INTER + INTRA:          -4.657
REMARK INTER:                  -3.131
REMARK INTRA:                  -1.525
REMARK UNBOUND:                -1.281
REMARK SMILES CCCCCCCCCCCC=O
REMARK SMILES IDX 7 1 6 2 5 3 4 4 3 5 2 6 1 7 8 8 9 9 10 10 11 11 12 12 13 13
REMARK H PARENT
REMARK Flexibility Score: inf
ROOT
ATOM      1  C   UNL     1     133.385 145.316 140.255  1.00  0.00     0.000 C 
ENDROOT
BRANCH   1   2
ATOM      2  C   UNL     1     133.270 146.761 139.739  1.00  0.00     0.000 C 
BRANCH   2   3
ATOM      3  C   UNL     1     131.826 147.144 139.379  1.00  0.00    -0.000 C 
BRANCH   3   4
ATOM      4  C   UNL     1     131.276 146.326 138.197  1.00  0.00    -0.000 C 
BRANCH   4   5
ATOM      5  C   UNL     1     129.990 145.565 138.554  1.00  0.00    -0.000 C 
BRANCH   5   6
ATOM      6  C   UNL     1     129.686 145.593 140.060  1.00  0.00    -0.003 C 
ATOM      7  C   UNL     1     129.683 144.184 140.645  1.00  0.00     0.004 C 
ENDBRANCH   5   6
ENDBRANCH   4   5
ENDBRANCH   3   4
ENDBRANCH   2   3
ENDBRANCH   1   2
BRANCH   1   8
ATOM      8  C   UNL     1     134.483 144.511 139.537  1.00  0.00     0.000 C 
BRANCH   8   9
ATOM      9  C   UNL     1     133.979 143.580 138.420  1.00  0.00     0.000 C 
BRANCH   9  10
ATOM     10  C   UNL     1     132.647 142.897 138.765  1.00  0.00     0.008 C 
BRANCH  10  11
ATOM     11  C   UNL     1     131.865 142.545 137.495  1.00  0.00     0.072 C 
BRANCH  11  12
ATOM     12  C   UNL     1     130.810 141.520 137.781  1.00  0.00     0.224 C 
ATOM     13  O   UNL     1     129.649 141.857 137.955  1.00  0.00    -0.303 OA
ENDBRANCH  11  12
ENDBRANCH  10  11
ENDBRANCH   9  10
ENDBRANCH   8   9
ENDBRANCH   1   8
TORSDOF 10
ENDMDL
MODEL 4
REMARK VINA RESULT:    -2.109      2.174      3.495
REMARK INTER + INTRA:          -4.624
REMARK INTER:                  -3.282
REMARK INTRA:                  -1.341
REMARK UNBOUND:                -1.281
REMARK SMILES CCCCCCCCCCCC=O
REMARK SMILES IDX 7 1 6 2 5 3 4 4 3 5 2 6 1 7 8 8 9 9 10 10 11 11 12 12 13 13
REMARK H PARENT
REMARK Flexibility Score: inf
ROOT
ATOM      1  C   UNL     1     132.878 141.603 137.757  1.00  0.00     0.000 C 
ENDROOT
BRANCH   1   2
ATOM      2  C   UNL     1     131.380 141.256 137.696  1.00  0.00     0.000 C 
BRANCH   2   3
ATOM      3  C   UNL     1     130.855 140.678 139.020  1.00  0.00    -0.000 C 
BRANCH   3   4
ATOM      4  C   UNL     1     129.503 141.284 139.433  1.00  0.00    -0.000 C 
BRANCH   4   5
ATOM      5  C   UNL     1     128.951 142.264 138.385  1.00  0.00    -0.000 C 
BRANCH   5   6
ATOM      6  C   UNL     1     128.430 143.566 139.012  1.00  0.00    -0.003 C 
ATOM      7  C   UNL     1     129.127 143.853 140.339  1.00  0.00     0.004 C 
ENDBRANCH   5   6
ENDBRANCH   4   5
ENDBRANCH   3   4
ENDBRANCH   2   3
ENDBRANCH   1   2
BRANCH   1   8
ATOM      8  C   UNL     1     133.156 143.099 137.523  1.00  0.00     0.000 C 
BRANCH   8   9
ATOM      9  C   UNL     1     132.450 144.051 138.505  1.00  0.00     0.000 C 
BRANCH   9  10
ATOM     10  C   UNL     1     131.594 145.114 137.801  1.00  0.00     0.008 C 
BRANCH  10  11
ATOM     11  C   UNL     1     131.436 146.361 138.678  1.00  0.00     0.072 C 
BRANCH  11  12
ATOM     12  C   UNL     1     132.578 146.486 139.641  1.00  0.00     0.224 C 
ATOM     13  O   UNL     1     133.364 147.417 139.553  1.00  0.00    -0.303 OA
ENDBRANCH  11  12
ENDBRANCH  10  11
ENDBRANCH   9  10
ENDBRANCH   8   9
ENDBRANCH   1   8
TORSDOF 10
ENDMDL
MODEL 5
REMARK VINA RESULT:    -2.091      2.112      4.712
REMARK INTER + INTRA:          -4.595
REMARK INTER:                  -3.162
REMARK INTRA:                  -1.433
REMARK UNBOUND:                -1.281
REMARK SMILES CCCCCCCCCCCC=O
REMARK SMILES IDX 7 1 6 2 5 3 4 4 3 5 2 6 1 7 8 8 9 9 10 10 11 11 12 12 13 13
REMARK H PARENT
REMARK Flexibility Score: inf
ROOT
ATOM      1  C   UNL     1     129.053 143.909 140.312  1.00  0.00     0.000 C 
ENDROOT
BRANCH   1   2
ATOM      2  C   UNL     1     129.650 145.324 140.213  1.00  0.00     0.000 C 
BRANCH   2   3
ATOM      3  C   UNL     1     129.726 145.831 138.764  1.00  0.00    -0.000 C 
BRANCH   3   4
ATOM      4  C   UNL     1     131.171 146.087 138.304  1.00  0.00    -0.000 C 
BRANCH   4   5
ATOM      5  C   UNL     1     131.896 144.797 137.889  1.00  0.00    -0.000 C 
BRANCH   5   6
ATOM      6  C   UNL     1     132.973 144.374 138.899  1.00  0.00    -0.003 C 
ATOM      7  C   UNL     1     133.990 143.435 138.257  1.00  0.00     0.004 C 
ENDBRANCH   5   6
ENDBRANCH   4   5
ENDBRANCH   3   4
ENDBRANCH   2   3
ENDBRANCH   1   2
BRANCH   1   8
ATOM      8  C   UNL     1     128.453 143.418 138.981  1.00  0.00     0.000 C 
BRANCH   8   9
ATOM      9  C   UNL     1     128.920 142.021 138.536  1.00  0.00     0.000 C 
BRANCH   9  10
ATOM     10  C   UNL     1     130.182 141.548 139.272  1.00  0.00     0.008 C 
BRANCH  10  11
ATOM     11  C   UNL     1     131.222 141.004 138.286  1.00  0.00     0.072 C 
BRANCH  11  12
ATOM     12  C   UNL     1     130.871 141.378 136.877  1.00  0.00     0.224 C 
ATOM     13  O   UNL     1     131.746 141.521 136.038  1.00  0.00    -0.303 OA
ENDBRANCH  11  12
ENDBRANCH  10  11
ENDBRANCH   9  10
ENDBRANCH   8   9
ENDBRANCH   1   8
TORSDOF 10
ENDMDL
MODEL 6
REMARK VINA RESULT:    -2.074      2.283      4.234
REMARK INTER + INTRA:          -4.568
REMARK INTER:                  -3.159
REMARK INTRA:                  -1.409
REMARK UNBOUND:                -1.281
REMARK SMILES CCCCCCCCCCCC=O
REMARK SMILES IDX 7 1 6 2 5 3 4 4 3 5 2 6 1 7 8 8 9 9 10 10 11 11 12 12 13 13
REMARK H PARENT
REMARK Flexibility Score: inf
ROOT
ATOM      1  C   UNL     1     129.397 146.208 138.271  1.00  0.00     0.000 C 
ENDROOT
BRANCH   1   2
ATOM      2  C   UNL     1     130.888 146.215 137.889  1.00  0.00     0.000 C 
BRANCH   2   3
ATOM      3  C   UNL     1     131.795 146.625 139.061  1.00  0.00    -0.000 C 
BRANCH   3   4
ATOM      4  C   UNL     1     132.941 145.627 139.296  1.00  0.00    -0.000 C 
BRANCH   4   5
ATOM      5  C   UNL     1     132.500 144.167 139.111  1.00  0.00    -0.000 C 
BRANCH   5   6
ATOM      6  C   UNL     1     133.310 143.438 138.029  1.00  0.00    -0.003 C 
ATOM      7  C   UNL     1     132.408 142.966 136.893  1.00  0.00     0.004 C 
ENDBRANCH   5   6
ENDBRANCH   4   5
ENDBRANCH   3   4
ENDBRANCH   2   3
ENDBRANCH   1   2
BRANCH   1   8
ATOM      8  C   UNL     1     128.877 144.803 138.624  1.00  0.00     0.000 C 
BRANCH   8   9
ATOM      9  C   UNL     1     128.892 144.464 140.125  1.00  0.00     0.000 C 
BRANCH   9  10
ATOM     10  C   UNL     1     129.233 142.993 140.405  1.00  0.00     0.008 C 
BRANCH  10  11
ATOM     11  C   UNL     1     129.134 142.154 139.126  1.00  0.00     0.072 C 
BRANCH  11  12
ATOM     12  C   UNL     1     130.193 141.094 139.097  1.00  0.00     0.224 C 
ATOM     13  O   UNL     1     131.020 141.019 139.993  1.00  0.00    -0.303 OA
ENDBRANCH  11  12
ENDBRANCH  10  11
ENDBRANCH   9  10
ENDBRANCH   8   9
ENDBRANCH   1   8
TORSDOF 10
ENDMDL
MODEL 7
REMARK VINA RESULT:    -2.059      2.071      4.861
REMARK INTER + INTRA:          -4.544
REMARK INTER:                  -2.986
REMARK INTRA:                  -1.558
REMARK UNBOUND:                -1.281
REMARK SMILES CCCCCCCCCCCC=O
REMARK SMILES IDX 7 1 6 2 5 3 4 4 3 5 2 6 1 7 8 8 9 9 10 10 11 11 12 12 13 13
REMARK H PARENT
REMARK Flexibility Score: inf
ROOT
ATOM      1  C   UNL     1     129.762 144.281 141.208  1.00  0.00     0.000 C 
ENDROOT
BRANCH   1   2
ATOM      2  C   UNL     1     128.654 145.155 140.592  1.00  0.00     0.000 C 
BRANCH   2   3
ATOM      3  C   UNL     1     129.215 146.358 139.818  1.00  0.00    -0.000 C 
BRANCH   3   4
ATOM      4  C   UNL     1     129.456 146.041 138.332  1.00  0.00    -0.000 C 
BRANCH   4   5
ATOM      5  C   UNL     1     130.927 146.213 137.923  1.00  0.00    -0.000 C 
BRANCH   5   6
ATOM      6  C   UNL     1     131.687 144.879 137.877  1.00  0.00    -0.003 C 
ATOM      7  C   UNL     1     132.717 144.795 139.000  1.00  0.00     0.004 C 
ENDBRANCH   5   6
ENDBRANCH   4   5
ENDBRANCH   3   4
ENDBRANCH   2   3
ENDBRANCH   1   2
BRANCH   1   8
ATOM      8  C   UNL     1     129.741 142.833 140.686  1.00  0.00     0.000 C 
BRANCH   8   9
ATOM      9  C   UNL     1     128.684 142.550 139.603  1.00  0.00     0.000 C 
BRANCH   9  10
ATOM     10  C   UNL     1     129.297 142.084 138.274  1.00  0.00     0.008 C 
BRANCH  10  11
ATOM     11  C   UNL     1     130.616 141.340 138.509  1.00  0.00     0.072 C 
BRANCH  11  12
ATOM     12  C   UNL     1     131.394 141.213 137.234  1.00  0.00     0.224 C 
ATOM     13  O   UNL     1     130.817 141.154 136.159  1.00  0.00    -0.303 OA
ENDBRANCH  11  12
ENDBRANCH  10  11
ENDBRANCH   9  10
ENDBRANCH   8   9
ENDBRANCH   1   8
TORSDOF 10
ENDMDL
MODEL 8
REMARK VINA RESULT:    -2.055      2.108      3.809
REMARK INTER + INTRA:          -4.538
REMARK INTER:                  -3.038
REMARK INTRA:                  -1.500
REMARK UNBOUND:                -1.281
REMARK SMILES CCCCCCCCCCCC=O
REMARK SMILES IDX 7 1 6 2 5 3 4 4 3 5 2 6 1 7 8 8 9 9 10 10 11 11 12 12 13 13
REMARK H PARENT
REMARK Flexibility Score: inf
ROOT
ATOM      1  C   UNL     1     129.339 145.357 140.162  1.00  0.00     0.000 C 
ENDROOT
BRANCH   1   2
ATOM      2  C   UNL     1     128.901 143.886 140.276  1.00  0.00     0.000 C 
BRANCH   2   3
ATOM      3  C   UNL     1     128.249 143.364 138.985  1.00  0.00    -0.000 C 
BRANCH   3   4
ATOM      4  C   UNL     1     128.988 142.149 138.401  1.00  0.00    -0.000 C 
BRANCH   4   5
ATOM      5  C   UNL     1     130.179 141.709 139.268  1.00  0.00    -0.000 C 
BRANCH   5   6
ATOM      6  C   UNL     1     131.309 141.077 138.441  1.00  0.00    -0.003 C 
ATOM      7  C   UNL     1     131.104 141.328 136.950  1.00  0.00     0.004 C 
ENDBRANCH   5   6
ENDBRANCH   4   5
ENDBRANCH   3   4
ENDBRANCH   2   3
ENDBRANCH   1   2
BRANCH   1   8
ATOM      8  C   UNL     1     129.402 145.851 138.705  1.00  0.00     0.000 C 
BRANCH   8   9
ATOM      9  C   UNL     1     130.815 146.187 138.195  1.00  0.00     0.000 C 
BRANCH   9  10
ATOM     10  C   UNL     1     131.614 144.943 137.779  1.00  0.00     0.008 C 
BRANCH  10  11
ATOM     11  C   UNL     1     132.645 144.570 138.850  1.00  0.00     0.072 C 
BRANCH  11  12
ATOM     12  C   UNL     1     133.132 145.790 139.573  1.00  0.00     0.224 C 
ATOM     13  O   UNL     1     133.132 145.828 140.793  1.00  0.00    -0.303 OA
ENDBRANCH  11  12
ENDBRANCH  10  11
ENDBRANCH   9  10
ENDBRANCH   8   9
ENDBRANCH   1   8
TORSDOF 10
ENDMDL
MODEL 9
REMARK VINA RESULT:    -2.051      2.121      4.145
REMARK INTER + INTRA:          -4.531
REMARK INTER:                  -3.049
REMARK INTRA:                  -1.482
REMARK UNBOUND:                -1.281
REMARK SMILES CCCCCCCCCCCC=O
REMARK SMILES IDX 7 1 6 2 5 3 4 4 3 5 2 6 1 7 8 8 9 9 10 10 11 11 12 12 13 13
REMARK H PARENT
REMARK Flexibility Score: inf
ROOT
ATOM      1  C   UNL     1     130.430 145.884 139.782  1.00  0.00     0.000 C 
ENDROOT
BRANCH   1   2
ATOM      2  C   UNL     1     128.979 146.242 139.412  1.00  0.00     0.000 C 
BRANCH   2   3
ATOM      3  C   UNL     1     128.245 145.083 138.719  1.00  0.00    -0.000 C 
BRANCH   3   4
ATOM      4  C   UNL     1     128.387 143.755 139.483  1.00  0.00    -0.000 C 
BRANCH   4   5
ATOM      5  C   UNL     1     128.921 142.618 138.597  1.00  0.00    -0.000 C 
BRANCH   5   6
ATOM      6  C   UNL     1     129.902 141.700 139.342  1.00  0.00    -0.003 C 
ATOM      7  C   UNL     1     130.288 142.292 140.695  1.00  0.00     0.004 C 
ENDBRANCH   5   6
ENDBRANCH   4   5
ENDBRANCH   3   4
ENDBRANCH   2   3
ENDBRANCH   1   2
BRANCH   1   8
ATOM      8  C   UNL     1     131.416 146.117 138.623  1.00  0.00     0.000 C 
BRANCH   8   9
ATOM      9  C   UNL     1     131.830 144.846 137.859  1.00  0.00     0.000 C 
BRANCH   9  10
ATOM     10  C   UNL     1     132.876 144.009 138.611  1.00  0.00     0.008 C 
BRANCH  10  11
ATOM     11  C   UNL     1     133.246 142.751 137.818  1.00  0.00     0.072 C 
BRANCH  11  12
ATOM     12  C   UNL     1     132.346 142.582 136.630  1.00  0.00     0.224 C 
ATOM     13  O   UNL     1     132.752 142.034 135.618  1.00  0.00    -0.303 OA
ENDBRANCH  11  12
ENDBRANCH  10  11
ENDBRANCH   9  10
ENDBRANCH   8   9
ENDBRANCH   1   8
TORSDOF 10
ENDMDL
