MODEL 1
REMARK VINA RESULT:    -4.095      0.000      0.000
REMARK INTER + INTRA:          -4.454
REMARK INTER:                  -4.454
REMARK INTRA:                   0.000
REMARK UNBOUND:                 0.000
REMARK SMILES Oc1cccc(O)c1O
REMARK SMILES IDX 4 1 5 2 6 3 8 4 2 5 3 6 7 7 1 9 9 11
REMARK H PARENT 7 8 1 10 9 12
REMARK Flexibility Score: inf
ROOT
ATOM      1  C   UNL     1     -45.884 -50.858  11.077  1.00  0.00     0.008 A 
ATOM      2  C   UNL     1     -45.974 -51.004   9.691  1.00  0.00     0.050 A 
ATOM      3  C   UNL     1     -45.624 -52.220   9.085  1.00  0.00     0.161 A 
ATOM      4  C   UNL     1     -45.179 -53.294   9.877  1.00  0.00     0.200 A 
ATOM      5  C   UNL     1     -45.089 -53.141  11.274  1.00  0.00     0.161 A 
ATOM      6  C   UNL     1     -45.443 -51.922  11.866  1.00  0.00     0.050 A 
ENDROOT
BRANCH   3   7
ATOM      7  O   UNL     1     -45.715 -52.363   7.701  1.00  0.00    -0.504 OA
ATOM      8  H   UNL     1     -46.357 -51.803   7.152  1.00  0.00     0.293 HD
ENDBRANCH   3   7
BRANCH   5   9
ATOM      9  O   UNL     1     -44.652 -54.186  12.087  1.00  0.00    -0.504 OA
ATOM     10  H   UNL     1     -44.261 -55.038  11.706  1.00  0.00     0.293 HD
ENDBRANCH   5   9
BRANCH   4  11
ATOM     11  O   UNL     1     -44.824 -54.511   9.293  1.00  0.00    -0.502 OA
ATOM     12  H   UNL     1     -43.901 -54.678   8.914  1.00  0.00     0.293 HD
ENDBRANCH   4  11
TORSDOF 3
ENDMDL
MODEL 2
REMARK VINA RESULT:    -4.093      0.029      2.808
REMARK INTER + INTRA:          -4.452
REMARK INTER:                  -4.452
REMARK INTRA:                   0.000
REMARK UNBOUND:                 0.000
REMARK SMILES Oc1cccc(O)c1O
REMARK SMILES IDX 4 1 5 2 6 3 8 4 2 5 3 6 7 7 1 9 9 11
REMARK H PARENT 7 8 1 10 9 12
REMARK Flexibility Score: inf
ROOT
ATOM      1  C   UNL     1     -45.886 -50.872  11.057  1.00  0.00     0.008 A 
ATOM      2  C   UNL     1     -45.436 -51.922  11.860  1.00  0.00     0.050 A 
ATOM      3  C   UNL     1     -45.069 -53.146  11.282  1.00  0.00     0.161 A 
ATOM      4  C   UNL     1     -45.158 -53.316   9.888  1.00  0.00     0.200 A 
ATOM      5  C   UNL     1     -45.613 -52.254   9.083  1.00  0.00     0.161 A 
ATOM      6  C   UNL     1     -45.975 -51.037   9.674  1.00  0.00     0.050 A 
ENDROOT
BRANCH   3   7
ATOM      7  O   UNL     1     -44.619 -54.193  12.086  1.00  0.00    -0.504 OA
ATOM      8  H   UNL     1     -44.232 -55.039  11.686  1.00  0.00     0.293 HD
ENDBRANCH   3   7
BRANCH   5   9
ATOM      9  O   UNL     1     -45.712 -52.389   7.699  1.00  0.00    -0.504 OA
ATOM     10  H   UNL     1     -46.599 -52.344   7.215  1.00  0.00     0.293 HD
ENDBRANCH   5   9
BRANCH   4  11
ATOM     11  O   UNL     1     -44.798 -54.526   9.293  1.00  0.00    -0.502 OA
ATOM     12  H   UNL     1     -44.385 -55.284   9.821  1.00  0.00     0.293 HD
ENDBRANCH   4  11
TORSDOF 3
ENDMDL
MODEL 3
REMARK VINA RESULT:    -3.899      5.414      6.449
REMARK INTER + INTRA:          -4.240
REMARK INTER:                  -4.240
REMARK INTRA:                   0.000
REMARK UNBOUND:                 0.000
REMARK SMILES Oc1cccc(O)c1O
REMARK SMILES IDX 4 1 5 2 6 3 8 4 2 5 3 6 7 7 1 9 9 11
REMARK H PARENT 7 8 1 10 9 12
REMARK Flexibility Score: inf
ROOT
ATOM      1  C   UNL     1     -44.824 -50.517   6.401  1.00  0.00     0.008 A 
ATOM      2  C   UNL     1     -44.897 -50.445   5.008  1.00  0.00     0.050 A 
ATOM      3  C   UNL     1     -45.613 -49.409   4.392  1.00  0.00     0.161 A 
ATOM      4  C   UNL     1     -46.260 -48.440   5.180  1.00  0.00     0.200 A 
ATOM      5  C   UNL     1     -46.185 -48.518   6.584  1.00  0.00     0.161 A 
ATOM      6  C   UNL     1     -45.466 -49.558   7.186  1.00  0.00     0.050 A 
ENDROOT
BRANCH   3   7
ATOM      7  O   UNL     1     -45.683 -49.339   3.001  1.00  0.00    -0.504 OA
ATOM      8  H   UNL     1     -44.945 -48.913   2.454  1.00  0.00     0.293 HD
ENDBRANCH   3   7
BRANCH   5   9
ATOM      9  O   UNL     1     -46.814 -47.574   7.393  1.00  0.00    -0.504 OA
ATOM     10  H   UNL     1     -46.294 -46.940   7.987  1.00  0.00     0.293 HD
ENDBRANCH   5   9
BRANCH   4  11
ATOM     11  O   UNL     1     -46.978 -47.401   4.586  1.00  0.00    -0.502 OA
ATOM     12  H   UNL     1     -46.674 -46.957   3.729  1.00  0.00     0.293 HD
ENDBRANCH   4  11
TORSDOF 3
ENDMDL
MODEL 4
REMARK VINA RESULT:    -3.892      5.406      6.774
REMARK INTER + INTRA:          -4.233
REMARK INTER:                  -4.233
REMARK INTRA:                   0.000
REMARK UNBOUND:                 0.000
REMARK SMILES Oc1cccc(O)c1O
REMARK SMILES IDX 4 1 5 2 6 3 8 4 2 5 3 6 7 7 1 9 9 11
REMARK H PARENT 7 8 1 10 9 12
REMARK Flexibility Score: inf
ROOT
ATOM      1  C   UNL     1     -44.765 -50.432   6.498  1.00  0.00     0.008 A 
ATOM      2  C   UNL     1     -45.466 -49.501   7.267  1.00  0.00     0.050 A 
ATOM      3  C   UNL     1     -46.233 -48.505   6.644  1.00  0.00     0.161 A 
ATOM      4  C   UNL     1     -46.293 -48.444   5.240  1.00  0.00     0.200 A 
ATOM      5  C   UNL     1     -45.584 -49.385   4.469  1.00  0.00     0.161 A 
ATOM      6  C   UNL     1     -44.823 -50.374   5.104  1.00  0.00     0.050 A 
ENDROOT
BRANCH   3   7
ATOM      7  O   UNL     1     -46.932 -47.577   7.415  1.00  0.00    -0.504 OA
ATOM      8  H   UNL     1     -47.551 -47.868   8.162  1.00  0.00     0.293 HD
ENDBRANCH   3   7
BRANCH   5   9
ATOM      9  O   UNL     1     -45.624 -49.352   3.076  1.00  0.00    -0.504 OA
ATOM     10  H   UNL     1     -44.927 -49.815   2.506  1.00  0.00     0.293 HD
ENDBRANCH   5   9
BRANCH   4  11
ATOM     11  O   UNL     1     -47.050 -47.461   4.601  1.00  0.00    -0.502 OA
ATOM     12  H   UNL     1     -46.713 -46.513   4.484  1.00  0.00     0.293 HD
ENDBRANCH   4  11
TORSDOF 3
ENDMDL
MODEL 5
REMARK VINA RESULT:    -3.880      1.987      3.294
REMARK INTER + INTRA:          -4.220
REMARK INTER:                  -4.220
REMARK INTRA:                   0.000
REMARK UNBOUND:                 0.000
REMARK SMILES Oc1cccc(O)c1O
REMARK SMILES IDX 4 1 5 2 6 3 8 4 2 5 3 6 7 7 1 9 9 11
REMARK H PARENT 7 8 1 10 9 12
REMARK Flexibility Score: inf
ROOT
ATOM      1  C   UNL     1     -45.515 -51.406  11.175  1.00  0.00     0.008 A 
ATOM      2  C   UNL     1     -45.531 -52.283  12.261  1.00  0.00     0.050 A 
ATOM      3  C   UNL     1     -44.538 -53.266  12.390  1.00  0.00     0.161 A 
ATOM      4  C   UNL     1     -43.524 -53.368  11.420  1.00  0.00     0.200 A 
ATOM      5  C   UNL     1     -43.513 -52.481  10.326  1.00  0.00     0.161 A 
ATOM      6  C   UNL     1     -44.510 -51.505  10.210  1.00  0.00     0.050 A 
ENDROOT
BRANCH   3   7
ATOM      7  O   UNL     1     -44.557 -54.140  13.477  1.00  0.00    -0.504 OA
ATOM      8  H   UNL     1     -44.243 -55.099  13.390  1.00  0.00     0.293 HD
ENDBRANCH   3   7
BRANCH   5   9
ATOM      9  O   UNL     1     -42.522 -52.556   9.348  1.00  0.00    -0.504 OA
ATOM     10  H   UNL     1     -42.737 -52.528   8.360  1.00  0.00     0.293 HD
ENDBRANCH   5   9
BRANCH   4  11
ATOM     11  O   UNL     1     -42.528 -54.339  11.530  1.00  0.00    -0.502 OA
ATOM     12  H   UNL     1     -41.603 -54.124  11.879  1.00  0.00     0.293 HD
ENDBRANCH   4  11
TORSDOF 3
ENDMDL
MODEL 6
REMARK VINA RESULT:    -3.872      1.990      2.135
REMARK INTER + INTRA:          -4.212
REMARK INTER:                  -4.212
REMARK INTRA:                   0.000
REMARK UNBOUND:                 0.000
REMARK SMILES Oc1cccc(O)c1O
REMARK SMILES IDX 4 1 5 2 6 3 8 4 2 5 3 6 7 7 1 9 9 11
REMARK H PARENT 7 8 1 10 9 12
REMARK Flexibility Score: inf
ROOT
ATOM      1  C   UNL     1     -45.484 -51.361  11.149  1.00  0.00     0.008 A 
ATOM      2  C   UNL     1     -44.479 -51.466  10.186  1.00  0.00     0.050 A 
ATOM      3  C   UNL     1     -43.495 -52.459  10.298  1.00  0.00     0.161 A 
ATOM      4  C   UNL     1     -43.521 -53.350  11.387  1.00  0.00     0.200 A 
ATOM      5  C   UNL     1     -44.536 -53.239  12.356  1.00  0.00     0.161 A 
ATOM      6  C   UNL     1     -45.513 -52.243  12.231  1.00  0.00     0.050 A 
ENDROOT
BRANCH   3   7
ATOM      7  O   UNL     1     -42.492 -52.562   9.335  1.00  0.00    -0.504 OA
ATOM      8  H   UNL     1     -42.711 -52.663   8.351  1.00  0.00     0.293 HD
ENDBRANCH   3   7
BRANCH   5   9
ATOM      9  O   UNL     1     -44.591 -54.107  13.446  1.00  0.00    -0.504 OA
ATOM     10  H   UNL     1     -43.994 -54.921  13.517  1.00  0.00     0.293 HD
ENDBRANCH   5   9
BRANCH   4  11
ATOM     11  O   UNL     1     -42.551 -54.344  11.517  1.00  0.00    -0.502 OA
ATOM     12  H   UNL     1     -42.448 -54.890  12.364  1.00  0.00     0.293 HD
ENDBRANCH   4  11
TORSDOF 3
ENDMDL
MODEL 7
REMARK VINA RESULT:    -3.830      0.977      1.885
REMARK INTER + INTRA:          -4.165
REMARK INTER:                  -4.165
REMARK INTRA:                   0.000
REMARK UNBOUND:                 0.000
REMARK SMILES Oc1cccc(O)c1O
REMARK SMILES IDX 4 1 5 2 6 3 8 4 2 5 3 6 7 7 1 9 9 11
REMARK H PARENT 7 8 1 10 9 12
REMARK Flexibility Score: inf
ROOT
ATOM      1  C   UNL     1     -45.533 -51.634  11.564  1.00  0.00     0.008 A 
ATOM      2  C   UNL     1     -46.043 -50.704  10.656  1.00  0.00     0.050 A 
ATOM      3  C   UNL     1     -46.090 -51.006   9.287  1.00  0.00     0.161 A 
ATOM      4  C   UNL     1     -45.622 -52.251   8.829  1.00  0.00     0.200 A 
ATOM      5  C   UNL     1     -45.108 -53.185   9.749  1.00  0.00     0.161 A 
ATOM      6  C   UNL     1     -45.067 -52.870  11.113  1.00  0.00     0.050 A 
ENDROOT
BRANCH   3   7
ATOM      7  O   UNL     1     -46.601 -50.076   8.383  1.00  0.00    -0.504 OA
ATOM      8  H   UNL     1     -47.596 -49.902   8.306  1.00  0.00     0.293 HD
ENDBRANCH   3   7
BRANCH   5   9
ATOM      9  O   UNL     1     -44.636 -54.428   9.327  1.00  0.00    -0.504 OA
ATOM     10  H   UNL     1     -45.210 -55.261   9.360  1.00  0.00     0.293 HD
ENDBRANCH   5   9
BRANCH   4  11
ATOM     11  O   UNL     1     -45.660 -52.571   7.471  1.00  0.00    -0.502 OA
ATOM     12  H   UNL     1     -46.152 -51.999   6.796  1.00  0.00     0.293 HD
ENDBRANCH   4  11
TORSDOF 3
ENDMDL
MODEL 8
REMARK VINA RESULT:    -3.796      0.976      2.864
REMARK INTER + INTRA:          -4.129
REMARK INTER:                  -4.129
REMARK INTRA:                   0.000
REMARK UNBOUND:                 0.000
REMARK SMILES Oc1cccc(O)c1O
REMARK SMILES IDX 4 1 5 2 6 3 8 4 2 5 3 6 7 7 1 9 9 11
REMARK H PARENT 7 8 1 10 9 12
REMARK Flexibility Score: inf
ROOT
ATOM      1  C   UNL     1     -45.537 -51.703  11.589  1.00  0.00     0.008 A 
ATOM      2  C   UNL     1     -45.152 -52.964  11.128  1.00  0.00     0.050 A 
ATOM      3  C   UNL     1     -45.211 -53.263   9.759  1.00  0.00     0.161 A 
ATOM      4  C   UNL     1     -45.660 -52.289   8.849  1.00  0.00     0.200 A 
ATOM      5  C   UNL     1     -46.047 -51.019   9.319  1.00  0.00     0.161 A 
ATOM      6  C   UNL     1     -45.983 -50.734  10.688  1.00  0.00     0.050 A 
ENDROOT
BRANCH   3   7
ATOM      7  O   UNL     1     -44.825 -54.523   9.301  1.00  0.00    -0.504 OA
ATOM      8  H   UNL     1     -44.750 -54.726   8.312  1.00  0.00     0.293 HD
ENDBRANCH   3   7
BRANCH   5   9
ATOM      9  O   UNL     1     -46.496 -50.032   8.443  1.00  0.00    -0.504 OA
ATOM     10  H   UNL     1     -45.904 -49.269   8.141  1.00  0.00     0.293 HD
ENDBRANCH   5   9
BRANCH   4  11
ATOM     11  O   UNL     1     -45.726 -52.567   7.483  1.00  0.00    -0.502 OA
ATOM     12  H   UNL     1     -45.114 -53.240   7.039  1.00  0.00     0.293 HD
ENDBRANCH   4  11
TORSDOF 3
ENDMDL
MODEL 9
REMARK VINA RESULT:    -3.780      4.867      6.163
REMARK INTER + INTRA:          -4.111
REMARK INTER:                  -4.111
REMARK INTRA:                   0.000
REMARK UNBOUND:                 0.000
REMARK SMILES Oc1cccc(O)c1O
REMARK SMILES IDX 4 1 5 2 6 3 8 4 2 5 3 6 7 7 1 9 9 11
REMARK H PARENT 7 8 1 10 9 12
REMARK Flexibility Score: inf
ROOT
ATOM      1  C   UNL     1     -45.860 -48.584   7.522  1.00  0.00     0.008 A 
ATOM      2  C   UNL     1     -46.573 -47.783   6.626  1.00  0.00     0.050 A 
ATOM      3  C   UNL     1     -46.540 -48.060   5.252  1.00  0.00     0.161 A 
ATOM      4  C   UNL     1     -45.785 -49.147   4.775  1.00  0.00     0.200 A 
ATOM      5  C   UNL     1     -45.067 -49.950   5.681  1.00  0.00     0.161 A 
ATOM      6  C   UNL     1     -45.110 -49.663   7.051  1.00  0.00     0.050 A 
ENDROOT
BRANCH   3   7
ATOM      7  O   UNL     1     -47.253 -47.259   4.360  1.00  0.00    -0.504 OA
ATOM      8  H   UNL     1     -47.965 -46.614   4.681  1.00  0.00     0.293 HD
ENDBRANCH   3   7
BRANCH   5   9
ATOM      9  O   UNL     1     -44.311 -51.035   5.241  1.00  0.00    -0.504 OA
ATOM     10  H   UNL     1     -44.735 -51.912   4.966  1.00  0.00     0.293 HD
ENDBRANCH   5   9
BRANCH   4  11
ATOM     11  O   UNL     1     -45.739 -49.438   3.411  1.00  0.00    -0.502 OA
ATOM     12  H   UNL     1     -45.933 -48.740   2.703  1.00  0.00     0.293 HD
ENDBRANCH   4  11
TORSDOF 3
ENDMDL
