MODEL 1
REMARK VINA RESULT:    -8.000      0.000      0.000
REMARK INTER + INTRA:         -10.021
REMARK INTER:                  -9.871
REMARK INTRA:                  -0.150
REMARK UNBOUND:                -0.150
REMARK SMILES O=c1c(O)c(-c2cc(O)c(O)c(O)c2)oc2cc(O)cc(O)c12
REMARK SMILES IDX 5 1 3 2 2 3 1 4 23 5 21 6 20 7 18 8 17 9 16 10 15 11 6 12
REMARK SMILES IDX 7 13 8 14 14 15 10 16 12 17 9 18 11 20 13 22 4 24 22 26
REMARK SMILES IDX 19 28
REMARK H PARENT 9 19 11 21 13 23 4 25 22 27 19 29
REMARK Flexibility Score: inf
ROOT
ATOM      1  C   UNL     1       4.992  -6.941   6.781  1.00  0.00     0.180 A 
ATOM      2  C   UNL     1       5.133  -6.591   8.138  1.00  0.00     0.208 A 
ATOM      3  C   UNL     1       6.416  -6.580   8.706  1.00  0.00     0.238 A 
ATOM      4  O   UNL     1       6.557  -6.258   9.917  1.00  0.00    -0.285 OA
ATOM      5  C   UNL     1       7.530  -6.937   7.918  1.00  0.00     0.111 A 
ATOM      6  C   UNL     1       8.856  -6.956   8.414  1.00  0.00     0.134 A 
ATOM      7  C   UNL     1       9.910  -7.332   7.568  1.00  0.00     0.093 A 
ATOM      8  C   UNL     1       9.663  -7.690   6.238  1.00  0.00     0.123 A 
ATOM      9  C   UNL     1       8.357  -7.673   5.744  1.00  0.00     0.094 A 
ATOM     10  C   UNL     1       7.294  -7.299   6.570  1.00  0.00     0.146 A 
ATOM     11  O   UNL     1       6.063  -7.286   6.074  1.00  0.00    -0.452 OA
ENDROOT
BRANCH   1  12
ATOM     12  C   UNL     1       3.673  -6.957   6.107  1.00  0.00     0.029 A 
ATOM     13  C   UNL     1       2.681  -7.843   6.554  1.00  0.00     0.062 A 
ATOM     14  C   UNL     1       1.434  -7.895   5.923  1.00  0.00     0.162 A 
ATOM     15  C   UNL     1       3.413  -6.146   4.991  1.00  0.00     0.062 A 
ATOM     16  C   UNL     1       1.170  -7.066   4.820  1.00  0.00     0.200 A 
ATOM     17  C   UNL     1       2.166  -6.192   4.351  1.00  0.00     0.162 A 
BRANCH  14  18
ATOM     18  O   UNL     1       0.469  -8.779   6.407  1.00  0.00    -0.504 OA
ATOM     19  H   UNL     1      -0.508  -8.523   6.479  1.00  0.00     0.293 HD
ENDBRANCH  14  18
BRANCH  16  20
ATOM     20  O   UNL     1      -0.079  -7.122   4.198  1.00  0.00    -0.502 OA
ATOM     21  H   UNL     1      -0.315  -7.842   3.527  1.00  0.00     0.293 HD
ENDBRANCH  16  20
BRANCH  17  22
ATOM     22  O   UNL     1       1.916  -5.376   3.248  1.00  0.00    -0.504 OA
ATOM     23  H   UNL     1       2.654  -5.108   2.607  1.00  0.00     0.293 HD
ENDBRANCH  17  22
ENDBRANCH   1  12
BRANCH   2  24
ATOM     24  O   UNL     1       4.009  -6.289   8.910  1.00  0.00    -0.502 OA
ATOM     25  H   UNL     1       3.295  -5.640   8.600  1.00  0.00     0.293 HD
ENDBRANCH   2  24
BRANCH   6  26
ATOM     26  O   UNL     1       9.133  -6.605   9.736  1.00  0.00    -0.507 OA
ATOM     27  H   UNL     1       8.564  -5.933  10.239  1.00  0.00     0.293 HD
ENDBRANCH   6  26
BRANCH   8  28
ATOM     28  O   UNL     1      10.709  -8.065   5.398  1.00  0.00    -0.508 OA
ATOM     29  H   UNL     1      11.044  -7.454   4.662  1.00  0.00     0.293 HD
ENDBRANCH   8  28
TORSDOF 7
ENDMDL
MODEL 2
REMARK VINA RESULT:    -7.968      8.188     13.198
REMARK INTER + INTRA:          -9.981
REMARK INTER:                  -9.647
REMARK INTRA:                  -0.334
REMARK UNBOUND:                -0.150
REMARK SMILES O=c1c(O)c(-c2cc(O)c(O)c(O)c2)oc2cc(O)cc(O)c12
REMARK SMILES IDX 5 1 3 2 2 3 1 4 23 5 21 6 20 7 18 8 17 9 16 10 15 11 6 12
REMARK SMILES IDX 7 13 8 14 14 15 10 16 12 17 9 18 11 20 13 22 4 24 22 26
REMARK SMILES IDX 19 28
REMARK H PARENT 9 19 11 21 13 23 4 25 22 27 19 29
REMARK Flexibility Score: inf
ROOT
ATOM      1  C   UNL     1      12.029  -4.387  15.044  1.00  0.00     0.180 A 
ATOM      2  C   UNL     1      11.876  -5.169  13.883  1.00  0.00     0.208 A 
ATOM      3  C   UNL     1      10.672  -5.092  13.166  1.00  0.00     0.238 A 
ATOM      4  O   UNL     1      10.527  -5.779  12.119  1.00  0.00    -0.285 OA
ATOM      5  C   UNL     1       9.637  -4.253  13.631  1.00  0.00     0.111 A 
ATOM      6  C   UNL     1       8.391  -4.121  12.970  1.00  0.00     0.134 A 
ATOM      7  C   UNL     1       7.408  -3.273  13.501  1.00  0.00     0.093 A 
ATOM      8  C   UNL     1       7.647  -2.557  14.680  1.00  0.00     0.123 A 
ATOM      9  C   UNL     1       8.873  -2.684  15.335  1.00  0.00     0.094 A 
ATOM     10  C   UNL     1       9.866  -3.522  14.820  1.00  0.00     0.146 A 
ATOM     11  O   UNL     1      11.025  -3.620  15.460  1.00  0.00    -0.452 OA
ENDROOT
BRANCH   1  12
ATOM     12  C   UNL     1      13.276  -4.401  15.842  1.00  0.00     0.029 A 
ATOM     13  C   UNL     1      13.482  -5.423  16.781  1.00  0.00     0.062 A 
ATOM     14  C   UNL     1      14.641  -5.450  17.564  1.00  0.00     0.162 A 
ATOM     15  C   UNL     1      14.232  -3.379  15.723  1.00  0.00     0.062 A 
ATOM     16  C   UNL     1      15.605  -4.437  17.426  1.00  0.00     0.200 A 
ATOM     17  C   UNL     1      15.396  -3.397  16.504  1.00  0.00     0.162 A 
BRANCH  14  18
ATOM     18  O   UNL     1      14.816  -6.490  18.476  1.00  0.00    -0.504 OA
ATOM     19  H   UNL     1      15.187  -6.337  19.405  1.00  0.00     0.293 HD
ENDBRANCH  14  18
BRANCH  16  20
ATOM     20  O   UNL     1      16.760  -4.473  18.209  1.00  0.00    -0.502 OA
ATOM     21  H   UNL     1      17.667  -4.706  17.822  1.00  0.00     0.293 HD
ENDBRANCH  16  20
BRANCH  17  22
ATOM     22  O   UNL     1      16.342  -2.381  16.371  1.00  0.00    -0.504 OA
ATOM     23  H   UNL     1      17.335  -2.566  16.451  1.00  0.00     0.293 HD
ENDBRANCH  17  22
ENDBRANCH   1  12
BRANCH   2  24
ATOM     24  O   UNL     1      12.897  -6.028  13.471  1.00  0.00    -0.502 OA
ATOM     25  H   UNL     1      13.414  -5.885  12.611  1.00  0.00     0.293 HD
ENDBRANCH   2  24
BRANCH   6  26
ATOM     26  O   UNL     1       8.125  -4.824  11.794  1.00  0.00    -0.507 OA
ATOM     27  H   UNL     1       7.235  -5.284  11.639  1.00  0.00     0.293 HD
ENDBRANCH   6  26
BRANCH   8  28
ATOM     28  O   UNL     1       6.671  -1.716  15.209  1.00  0.00    -0.508 OA
ATOM     29  H   UNL     1       6.276  -0.955  14.667  1.00  0.00     0.293 HD
ENDBRANCH   8  28
TORSDOF 7
ENDMDL
MODEL 3
REMARK VINA RESULT:    -7.878      3.642      5.801
REMARK INTER + INTRA:          -9.870
REMARK INTER:                  -9.516
REMARK INTRA:                  -0.354
REMARK UNBOUND:                -0.150
REMARK SMILES O=c1c(O)c(-c2cc(O)c(O)c(O)c2)oc2cc(O)cc(O)c12
REMARK SMILES IDX 5 1 3 2 2 3 1 4 23 5 21 6 20 7 18 8 17 9 16 10 15 11 6 12
REMARK SMILES IDX 7 13 8 14 14 15 10 16 12 17 9 18 11 20 13 22 4 24 22 26
REMARK SMILES IDX 19 28
REMARK H PARENT 9 19 11 21 13 23 4 25 22 27 19 29
REMARK Flexibility Score: inf
ROOT
ATOM      1  C   UNL     1       9.091  -5.445   9.507  1.00  0.00     0.180 A 
ATOM      2  C   UNL     1       9.542  -5.397  10.840  1.00  0.00     0.208 A 
ATOM      3  C   UNL     1      10.652  -4.597  11.154  1.00  0.00     0.238 A 
ATOM      4  O   UNL     1      11.058  -4.538  12.346  1.00  0.00    -0.285 OA
ATOM      5  C   UNL     1      11.302  -3.876  10.130  1.00  0.00     0.111 A 
ATOM      6  C   UNL     1      12.429  -3.050  10.360  1.00  0.00     0.134 A 
ATOM      7  C   UNL     1      13.025  -2.373   9.287  1.00  0.00     0.093 A 
ATOM      8  C   UNL     1      12.517  -2.506   7.989  1.00  0.00     0.123 A 
ATOM      9  C   UNL     1      11.407  -3.320   7.758  1.00  0.00     0.094 A 
ATOM     10  C   UNL     1      10.797  -4.002   8.814  1.00  0.00     0.146 A 
ATOM     11  O   UNL     1       9.739  -4.764   8.567  1.00  0.00    -0.452 OA
ENDROOT
BRANCH   1  12
ATOM     12  C   UNL     1       7.917  -6.251   9.103  1.00  0.00     0.029 A 
ATOM     13  C   UNL     1       6.630  -5.706   9.230  1.00  0.00     0.062 A 
ATOM     14  C   UNL     1       5.501  -6.452   8.876  1.00  0.00     0.162 A 
ATOM     15  C   UNL     1       8.058  -7.573   8.651  1.00  0.00     0.062 A 
ATOM     16  C   UNL     1       5.648  -7.767   8.403  1.00  0.00     0.200 A 
ATOM     17  C   UNL     1       6.932  -8.329   8.295  1.00  0.00     0.162 A 
BRANCH  14  18
ATOM     18  O   UNL     1       4.240  -5.870   9.002  1.00  0.00    -0.504 OA
ATOM     19  H   UNL     1       3.753  -5.462   8.213  1.00  0.00     0.293 HD
ENDBRANCH  14  18
BRANCH  16  20
ATOM     20  O   UNL     1       4.516  -8.503   8.049  1.00  0.00    -0.502 OA
ATOM     21  H   UNL     1       3.812  -8.769   8.727  1.00  0.00     0.293 HD
ENDBRANCH  16  20
BRANCH  17  22
ATOM     22  O   UNL     1       7.084  -9.639   7.840  1.00  0.00    -0.504 OA
ATOM     23  H   UNL     1       7.948  -9.956   7.415  1.00  0.00     0.293 HD
ENDBRANCH  17  22
ENDBRANCH   1  12
BRANCH   2  24
ATOM     24  O   UNL     1       8.911  -6.159  11.827  1.00  0.00    -0.502 OA
ATOM     25  H   UNL     1       8.632  -7.121  11.675  1.00  0.00     0.293 HD
ENDBRANCH   2  24
BRANCH   6  26
ATOM     26  O   UNL     1      12.957  -2.898  11.643  1.00  0.00    -0.507 OA
ATOM     27  H   UNL     1      13.350  -2.018  11.956  1.00  0.00     0.293 HD
ENDBRANCH   6  26
BRANCH   8  28
ATOM     28  O   UNL     1      13.110  -1.835   6.922  1.00  0.00    -0.508 OA
ATOM     29  H   UNL     1      12.787  -0.921   6.625  1.00  0.00     0.293 HD
ENDBRANCH   8  28
TORSDOF 7
ENDMDL
MODEL 4
REMARK VINA RESULT:    -7.875      7.756     12.369
REMARK INTER + INTRA:          -9.866
REMARK INTER:                  -9.635
REMARK INTRA:                  -0.232
REMARK UNBOUND:                -0.150
REMARK SMILES O=c1c(O)c(-c2cc(O)c(O)c(O)c2)oc2cc(O)cc(O)c12
REMARK SMILES IDX 5 1 3 2 2 3 1 4 23 5 21 6 20 7 18 8 17 9 16 10 15 11 6 12
REMARK SMILES IDX 7 13 8 14 14 15 10 16 12 17 9 18 11 20 13 22 4 24 22 26
REMARK SMILES IDX 19 28
REMARK H PARENT 9 19 11 21 13 23 4 25 22 27 19 29
REMARK Flexibility Score: inf
ROOT
ATOM      1  C   UNL     1      12.581  -3.551  13.720  1.00  0.00     0.180 A 
ATOM      2  C   UNL     1      11.859  -4.755  13.608  1.00  0.00     0.208 A 
ATOM      3  C   UNL     1      11.385  -5.147  12.346  1.00  0.00     0.238 A 
ATOM      4  O   UNL     1      10.747  -6.229  12.232  1.00  0.00    -0.285 OA
ATOM      5  C   UNL     1      11.621  -4.324  11.226  1.00  0.00     0.111 A 
ATOM      6  C   UNL     1      11.174  -4.644   9.921  1.00  0.00     0.134 A 
ATOM      7  C   UNL     1      11.441  -3.767   8.860  1.00  0.00     0.093 A 
ATOM      8  C   UNL     1      12.146  -2.577   9.079  1.00  0.00     0.123 A 
ATOM      9  C   UNL     1      12.588  -2.257  10.363  1.00  0.00     0.094 A 
ATOM     10  C   UNL     1      12.334  -3.119  11.434  1.00  0.00     0.146 A 
ATOM     11  O   UNL     1      12.771  -2.793  12.644  1.00  0.00    -0.452 OA
ENDROOT
BRANCH   1  12
ATOM     12  C   UNL     1      13.128  -3.081  15.013  1.00  0.00     0.029 A 
ATOM     13  C   UNL     1      12.250  -2.636  16.013  1.00  0.00     0.062 A 
ATOM     14  C   UNL     1      12.739  -2.167  17.236  1.00  0.00     0.162 A 
ATOM     15  C   UNL     1      14.512  -3.013  15.240  1.00  0.00     0.062 A 
ATOM     16  C   UNL     1      14.124  -2.121  17.467  1.00  0.00     0.200 A 
ATOM     17  C   UNL     1      15.012  -2.542  16.462  1.00  0.00     0.162 A 
BRANCH  14  18
ATOM     18  O   UNL     1      11.833  -1.749  18.210  1.00  0.00    -0.504 OA
ATOM     19  H   UNL     1      11.879  -0.828  18.629  1.00  0.00     0.293 HD
ENDBRANCH  14  18
BRANCH  16  20
ATOM     20  O   UNL     1      14.604  -1.654  18.691  1.00  0.00    -0.502 OA
ATOM     21  H   UNL     1      15.226  -2.203  19.272  1.00  0.00     0.293 HD
ENDBRANCH  16  20
BRANCH  17  22
ATOM     22  O   UNL     1      16.389  -2.486  16.679  1.00  0.00    -0.504 OA
ATOM     23  H   UNL     1      16.775  -2.286  17.594  1.00  0.00     0.293 HD
ENDBRANCH  17  22
ENDBRANCH   1  12
BRANCH   2  24
ATOM     24  O   UNL     1      11.596  -5.529  14.741  1.00  0.00    -0.502 OA
ATOM     25  H   UNL     1      11.462  -6.532  14.695  1.00  0.00     0.293 HD
ENDBRANCH   2  24
BRANCH   6  26
ATOM     26  O   UNL     1      10.470  -5.822   9.673  1.00  0.00    -0.507 OA
ATOM     27  H   UNL     1      10.466  -6.590  10.335  1.00  0.00     0.293 HD
ENDBRANCH   6  26
BRANCH   8  28
ATOM     28  O   UNL     1      12.410  -1.705   8.025  1.00  0.00    -0.508 OA
ATOM     29  H   UNL     1      12.118  -1.915   7.077  1.00  0.00     0.293 HD
ENDBRANCH   8  28
TORSDOF 7
ENDMDL
MODEL 5
REMARK VINA RESULT:    -7.873      9.126     11.693
REMARK INTER + INTRA:          -9.864
REMARK INTER:                  -9.508
REMARK INTRA:                  -0.357
REMARK UNBOUND:                -0.150
REMARK SMILES O=c1c(O)c(-c2cc(O)c(O)c(O)c2)oc2cc(O)cc(O)c12
REMARK SMILES IDX 5 1 3 2 2 3 1 4 23 5 21 6 20 7 18 8 17 9 16 10 15 11 6 12
REMARK SMILES IDX 7 13 8 14 14 15 10 16 12 17 9 18 11 20 13 22 4 24 22 26
REMARK SMILES IDX 19 28
REMARK H PARENT 9 19 11 21 13 23 4 25 22 27 19 29
REMARK Flexibility Score: inf
ROOT
ATOM      1  C   UNL     1      11.773  -4.314  13.873  1.00  0.00     0.180 A 
ATOM      2  C   UNL     1      11.594  -4.982  12.646  1.00  0.00     0.208 A 
ATOM      3  C   UNL     1      11.881  -4.300  11.454  1.00  0.00     0.238 A 
ATOM      4  O   UNL     1      11.734  -4.890  10.349  1.00  0.00    -0.285 OA
ATOM      5  C   UNL     1      12.321  -2.960  11.506  1.00  0.00     0.111 A 
ATOM      6  C   UNL     1      12.627  -2.200  10.351  1.00  0.00     0.134 A 
ATOM      7  C   UNL     1      13.050  -0.870  10.486  1.00  0.00     0.093 A 
ATOM      8  C   UNL     1      13.172  -0.286  11.752  1.00  0.00     0.123 A 
ATOM      9  C   UNL     1      12.871  -1.032  12.893  1.00  0.00     0.094 A 
ATOM     10  C   UNL     1      12.450  -2.359  12.780  1.00  0.00     0.146 A 
ATOM     11  O   UNL     1      12.175  -3.047  13.882  1.00  0.00    -0.452 OA
ENDROOT
BRANCH   1  12
ATOM     12  C   UNL     1      11.510  -4.973  15.172  1.00  0.00     0.029 A 
ATOM     13  C   UNL     1      10.302  -4.721  15.841  1.00  0.00     0.062 A 
ATOM     14  C   UNL     1      10.035  -5.313  17.080  1.00  0.00     0.162 A 
ATOM     15  C   UNL     1      12.467  -5.801  15.780  1.00  0.00     0.062 A 
ATOM     16  C   UNL     1      10.987  -6.158  17.675  1.00  0.00     0.200 A 
ATOM     17  C   UNL     1      12.209  -6.398  17.022  1.00  0.00     0.162 A 
BRANCH  14  18
ATOM     18  O   UNL     1       8.817  -5.048  17.705  1.00  0.00    -0.504 OA
ATOM     19  H   UNL     1       8.734  -4.963  18.711  1.00  0.00     0.293 HD
ENDBRANCH  14  18
BRANCH  16  20
ATOM     20  O   UNL     1      10.711  -6.747  18.909  1.00  0.00    -0.502 OA
ATOM     21  H   UNL     1      11.411  -6.829  19.636  1.00  0.00     0.293 HD
ENDBRANCH  16  20
BRANCH  17  22
ATOM     22  O   UNL     1      13.165  -7.224  17.613  1.00  0.00    -0.504 OA
ATOM     23  H   UNL     1      13.112  -8.233  17.541  1.00  0.00     0.293 HD
ENDBRANCH  17  22
ENDBRANCH   1  12
BRANCH   2  24
ATOM     24  O   UNL     1      11.110  -6.292  12.619  1.00  0.00    -0.502 OA
ATOM     25  H   UNL     1      10.796  -6.772  13.454  1.00  0.00     0.293 HD
ENDBRANCH   2  24
BRANCH   6  26
ATOM     26  O   UNL     1      12.515  -2.756   9.076  1.00  0.00    -0.507 OA
ATOM     27  H   UNL     1      11.838  -2.413   8.404  1.00  0.00     0.293 HD
ENDBRANCH   6  26
BRANCH   8  28
ATOM     28  O   UNL     1      13.591   1.036  11.887  1.00  0.00    -0.508 OA
ATOM     29  H   UNL     1      13.215   1.773  11.302  1.00  0.00     0.293 HD
ENDBRANCH   8  28
TORSDOF 7
ENDMDL
MODEL 6
REMARK VINA RESULT:    -7.761      1.698      6.956
REMARK INTER + INTRA:          -9.727
REMARK INTER:                  -9.365
REMARK INTRA:                  -0.362
REMARK UNBOUND:                -0.150
REMARK SMILES O=c1c(O)c(-c2cc(O)c(O)c(O)c2)oc2cc(O)cc(O)c12
REMARK SMILES IDX 5 1 3 2 2 3 1 4 23 5 21 6 20 7 18 8 17 9 16 10 15 11 6 12
REMARK SMILES IDX 7 13 8 14 14 15 10 16 12 17 9 18 11 20 13 22 4 24 22 26
REMARK SMILES IDX 19 28
REMARK H PARENT 9 19 11 21 13 23 4 25 22 27 19 29
REMARK Flexibility Score: inf
ROOT
ATOM      1  C   UNL     1       5.010  -7.123   7.620  1.00  0.00     0.180 A 
ATOM      2  C   UNL     1       4.185  -8.247   7.814  1.00  0.00     0.208 A 
ATOM      3  C   UNL     1       3.113  -8.462   6.934  1.00  0.00     0.238 A 
ATOM      4  O   UNL     1       2.373  -9.471   7.091  1.00  0.00    -0.285 OA
ATOM      5  C   UNL     1       2.871  -7.541   5.892  1.00  0.00     0.111 A 
ATOM      6  C   UNL     1       1.810  -7.682   4.966  1.00  0.00     0.134 A 
ATOM      7  C   UNL     1       1.630  -6.718   3.963  1.00  0.00     0.093 A 
ATOM      8  C   UNL     1       2.490  -5.617   3.870  1.00  0.00     0.123 A 
ATOM      9  C   UNL     1       3.538  -5.475   4.781  1.00  0.00     0.094 A 
ATOM     10  C   UNL     1       3.735  -6.426   5.787  1.00  0.00     0.146 A 
ATOM     11  O   UNL     1       4.743  -6.269   6.636  1.00  0.00    -0.452 OA
ENDROOT
BRANCH   1  12
ATOM     12  C   UNL     1       6.171  -6.840   8.495  1.00  0.00     0.029 A 
ATOM     13  C   UNL     1       6.039  -5.910   9.537  1.00  0.00     0.062 A 
ATOM     14  C   UNL     1       7.124  -5.608  10.367  1.00  0.00     0.162 A 
ATOM     15  C   UNL     1       7.421  -7.438   8.267  1.00  0.00     0.062 A 
ATOM     16  C   UNL     1       8.367  -6.225  10.149  1.00  0.00     0.200 A 
ATOM     17  C   UNL     1       8.515  -7.140   9.092  1.00  0.00     0.162 A 
BRANCH  14  18
ATOM     18  O   UNL     1       6.948  -4.690  11.401  1.00  0.00    -0.504 OA
ATOM     19  H   UNL     1       6.060  -4.233  11.571  1.00  0.00     0.293 HD
ENDBRANCH  14  18
BRANCH  16  20
ATOM     20  O   UNL     1       9.444  -5.920  10.983  1.00  0.00    -0.502 OA
ATOM     21  H   UNL     1       9.983  -5.069  10.877  1.00  0.00     0.293 HD
ENDBRANCH  16  20
BRANCH  17  22
ATOM     22  O   UNL     1       9.750  -7.746   8.861  1.00  0.00    -0.504 OA
ATOM     23  H   UNL     1      10.393  -7.948   9.619  1.00  0.00     0.293 HD
ENDBRANCH  17  22
ENDBRANCH   1  12
BRANCH   2  24
ATOM     24  O   UNL     1       4.416  -9.117   8.882  1.00  0.00    -0.502 OA
ATOM     25  H   UNL     1       5.006  -9.936   8.799  1.00  0.00     0.293 HD
ENDBRANCH   2  24
BRANCH   6  26
ATOM     26  O   UNL     1       0.936  -8.768   5.035  1.00  0.00    -0.507 OA
ATOM     27  H   UNL     1       1.274  -9.723   5.051  1.00  0.00     0.293 HD
ENDBRANCH   6  26
BRANCH   8  28
ATOM     28  O   UNL     1       2.311  -4.659   2.875  1.00  0.00    -0.508 OA
ATOM     29  H   UNL     1       2.161  -3.683   3.100  1.00  0.00     0.293 HD
ENDBRANCH   8  28
TORSDOF 7
ENDMDL
MODEL 7
REMARK VINA RESULT:    -7.760     11.342     14.964
REMARK INTER + INTRA:          -9.725
REMARK INTER:                  -9.365
REMARK INTRA:                  -0.360
REMARK UNBOUND:                -0.150
REMARK SMILES O=c1c(O)c(-c2cc(O)c(O)c(O)c2)oc2cc(O)cc(O)c12
REMARK SMILES IDX 5 1 3 2 2 3 1 4 23 5 21 6 20 7 18 8 17 9 16 10 15 11 6 12
REMARK SMILES IDX 7 13 8 14 14 15 10 16 12 17 9 18 11 20 13 22 4 24 22 26
REMARK SMILES IDX 19 28
REMARK H PARENT 9 19 11 21 13 23 4 25 22 27 19 29
REMARK Flexibility Score: inf
ROOT
ATOM      1  C   UNL     1      13.815  -3.836  16.248  1.00  0.00     0.180 A 
ATOM      2  C   UNL     1      13.633  -2.860  15.250  1.00  0.00     0.208 A 
ATOM      3  C   UNL     1      12.335  -2.406  14.972  1.00  0.00     0.238 A 
ATOM      4  O   UNL     1      12.161  -1.524  14.087  1.00  0.00    -0.285 OA
ATOM      5  C   UNL     1      11.241  -2.947  15.679  1.00  0.00     0.111 A 
ATOM      6  C   UNL     1       9.901  -2.548  15.457  1.00  0.00     0.134 A 
ATOM      7  C   UNL     1       8.867  -3.142  16.195  1.00  0.00     0.093 A 
ATOM      8  C   UNL     1       9.147  -4.127  17.150  1.00  0.00     0.123 A 
ATOM      9  C   UNL     1      10.467  -4.523  17.372  1.00  0.00     0.094 A 
ATOM     10  C   UNL     1      11.512  -3.943  16.648  1.00  0.00     0.146 A 
ATOM     11  O   UNL     1      12.758  -4.334  16.883  1.00  0.00    -0.452 OA
ENDROOT
BRANCH   1  12
ATOM     12  C   UNL     1      15.155  -4.351  16.610  1.00  0.00     0.029 A 
ATOM     13  C   UNL     1      15.680  -5.453  15.919  1.00  0.00     0.062 A 
ATOM     14  C   UNL     1      16.935  -5.974  16.254  1.00  0.00     0.162 A 
ATOM     15  C   UNL     1      15.889  -3.796  17.671  1.00  0.00     0.062 A 
ATOM     16  C   UNL     1      17.675  -5.403  17.302  1.00  0.00     0.200 A 
ATOM     17  C   UNL     1      17.146  -4.312  18.015  1.00  0.00     0.162 A 
BRANCH  14  18
ATOM     18  O   UNL     1      17.428  -7.061  15.533  1.00  0.00    -0.504 OA
ATOM     19  H   UNL     1      16.823  -7.674  15.001  1.00  0.00     0.293 HD
ENDBRANCH  14  18
BRANCH  16  20
ATOM     20  O   UNL     1      18.927  -5.926  17.627  1.00  0.00    -0.502 OA
ATOM     21  H   UNL     1      19.562  -6.282  16.923  1.00  0.00     0.293 HD
ENDBRANCH  16  20
BRANCH  17  22
ATOM     22  O   UNL     1      17.870  -3.749  19.066  1.00  0.00    -0.504 OA
ATOM     23  H   UNL     1      17.970  -2.745  19.164  1.00  0.00     0.293 HD
ENDBRANCH  17  22
ENDBRANCH   1  12
BRANCH   2  24
ATOM     24  O   UNL     1      14.728  -2.375  14.529  1.00  0.00    -0.502 OA
ATOM     25  H   UNL     1      14.785  -2.439  13.520  1.00  0.00     0.293 HD
ENDBRANCH   2  24
BRANCH   6  26
ATOM     26  O   UNL     1       9.591  -1.570  14.511  1.00  0.00    -0.507 OA
ATOM     27  H   UNL     1       9.801  -1.694  13.528  1.00  0.00     0.293 HD
ENDBRANCH   6  26
BRANCH   8  28
ATOM     28  O   UNL     1       8.120  -4.717  17.882  1.00  0.00    -0.508 OA
ATOM     29  H   UNL     1       7.152  -4.453  17.745  1.00  0.00     0.293 HD
ENDBRANCH   8  28
TORSDOF 7
ENDMDL
MODEL 8
REMARK VINA RESULT:    -7.695      1.634      7.178
REMARK INTER + INTRA:          -9.645
REMARK INTER:                  -9.325
REMARK INTRA:                  -0.319
REMARK UNBOUND:                -0.150
REMARK SMILES O=c1c(O)c(-c2cc(O)c(O)c(O)c2)oc2cc(O)cc(O)c12
REMARK SMILES IDX 5 1 3 2 2 3 1 4 23 5 21 6 20 7 18 8 17 9 16 10 15 11 6 12
REMARK SMILES IDX 7 13 8 14 14 15 10 16 12 17 9 18 11 20 13 22 4 24 22 26
REMARK SMILES IDX 19 28
REMARK H PARENT 9 19 11 21 13 23 4 25 22 27 19 29
REMARK Flexibility Score: inf
ROOT
ATOM      1  C   UNL     1       4.628  -7.315   7.467  1.00  0.00     0.180 A 
ATOM      2  C   UNL     1       4.079  -6.351   6.600  1.00  0.00     0.208 A 
ATOM      3  C   UNL     1       2.850  -6.619   5.978  1.00  0.00     0.238 A 
ATOM      4  O   UNL     1       2.342  -5.759   5.208  1.00  0.00    -0.285 OA
ATOM      5  C   UNL     1       2.202  -7.850   6.216  1.00  0.00     0.111 A 
ATOM      6  C   UNL     1       0.964  -8.200   5.625  1.00  0.00     0.134 A 
ATOM      7  C   UNL     1       0.388  -9.449   5.904  1.00  0.00     0.093 A 
ATOM      8  C   UNL     1       1.028 -10.352   6.762  1.00  0.00     0.123 A 
ATOM      9  C   UNL     1       2.249 -10.011   7.346  1.00  0.00     0.094 A 
ATOM     10  C   UNL     1       2.838  -8.771   7.082  1.00  0.00     0.146 A 
ATOM     11  O   UNL     1       3.996  -8.470   7.655  1.00  0.00    -0.452 OA
ENDROOT
BRANCH   1  12
ATOM     12  C   UNL     1       5.911  -7.097   8.174  1.00  0.00     0.029 A 
ATOM     13  C   UNL     1       5.941  -6.270   9.307  1.00  0.00     0.062 A 
ATOM     14  C   UNL     1       7.142  -6.028   9.983  1.00  0.00     0.162 A 
ATOM     15  C   UNL     1       7.110  -7.652   7.701  1.00  0.00     0.062 A 
ATOM     16  C   UNL     1       8.337  -6.603   9.519  1.00  0.00     0.200 A 
ATOM     17  C   UNL     1       8.319  -7.415   8.370  1.00  0.00     0.162 A 
BRANCH  14  18
ATOM     18  O   UNL     1       7.128  -5.213  11.114  1.00  0.00    -0.504 OA
ATOM     19  H   UNL     1       6.268  -4.842  11.501  1.00  0.00     0.293 HD
ENDBRANCH  14  18
BRANCH  16  20
ATOM     20  O   UNL     1       9.530  -6.360  10.200  1.00  0.00    -0.502 OA
ATOM     21  H   UNL     1       9.901  -5.426  10.321  1.00  0.00     0.293 HD
ENDBRANCH  16  20
BRANCH  17  22
ATOM     22  O   UNL     1       9.504  -7.977   7.895  1.00  0.00    -0.504 OA
ATOM     23  H   UNL     1       9.508  -8.853   7.385  1.00  0.00     0.293 HD
ENDBRANCH  17  22
ENDBRANCH   1  12
BRANCH   2  24
ATOM     24  O   UNL     1       4.763  -5.161   6.343  1.00  0.00    -0.502 OA
ATOM     25  H   UNL     1       5.768  -5.079   6.444  1.00  0.00     0.293 HD
ENDBRANCH   2  24
BRANCH   6  26
ATOM     26  O   UNL     1       0.304  -7.320   4.767  1.00  0.00    -0.507 OA
ATOM     27  H   UNL     1      -0.618  -7.526   4.399  1.00  0.00     0.293 HD
ENDBRANCH   6  26
BRANCH   8  28
ATOM     28  O   UNL     1       0.458 -11.593   7.038  1.00  0.00    -0.508 OA
ATOM     29  H   UNL     1      -0.322 -11.687   7.679  1.00  0.00     0.293 HD
ENDBRANCH   8  28
TORSDOF 7
ENDMDL
MODEL 9
REMARK VINA RESULT:    -7.654      5.193      8.004
REMARK INTER + INTRA:          -9.594
REMARK INTER:                  -9.237
REMARK INTRA:                  -0.357
REMARK UNBOUND:                -0.150
REMARK SMILES O=c1c(O)c(-c2cc(O)c(O)c(O)c2)oc2cc(O)cc(O)c12
REMARK SMILES IDX 5 1 3 2 2 3 1 4 23 5 21 6 20 7 18 8 17 9 16 10 15 11 6 12
REMARK SMILES IDX 7 13 8 14 14 15 10 16 12 17 9 18 11 20 13 22 4 24 22 26
REMARK SMILES IDX 19 28
REMARK H PARENT 9 19 11 21 13 23 4 25 22 27 19 29
REMARK Flexibility Score: inf
ROOT
ATOM      1  C   UNL     1      10.413  -4.636  11.073  1.00  0.00     0.180 A 
ATOM      2  C   UNL     1      11.127  -5.147  12.175  1.00  0.00     0.208 A 
ATOM      3  C   UNL     1      12.000  -4.297  12.871  1.00  0.00     0.238 A 
ATOM      4  O   UNL     1      12.636  -4.740  13.866  1.00  0.00    -0.285 OA
ATOM      5  C   UNL     1      12.160  -2.962  12.445  1.00  0.00     0.111 A 
ATOM      6  C   UNL     1      13.023  -2.042  13.089  1.00  0.00     0.134 A 
ATOM      7  C   UNL     1      13.135  -0.733  12.598  1.00  0.00     0.093 A 
ATOM      8  C   UNL     1      12.401  -0.327  11.476  1.00  0.00     0.123 A 
ATOM      9  C   UNL     1      11.550  -1.231  10.839  1.00  0.00     0.094 A 
ATOM     10  C   UNL     1      11.423  -2.539  11.314  1.00  0.00     0.146 A 
ATOM     11  O   UNL     1      10.602  -3.376  10.692  1.00  0.00    -0.452 OA
ENDROOT
BRANCH   1  12
ATOM     12  C   UNL     1       9.461  -5.466  10.301  1.00  0.00     0.029 A 
ATOM     13  C   UNL     1       8.111  -5.502  10.683  1.00  0.00     0.062 A 
ATOM     14  C   UNL     1       7.192  -6.293   9.985  1.00  0.00     0.162 A 
ATOM     15  C   UNL     1       9.889  -6.265   9.228  1.00  0.00     0.062 A 
ATOM     16  C   UNL     1       7.621  -7.074   8.899  1.00  0.00     0.200 A 
ATOM     17  C   UNL     1       8.976  -7.062   8.524  1.00  0.00     0.162 A 
BRANCH  14  18
ATOM     18  O   UNL     1       5.857  -6.290  10.387  1.00  0.00    -0.504 OA
ATOM     19  H   UNL     1       5.106  -6.032   9.759  1.00  0.00     0.293 HD
ENDBRANCH  14  18
BRANCH  16  20
ATOM     20  O   UNL     1       6.698  -7.858   8.206  1.00  0.00    -0.502 OA
ATOM     21  H   UNL     1       6.978  -8.655   7.647  1.00  0.00     0.293 HD
ENDBRANCH  16  20
BRANCH  17  22
ATOM     22  O   UNL     1       9.412  -7.846   7.456  1.00  0.00    -0.504 OA
ATOM     23  H   UNL     1       9.052  -7.712   6.517  1.00  0.00     0.293 HD
ENDBRANCH  17  22
ENDBRANCH   1  12
BRANCH   2  24
ATOM     24  O   UNL     1      10.988  -6.486  12.547  1.00  0.00    -0.502 OA
ATOM     25  H   UNL     1      10.553  -6.766  13.418  1.00  0.00     0.293 HD
ENDBRANCH   2  24
BRANCH   6  26
ATOM     26  O   UNL     1      13.767  -2.418  14.208  1.00  0.00    -0.507 OA
ATOM     27  H   UNL     1      14.073  -3.374  14.347  1.00  0.00     0.293 HD
ENDBRANCH   6  26
BRANCH   8  28
ATOM     28  O   UNL     1      12.513   0.973  10.988  1.00  0.00    -0.508 OA
ATOM     29  H   UNL     1      12.372   1.778  11.587  1.00  0.00     0.293 HD
ENDBRANCH   8  28
TORSDOF 7
ENDMDL
