MODEL 1
REMARK VINA RESULT:    -4.865      0.000      0.000
REMARK INTER + INTRA:          -7.511
REMARK INTER:                  -6.571
REMARK INTRA:                  -0.940
REMARK UNBOUND:                -0.940
REMARK SMILES CC(=O)CCC=C(C)CCC=C(C)C
REMARK SMILES IDX 7 1 6 2 8 3 9 4 10 5 11 6 13 7 12 8 14 9 5 10 4 11 2 12 3 13
REMARK SMILES IDX 1 14
REMARK H PARENT
REMARK Flexibility Score: inf
ROOT
ATOM      1  C   UNL     1     -27.110  20.325 -34.308  1.00  0.00    -0.077 C 
ATOM      2  C   UNL     1     -27.612  19.102 -34.022  1.00  0.00    -0.028 C 
ATOM      3  C   UNL     1     -27.609  21.573 -33.619  1.00  0.00     0.039 C 
ENDROOT
BRANCH   1   4
ATOM      4  C   UNL     1     -26.007  20.444 -35.338  1.00  0.00     0.034 C 
BRANCH   4   5
ATOM      5  C   UNL     1     -24.864  19.468 -35.031  1.00  0.00     0.032 C 
BRANCH   5   6
ATOM      6  C   UNL     1     -23.905  20.048 -34.019  1.00  0.00    -0.028 C 
ATOM      7  C   UNL     1     -24.318  18.172 -32.423  1.00  0.00     0.039 C 
ATOM      8  C   UNL     1     -23.651  19.465 -32.829  1.00  0.00    -0.080 C 
ATOM      9  C   UNL     1     -22.676  20.128 -31.891  1.00  0.00     0.039 C 
ENDBRANCH   5   6
ENDBRANCH   4   5
ENDBRANCH   1   4
BRANCH   2  10
ATOM     10  C   UNL     1     -28.734  18.845 -33.047  1.00  0.00     0.035 C 
BRANCH  10  11
ATOM     11  C   UNL     1     -29.910  18.153 -33.743  1.00  0.00     0.079 C 
BRANCH  11  12
ATOM     12  C   UNL     1     -29.650  16.679 -33.889  1.00  0.00     0.130 C 
ATOM     13  O   UNL     1     -29.978  16.103 -34.916  1.00  0.00    -0.300 OA
ATOM     14  C   UNL     1     -28.969  15.915 -32.794  1.00  0.00     0.087 C 
ENDBRANCH  11  12
ENDBRANCH  10  11
ENDBRANCH   2  10
TORSDOF 6
ENDMDL
MODEL 2
REMARK VINA RESULT:    -4.536     12.308     13.951
REMARK INTER + INTRA:          -7.067
REMARK INTER:                  -5.819
REMARK INTRA:                  -1.248
REMARK UNBOUND:                -0.940
REMARK SMILES CC(=O)CCC=C(C)CCC=C(C)C
REMARK SMILES IDX 7 1 6 2 8 3 9 4 10 5 11 6 13 7 12 8 14 9 5 10 4 11 2 12 3 13
REMARK SMILES IDX 1 14
REMARK H PARENT
REMARK Flexibility Score: inf
ROOT
ATOM      1  C   UNL     1     -16.004  13.962 -30.892  1.00  0.00    -0.077 C 
ATOM      2  C   UNL     1     -16.590  13.649 -29.714  1.00  0.00    -0.028 C 
ATOM      3  C   UNL     1     -16.395  13.282 -32.183  1.00  0.00     0.039 C 
ENDROOT
BRANCH   1   4
ATOM      4  C   UNL     1     -14.937  15.036 -30.920  1.00  0.00     0.034 C 
BRANCH   4   5
ATOM      5  C   UNL     1     -13.579  14.468 -30.489  1.00  0.00     0.032 C 
BRANCH   5   6
ATOM      6  C   UNL     1     -12.697  14.194 -31.684  1.00  0.00    -0.028 C 
ATOM      7  C   UNL     1     -13.065  11.730 -31.500  1.00  0.00     0.039 C 
ATOM      8  C   UNL     1     -12.457  12.951 -32.151  1.00  0.00    -0.080 C 
ATOM      9  C   UNL     1     -11.561  12.789 -33.352  1.00  0.00     0.039 C 
ENDBRANCH   5   6
ENDBRANCH   4   5
ENDBRANCH   1   4
BRANCH   2  10
ATOM     10  C   UNL     1     -17.637  12.577 -29.538  1.00  0.00     0.035 C 
BRANCH  10  11
ATOM     11  C   UNL     1     -17.166  11.518 -28.537  1.00  0.00     0.079 C 
BRANCH  11  12
ATOM     12  C   UNL     1     -15.964  10.785 -29.063  1.00  0.00     0.130 C 
ATOM     13  O   UNL     1     -16.040  10.172 -30.118  1.00  0.00    -0.300 OA
ATOM     14  C   UNL     1     -14.665  10.820 -28.318  1.00  0.00     0.087 C 
ENDBRANCH  11  12
ENDBRANCH  10  11
ENDBRANCH   2  10
TORSDOF 6
ENDMDL
MODEL 3
REMARK VINA RESULT:    -4.490     12.208     14.022
REMARK INTER + INTRA:          -7.005
REMARK INTER:                  -5.780
REMARK INTRA:                  -1.225
REMARK UNBOUND:                -0.940
REMARK SMILES CC(=O)CCC=C(C)CCC=C(C)C
REMARK SMILES IDX 7 1 6 2 8 3 9 4 10 5 11 6 13 7 12 8 14 9 5 10 4 11 2 12 3 13
REMARK SMILES IDX 1 14
REMARK H PARENT
REMARK Flexibility Score: inf
ROOT
ATOM      1  C   UNL     1     -17.819  12.492 -30.123  1.00  0.00    -0.077 C 
ATOM      2  C   UNL     1     -17.403  12.507 -31.410  1.00  0.00    -0.028 C 
ATOM      3  C   UNL     1     -17.382  13.545 -29.131  1.00  0.00     0.039 C 
ENDROOT
BRANCH   1   4
ATOM      4  C   UNL     1     -18.759  11.397 -29.667  1.00  0.00     0.034 C 
BRANCH   4   5
ATOM      5  C   UNL     1     -18.029  10.052 -29.573  1.00  0.00     0.032 C 
BRANCH   5   6
ATOM      6  C   UNL     1     -17.242   9.945 -28.289  1.00  0.00    -0.028 C 
ATOM      7  C   UNL     1     -15.070  10.207 -29.495  1.00  0.00     0.039 C 
ATOM      8  C   UNL     1     -15.895  10.015 -28.244  1.00  0.00    -0.080 C 
ATOM      9  C   UNL     1     -15.208   9.897 -26.908  1.00  0.00     0.039 C 
ENDBRANCH   5   6
ENDBRANCH   4   5
ENDBRANCH   1   4
BRANCH   2  10
ATOM     10  C   UNL     1     -16.440  13.516 -31.985  1.00  0.00     0.035 C 
BRANCH  10  11
ATOM     11  C   UNL     1     -15.048  12.899 -32.160  1.00  0.00     0.079 C 
BRANCH  11  12
ATOM     12  C   UNL     1     -13.990  13.804 -31.594  1.00  0.00     0.130 C 
ATOM     13  O   UNL     1     -12.809  13.525 -31.744  1.00  0.00    -0.300 OA
ATOM     14  C   UNL     1     -14.370  15.058 -30.868  1.00  0.00     0.087 C 
ENDBRANCH  11  12
ENDBRANCH  10  11
ENDBRANCH   2  10
TORSDOF 6
ENDMDL
MODEL 4
REMARK VINA RESULT:    -4.474     12.358     14.599
REMARK INTER + INTRA:          -6.982
REMARK INTER:                  -5.869
REMARK INTRA:                  -1.113
REMARK UNBOUND:                -0.940
REMARK SMILES CC(=O)CCC=C(C)CCC=C(C)C
REMARK SMILES IDX 7 1 6 2 8 3 9 4 10 5 11 6 13 7 12 8 14 9 5 10 4 11 2 12 3 13
REMARK SMILES IDX 1 14
REMARK H PARENT
REMARK Flexibility Score: inf
ROOT
ATOM      1  C   UNL     1     -16.602  13.269 -30.900  1.00  0.00    -0.077 C 
ATOM      2  C   UNL     1     -15.699  14.135 -30.384  1.00  0.00    -0.028 C 
ATOM      3  C   UNL     1     -16.578  12.865 -32.355  1.00  0.00     0.039 C 
ENDROOT
BRANCH   1   4
ATOM      4  C   UNL     1     -17.657  12.679 -29.989  1.00  0.00     0.034 C 
BRANCH   4   5
ATOM      5  C   UNL     1     -17.297  11.242 -29.593  1.00  0.00     0.032 C 
BRANCH   5   6
ATOM      6  C   UNL     1     -16.509  11.211 -28.305  1.00  0.00    -0.028 C 
ATOM      7  C   UNL     1     -14.367  10.799 -29.522  1.00  0.00     0.039 C 
ATOM      8  C   UNL     1     -15.176  11.009 -28.263  1.00  0.00    -0.080 C 
ATOM      9  C   UNL     1     -14.487  10.997 -26.923  1.00  0.00     0.039 C 
ENDBRANCH   5   6
ENDBRANCH   4   5
ENDBRANCH   1   4
BRANCH   2  10
ATOM     10  C   UNL     1     -14.621  14.823 -31.184  1.00  0.00     0.035 C 
BRANCH  10  11
ATOM     11  C   UNL     1     -13.232  14.370 -30.724  1.00  0.00     0.079 C 
BRANCH  11  12
ATOM     12  C   UNL     1     -12.506  13.665 -31.836  1.00  0.00     0.130 C 
ATOM     13  O   UNL     1     -13.104  12.863 -32.539  1.00  0.00    -0.300 OA
ATOM     14  C   UNL     1     -11.061  13.956 -32.106  1.00  0.00     0.087 C 
ENDBRANCH  11  12
ENDBRANCH  10  11
ENDBRANCH   2  10
TORSDOF 6
ENDMDL
MODEL 5
REMARK VINA RESULT:    -4.472     11.704     14.822
REMARK INTER + INTRA:          -6.980
REMARK INTER:                  -5.925
REMARK INTRA:                  -1.055
REMARK UNBOUND:                -0.940
REMARK SMILES CC(=O)CCC=C(C)CCC=C(C)C
REMARK SMILES IDX 7 1 6 2 8 3 9 4 10 5 11 6 13 7 12 8 14 9 5 10 4 11 2 12 3 13
REMARK SMILES IDX 1 14
REMARK H PARENT
REMARK Flexibility Score: inf
ROOT
ATOM      1  C   UNL     1     -14.950  12.031 -31.445  1.00  0.00    -0.077 C 
ATOM      2  C   UNL     1     -14.074  12.805 -30.765  1.00  0.00    -0.028 C 
ATOM      3  C   UNL     1     -15.542  12.465 -32.765  1.00  0.00     0.039 C 
ENDROOT
BRANCH   1   4
ATOM      4  C   UNL     1     -15.338  10.684 -30.873  1.00  0.00     0.034 C 
BRANCH   4   5
ATOM      5  C   UNL     1     -16.179  10.851 -29.602  1.00  0.00     0.032 C 
BRANCH   5   6
ATOM      6  C   UNL     1     -17.628  11.117 -29.935  1.00  0.00    -0.028 C 
ATOM      7  C   UNL     1     -17.496  13.446 -29.041  1.00  0.00     0.039 C 
ATOM      8  C   UNL     1     -18.235  12.295 -29.683  1.00  0.00    -0.080 C 
ATOM      9  C   UNL     1     -19.687  12.456 -30.056  1.00  0.00     0.039 C 
ENDBRANCH   5   6
ENDBRANCH   4   5
ENDBRANCH   1   4
BRANCH   2  10
ATOM     10  C   UNL     1     -13.632  14.180 -31.201  1.00  0.00     0.035 C 
BRANCH  10  11
ATOM     11  C   UNL     1     -12.103  14.264 -31.263  1.00  0.00     0.079 C 
BRANCH  11  12
ATOM     12  C   UNL     1     -11.597  13.778 -32.593  1.00  0.00     0.130 C 
ATOM     13  O   UNL     1     -11.424  14.574 -33.504  1.00  0.00    -0.300 OA
ATOM     14  C   UNL     1     -11.278  12.329 -32.803  1.00  0.00     0.087 C 
ENDBRANCH  11  12
ENDBRANCH  10  11
ENDBRANCH   2  10
TORSDOF 6
ENDMDL
MODEL 6
REMARK VINA RESULT:    -4.457     12.141     13.813
REMARK INTER + INTRA:          -6.961
REMARK INTER:                  -5.698
REMARK INTRA:                  -1.263
REMARK UNBOUND:                -0.940
REMARK SMILES CC(=O)CCC=C(C)CCC=C(C)C
REMARK SMILES IDX 7 1 6 2 8 3 9 4 10 5 11 6 13 7 12 8 14 9 5 10 4 11 2 12 3 13
REMARK SMILES IDX 1 14
REMARK H PARENT
REMARK Flexibility Score: inf
ROOT
ATOM      1  C   UNL     1     -17.295  12.580 -30.586  1.00  0.00    -0.077 C 
ATOM      2  C   UNL     1     -17.668  11.301 -30.350  1.00  0.00    -0.028 C 
ATOM      3  C   UNL     1     -17.018  13.550 -29.462  1.00  0.00     0.039 C 
ENDROOT
BRANCH   1   4
ATOM      4  C   UNL     1     -17.139  13.047 -32.017  1.00  0.00     0.034 C 
BRANCH   4   5
ATOM      5  C   UNL     1     -15.861  12.475 -32.644  1.00  0.00     0.032 C 
BRANCH   5   6
ATOM      6  C   UNL     1     -14.669  13.358 -32.359  1.00  0.00    -0.028 C 
ATOM      7  C   UNL     1     -13.655  11.650 -30.845  1.00  0.00     0.039 C 
ATOM      8  C   UNL     1     -13.661  12.990 -31.541  1.00  0.00    -0.080 C 
ATOM      9  C   UNL     1     -12.518  13.948 -31.326  1.00  0.00     0.039 C 
ENDBRANCH   5   6
ENDBRANCH   4   5
ENDBRANCH   1   4
BRANCH   2  10
ATOM     10  C   UNL     1     -17.896  10.716 -28.979  1.00  0.00     0.035 C 
BRANCH  10  11
ATOM     11  C   UNL     1     -16.692   9.875 -28.541  1.00  0.00     0.079 C 
BRANCH  11  12
ATOM     12  C   UNL     1     -16.109  10.407 -27.261  1.00  0.00     0.130 C 
ATOM     13  O   UNL     1     -16.598  10.080 -26.189  1.00  0.00    -0.300 OA
ATOM     14  C   UNL     1     -14.917  11.314 -27.288  1.00  0.00     0.087 C 
ENDBRANCH  11  12
ENDBRANCH  10  11
ENDBRANCH   2  10
TORSDOF 6
ENDMDL
MODEL 7
REMARK VINA RESULT:    -4.454     11.441     13.908
REMARK INTER + INTRA:          -6.957
REMARK INTER:                  -6.254
REMARK INTRA:                  -0.702
REMARK UNBOUND:                -0.940
REMARK SMILES CC(=O)CCC=C(C)CCC=C(C)C
REMARK SMILES IDX 7 1 6 2 8 3 9 4 10 5 11 6 13 7 12 8 14 9 5 10 4 11 2 12 3 13
REMARK SMILES IDX 1 14
REMARK H PARENT
REMARK Flexibility Score: inf
ROOT
ATOM      1  C   UNL     1     -15.270  13.517 -31.033  1.00  0.00    -0.077 C 
ATOM      2  C   UNL     1     -15.241  12.806 -29.882  1.00  0.00    -0.028 C 
ATOM      3  C   UNL     1     -16.172  13.137 -32.183  1.00  0.00     0.039 C 
ENDROOT
BRANCH   1   4
ATOM      4  C   UNL     1     -14.382  14.736 -31.166  1.00  0.00     0.034 C 
BRANCH   4   5
ATOM      5  C   UNL     1     -12.907  14.363 -30.971  1.00  0.00     0.032 C 
BRANCH   5   6
ATOM      6  C   UNL     1     -12.417  13.468 -32.084  1.00  0.00    -0.028 C 
ATOM      7  C   UNL     1     -10.086  14.341 -31.878  1.00  0.00     0.039 C 
ATOM      8  C   UNL     1     -11.135  13.451 -32.504  1.00  0.00    -0.080 C 
ATOM      9  C   UNL     1     -10.752  12.518 -33.623  1.00  0.00     0.039 C 
ENDBRANCH   5   6
ENDBRANCH   4   5
ENDBRANCH   1   4
BRANCH   2  10
ATOM     10  C   UNL     1     -16.043  11.554 -29.631  1.00  0.00     0.035 C 
BRANCH  10  11
ATOM     11  C   UNL     1     -17.314  11.874 -28.837  1.00  0.00     0.079 C 
BRANCH  11  12
ATOM     12  C   UNL     1     -18.503  11.169 -29.429  1.00  0.00     0.130 C 
ATOM     13  O   UNL     1     -18.843  10.079 -28.991  1.00  0.00    -0.300 OA
ATOM     14  C   UNL     1     -19.291  11.804 -30.534  1.00  0.00     0.087 C 
ENDBRANCH  11  12
ENDBRANCH  10  11
ENDBRANCH   2  10
TORSDOF 6
ENDMDL
MODEL 8
REMARK VINA RESULT:    -4.372     11.361     13.609
REMARK INTER + INTRA:          -6.845
REMARK INTER:                  -5.446
REMARK INTRA:                  -1.398
REMARK UNBOUND:                -0.940
REMARK SMILES CC(=O)CCC=C(C)CCC=C(C)C
REMARK SMILES IDX 7 1 6 2 8 3 9 4 10 5 11 6 13 7 12 8 14 9 5 10 4 11 2 12 3 13
REMARK SMILES IDX 1 14
REMARK H PARENT
REMARK Flexibility Score: inf
ROOT
ATOM      1  C   UNL     1     -14.944  10.681 -29.331  1.00  0.00    -0.077 C 
ATOM      2  C   UNL     1     -16.003  10.299 -30.081  1.00  0.00    -0.028 C 
ATOM      3  C   UNL     1     -15.100  11.112 -27.892  1.00  0.00     0.039 C 
ENDROOT
BRANCH   1   4
ATOM      4  C   UNL     1     -13.562  10.663 -29.949  1.00  0.00     0.034 C 
BRANCH   4   5
ATOM      5  C   UNL     1     -13.511  11.544 -31.203  1.00  0.00     0.032 C 
BRANCH   5   6
ATOM      6  C   UNL     1     -13.592  13.009 -30.847  1.00  0.00    -0.028 C 
ATOM      7  C   UNL     1     -15.708  13.298 -32.142  1.00  0.00     0.039 C 
ATOM      8  C   UNL     1     -14.588  13.815 -31.269  1.00  0.00    -0.080 C 
ATOM      9  C   UNL     1     -14.573  15.263 -30.854  1.00  0.00     0.039 C 
ENDBRANCH   5   6
ENDBRANCH   4   5
ENDBRANCH   1   4
BRANCH   2  10
ATOM     10  C   UNL     1     -17.434  10.304 -29.604  1.00  0.00     0.035 C 
BRANCH  10  11
ATOM     11  C   UNL     1     -18.310  11.157 -30.527  1.00  0.00     0.079 C 
BRANCH  11  12
ATOM     12  C   UNL     1     -18.755  12.413 -29.829  1.00  0.00     0.130 C 
ATOM     13  O   UNL     1     -19.936  12.730 -29.844  1.00  0.00    -0.300 OA
ATOM     14  C   UNL     1     -17.767  13.265 -29.093  1.00  0.00     0.087 C 
ENDBRANCH  11  12
ENDBRANCH  10  11
ENDBRANCH   2  10
TORSDOF 6
ENDMDL
MODEL 9
REMARK VINA RESULT:    -4.313     12.660     15.220
REMARK INTER + INTRA:          -6.766
REMARK INTER:                  -5.865
REMARK INTRA:                  -0.901
REMARK UNBOUND:                -0.940
REMARK SMILES CC(=O)CCC=C(C)CCC=C(C)C
REMARK SMILES IDX 7 1 6 2 8 3 9 4 10 5 11 6 13 7 12 8 14 9 5 10 4 11 2 12 3 13
REMARK SMILES IDX 1 14
REMARK H PARENT
REMARK Flexibility Score: inf
ROOT
ATOM      1  C   UNL     1     -15.157  13.711 -31.683  1.00  0.00    -0.077 C 
ATOM      2  C   UNL     1     -14.265  12.810 -32.154  1.00  0.00    -0.028 C 
ATOM      3  C   UNL     1     -14.726  14.907 -30.868  1.00  0.00     0.039 C 
ENDROOT
BRANCH   1   4
ATOM      4  C   UNL     1     -16.626  13.522 -31.995  1.00  0.00     0.034 C 
BRANCH   4   5
ATOM      5  C   UNL     1     -17.158  12.231 -31.361  1.00  0.00     0.032 C 
BRANCH   5   6
ATOM      6  C   UNL     1     -16.990  12.247 -29.861  1.00  0.00    -0.028 C 
ATOM      7  C   UNL     1     -15.645  10.143 -29.901  1.00  0.00     0.039 C 
ATOM      8  C   UNL     1     -16.303  11.301 -29.187  1.00  0.00    -0.080 C 
ATOM      9  C   UNL     1     -16.195  11.413 -27.688  1.00  0.00     0.039 C 
ENDBRANCH   5   6
ENDBRANCH   4   5
ENDBRANCH   1   4
BRANCH   2  10
ATOM     10  C   UNL     1     -12.781  12.857 -31.889  1.00  0.00     0.035 C 
BRANCH  10  11
ATOM     11  C   UNL     1     -12.034  13.458 -33.084  1.00  0.00     0.079 C 
BRANCH  11  12
ATOM     12  C   UNL     1     -10.547  13.392 -32.872  1.00  0.00     0.130 C 
ATOM     13  O   UNL     1      -9.877  12.597 -33.516  1.00  0.00    -0.300 OA
ATOM     14  C   UNL     1      -9.876  14.309 -31.895  1.00  0.00     0.087 C 
ENDBRANCH  11  12
ENDBRANCH  10  11
ENDBRANCH   2  10
TORSDOF 6
ENDMDL
