MODEL 1
REMARK VINA RESULT:    -3.795      0.000      0.000
REMARK INTER + INTRA:          -4.621
REMARK INTER:                  -5.349
REMARK INTRA:                   0.728
REMARK UNBOUND:                 0.728
REMARK SMILES CC1=CCCC(C)=CCC(C)(C)C=CC1
REMARK SMILES IDX 2 1 3 2 1 3 4 4 5 5 6 6 7 7 8 8 15 10 14 11 13 12 10 13
REMARK SMILES IDX 11 14 12 15 9 16
REMARK H PARENT
REMARK Flexibility Score: 60.00
ROOT
ATOM      1  C   UNL     1      12.658   6.992  26.226  1.00  0.00    -0.074 C 
ATOM      2  C   UNL     1      11.893   8.066  25.871  1.00  0.00    -0.027 C 
ATOM      3  C   UNL     1      11.976   5.886  26.993  1.00  0.00     0.039 C 
ENDROOT
BRANCH   2   4
ATOM      4  C   UNL     1      12.284   9.383  25.204  1.00  0.00     0.032 C 
BRANCH   4   5
ATOM      5  C   UNL     1      12.088   9.462  23.673  1.00  0.00     0.034 C 
BRANCH   5   6
ATOM      6  C   UNL     1      13.087   8.661  22.822  1.00  0.00    -0.077 C 
ATOM      7  C   UNL     1      12.524   7.847  21.680  1.00  0.00     0.039 C 
ATOM      8  C   UNL     1      14.429   8.536  23.037  1.00  0.00    -0.027 CG0
ATOM      9  G   UNL     1      15.308   9.297  24.010  1.00  0.00     0.000 G0
ENDBRANCH   5   6
ENDBRANCH   4   5
ENDBRANCH   2   4
BRANCH   1  10
ATOM     10  C   UNL     1      14.105   6.757  25.826  1.00  0.00     0.057 C 
BRANCH  10  11
ATOM     11  C   UNL     1      15.088   7.563  26.643  1.00  0.00    -0.026 C 
ATOM     12  C   UNL     1      16.145   8.252  26.148  1.00  0.00    -0.024 C 
BRANCH  12  13
ATOM     13  C   UNL     1      16.481   8.484  24.666  1.00  0.00    -0.014 C 
ATOM     14  C   UNL     1      16.807   7.132  23.972  1.00  0.00     0.016 C 
ATOM     15  C   UNL     1      17.771   9.336  24.601  1.00  0.00     0.016 C 
BRANCH  13  16
ATOM     16  C   UNL     1      15.321   9.295  23.988  1.00  0.00     0.038 CG0
ATOM     17  G   UNL     1      14.429   8.519  23.040  1.00  0.00     0.000 G0
ENDBRANCH  13  16
ENDBRANCH  12  13
ENDBRANCH  10  11
ENDBRANCH   1  10
TORSDOF 0
ENDMDL
MODEL 2
REMARK VINA RESULT:    -3.786      1.264      3.997
REMARK INTER + INTRA:          -4.608
REMARK INTER:                  -5.165
REMARK INTRA:                   0.558
REMARK UNBOUND:                 0.728
REMARK SMILES CC1=CCCC(C)=CCC(C)(C)C=CC1
REMARK SMILES IDX 2 1 3 2 1 3 4 4 5 5 6 6 7 7 8 8 15 10 14 11 13 12 10 13
REMARK SMILES IDX 11 14 12 15 9 16
REMARK H PARENT
REMARK Flexibility Score: 60.00
ROOT
ATOM      1  C   UNL     1      12.279   6.942  25.929  1.00  0.00    -0.074 C 
ATOM      2  C   UNL     1      13.547   6.999  26.433  1.00  0.00    -0.027 C 
ATOM      3  C   UNL     1      11.335   5.944  26.554  1.00  0.00     0.039 C 
ENDROOT
BRANCH   2   4
ATOM      4  C   UNL     1      14.761   7.798  25.967  1.00  0.00     0.032 C 
BRANCH   4   5
ATOM      5  C   UNL     1      15.200   7.587  24.500  1.00  0.00     0.034 C 
BRANCH   5   6
ATOM      6  C   UNL     1      15.232   8.846  23.618  1.00  0.00    -0.077 C 
ATOM      7  C   UNL     1      16.171   9.956  24.033  1.00  0.00     0.039 C 
ATOM      8  C   UNL     1      14.437   9.111  22.540  1.00  0.00    -0.027 CG0
ATOM      9  G   UNL     1      13.489   8.180  21.810  1.00  0.00     0.000 G0
ENDBRANCH   5   6
ENDBRANCH   4   5
ENDBRANCH   2   4
BRANCH   1  10
ATOM     10  C   UNL     1      11.696   7.866  24.873  1.00  0.00     0.057 C 
BRANCH  10  11
ATOM     11  C   UNL     1      11.057   7.127  23.721  1.00  0.00    -0.026 C 
ATOM     12  C   UNL     1      11.121   7.492  22.418  1.00  0.00    -0.024 C 
BRANCH  12  13
ATOM     13  C   UNL     1      11.964   8.632  21.821  1.00  0.00    -0.014 C 
ATOM     14  C   UNL     1      11.686   9.958  22.579  1.00  0.00     0.016 C 
ATOM     15  C   UNL     1      11.498   8.851  20.362  1.00  0.00     0.016 C 
BRANCH  13  16
ATOM     16  C   UNL     1      13.474   8.205  21.796  1.00  0.00     0.038 CG0
ATOM     17  G   UNL     1      14.436   9.108  22.543  1.00  0.00     0.000 G0
ENDBRANCH  13  16
ENDBRANCH  12  13
ENDBRANCH  10  11
ENDBRANCH   1  10
TORSDOF 0
ENDMDL
MODEL 3
REMARK VINA RESULT:    -3.734     10.055     12.724
REMARK INTER + INTRA:          -4.535
REMARK INTER:                  -5.032
REMARK INTRA:                   0.497
REMARK UNBOUND:                 0.728
REMARK SMILES CC1=CCCC(C)=CCC(C)(C)C=CC1
REMARK SMILES IDX 2 1 3 2 1 3 4 4 5 5 6 6 7 7 8 8 15 10 14 11 13 12 10 13
REMARK SMILES IDX 11 14 12 15 9 16
REMARK H PARENT
REMARK Flexibility Score: 60.00
ROOT
ATOM      1  C   UNL     1       5.793   8.301  19.815  1.00  0.00    -0.074 C 
ATOM      2  C   UNL     1       4.756   8.887  20.482  1.00  0.00    -0.027 C 
ATOM      3  C   UNL     1       7.186   8.764  20.166  1.00  0.00     0.039 C 
ENDROOT
BRANCH   2   4
ATOM      4  C   UNL     1       3.248   8.739  20.294  1.00  0.00     0.032 C 
BRANCH   4   5
ATOM      5  C   UNL     1       2.584   9.701  19.283  1.00  0.00     0.034 C 
BRANCH   5   6
ATOM      6  C   UNL     1       1.782   9.041  18.149  1.00  0.00    -0.077 C 
ATOM      7  C   UNL     1       0.302   8.838  18.378  1.00  0.00     0.039 C 
ATOM      8  C   UNL     1       2.278   8.537  16.982  1.00  0.00    -0.027 CG0
ATOM      9  G   UNL     1       3.674   8.677  16.406  1.00  0.00     0.000 G0
ENDBRANCH   5   6
ENDBRANCH   4   5
ENDBRANCH   2   4
BRANCH   1  10
ATOM     10  C   UNL     1       5.682   7.147  18.833  1.00  0.00     0.057 C 
BRANCH  10  11
ATOM     11  C   UNL     1       6.428   7.389  17.541  1.00  0.00    -0.026 C 
ATOM     12  C   UNL     1       5.877   7.404  16.304  1.00  0.00    -0.024 C 
BRANCH  12  13
ATOM     13  C   UNL     1       4.379   7.328  15.962  1.00  0.00    -0.014 C 
ATOM     14  C   UNL     1       3.750   6.053  16.589  1.00  0.00     0.016 C 
ATOM     15  C   UNL     1       4.251   7.174  14.428  1.00  0.00     0.016 C 
BRANCH  13  16
ATOM     16  C   UNL     1       3.679   8.668  16.382  1.00  0.00     0.038 CG0
ATOM     17  G   UNL     1       2.296   8.537  16.990  1.00  0.00     0.000 G0
ENDBRANCH  13  16
ENDBRANCH  12  13
ENDBRANCH  10  11
ENDBRANCH   1  10
TORSDOF 0
ENDMDL
MODEL 4
REMARK VINA RESULT:    -3.716      1.348      3.587
REMARK INTER + INTRA:          -4.509
REMARK INTER:                  -5.248
REMARK INTRA:                   0.739
REMARK UNBOUND:                 0.728
REMARK SMILES CC1=CCCC(C)=CCC(C)(C)C=CC1
REMARK SMILES IDX 2 1 3 2 1 3 4 4 5 5 6 6 7 7 8 8 15 10 14 11 13 12 10 13
REMARK SMILES IDX 11 14 12 15 9 16
REMARK H PARENT
REMARK Flexibility Score: 60.00
ROOT
ATOM      1  C   UNL     1      12.786   9.143  22.160  1.00  0.00    -0.074 C 
ATOM      2  C   UNL     1      11.705   9.256  22.986  1.00  0.00    -0.027 C 
ATOM      3  C   UNL     1      12.584   9.513  20.710  1.00  0.00     0.039 C 
ENDROOT
BRANCH   2   4
ATOM      4  C   UNL     1      11.534   8.863  24.452  1.00  0.00     0.032 C 
BRANCH   4   5
ATOM      5  C   UNL     1      11.574   7.351  24.766  1.00  0.00     0.034 C 
BRANCH   5   6
ATOM      6  C   UNL     1      12.448   6.932  25.960  1.00  0.00    -0.077 C 
ATOM      7  C   UNL     1      11.736   6.566  27.243  1.00  0.00     0.039 C 
ATOM      8  C   UNL     1      13.813   6.935  26.017  1.00  0.00    -0.027 CG0
ATOM      9  G   UNL     1      14.807   7.137  24.891  1.00  0.00     0.000 G0
ENDBRANCH   5   6
ENDBRANCH   4   5
ENDBRANCH   2   4
BRANCH   1  10
ATOM     10  C   UNL     1      14.200   8.784  22.585  1.00  0.00     0.057 C 
BRANCH  10  11
ATOM     11  C   UNL     1      14.828   9.815  23.494  1.00  0.00    -0.026 C 
ATOM     12  C   UNL     1      15.533   9.548  24.620  1.00  0.00    -0.024 C 
BRANCH  12  13
ATOM     13  C   UNL     1      15.966   8.162  25.129  1.00  0.00    -0.014 C 
ATOM     14  C   UNL     1      16.441   8.258  26.604  1.00  0.00     0.016 C 
ATOM     15  C   UNL     1      17.192   7.715  24.298  1.00  0.00     0.016 C 
BRANCH  13  16
ATOM     16  C   UNL     1      14.806   7.133  24.888  1.00  0.00     0.038 CG0
ATOM     17  G   UNL     1      13.822   6.957  26.028  1.00  0.00     0.000 G0
ENDBRANCH  13  16
ENDBRANCH  12  13
ENDBRANCH  10  11
ENDBRANCH   1  10
TORSDOF 0
ENDMDL
MODEL 5
REMARK VINA RESULT:    -3.708      1.710      4.899
REMARK INTER + INTRA:          -4.498
REMARK INTER:                  -5.324
REMARK INTRA:                   0.826
REMARK UNBOUND:                 0.728
REMARK SMILES CC1=CCCC(C)=CCC(C)(C)C=CC1
REMARK SMILES IDX 2 1 3 2 1 3 4 4 5 5 6 6 7 7 8 8 15 10 14 11 13 12 10 13
REMARK SMILES IDX 11 14 12 15 9 16
REMARK H PARENT
REMARK Flexibility Score: 60.00
ROOT
ATOM      1  C   UNL     1      15.267   9.095  24.017  1.00  0.00    -0.074 C 
ATOM      2  C   UNL     1      15.323   8.005  24.837  1.00  0.00    -0.027 C 
ATOM      3  C   UNL     1      16.484   9.987  23.975  1.00  0.00     0.039 C 
ENDROOT
BRANCH   2   4
ATOM      4  C   UNL     1      14.250   6.981  25.197  1.00  0.00     0.032 C 
BRANCH   4   5
ATOM      5  C   UNL     1      13.142   7.459  26.163  1.00  0.00     0.034 C 
BRANCH   5   6
ATOM      6  C   UNL     1      11.699   7.114  25.759  1.00  0.00    -0.077 C 
ATOM      7  C   UNL     1      10.966   6.104  26.613  1.00  0.00     0.039 C 
ATOM      8  C   UNL     1      11.029   7.558  24.656  1.00  0.00    -0.027 CG0
ATOM      9  G   UNL     1      11.431   8.643  23.677  1.00  0.00     0.000 G0
ENDBRANCH   5   6
ENDBRANCH   4   5
ENDBRANCH   2   4
BRANCH   1  10
ATOM     10  C   UNL     1      14.137   9.433  23.059  1.00  0.00     0.057 C 
BRANCH  10  11
ATOM     11  C   UNL     1      13.924   8.382  21.995  1.00  0.00    -0.026 C 
ATOM     12  C   UNL     1      12.730   7.840  21.651  1.00  0.00    -0.024 C 
BRANCH  12  13
ATOM     13  C   UNL     1      11.343   8.272  22.154  1.00  0.00    -0.014 C 
ATOM     14  C   UNL     1      10.287   7.183  21.818  1.00  0.00     0.016 C 
ATOM     15  C   UNL     1      10.931   9.543  21.374  1.00  0.00     0.016 C 
BRANCH  13  16
ATOM     16  C   UNL     1      11.431   8.638  23.678  1.00  0.00     0.038 CG0
ATOM     17  G   UNL     1      11.028   7.548  24.652  1.00  0.00     0.000 G0
ENDBRANCH  13  16
ENDBRANCH  12  13
ENDBRANCH  10  11
ENDBRANCH   1  10
TORSDOF 0
ENDMDL
MODEL 6
REMARK VINA RESULT:    -3.676      1.715      4.072
REMARK INTER + INTRA:          -4.453
REMARK INTER:                  -5.464
REMARK INTRA:                   1.011
REMARK UNBOUND:                 0.728
REMARK SMILES CC1=CCCC(C)=CCC(C)(C)C=CC1
REMARK SMILES IDX 2 1 3 2 1 3 4 4 5 5 6 6 7 7 8 8 15 10 14 11 13 12 10 13
REMARK SMILES IDX 11 14 12 15 9 16
REMARK H PARENT
REMARK Flexibility Score: 60.00
ROOT
ATOM      1  C   UNL     1      15.474   9.032  24.122  1.00  0.00    -0.074 C 
ATOM      2  C   UNL     1      15.065   9.908  23.158  1.00  0.00    -0.027 C 
ATOM      3  C   UNL     1      16.527   9.517  25.089  1.00  0.00     0.039 C 
ENDROOT
BRANCH   2   4
ATOM      4  C   UNL     1      14.121   9.709  21.975  1.00  0.00     0.032 C 
BRANCH   4   5
ATOM      5  C   UNL     1      13.689   8.255  21.679  1.00  0.00     0.034 C 
BRANCH   5   6
ATOM      6  C   UNL     1      12.182   7.966  21.771  1.00  0.00    -0.077 C 
ATOM      7  C   UNL     1      11.323   8.399  20.604  1.00  0.00     0.039 C 
ATOM      8  C   UNL     1      11.514   7.433  22.836  1.00  0.00    -0.027 CG0
ATOM      9  G   UNL     1      12.082   6.803  24.092  1.00  0.00     0.000 G0
ENDBRANCH   5   6
ENDBRANCH   4   5
ENDBRANCH   2   4
BRANCH   1  10
ATOM     10  C   UNL     1      14.889   7.654  24.380  1.00  0.00     0.057 C 
BRANCH  10  11
ATOM     11  C   UNL     1      14.461   7.448  25.815  1.00  0.00    -0.026 C 
ATOM     12  C   UNL     1      13.186   7.487  26.270  1.00  0.00    -0.024 C 
BRANCH  12  13
ATOM     13  C   UNL     1      11.907   7.600  25.422  1.00  0.00    -0.014 C 
ATOM     14  C   UNL     1      11.527   9.092  25.222  1.00  0.00     0.016 C 
ATOM     15  C   UNL     1      10.751   6.952  26.220  1.00  0.00     0.016 C 
BRANCH  13  16
ATOM     16  C   UNL     1      12.095   6.796  24.087  1.00  0.00     0.038 CG0
ATOM     17  G   UNL     1      11.524   7.435  22.837  1.00  0.00     0.000 G0
ENDBRANCH  13  16
ENDBRANCH  12  13
ENDBRANCH  10  11
ENDBRANCH   1  10
TORSDOF 0
ENDMDL
MODEL 7
REMARK VINA RESULT:    -3.659      2.141      4.845
REMARK INTER + INTRA:          -4.429
REMARK INTER:                  -4.947
REMARK INTRA:                   0.518
REMARK UNBOUND:                 0.728
REMARK SMILES CC1=CCCC(C)=CCC(C)(C)C=CC1
REMARK SMILES IDX 2 1 3 2 1 3 4 4 5 5 6 6 7 7 8 8 15 10 14 11 13 12 10 13
REMARK SMILES IDX 11 14 12 15 9 16
REMARK H PARENT
REMARK Flexibility Score: 60.00
ROOT
ATOM      1  C   UNL     1      14.821   7.429  26.174  1.00  0.00    -0.074 C 
ATOM      2  C   UNL     1      14.273   6.536  27.050  1.00  0.00    -0.027 C 
ATOM      3  C   UNL     1      16.017   8.216  26.653  1.00  0.00     0.039 C 
ENDROOT
BRANCH   2   4
ATOM      4  C   UNL     1      13.015   5.679  26.932  1.00  0.00     0.032 C 
BRANCH   4   5
ATOM      5  C   UNL     1      11.867   6.006  27.914  1.00  0.00     0.034 C 
BRANCH   5   6
ATOM      6  C   UNL     1      10.543   6.458  27.277  1.00  0.00    -0.077 C 
ATOM      7  C   UNL     1       9.319   5.616  27.558  1.00  0.00     0.039 C 
ATOM      8  C   UNL     1      10.364   7.497  26.410  1.00  0.00    -0.027 CG0
ATOM      9  G   UNL     1      11.345   8.584  26.019  1.00  0.00     0.000 G0
ENDBRANCH   5   6
ENDBRANCH   4   5
ENDBRANCH   2   4
BRANCH   1  10
ATOM     10  C   UNL     1      14.409   7.624  24.725  1.00  0.00     0.057 C 
BRANCH  10  11
ATOM     11  C   UNL     1      14.089   9.061  24.384  1.00  0.00    -0.026 C 
ATOM     12  C   UNL     1      12.845   9.571  24.210  1.00  0.00    -0.024 C 
BRANCH  12  13
ATOM     13  C   UNL     1      11.510   8.850  24.463  1.00  0.00    -0.014 C 
ATOM     14  C   UNL     1      11.415   7.574  23.582  1.00  0.00     0.016 C 
ATOM     15  C   UNL     1      10.371   9.790  24.004  1.00  0.00     0.016 C 
BRANCH  13  16
ATOM     16  C   UNL     1      11.342   8.587  26.001  1.00  0.00     0.038 CG0
ATOM     17  G   UNL     1      10.370   7.491  26.390  1.00  0.00     0.000 G0
ENDBRANCH  13  16
ENDBRANCH  12  13
ENDBRANCH  10  11
ENDBRANCH   1  10
TORSDOF 0
ENDMDL
MODEL 8
REMARK VINA RESULT:    -3.598      9.898     12.797
REMARK INTER + INTRA:          -4.342
REMARK INTER:                  -5.544
REMARK INTRA:                   1.202
REMARK UNBOUND:                 0.728
REMARK SMILES CC1=CCCC(C)=CCC(C)(C)C=CC1
REMARK SMILES IDX 2 1 3 2 1 3 4 4 5 5 6 6 7 7 8 8 15 10 14 11 13 12 10 13
REMARK SMILES IDX 11 14 12 15 9 16
REMARK H PARENT
REMARK Flexibility Score: 60.00
ROOT
ATOM      1  C   UNL     1       2.390   8.880  18.807  1.00  0.00    -0.074 C 
ATOM      2  C   UNL     1       3.011   8.958  20.020  1.00  0.00    -0.027 C 
ATOM      3  C   UNL     1       1.113   8.078  18.739  1.00  0.00     0.039 C 
ENDROOT
BRANCH   2   4
ATOM      4  C   UNL     1       4.351   9.578  20.408  1.00  0.00     0.032 C 
BRANCH   4   5
ATOM      5  C   UNL     1       5.422   9.651  19.295  1.00  0.00     0.034 C 
BRANCH   5   6
ATOM      6  C   UNL     1       5.954   8.303  18.782  1.00  0.00    -0.077 C 
ATOM      7  C   UNL     1       6.719   7.444  19.763  1.00  0.00     0.039 C 
ATOM      8  C   UNL     1       5.885   7.829  17.503  1.00  0.00    -0.027 CG0
ATOM      9  G   UNL     1       5.103   8.382  16.329  1.00  0.00     0.000 G0
ENDBRANCH   5   6
ENDBRANCH   4   5
ENDBRANCH   2   4
BRANCH   1  10
ATOM     10  C   UNL     1       2.805   9.616  17.544  1.00  0.00     0.057 C 
BRANCH  10  11
ATOM     11  C   UNL     1       2.164   9.060  16.293  1.00  0.00    -0.026 C 
ATOM     12  C   UNL     1       2.731   8.164  15.449  1.00  0.00    -0.024 C 
BRANCH  12  13
ATOM     13  C   UNL     1       4.060   7.417  15.655  1.00  0.00    -0.014 C 
ATOM     14  C   UNL     1       4.534   6.788  14.316  1.00  0.00     0.016 C 
ATOM     15  C   UNL     1       3.797   6.242  16.627  1.00  0.00     0.016 C 
BRANCH  13  16
ATOM     16  C   UNL     1       5.102   8.383  16.321  1.00  0.00     0.038 CG0
ATOM     17  G   UNL     1       5.867   7.826  17.506  1.00  0.00     0.000 G0
ENDBRANCH  13  16
ENDBRANCH  12  13
ENDBRANCH  10  11
ENDBRANCH   1  10
TORSDOF 0
ENDMDL
MODEL 9
REMARK VINA RESULT:    -3.500      3.249      5.666
REMARK INTER + INTRA:          -4.204
REMARK INTER:                  -5.214
REMARK INTRA:                   1.010
REMARK UNBOUND:                 0.728
REMARK SMILES CC1=CCCC(C)=CCC(C)(C)C=CC1
REMARK SMILES IDX 2 1 3 2 1 3 4 4 5 5 6 6 7 7 8 8 15 10 14 11 13 12 10 13
REMARK SMILES IDX 11 14 12 15 9 16
REMARK H PARENT
REMARK Flexibility Score: 60.00
ROOT
ATOM      1  C   UNL     1       9.682   8.526  29.209  1.00  0.00    -0.074 C 
ATOM      2  C   UNL     1       9.025   7.497  29.821  1.00  0.00    -0.027 C 
ATOM      3  C   UNL     1       9.379   9.921  29.697  1.00  0.00     0.039 C 
ENDROOT
BRANCH   2   4
ATOM      4  C   UNL     1       9.011   6.004  29.503  1.00  0.00     0.032 C 
BRANCH   4   5
ATOM      5  C   UNL     1      10.386   5.338  29.271  1.00  0.00     0.034 C 
BRANCH   5   6
ATOM      6  C   UNL     1      10.583   4.653  27.909  1.00  0.00    -0.077 C 
ATOM      7  C   UNL     1       9.662   3.502  27.575  1.00  0.00     0.039 C 
ATOM      8  C   UNL     1      11.562   4.916  26.994  1.00  0.00    -0.027 CG0
ATOM      9  G   UNL     1      12.556   6.061  26.973  1.00  0.00     0.000 G0
ENDBRANCH   5   6
ENDBRANCH   4   5
ENDBRANCH   2   4
BRANCH   1  10
ATOM     10  C   UNL     1      10.771   8.389  28.158  1.00  0.00     0.057 C 
BRANCH  10  11
ATOM     11  C   UNL     1      10.233   8.098  26.776  1.00  0.00    -0.026 C 
ATOM     12  C   UNL     1      10.950   7.598  25.741  1.00  0.00    -0.024 C 
BRANCH  12  13
ATOM     13  C   UNL     1      12.401   7.089  25.785  1.00  0.00    -0.014 C 
ATOM     14  C   UNL     1      13.388   8.287  25.843  1.00  0.00     0.016 C 
ATOM     15  C   UNL     1      12.683   6.347  24.458  1.00  0.00     0.016 C 
BRANCH  13  16
ATOM     16  C   UNL     1      12.558   6.065  26.965  1.00  0.00     0.038 CG0
ATOM     17  G   UNL     1      11.565   4.920  26.992  1.00  0.00     0.000 G0
ENDBRANCH  13  16
ENDBRANCH  12  13
ENDBRANCH  10  11
ENDBRANCH   1  10
TORSDOF 0
ENDMDL
