MODEL 1
REMARK VINA RESULT:    -4.136      0.000      0.000
REMARK INTER + INTRA:          -9.866
REMARK INTER:                  -7.763
REMARK INTRA:                  -2.104
REMARK UNBOUND:                -2.104
REMARK SMILES O=C([O-])CCCCCCCCCCCCCCC(=O)[O-]
REMARK SMILES IDX 10 1 9 2 8 3 7 4 6 5 5 6 4 7 2 8 1 9 3 10 11 11 12 12 13 13
REMARK SMILES IDX 14 14 15 15 16 16 17 17 18 18 19 19 20 20
REMARK H PARENT
REMARK Flexibility Score: inf
ROOT
ATOM      1  C   UNL     1      22.256  -3.676  17.095  1.00  0.00     0.000 C 
ENDROOT
BRANCH   1   2
ATOM      2  C   UNL     1      21.625  -2.326  17.468  1.00  0.00     0.000 C 
BRANCH   2   3
ATOM      3  C   UNL     1      20.783  -2.398  18.752  1.00  0.00     0.000 C 
BRANCH   3   4
ATOM      4  C   UNL     1      20.881  -3.766  19.448  1.00  0.00     0.000 C 
BRANCH   4   5
ATOM      5  C   UNL     1      21.591  -3.685  20.811  1.00  0.00     0.000 C 
BRANCH   5   6
ATOM      6  C   UNL     1      22.929  -4.446  20.828  1.00  0.00     0.006 C 
BRANCH   6   7
ATOM      7  C   UNL     1      22.793  -5.868  20.269  1.00  0.00     0.053 C 
BRANCH   7   8
ATOM      8  C   UNL     1      23.882  -6.192  19.292  1.00  0.00     0.041 C 
ATOM      9  O   UNL     1      24.991  -5.601  19.363  1.00  0.00    -0.550 OA
ATOM     10  O   UNL     1      23.681  -7.167  18.324  1.00  0.00    -0.550 OA
ENDBRANCH   7   8
ENDBRANCH   6   7
ENDBRANCH   5   6
ENDBRANCH   4   5
ENDBRANCH   3   4
ENDBRANCH   2   3
ENDBRANCH   1   2
BRANCH   1  11
ATOM     11  C   UNL     1      23.734  -3.502  16.713  1.00  0.00     0.000 C 
BRANCH  11  12
ATOM     12  C   UNL     1      24.014  -2.161  16.018  1.00  0.00     0.000 C 
BRANCH  12  13
ATOM     13  C   UNL     1      23.912  -2.254  14.488  1.00  0.00     0.000 C 
BRANCH  13  14
ATOM     14  C   UNL     1      22.605  -1.628  13.986  1.00  0.00     0.000 C 
BRANCH  14  15
ATOM     15  C   UNL     1      21.895  -2.559  12.992  1.00  0.00     0.000 C 
BRANCH  15  16
ATOM     16  C   UNL     1      22.348  -4.025  13.108  1.00  0.00     0.006 C 
BRANCH  16  17
ATOM     17  C   UNL     1      21.276  -4.966  13.686  1.00  0.00     0.053 C 
BRANCH  17  18
ATOM     18  C   UNL     1      21.787  -6.359  13.897  1.00  0.00     0.041 C 
ATOM     19  O   UNL     1      22.736  -6.570  14.696  1.00  0.00    -0.550 OA
ATOM     20  O   UNL     1      21.192  -7.429  13.241  1.00  0.00    -0.550 OA
ENDBRANCH  17  18
ENDBRANCH  16  17
ENDBRANCH  15  16
ENDBRANCH  14  15
ENDBRANCH  13  14
ENDBRANCH  12  13
ENDBRANCH  11  12
ENDBRANCH   1  11
TORSDOF 15
ENDMDL
MODEL 2
REMARK VINA RESULT:    -4.100      2.816      4.651
REMARK INTER + INTRA:          -9.799
REMARK INTER:                  -7.602
REMARK INTRA:                  -2.197
REMARK UNBOUND:                -2.104
REMARK SMILES O=C([O-])CCCCCCCCCCCCCCC(=O)[O-]
REMARK SMILES IDX 10 1 9 2 8 3 7 4 6 5 5 6 4 7 2 8 1 9 3 10 11 11 12 12 13 13
REMARK SMILES IDX 14 14 15 15 16 16 17 17 18 18 19 19 20 20
REMARK H PARENT
REMARK Flexibility Score: inf
ROOT
ATOM      1  C   UNL     1      26.508  -6.769  18.293  1.00  0.00     0.000 C 
ENDROOT
BRANCH   1   2
ATOM      2  C   UNL     1      27.006  -5.752  19.330  1.00  0.00     0.000 C 
BRANCH   2   3
ATOM      3  C   UNL     1      26.844  -4.297  18.861  1.00  0.00     0.000 C 
BRANCH   3   4
ATOM      4  C   UNL     1      25.450  -3.726  19.173  1.00  0.00     0.000 C 
BRANCH   4   5
ATOM      5  C   UNL     1      24.526  -3.719  17.944  1.00  0.00     0.000 C 
BRANCH   5   6
ATOM      6  C   UNL     1      23.062  -4.032  18.301  1.00  0.00     0.006 C 
BRANCH   6   7
ATOM      7  C   UNL     1      22.931  -4.688  19.682  1.00  0.00     0.053 C 
BRANCH   7   8
ATOM      8  C   UNL     1      21.907  -4.000  20.532  1.00  0.00     0.041 C 
ATOM      9  O   UNL     1      22.134  -3.790  21.752  1.00  0.00    -0.550 OA
ATOM     10  O   UNL     1      20.714  -3.566  19.969  1.00  0.00    -0.550 OA
ENDBRANCH   7   8
ENDBRANCH   6   7
ENDBRANCH   5   6
ENDBRANCH   4   5
ENDBRANCH   3   4
ENDBRANCH   2   3
ENDBRANCH   1   2
BRANCH   1  11
ATOM     11  C   UNL     1      25.265  -7.513  18.809  1.00  0.00     0.000 C 
BRANCH  11  12
ATOM     12  C   UNL     1      24.145  -7.595  17.759  1.00  0.00     0.000 C 
BRANCH  12  13
ATOM     13  C   UNL     1      24.433  -8.636  16.667  1.00  0.00     0.000 C 
BRANCH  13  14
ATOM     14  C   UNL     1      24.322  -8.011  15.271  1.00  0.00     0.000 C 
BRANCH  14  15
ATOM     15  C   UNL     1      23.995  -6.513  15.362  1.00  0.00     0.000 C 
BRANCH  15  16
ATOM     16  C   UNL     1      22.891  -6.076  14.383  1.00  0.00     0.006 C 
BRANCH  16  17
ATOM     17  C   UNL     1      22.025  -4.913  14.898  1.00  0.00     0.053 C 
BRANCH  17  18
ATOM     18  C   UNL     1      22.379  -3.604  14.258  1.00  0.00     0.041 C 
ATOM     19  O   UNL     1      22.776  -2.641  14.966  1.00  0.00    -0.550 OA
ATOM     20  O   UNL     1      22.306  -3.457  12.879  1.00  0.00    -0.550 OA
ENDBRANCH  17  18
ENDBRANCH  16  17
ENDBRANCH  15  16
ENDBRANCH  14  15
ENDBRANCH  13  14
ENDBRANCH  12  13
ENDBRANCH  11  12
ENDBRANCH   1  11
TORSDOF 15
ENDMDL
MODEL 3
REMARK VINA RESULT:    -4.072      5.201      8.209
REMARK INTER + INTRA:          -9.746
REMARK INTER:                  -8.087
REMARK INTRA:                  -1.658
REMARK UNBOUND:                -2.104
REMARK SMILES O=C([O-])CCCCCCCCCCCCCCC(=O)[O-]
REMARK SMILES IDX 10 1 9 2 8 3 7 4 6 5 5 6 4 7 2 8 1 9 3 10 11 11 12 12 13 13
REMARK SMILES IDX 14 14 15 15 16 16 17 17 18 18 19 19 20 20
REMARK H PARENT
REMARK Flexibility Score: inf
ROOT
ATOM      1  C   UNL     1      27.037  -5.661  18.439  1.00  0.00     0.000 C 
ENDROOT
BRANCH   1   2
ATOM      2  C   UNL     1      26.334  -6.779  17.657  1.00  0.00     0.000 C 
BRANCH   2   3
ATOM      3  C   UNL     1      25.319  -7.557  18.511  1.00  0.00     0.000 C 
BRANCH   3   4
ATOM      4  C   UNL     1      24.238  -6.647  19.119  1.00  0.00     0.000 C 
BRANCH   4   5
ATOM      5  C   UNL     1      23.528  -5.786  18.061  1.00  0.00     0.000 C 
BRANCH   5   6
ATOM      6  C   UNL     1      23.315  -4.334  18.525  1.00  0.00     0.006 C 
BRANCH   6   7
ATOM      7  C   UNL     1      23.274  -4.216  20.054  1.00  0.00     0.053 C 
BRANCH   7   8
ATOM      8  C   UNL     1      21.881  -3.990  20.560  1.00  0.00     0.041 C 
ATOM      9  O   UNL     1      21.656  -3.948  21.797  1.00  0.00    -0.550 OA
ATOM     10  O   UNL     1      20.838  -3.797  19.662  1.00  0.00    -0.550 OA
ENDBRANCH   7   8
ENDBRANCH   6   7
ENDBRANCH   5   6
ENDBRANCH   4   5
ENDBRANCH   3   4
ENDBRANCH   2   3
ENDBRANCH   1   2
BRANCH   1  11
ATOM     11  C   UNL     1      27.170  -4.392  17.582  1.00  0.00     0.000 C 
BRANCH  11  12
ATOM     12  C   UNL     1      26.966  -3.104  18.395  1.00  0.00     0.000 C 
BRANCH  12  13
ATOM     13  C   UNL     1      26.834  -3.368  19.902  1.00  0.00     0.000 C 
BRANCH  13  14
ATOM     14  C   UNL     1      27.949  -2.663  20.683  1.00  0.00     0.000 C 
BRANCH  14  15
ATOM     15  C   UNL     1      29.122  -2.299  19.761  1.00  0.00     0.000 C 
BRANCH  15  16
ATOM     16  C   UNL     1      30.172  -1.404  20.443  1.00  0.00     0.006 C 
BRANCH  16  17
ATOM     17  C   UNL     1      30.549  -1.856  21.865  1.00  0.00     0.053 C 
BRANCH  17  18
ATOM     18  C   UNL     1      30.666  -0.707  22.822  1.00  0.00     0.041 C 
ATOM     19  O   UNL     1      31.664   0.058  22.771  1.00  0.00    -0.550 OA
ATOM     20  O   UNL     1      29.659  -0.461  23.745  1.00  0.00    -0.550 OA
ENDBRANCH  17  18
ENDBRANCH  16  17
ENDBRANCH  15  16
ENDBRANCH  14  15
ENDBRANCH  13  14
ENDBRANCH  12  13
ENDBRANCH  11  12
ENDBRANCH   1  11
TORSDOF 15
ENDMDL
MODEL 4
REMARK VINA RESULT:    -4.067      4.029      8.176
REMARK INTER + INTRA:          -9.737
REMARK INTER:                  -8.952
REMARK INTRA:                  -0.785
REMARK UNBOUND:                -2.104
REMARK SMILES O=C([O-])CCCCCCCCCCCCCCC(=O)[O-]
REMARK SMILES IDX 10 1 9 2 8 3 7 4 6 5 5 6 4 7 2 8 1 9 3 10 11 11 12 12 13 13
REMARK SMILES IDX 14 14 15 15 16 16 17 17 18 18 19 19 20 20
REMARK H PARENT
REMARK Flexibility Score: inf
ROOT
ATOM      1  C   UNL     1      22.003  -4.116  14.143  1.00  0.00     0.000 C 
ENDROOT
BRANCH   1   2
ATOM      2  C   UNL     1      21.236  -4.062  12.813  1.00  0.00     0.000 C 
BRANCH   2   3
ATOM      3  C   UNL     1      21.646  -2.867  11.937  1.00  0.00     0.000 C 
BRANCH   3   4
ATOM      4  C   UNL     1      20.439  -2.172  11.284  1.00  0.00     0.000 C 
BRANCH   4   5
ATOM      5  C   UNL     1      20.833  -1.339  10.052  1.00  0.00     0.000 C 
BRANCH   5   6
ATOM      6  C   UNL     1      20.053  -0.015   9.957  1.00  0.00     0.006 C 
BRANCH   6   7
ATOM      7  C   UNL     1      18.809  -0.012  10.856  1.00  0.00     0.053 C 
BRANCH   7   8
ATOM      8  C   UNL     1      17.869   1.101  10.505  1.00  0.00     0.041 C 
ATOM      9  O   UNL     1      17.974   1.693   9.399  1.00  0.00    -0.550 OA
ATOM     10  O   UNL     1      16.859   1.463  11.387  1.00  0.00    -0.550 OA
ENDBRANCH   7   8
ENDBRANCH   6   7
ENDBRANCH   5   6
ENDBRANCH   4   5
ENDBRANCH   3   4
ENDBRANCH   2   3
ENDBRANCH   1   2
BRANCH   1  11
ATOM     11  C   UNL     1      22.867  -2.858  14.328  1.00  0.00     0.000 C 
BRANCH  11  12
ATOM     12  C   UNL     1      22.842  -2.329  15.771  1.00  0.00     0.000 C 
BRANCH  12  13
ATOM     13  C   UNL     1      22.335  -3.374  16.776  1.00  0.00     0.000 C 
BRANCH  13  14
ATOM     14  C   UNL     1      23.428  -3.736  17.790  1.00  0.00     0.000 C 
BRANCH  14  15
ATOM     15  C   UNL     1      22.815  -4.158  19.133  1.00  0.00     0.000 C 
BRANCH  15  16
ATOM     16  C   UNL     1      23.161  -5.606  19.527  1.00  0.00     0.006 C 
BRANCH  16  17
ATOM     17  C   UNL     1      23.782  -6.432  18.387  1.00  0.00     0.053 C 
BRANCH  17  18
ATOM     18  C   UNL     1      23.679  -7.908  18.624  1.00  0.00     0.041 C 
ATOM     19  O   UNL     1      22.759  -8.370  19.348  1.00  0.00    -0.550 OA
ATOM     20  O   UNL     1      24.575  -8.778  18.017  1.00  0.00    -0.550 OA
ENDBRANCH  17  18
ENDBRANCH  16  17
ENDBRANCH  15  16
ENDBRANCH  14  15
ENDBRANCH  13  14
ENDBRANCH  12  13
ENDBRANCH  11  12
ENDBRANCH   1  11
TORSDOF 15
ENDMDL
MODEL 5
REMARK VINA RESULT:    -4.054      3.402      5.941
REMARK INTER + INTRA:          -9.712
REMARK INTER:                  -7.293
REMARK INTRA:                  -2.419
REMARK UNBOUND:                -2.104
REMARK SMILES O=C([O-])CCCCCCCCCCCCCCC(=O)[O-]
REMARK SMILES IDX 10 1 9 2 8 3 7 4 6 5 5 6 4 7 2 8 1 9 3 10 11 11 12 12 13 13
REMARK SMILES IDX 14 14 15 15 16 16 17 17 18 18 19 19 20 20
REMARK H PARENT
REMARK Flexibility Score: inf
ROOT
ATOM      1  C   UNL     1      24.435  -6.771  15.999  1.00  0.00     0.000 C 
ENDROOT
BRANCH   1   2
ATOM      2  C   UNL     1      25.779  -6.770  16.742  1.00  0.00     0.000 C 
BRANCH   2   3
ATOM      3  C   UNL     1      25.731  -7.556  18.062  1.00  0.00     0.000 C 
BRANCH   3   4
ATOM      4  C   UNL     1      24.331  -7.554  18.701  1.00  0.00     0.000 C 
BRANCH   4   5
ATOM      5  C   UNL     1      24.215  -6.556  19.866  1.00  0.00     0.000 C 
BRANCH   5   6
ATOM      6  C   UNL     1      22.806  -5.951  19.990  1.00  0.00     0.006 C 
BRANCH   6   7
ATOM      7  C   UNL     1      22.812  -4.627  20.766  1.00  0.00     0.053 C 
BRANCH   7   8
ATOM      8  C   UNL     1      21.450  -4.003  20.817  1.00  0.00     0.041 C 
ATOM      9  O   UNL     1      20.973  -3.442  19.797  1.00  0.00    -0.550 OA
ATOM     10  O   UNL     1      20.698  -4.069  21.983  1.00  0.00    -0.550 OA
ENDBRANCH   7   8
ENDBRANCH   6   7
ENDBRANCH   5   6
ENDBRANCH   4   5
ENDBRANCH   3   4
ENDBRANCH   2   3
ENDBRANCH   1   2
BRANCH   1  11
ATOM     11  C   UNL     1      24.039  -5.347  15.579  1.00  0.00     0.000 C 
BRANCH  11  12
ATOM     12  C   UNL     1      23.052  -4.692  16.559  1.00  0.00     0.000 C 
BRANCH  12  13
ATOM     13  C   UNL     1      23.700  -3.579  17.396  1.00  0.00     0.000 C 
BRANCH  13  14
ATOM     14  C   UNL     1      24.839  -2.903  16.623  1.00  0.00     0.000 C 
BRANCH  14  15
ATOM     15  C   UNL     1      26.203  -3.252  17.237  1.00  0.00     0.000 C 
BRANCH  15  16
ATOM     16  C   UNL     1      26.225  -3.126  18.771  1.00  0.00     0.006 C 
BRANCH  16  17
ATOM     17  C   UNL     1      27.055  -4.214  19.476  1.00  0.00     0.053 C 
BRANCH  17  18
ATOM     18  C   UNL     1      28.263  -3.658  20.168  1.00  0.00     0.041 C 
ATOM     19  O   UNL     1      29.412  -4.080  19.873  1.00  0.00    -0.550 OA
ATOM     20  O   UNL     1      28.125  -2.650  21.113  1.00  0.00    -0.550 OA
ENDBRANCH  17  18
ENDBRANCH  16  17
ENDBRANCH  15  16
ENDBRANCH  14  15
ENDBRANCH  13  14
ENDBRANCH  12  13
ENDBRANCH  11  12
ENDBRANCH   1  11
TORSDOF 15
ENDMDL
MODEL 6
REMARK VINA RESULT:    -4.044      2.386      5.264
REMARK INTER + INTRA:          -9.693
REMARK INTER:                  -8.110
REMARK INTRA:                  -1.583
REMARK UNBOUND:                -2.104
REMARK SMILES O=C([O-])CCCCCCCCCCCCCCC(=O)[O-]
REMARK SMILES IDX 10 1 9 2 8 3 7 4 6 5 5 6 4 7 2 8 1 9 3 10 11 11 12 12 13 13
REMARK SMILES IDX 14 14 15 15 16 16 17 17 18 18 19 19 20 20
REMARK H PARENT
REMARK Flexibility Score: inf
ROOT
ATOM      1  C   UNL     1      21.422  -5.845  14.046  1.00  0.00     0.000 C 
ENDROOT
BRANCH   1   2
ATOM      2  C   UNL     1      21.842  -6.950  13.066  1.00  0.00     0.000 C 
BRANCH   2   3
ATOM      3  C   UNL     1      23.335  -7.301  13.167  1.00  0.00     0.000 C 
BRANCH   3   4
ATOM      4  C   UNL     1      23.816  -7.421  14.624  1.00  0.00     0.000 C 
BRANCH   4   5
ATOM      5  C   UNL     1      24.058  -8.880  15.048  1.00  0.00     0.000 C 
BRANCH   5   6
ATOM      6  C   UNL     1      23.922  -9.086  16.567  1.00  0.00     0.006 C 
BRANCH   6   7
ATOM      7  C   UNL     1      25.004  -8.331  17.352  1.00  0.00     0.053 C 
BRANCH   7   8
ATOM      8  C   UNL     1      24.476  -7.781  18.642  1.00  0.00     0.041 C 
ATOM      9  O   UNL     1      25.196  -7.033  19.353  1.00  0.00    -0.550 OA
ATOM     10  O   UNL     1      23.178  -8.072  19.043  1.00  0.00    -0.550 OA
ENDBRANCH   7   8
ENDBRANCH   6   7
ENDBRANCH   5   6
ENDBRANCH   4   5
ENDBRANCH   3   4
ENDBRANCH   2   3
ENDBRANCH   1   2
BRANCH   1  11
ATOM     11  C   UNL     1      21.148  -4.528  13.302  1.00  0.00     0.000 C 
BRANCH  11  12
ATOM     12  C   UNL     1      22.348  -3.569  13.330  1.00  0.00     0.000 C 
BRANCH  12  13
ATOM     13  C   UNL     1      23.201  -3.725  14.598  1.00  0.00     0.000 C 
BRANCH  13  14
ATOM     14  C   UNL     1      22.641  -2.876  15.745  1.00  0.00     0.000 C 
BRANCH  14  15
ATOM     15  C   UNL     1      23.335  -3.216  17.073  1.00  0.00     0.000 C 
BRANCH  15  16
ATOM     16  C   UNL     1      22.718  -4.436  17.781  1.00  0.00     0.006 C 
BRANCH  16  17
ATOM     17  C   UNL     1      22.679  -4.314  19.314  1.00  0.00     0.053 C 
BRANCH  17  18
ATOM     18  C   UNL     1      21.409  -3.692  19.810  1.00  0.00     0.041 C 
ATOM     19  O   UNL     1      21.223  -3.532  21.045  1.00  0.00    -0.550 OA
ATOM     20  O   UNL     1      20.446  -3.257  18.910  1.00  0.00    -0.550 OA
ENDBRANCH  17  18
ENDBRANCH  16  17
ENDBRANCH  15  16
ENDBRANCH  14  15
ENDBRANCH  13  14
ENDBRANCH  12  13
ENDBRANCH  11  12
ENDBRANCH   1  11
TORSDOF 15
ENDMDL
MODEL 7
REMARK VINA RESULT:    -4.017      2.309      5.083
REMARK INTER + INTRA:          -9.643
REMARK INTER:                  -7.596
REMARK INTRA:                  -2.048
REMARK UNBOUND:                -2.104
REMARK SMILES O=C([O-])CCCCCCCCCCCCCCC(=O)[O-]
REMARK SMILES IDX 10 1 9 2 8 3 7 4 6 5 5 6 4 7 2 8 1 9 3 10 11 11 12 12 13 13
REMARK SMILES IDX 14 14 15 15 16 16 17 17 18 18 19 19 20 20
REMARK H PARENT
REMARK Flexibility Score: inf
ROOT
ATOM      1  C   UNL     1      21.641  -4.240  12.971  1.00  0.00     0.000 C 
ENDROOT
BRANCH   1   2
ATOM      2  C   UNL     1      22.435  -3.063  13.558  1.00  0.00     0.000 C 
BRANCH   2   3
ATOM      3  C   UNL     1      22.529  -3.115  15.092  1.00  0.00     0.000 C 
BRANCH   3   4
ATOM      4  C   UNL     1      23.982  -3.077  15.596  1.00  0.00     0.000 C 
BRANCH   4   5
ATOM      5  C   UNL     1      24.195  -3.943  16.850  1.00  0.00     0.000 C 
BRANCH   5   6
ATOM      6  C   UNL     1      22.877  -4.275  17.572  1.00  0.00     0.006 C 
BRANCH   6   7
ATOM      7  C   UNL     1      22.953  -3.983  19.076  1.00  0.00     0.053 C 
BRANCH   7   8
ATOM      8  C   UNL     1      21.609  -4.080  19.732  1.00  0.00     0.041 C 
ATOM      9  O   UNL     1      20.699  -3.262  19.436  1.00  0.00    -0.550 OA
ATOM     10  O   UNL     1      21.353  -5.092  20.648  1.00  0.00    -0.550 OA
ENDBRANCH   7   8
ENDBRANCH   6   7
ENDBRANCH   5   6
ENDBRANCH   4   5
ENDBRANCH   3   4
ENDBRANCH   2   3
ENDBRANCH   1   2
BRANCH   1  11
ATOM     11  C   UNL     1      21.336  -5.288  14.053  1.00  0.00     0.000 C 
BRANCH  11  12
ATOM     12  C   UNL     1      21.441  -6.729  13.528  1.00  0.00     0.000 C 
BRANCH  12  13
ATOM     13  C   UNL     1      22.888  -7.243  13.493  1.00  0.00     0.000 C 
BRANCH  13  14
ATOM     14  C   UNL     1      23.597  -6.978  14.827  1.00  0.00     0.000 C 
BRANCH  14  15
ATOM     15  C   UNL     1      24.199  -8.272  15.397  1.00  0.00     0.000 C 
BRANCH  15  16
ATOM     16  C   UNL     1      24.264  -8.281  16.935  1.00  0.00     0.006 C 
BRANCH  16  17
ATOM     17  C   UNL     1      25.352  -7.364  17.520  1.00  0.00     0.053 C 
BRANCH  17  18
ATOM     18  C   UNL     1      25.111  -7.031  18.961  1.00  0.00     0.041 C 
ATOM     19  O   UNL     1      24.001  -7.295  19.494  1.00  0.00    -0.550 OA
ATOM     20  O   UNL     1      26.120  -6.461  19.725  1.00  0.00    -0.550 OA
ENDBRANCH  17  18
ENDBRANCH  16  17
ENDBRANCH  15  16
ENDBRANCH  14  15
ENDBRANCH  13  14
ENDBRANCH  12  13
ENDBRANCH  11  12
ENDBRANCH   1  11
TORSDOF 15
ENDMDL
MODEL 8
REMARK VINA RESULT:    -4.014      4.689      8.944
REMARK INTER + INTRA:          -9.638
REMARK INTER:                  -8.906
REMARK INTRA:                  -0.732
REMARK UNBOUND:                -2.104
REMARK SMILES O=C([O-])CCCCCCCCCCCCCCC(=O)[O-]
REMARK SMILES IDX 10 1 9 2 8 3 7 4 6 5 5 6 4 7 2 8 1 9 3 10 11 11 12 12 13 13
REMARK SMILES IDX 14 14 15 15 16 16 17 17 18 18 19 19 20 20
REMARK H PARENT
REMARK Flexibility Score: inf
ROOT
ATOM      1  C   UNL     1      21.619  -3.389  12.477  1.00  0.00     0.000 C 
ENDROOT
BRANCH   1   2
ATOM      2  C   UNL     1      21.642  -2.031  11.760  1.00  0.00     0.000 C 
BRANCH   2   3
ATOM      3  C   UNL     1      20.571  -1.919  10.663  1.00  0.00     0.000 C 
BRANCH   3   4
ATOM      4  C   UNL     1      21.139  -1.390   9.335  1.00  0.00     0.000 C 
BRANCH   4   5
ATOM      5  C   UNL     1      20.817   0.097   9.105  1.00  0.00     0.000 C 
BRANCH   5   6
ATOM      6  C   UNL     1      19.554   0.553   9.856  1.00  0.00     0.006 C 
BRANCH   6   7
ATOM      7  C   UNL     1      18.805   1.663   9.106  1.00  0.00     0.053 C 
BRANCH   7   8
ATOM      8  C   UNL     1      17.510   2.012   9.774  1.00  0.00     0.041 C 
ATOM      9  O   UNL     1      16.809   2.963   9.340  1.00  0.00    -0.550 OA
ATOM     10  O   UNL     1      17.063   1.266  10.858  1.00  0.00    -0.550 OA
ENDBRANCH   7   8
ENDBRANCH   6   7
ENDBRANCH   5   6
ENDBRANCH   4   5
ENDBRANCH   3   4
ENDBRANCH   2   3
ENDBRANCH   1   2
BRANCH   1  11
ATOM     11  C   UNL     1      22.149  -3.258  13.914  1.00  0.00     0.000 C 
BRANCH  11  12
ATOM     12  C   UNL     1      22.668  -1.846  14.229  1.00  0.00     0.000 C 
BRANCH  12  13
ATOM     13  C   UNL     1      22.717  -1.556  15.736  1.00  0.00     0.000 C 
BRANCH  13  14
ATOM     14  C   UNL     1      22.543  -2.844  16.550  1.00  0.00     0.000 C 
BRANCH  14  15
ATOM     15  C   UNL     1      23.890  -3.334  17.101  1.00  0.00     0.000 C 
BRANCH  15  16
ATOM     16  C   UNL     1      23.775  -3.970  18.498  1.00  0.00     0.006 C 
BRANCH  16  17
ATOM     17  C   UNL     1      22.334  -4.050  19.032  1.00  0.00     0.053 C 
BRANCH  17  18
ATOM     18  C   UNL     1      22.237  -4.823  20.313  1.00  0.00     0.041 C 
ATOM     19  O   UNL     1      22.549  -4.279  21.405  1.00  0.00    -0.550 OA
ATOM     20  O   UNL     1      21.769  -6.130  20.307  1.00  0.00    -0.550 OA
ENDBRANCH  17  18
ENDBRANCH  16  17
ENDBRANCH  15  16
ENDBRANCH  14  15
ENDBRANCH  13  14
ENDBRANCH  12  13
ENDBRANCH  11  12
ENDBRANCH   1  11
TORSDOF 15
ENDMDL
MODEL 9
REMARK VINA RESULT:    -3.961      3.182      5.370
REMARK INTER + INTRA:          -9.538
REMARK INTER:                  -7.610
REMARK INTRA:                  -1.928
REMARK UNBOUND:                -2.104
REMARK SMILES O=C([O-])CCCCCCCCCCCCCCC(=O)[O-]
REMARK SMILES IDX 10 1 9 2 8 3 7 4 6 5 5 6 4 7 2 8 1 9 3 10 11 11 12 12 13 13
REMARK SMILES IDX 14 14 15 15 16 16 17 17 18 18 19 19 20 20
REMARK H PARENT
REMARK Flexibility Score: inf
ROOT
ATOM      1  C   UNL     1      26.518  -2.985  18.848  1.00  0.00     0.000 C 
ENDROOT
BRANCH   1   2
ATOM      2  C   UNL     1      26.535  -3.145  17.321  1.00  0.00     0.000 C 
BRANCH   2   3
ATOM      3  C   UNL     1      25.165  -2.873  16.678  1.00  0.00     0.000 C 
BRANCH   3   4
ATOM      4  C   UNL     1      24.159  -4.010  16.925  1.00  0.00     0.000 C 
BRANCH   4   5
ATOM      5  C   UNL     1      22.732  -3.493  17.177  1.00  0.00     0.000 C 
BRANCH   5   6
ATOM      6  C   UNL     1      22.247  -3.765  18.612  1.00  0.00     0.006 C 
BRANCH   6   7
ATOM      7  C   UNL     1      23.307  -4.492  19.452  1.00  0.00     0.053 C 
BRANCH   7   8
ATOM      8  C   UNL     1      22.720  -5.633  20.226  1.00  0.00     0.041 C 
ATOM      9  O   UNL     1      21.493  -5.641  20.509  1.00  0.00    -0.550 OA
ATOM     10  O   UNL     1      23.523  -6.700  20.609  1.00  0.00    -0.550 OA
ENDBRANCH   7   8
ENDBRANCH   6   7
ENDBRANCH   5   6
ENDBRANCH   4   5
ENDBRANCH   3   4
ENDBRANCH   2   3
ENDBRANCH   1   2
BRANCH   1  11
ATOM     11  C   UNL     1      27.915  -2.621  19.375  1.00  0.00     0.000 C 
BRANCH  11  12
ATOM     12  C   UNL     1      28.519  -3.722  20.263  1.00  0.00     0.000 C 
BRANCH  12  13
ATOM     13  C   UNL     1      29.084  -4.895  19.449  1.00  0.00     0.000 C 
BRANCH  13  14
ATOM     14  C   UNL     1      28.209  -6.145  19.608  1.00  0.00     0.000 C 
BRANCH  14  15
ATOM     15  C   UNL     1      27.616  -6.578  18.259  1.00  0.00     0.000 C 
BRANCH  15  16
ATOM     16  C   UNL     1      26.127  -6.957  18.348  1.00  0.00     0.006 C 
BRANCH  16  17
ATOM     17  C   UNL     1      25.516  -7.408  17.010  1.00  0.00     0.053 C 
BRANCH  17  18
ATOM     18  C   UNL     1      24.658  -8.629  17.151  1.00  0.00     0.041 C 
ATOM     19  O   UNL     1      24.283  -9.260  16.128  1.00  0.00    -0.550 OA
ATOM     20  O   UNL     1      24.302  -9.091  18.411  1.00  0.00    -0.550 OA
ENDBRANCH  17  18
ENDBRANCH  16  17
ENDBRANCH  15  16
ENDBRANCH  14  15
ENDBRANCH  13  14
ENDBRANCH  12  13
ENDBRANCH  11  12
ENDBRANCH   1  11
TORSDOF 15
ENDMDL
