MODEL 1
REMARK VINA RESULT:    -5.456      0.000      0.000
REMARK INTER + INTRA:         -11.551
REMARK INTER:                  -9.921
REMARK INTRA:                  -1.630
REMARK UNBOUND:                -1.630
REMARK SMILES CCCCCCCCCCCCCCCC(=O)[O-]
REMARK SMILES IDX 9 1 10 2 11 3 12 4 13 5 14 6 15 7 16 8 17 9 18 10 8 11 7 12
REMARK SMILES IDX 6 13 5 14 4 15 3 16 2 17 1 18
REMARK H PARENT
REMARK Flexibility Score: inf
ROOT
ATOM      1  C   UNL     1      87.863 326.761 193.833  1.00  0.00     0.000 C 
ENDROOT
BRANCH   1   2
ATOM      2  C   UNL     1      88.147 325.541 192.939  1.00  0.00     0.000 C 
BRANCH   2   3
ATOM      3  C   UNL     1      86.872 324.759 192.584  1.00  0.00     0.000 C 
BRANCH   3   4
ATOM      4  C   UNL     1      87.069 323.822 191.383  1.00  0.00     0.000 C 
BRANCH   4   5
ATOM      5  C   UNL     1      88.505 323.904 190.852  1.00  0.00     0.000 C 
BRANCH   5   6
ATOM      6  C   UNL     1      88.572 323.482 189.376  1.00  0.00     0.006 C 
BRANCH   6   7
ATOM      7  C   UNL     1      89.859 323.961 188.693  1.00  0.00     0.053 C 
BRANCH   7   8
ATOM      8  C   UNL     1      90.757 322.816 188.336  1.00  0.00     0.041 C 
ATOM      9  O   UNL     1      90.305 321.834 187.693  1.00  0.00    -0.550 OA
ATOM     10  O   UNL     1      92.100 322.851 188.688  1.00  0.00    -0.550 OA
ENDBRANCH   7   8
ENDBRANCH   6   7
ENDBRANCH   5   6
ENDBRANCH   4   5
ENDBRANCH   3   4
ENDBRANCH   2   3
ENDBRANCH   1   2
BRANCH   1  11
ATOM     11  C   UNL     1      86.612 326.574 194.705  1.00  0.00     0.000 C 
BRANCH  11  12
ATOM     12  C   UNL     1      86.928 326.604 196.208  1.00  0.00    -0.000 C 
BRANCH  12  13
ATOM     13  C   UNL     1      88.445 326.572 196.450  1.00  0.00    -0.000 C 
BRANCH  13  14
ATOM     14  C   UNL     1      88.825 325.854 197.755  1.00  0.00    -0.000 C 
BRANCH  14  15
ATOM     15  C   UNL     1      88.684 324.325 197.651  1.00  0.00    -0.000 C 
BRANCH  15  16
ATOM     16  C   UNL     1      89.406 323.750 196.422  1.00  0.00    -0.000 C 
BRANCH  16  17
ATOM     17  C   UNL     1      88.608 322.633 195.735  1.00  0.00    -0.003 C 
ATOM     18  C   UNL     1      89.134 322.369 194.327  1.00  0.00     0.004 C 
ENDBRANCH  16  17
ENDBRANCH  15  16
ENDBRANCH  14  15
ENDBRANCH  13  14
ENDBRANCH  12  13
ENDBRANCH  11  12
ENDBRANCH   1  11
TORSDOF 14
ENDMDL
MODEL 2
REMARK VINA RESULT:    -5.437     16.459     18.799
REMARK INTER + INTRA:         -11.516
REMARK INTER:                  -9.819
REMARK INTRA:                  -1.697
REMARK UNBOUND:                -1.630
REMARK SMILES CCCCCCCCCCCCCCCC(=O)[O-]
REMARK SMILES IDX 9 1 10 2 11 3 12 4 13 5 14 6 15 7 16 8 17 9 18 10 8 11 7 12
REMARK SMILES IDX 6 13 5 14 4 15 3 16 2 17 1 18
REMARK H PARENT
REMARK Flexibility Score: inf
ROOT
ATOM      1  C   UNL     1     104.880 311.498 193.100  1.00  0.00     0.000 C 
ENDROOT
BRANCH   1   2
ATOM      2  C   UNL     1     104.388 312.596 192.138  1.00  0.00     0.000 C 
BRANCH   2   3
ATOM      3  C   UNL     1     105.523 313.515 191.662  1.00  0.00     0.000 C 
BRANCH   3   4
ATOM      4  C   UNL     1     105.091 314.443 190.517  1.00  0.00     0.000 C 
BRANCH   4   5
ATOM      5  C   UNL     1     103.665 314.119 190.056  1.00  0.00     0.000 C 
BRANCH   5   6
ATOM      6  C   UNL     1     103.344 314.818 188.726  1.00  0.00     0.006 C 
BRANCH   6   7
ATOM      7  C   UNL     1     102.104 314.226 188.044  1.00  0.00     0.053 C 
BRANCH   7   8
ATOM      8  C   UNL     1     101.126 315.290 187.650  1.00  0.00     0.041 C 
ATOM      9  O   UNL     1     101.536 316.385 187.182  1.00  0.00    -0.550 OA
ATOM     10  O   UNL     1      99.762 315.059 187.770  1.00  0.00    -0.550 OA
ENDBRANCH   7   8
ENDBRANCH   6   7
ENDBRANCH   5   6
ENDBRANCH   4   5
ENDBRANCH   3   4
ENDBRANCH   2   3
ENDBRANCH   1   2
BRANCH   1  11
ATOM     11  C   UNL     1     106.043 311.970 193.986  1.00  0.00     0.000 C 
BRANCH  11  12
ATOM     12  C   UNL     1     105.766 311.766 195.484  1.00  0.00    -0.000 C 
BRANCH  12  13
ATOM     13  C   UNL     1     104.260 311.829 195.776  1.00  0.00    -0.000 C 
BRANCH  13  14
ATOM     14  C   UNL     1     103.934 312.619 197.054  1.00  0.00    -0.000 C 
BRANCH  14  15
ATOM     15  C   UNL     1     104.280 314.113 196.929  1.00  0.00    -0.000 C 
BRANCH  15  16
ATOM     16  C   UNL     1     103.450 314.822 195.847  1.00  0.00    -0.000 C 
BRANCH  16  17
ATOM     17  C   UNL     1     104.297 315.270 194.648  1.00  0.00    -0.003 C 
ATOM     18  C   UNL     1     103.434 315.952 193.591  1.00  0.00     0.004 C 
ENDBRANCH  16  17
ENDBRANCH  15  16
ENDBRANCH  14  15
ENDBRANCH  13  14
ENDBRANCH  12  13
ENDBRANCH  11  12
ENDBRANCH   1  11
TORSDOF 14
ENDMDL
MODEL 3
REMARK VINA RESULT:    -5.370     19.030     21.657
REMARK INTER + INTRA:         -11.394
REMARK INTER:                 -10.717
REMARK INTRA:                  -0.678
REMARK UNBOUND:                -1.630
REMARK SMILES CCCCCCCCCCCCCCCC(=O)[O-]
REMARK SMILES IDX 9 1 10 2 11 3 12 4 13 5 14 6 15 7 16 8 17 9 18 10 8 11 7 12
REMARK SMILES IDX 6 13 5 14 4 15 3 16 2 17 1 18
REMARK H PARENT
REMARK Flexibility Score: inf
ROOT
ATOM      1  C   UNL     1     104.530 312.271 195.669  1.00  0.00     0.000 C 
ENDROOT
BRANCH   1   2
ATOM      2  C   UNL     1     104.199 311.572 197.000  1.00  0.00     0.000 C 
BRANCH   2   3
ATOM      3  C   UNL     1     103.872 312.568 198.125  1.00  0.00     0.000 C 
BRANCH   3   4
ATOM      4  C   UNL     1     103.986 311.939 199.522  1.00  0.00     0.000 C 
BRANCH   4   5
ATOM      5  C   UNL     1     102.600 311.618 200.094  1.00  0.00     0.000 C 
BRANCH   5   6
ATOM      6  C   UNL     1     102.685 311.287 201.592  1.00  0.00     0.006 C 
BRANCH   6   7
ATOM      7  C   UNL     1     104.134 311.227 202.091  1.00  0.00     0.053 C 
BRANCH   7   8
ATOM      8  C   UNL     1     104.213 311.355 203.582  1.00  0.00     0.041 C 
ATOM      9  O   UNL     1     105.062 312.121 204.108  1.00  0.00    -0.550 OA
ATOM     10  O   UNL     1     103.327 310.651 204.388  1.00  0.00    -0.550 OA
ENDBRANCH   7   8
ENDBRANCH   6   7
ENDBRANCH   5   6
ENDBRANCH   4   5
ENDBRANCH   3   4
ENDBRANCH   2   3
ENDBRANCH   1   2
BRANCH   1  11
ATOM     11  C   UNL     1     105.851 311.780 195.058  1.00  0.00     0.000 C 
BRANCH  11  12
ATOM     12  C   UNL     1     105.904 311.968 193.534  1.00  0.00    -0.000 C 
BRANCH  12  13
ATOM     13  C   UNL     1     104.491 311.974 192.933  1.00  0.00    -0.000 C 
BRANCH  13  14
ATOM     14  C   UNL     1     104.370 312.892 191.706  1.00  0.00    -0.000 C 
BRANCH  14  15
ATOM     15  C   UNL     1     103.894 314.309 192.072  1.00  0.00    -0.000 C 
BRANCH  15  16
ATOM     16  C   UNL     1     103.558 315.155 190.834  1.00  0.00    -0.000 C 
BRANCH  16  17
ATOM     17  C   UNL     1     103.464 314.318 189.551  1.00  0.00    -0.003 C 
ATOM     18  C   UNL     1     103.664 315.187 188.312  1.00  0.00     0.004 C 
ENDBRANCH  16  17
ENDBRANCH  15  16
ENDBRANCH  14  15
ENDBRANCH  13  14
ENDBRANCH  12  13
ENDBRANCH  11  12
ENDBRANCH   1  11
TORSDOF 14
ENDMDL
MODEL 4
REMARK VINA RESULT:    -5.357      6.529      9.995
REMARK INTER + INTRA:         -11.372
REMARK INTER:                 -10.492
REMARK INTRA:                  -0.880
REMARK UNBOUND:                -1.630
REMARK SMILES CCCCCCCCCCCCCCCC(=O)[O-]
REMARK SMILES IDX 9 1 10 2 11 3 12 4 13 5 14 6 15 7 16 8 17 9 18 10 8 11 7 12
REMARK SMILES IDX 6 13 5 14 4 15 3 16 2 17 1 18
REMARK H PARENT
REMARK Flexibility Score: inf
ROOT
ATOM      1  C   UNL     1      89.202 324.773 197.296  1.00  0.00     0.000 C 
ENDROOT
BRANCH   1   2
ATOM      2  C   UNL     1      89.209 325.767 198.471  1.00  0.00     0.000 C 
BRANCH   2   3
ATOM      3  C   UNL     1      89.129 325.066 199.837  1.00  0.00     0.000 C 
BRANCH   3   4
ATOM      4  C   UNL     1      89.248 326.047 201.013  1.00  0.00     0.000 C 
BRANCH   4   5
ATOM      5  C   UNL     1      90.612 326.748 201.007  1.00  0.00     0.000 C 
BRANCH   5   6
ATOM      6  C   UNL     1      90.971 327.265 202.408  1.00  0.00     0.006 C 
BRANCH   6   7
ATOM      7  C   UNL     1      89.767 327.256 203.357  1.00  0.00     0.053 C 
BRANCH   7   8
ATOM      8  C   UNL     1      90.171 327.545 204.770  1.00  0.00     0.041 C 
ATOM      9  O   UNL     1      89.304 327.587 205.681  1.00  0.00    -0.550 OA
ATOM     10  O   UNL     1      91.511 327.736 205.085  1.00  0.00    -0.550 OA
ENDBRANCH   7   8
ENDBRANCH   6   7
ENDBRANCH   5   6
ENDBRANCH   4   5
ENDBRANCH   3   4
ENDBRANCH   2   3
ENDBRANCH   1   2
BRANCH   1  11
ATOM     11  C   UNL     1      88.151 325.126 196.232  1.00  0.00     0.000 C 
BRANCH  11  12
ATOM     12  C   UNL     1      87.463 326.473 196.504  1.00  0.00    -0.000 C 
BRANCH  12  13
ATOM     13  C   UNL     1      86.423 326.786 195.417  1.00  0.00    -0.000 C 
BRANCH  13  14
ATOM     14  C   UNL     1      86.895 326.389 194.009  1.00  0.00    -0.000 C 
BRANCH  14  15
ATOM     15  C   UNL     1      85.945 325.388 193.328  1.00  0.00    -0.000 C 
BRANCH  15  16
ATOM     16  C   UNL     1      86.698 324.324 192.513  1.00  0.00    -0.000 C 
BRANCH  16  17
ATOM     17  C   UNL     1      88.160 324.708 192.242  1.00  0.00    -0.003 C 
ATOM     18  C   UNL     1      88.589 324.283 190.841  1.00  0.00     0.004 C 
ENDBRANCH  16  17
ENDBRANCH  15  16
ENDBRANCH  14  15
ENDBRANCH  13  14
ENDBRANCH  12  13
ENDBRANCH  11  12
ENDBRANCH   1  11
TORSDOF 14
ENDMDL
MODEL 5
REMARK VINA RESULT:    -5.346      6.889     10.664
REMARK INTER + INTRA:         -11.351
REMARK INTER:                 -10.562
REMARK INTRA:                  -0.789
REMARK UNBOUND:                -1.630
REMARK SMILES CCCCCCCCCCCCCCCC(=O)[O-]
REMARK SMILES IDX 9 1 10 2 11 3 12 4 13 5 14 6 15 7 16 8 17 9 18 10 8 11 7 12
REMARK SMILES IDX 6 13 5 14 4 15 3 16 2 17 1 18
REMARK H PARENT
REMARK Flexibility Score: inf
ROOT
ATOM      1  C   UNL     1      89.181 326.577 199.030  1.00  0.00     0.000 C 
ENDROOT
BRANCH   1   2
ATOM      2  C   UNL     1      89.978 326.686 200.342  1.00  0.00     0.000 C 
BRANCH   2   3
ATOM      3  C   UNL     1      89.102 326.461 201.585  1.00  0.00     0.000 C 
BRANCH   3   4
ATOM      4  C   UNL     1      89.894 326.583 202.896  1.00  0.00     0.000 C 
BRANCH   4   5
ATOM      5  C   UNL     1      89.237 327.594 203.843  1.00  0.00     0.000 C 
BRANCH   5   6
ATOM      6  C   UNL     1      88.970 326.968 205.219  1.00  0.00     0.006 C 
BRANCH   6   7
ATOM      7  C   UNL     1      89.029 325.436 205.181  1.00  0.00     0.053 C 
BRANCH   7   8
ATOM      8  C   UNL     1      87.673 324.833 204.974  1.00  0.00     0.041 C 
ATOM      9  O   UNL     1      87.461 324.072 203.994  1.00  0.00    -0.550 OA
ATOM     10  O   UNL     1      86.652 325.088 205.881  1.00  0.00    -0.550 OA
ENDBRANCH   7   8
ENDBRANCH   6   7
ENDBRANCH   5   6
ENDBRANCH   4   5
ENDBRANCH   3   4
ENDBRANCH   2   3
ENDBRANCH   1   2
BRANCH   1  11
ATOM     11  C   UNL     1      89.207 325.158 198.441  1.00  0.00     0.000 C 
BRANCH  11  12
ATOM     12  C   UNL     1      88.581 325.086 197.040  1.00  0.00    -0.000 C 
BRANCH  12  13
ATOM     13  C   UNL     1      87.929 326.425 196.662  1.00  0.00    -0.000 C 
BRANCH  13  14
ATOM     14  C   UNL     1      86.762 326.262 195.675  1.00  0.00    -0.000 C 
BRANCH  14  15
ATOM     15  C   UNL     1      86.985 327.035 194.364  1.00  0.00    -0.000 C 
BRANCH  15  16
ATOM     16  C   UNL     1      88.180 326.498 193.559  1.00  0.00    -0.000 C 
BRANCH  16  17
ATOM     17  C   UNL     1      88.048 325.005 193.227  1.00  0.00    -0.003 C 
ATOM     18  C   UNL     1      88.296 324.749 191.743  1.00  0.00     0.004 C 
ENDBRANCH  16  17
ENDBRANCH  15  16
ENDBRANCH  14  15
ENDBRANCH  13  14
ENDBRANCH  12  13
ENDBRANCH  11  12
ENDBRANCH   1  11
TORSDOF 14
ENDMDL
MODEL 6
REMARK VINA RESULT:    -5.317      6.265      9.662
REMARK INTER + INTRA:         -11.299
REMARK INTER:                 -10.607
REMARK INTRA:                  -0.692
REMARK UNBOUND:                -1.630
REMARK SMILES CCCCCCCCCCCCCCCC(=O)[O-]
REMARK SMILES IDX 9 1 10 2 11 3 12 4 13 5 14 6 15 7 16 8 17 9 18 10 8 11 7 12
REMARK SMILES IDX 6 13 5 14 4 15 3 16 2 17 1 18
REMARK H PARENT
REMARK Flexibility Score: inf
ROOT
ATOM      1  C   UNL     1      88.270 326.525 196.847  1.00  0.00     0.000 C 
ENDROOT
BRANCH   1   2
ATOM      2  C   UNL     1      88.958 325.208 197.251  1.00  0.00     0.000 C 
BRANCH   2   3
ATOM      3  C   UNL     1      89.176 325.096 198.768  1.00  0.00     0.000 C 
BRANCH   3   4
ATOM      4  C   UNL     1      89.312 326.467 199.448  1.00  0.00     0.000 C 
BRANCH   4   5
ATOM      5  C   UNL     1      90.025 326.342 200.800  1.00  0.00     0.000 C 
BRANCH   5   6
ATOM      6  C   UNL     1      89.070 326.664 201.958  1.00  0.00     0.006 C 
BRANCH   6   7
ATOM      7  C   UNL     1      89.775 327.396 203.106  1.00  0.00     0.053 C 
BRANCH   7   8
ATOM      8  C   UNL     1      89.362 326.862 204.443  1.00  0.00     0.041 C 
ATOM      9  O   UNL     1      89.157 325.630 204.597  1.00  0.00    -0.550 OA
ATOM     10  O   UNL     1      89.232 327.723 205.526  1.00  0.00    -0.550 OA
ENDBRANCH   7   8
ENDBRANCH   6   7
ENDBRANCH   5   6
ENDBRANCH   4   5
ENDBRANCH   3   4
ENDBRANCH   2   3
ENDBRANCH   1   2
BRANCH   1  11
ATOM     11  C   UNL     1      88.126 326.672 195.325  1.00  0.00     0.000 C 
BRANCH  11  12
ATOM     12  C   UNL     1      86.666 326.569 194.856  1.00  0.00    -0.000 C 
BRANCH  12  13
ATOM     13  C   UNL     1      86.538 325.596 193.674  1.00  0.00    -0.000 C 
BRANCH  13  14
ATOM     14  C   UNL     1      87.865 325.388 192.926  1.00  0.00    -0.000 C 
BRANCH  14  15
ATOM     15  C   UNL     1      88.424 323.965 193.101  1.00  0.00    -0.000 C 
BRANCH  15  16
ATOM     16  C   UNL     1      88.761 323.297 191.758  1.00  0.00    -0.000 C 
BRANCH  16  17
ATOM     17  C   UNL     1      88.561 324.236 190.561  1.00  0.00    -0.003 C 
ATOM     18  C   UNL     1      89.276 323.706 189.321  1.00  0.00     0.004 C 
ENDBRANCH  16  17
ENDBRANCH  15  16
ENDBRANCH  14  15
ENDBRANCH  13  14
ENDBRANCH  12  13
ENDBRANCH  11  12
ENDBRANCH   1  11
TORSDOF 14
ENDMDL
MODEL 7
REMARK VINA RESULT:    -5.285     19.430     22.167
REMARK INTER + INTRA:         -11.241
REMARK INTER:                 -10.673
REMARK INTRA:                  -0.568
REMARK UNBOUND:                -1.630
REMARK SMILES CCCCCCCCCCCCCCCC(=O)[O-]
REMARK SMILES IDX 9 1 10 2 11 3 12 4 13 5 14 6 15 7 16 8 17 9 18 10 8 11 7 12
REMARK SMILES IDX 6 13 5 14 4 15 3 16 2 17 1 18
REMARK H PARENT
REMARK Flexibility Score: inf
ROOT
ATOM      1  C   UNL     1     103.748 313.652 197.373  1.00  0.00     0.000 C 
ENDROOT
BRANCH   1   2
ATOM      2  C   UNL     1     103.889 312.361 198.198  1.00  0.00     0.000 C 
BRANCH   2   3
ATOM      3  C   UNL     1     104.308 312.632 199.652  1.00  0.00     0.000 C 
BRANCH   3   4
ATOM      4  C   UNL     1     103.749 311.590 200.633  1.00  0.00     0.000 C 
BRANCH   4   5
ATOM      5  C   UNL     1     104.212 311.881 202.065  1.00  0.00     0.000 C 
BRANCH   5   6
ATOM      6  C   UNL     1     103.791 310.754 203.020  1.00  0.00     0.006 C 
BRANCH   6   7
ATOM      7  C   UNL     1     104.598 310.765 204.324  1.00  0.00     0.053 C 
BRANCH   7   8
ATOM      8  C   UNL     1     103.746 311.128 205.501  1.00  0.00     0.041 C 
ATOM      9  O   UNL     1     102.567 310.695 205.587  1.00  0.00    -0.550 OA
ATOM     10  O   UNL     1     104.266 311.919 206.518  1.00  0.00    -0.550 OA
ENDBRANCH   7   8
ENDBRANCH   6   7
ENDBRANCH   5   6
ENDBRANCH   4   5
ENDBRANCH   3   4
ENDBRANCH   2   3
ENDBRANCH   1   2
BRANCH   1  11
ATOM     11  C   UNL     1     104.247 313.485 195.929  1.00  0.00     0.000 C 
BRANCH  11  12
ATOM     12  C   UNL     1     104.527 312.019 195.564  1.00  0.00    -0.000 C 
BRANCH  12  13
ATOM     13  C   UNL     1     105.817 311.896 194.740  1.00  0.00    -0.000 C 
BRANCH  13  14
ATOM     14  C   UNL     1     105.554 311.504 193.277  1.00  0.00    -0.000 C 
BRANCH  14  15
ATOM     15  C   UNL     1     104.439 312.344 192.631  1.00  0.00    -0.000 C 
BRANCH  15  16
ATOM     16  C   UNL     1     104.977 313.611 191.947  1.00  0.00    -0.000 C 
BRANCH  16  17
ATOM     17  C   UNL     1     103.867 314.459 191.311  1.00  0.00    -0.003 C 
ATOM     18  C   UNL     1     103.541 313.970 189.903  1.00  0.00     0.004 C 
ENDBRANCH  16  17
ENDBRANCH  15  16
ENDBRANCH  14  15
ENDBRANCH  13  14
ENDBRANCH  12  13
ENDBRANCH  11  12
ENDBRANCH   1  11
TORSDOF 14
ENDMDL
MODEL 8
REMARK VINA RESULT:    -5.280      5.312      8.693
REMARK INTER + INTRA:         -11.231
REMARK INTER:                 -10.356
REMARK INTRA:                  -0.875
REMARK UNBOUND:                -1.630
REMARK SMILES CCCCCCCCCCCCCCCC(=O)[O-]
REMARK SMILES IDX 9 1 10 2 11 3 12 4 13 5 14 6 15 7 16 8 17 9 18 10 8 11 7 12
REMARK SMILES IDX 6 13 5 14 4 15 3 16 2 17 1 18
REMARK H PARENT
REMARK Flexibility Score: inf
ROOT
ATOM      1  C   UNL     1      87.073 326.369 195.987  1.00  0.00     0.000 C 
ENDROOT
BRANCH   1   2
ATOM      2  C   UNL     1      88.549 326.359 196.424  1.00  0.00     0.000 C 
BRANCH   2   3
ATOM      3  C   UNL     1      89.017 324.972 196.893  1.00  0.00     0.000 C 
BRANCH   3   4
ATOM      4  C   UNL     1      88.737 324.727 198.383  1.00  0.00     0.000 C 
BRANCH   4   5
ATOM      5  C   UNL     1      89.938 325.139 199.243  1.00  0.00     0.000 C 
BRANCH   5   6
ATOM      6  C   UNL     1      89.668 326.468 199.965  1.00  0.00     0.006 C 
BRANCH   6   7
ATOM      7  C   UNL     1      90.853 326.906 200.835  1.00  0.00     0.053 C 
BRANCH   7   8
ATOM      8  C   UNL     1      90.467 327.027 202.278  1.00  0.00     0.041 C 
ATOM      9  O   UNL     1      91.284 327.493 203.114  1.00  0.00    -0.550 OA
ATOM     10  O   UNL     1      89.195 326.653 202.691  1.00  0.00    -0.550 OA
ENDBRANCH   7   8
ENDBRANCH   6   7
ENDBRANCH   5   6
ENDBRANCH   4   5
ENDBRANCH   3   4
ENDBRANCH   2   3
ENDBRANCH   1   2
BRANCH   1  11
ATOM     11  C   UNL     1      86.888 326.868 194.546  1.00  0.00     0.000 C 
BRANCH  11  12
ATOM     12  C   UNL     1      87.975 326.345 193.594  1.00  0.00    -0.000 C 
BRANCH  12  13
ATOM     13  C   UNL     1      87.513 325.060 192.890  1.00  0.00    -0.000 C 
BRANCH  13  14
ATOM     14  C   UNL     1      88.620 323.996 192.806  1.00  0.00    -0.000 C 
BRANCH  14  15
ATOM     15  C   UNL     1      88.615 323.243 191.464  1.00  0.00    -0.000 C 
BRANCH  15  16
ATOM     16  C   UNL     1      88.887 324.169 190.268  1.00  0.00    -0.000 C 
BRANCH  16  17
ATOM     17  C   UNL     1      89.014 323.404 188.943  1.00  0.00    -0.003 C 
ATOM     18  C   UNL     1      87.765 322.572 188.667  1.00  0.00     0.004 C 
ENDBRANCH  16  17
ENDBRANCH  15  16
ENDBRANCH  14  15
ENDBRANCH  13  14
ENDBRANCH  12  13
ENDBRANCH  11  12
ENDBRANCH   1  11
TORSDOF 14
ENDMDL
MODEL 9
REMARK VINA RESULT:    -5.255      3.886      7.275
REMARK INTER + INTRA:         -11.186
REMARK INTER:                  -9.601
REMARK INTRA:                  -1.585
REMARK UNBOUND:                -1.630
REMARK SMILES CCCCCCCCCCCCCCCC(=O)[O-]
REMARK SMILES IDX 9 1 10 2 11 3 12 4 13 5 14 6 15 7 16 8 17 9 18 10 8 11 7 12
REMARK SMILES IDX 6 13 5 14 4 15 3 16 2 17 1 18
REMARK H PARENT
REMARK Flexibility Score: inf
ROOT
ATOM      1  C   UNL     1      88.416 323.971 193.110  1.00  0.00     0.000 C 
ENDROOT
BRANCH   1   2
ATOM      2  C   UNL     1      88.154 325.380 192.549  1.00  0.00     0.000 C 
BRANCH   2   3
ATOM      3  C   UNL     1      87.891 326.416 193.653  1.00  0.00     0.000 C 
BRANCH   3   4
ATOM      4  C   UNL     1      86.637 326.093 194.480  1.00  0.00     0.000 C 
BRANCH   4   5
ATOM      5  C   UNL     1      86.798 326.563 195.930  1.00  0.00     0.000 C 
BRANCH   5   6
ATOM      6  C   UNL     1      88.236 326.345 196.424  1.00  0.00     0.006 C 
BRANCH   6   7
ATOM      7  C   UNL     1      88.488 324.895 196.854  1.00  0.00     0.053 C 
BRANCH   7   8
ATOM      8  C   UNL     1      88.895 324.806 198.294  1.00  0.00     0.041 C 
ATOM      9  O   UNL     1      89.242 325.842 198.919  1.00  0.00    -0.550 OA
ATOM     10  O   UNL     1      88.861 323.583 198.952  1.00  0.00    -0.550 OA
ENDBRANCH   7   8
ENDBRANCH   6   7
ENDBRANCH   5   6
ENDBRANCH   4   5
ENDBRANCH   3   4
ENDBRANCH   2   3
ENDBRANCH   1   2
BRANCH   1  11
ATOM     11  C   UNL     1      87.421 322.930 192.576  1.00  0.00     0.000 C 
BRANCH  11  12
ATOM     12  C   UNL     1      86.261 323.565 191.795  1.00  0.00    -0.000 C 
BRANCH  12  13
ATOM     13  C   UNL     1      85.969 322.778 190.509  1.00  0.00    -0.000 C 
BRANCH  13  14
ATOM     14  C   UNL     1      87.223 322.109 189.923  1.00  0.00    -0.000 C 
BRANCH  14  15
ATOM     15  C   UNL     1      87.867 322.940 188.800  1.00  0.00    -0.000 C 
BRANCH  15  16
ATOM     16  C   UNL     1      89.087 323.740 189.284  1.00  0.00    -0.000 C 
BRANCH  16  17
ATOM     17  C   UNL     1      90.403 323.246 188.667  1.00  0.00    -0.003 C 
ATOM     18  C   UNL     1      90.893 321.978 189.360  1.00  0.00     0.004 C 
ENDBRANCH  16  17
ENDBRANCH  15  16
ENDBRANCH  14  15
ENDBRANCH  13  14
ENDBRANCH  12  13
ENDBRANCH  11  12
ENDBRANCH   1  11
TORSDOF 14
ENDMDL
