MODEL 1
REMARK VINA RESULT:    12.517      0.000      0.000
REMARK INTER + INTRA:          18.945
REMARK INTER:                  19.468
REMARK INTRA:                  -0.523
REMARK UNBOUND:                -0.523
REMARK SMILES COc1cc(CNC(=O)CCCCC=CC(C)C)ccc1O
REMARK SMILES IDX 11 1 12 2 13 3 14 4 15 5 16 6 17 7 18 8 10 9 8 10 9 11 7 12
REMARK SMILES IDX 6 14 5 15 4 16 19 17 3 18 20 19 21 20 2 21 1 22 22 23
REMARK H PARENT 7 13 22 24
REMARK Flexibility Score: inf
ROOT
ATOM      1  C   UNL     1      85.041  19.020 107.664  1.00  0.00     0.010 C 
ENDROOT
BRANCH   1   2
ATOM      2  C   UNL     1      84.237  17.707 107.626  1.00  0.00     0.005 C 
BRANCH   2   3
ATOM      3  C   UNL     1      85.068  16.475 107.237  1.00  0.00     0.027 C 
BRANCH   3   4
ATOM      4  C   UNL     1      84.359  15.192 107.595  1.00  0.00    -0.031 C 
ATOM      5  C   UNL     1      84.627  14.534 108.737  1.00  0.00    -0.028 C 
BRANCH   5   6
ATOM      6  C   UNL     1      83.885  13.284 109.154  1.00  0.00     0.005 C 
ATOM      7  C   UNL     1      83.434  12.468 107.936  1.00  0.00     0.012 C 
ATOM      8  C   UNL     1      82.697  13.619 110.070  1.00  0.00     0.012 C 
ENDBRANCH   5   6
ENDBRANCH   3   4
ENDBRANCH   2   3
ENDBRANCH   1   2
BRANCH   1   9
ATOM      9  C   UNL     1      86.120  19.028 108.760  1.00  0.00     0.100 C 
BRANCH   9  10
ATOM     10  C   UNL     1      86.479  20.439 109.119  1.00  0.00     0.220 C 
ATOM     11  O   UNL     1      86.013  21.386 108.430  1.00  0.00    -0.275 OA
ATOM     12  N   UNL     1      87.388  20.704 110.203  1.00  0.00    -0.352 N 
ATOM     13  H   UNL     1      87.741  19.906 110.780  1.00  0.00     0.163 HD
BRANCH  12  14
ATOM     14  C   UNL     1      87.972  22.022 110.426  1.00  0.00     0.151 C 
BRANCH  14  15
ATOM     15  C   UNL     1      89.096  21.914 111.420  1.00  0.00    -0.025 A 
ATOM     16  C   UNL     1      89.826  20.721 111.546  1.00  0.00     0.056 A 
ATOM     17  C   UNL     1      89.376  22.990 112.280  1.00  0.00     0.009 A 
ATOM     18  C   UNL     1      90.851  20.605 112.511  1.00  0.00     0.160 A 
ATOM     19  C   UNL     1      90.390  22.883 113.236  1.00  0.00     0.050 A 
ATOM     20  C   UNL     1      91.129  21.700 113.356  1.00  0.00     0.157 A 
BRANCH  18  21
ATOM     21  O   UNL     1      91.604  19.426 112.656  1.00  0.00    -0.493 OA
ATOM     22  C   UNL     1      92.894  19.214 112.080  1.00  0.00     0.278 C 
ENDBRANCH  18  21
BRANCH  20  23
ATOM     23  O   UNL     1      92.136  21.632 114.322  1.00  0.00    -0.504 OA
ATOM     24  H   UNL     1      92.130  22.217 115.151  1.00  0.00     0.293 HD
ENDBRANCH  20  23
ENDBRANCH  14  15
ENDBRANCH  12  14
ENDBRANCH   9  10
ENDBRANCH   1   9
TORSDOF 10
ENDMDL
MODEL 2
REMARK VINA RESULT:    12.642      3.197      9.467
REMARK INTER + INTRA:          19.141
REMARK INTER:                  19.668
REMARK INTRA:                  -0.527
REMARK UNBOUND:                -0.523
REMARK SMILES COc1cc(CNC(=O)CCCCC=CC(C)C)ccc1O
REMARK SMILES IDX 11 1 12 2 13 3 14 4 15 5 16 6 17 7 18 8 10 9 8 10 9 11 7 12
REMARK SMILES IDX 6 14 5 15 4 16 19 17 3 18 20 19 21 20 2 21 1 22 22 23
REMARK H PARENT 7 13 22 24
REMARK Flexibility Score: inf
ROOT
ATOM      1  C   UNL     1      86.492  21.068 108.786  1.00  0.00     0.010 C 
ENDROOT
BRANCH   1   2
ATOM      2  C   UNL     1      87.718  21.587 109.560  1.00  0.00     0.005 C 
BRANCH   2   3
ATOM      3  C   UNL     1      87.611  21.426 111.084  1.00  0.00     0.027 C 
BRANCH   3   4
ATOM      4  C   UNL     1      88.934  21.680 111.763  1.00  0.00    -0.031 C 
ATOM      5  C   UNL     1      89.570  20.715 112.451  1.00  0.00    -0.028 C 
BRANCH   5   6
ATOM      6  C   UNL     1      90.928  20.921 113.084  1.00  0.00     0.005 C 
ATOM      7  C   UNL     1      91.049  22.317 113.708  1.00  0.00     0.012 C 
ATOM      8  C   UNL     1      92.059  20.662 112.076  1.00  0.00     0.012 C 
ENDBRANCH   5   6
ENDBRANCH   3   4
ENDBRANCH   2   3
ENDBRANCH   1   2
BRANCH   1   9
ATOM      9  C   UNL     1      86.131  19.617 109.144  1.00  0.00     0.100 C 
BRANCH   9  10
ATOM     10  C   UNL     1      85.385  18.978 108.012  1.00  0.00     0.220 C 
ATOM     11  O   UNL     1      84.930  19.704 107.087  1.00  0.00    -0.275 OA
ATOM     12  N   UNL     1      85.143  17.558 108.010  1.00  0.00    -0.352 N 
ATOM     13  H   UNL     1      85.552  16.970 108.771  1.00  0.00     0.163 HD
BRANCH  12  14
ATOM     14  C   UNL     1      84.208  16.928 107.084  1.00  0.00     0.151 C 
BRANCH  14  15
ATOM     15  C   UNL     1      83.900  15.531 107.552  1.00  0.00    -0.025 A 
ATOM     16  C   UNL     1      83.899  15.221 108.921  1.00  0.00     0.056 A 
ATOM     17  C   UNL     1      83.678  14.511 106.611  1.00  0.00     0.009 A 
ATOM     18  C   UNL     1      83.654  13.900 109.357  1.00  0.00     0.160 A 
ATOM     19  C   UNL     1      83.434  13.203 107.035  1.00  0.00     0.050 A 
ATOM     20  C   UNL     1      83.418  12.891 108.399  1.00  0.00     0.157 A 
BRANCH  18  21
ATOM     21  O   UNL     1      83.640  13.559 110.721  1.00  0.00    -0.493 OA
ATOM     22  C   UNL     1      82.466  13.528 111.535  1.00  0.00     0.278 C 
ENDBRANCH  18  21
BRANCH  20  23
ATOM     23  O   UNL     1      83.168  11.571 108.785  1.00  0.00    -0.504 OA
ATOM     24  H   UNL     1      83.601  10.780 108.319  1.00  0.00     0.293 HD
ENDBRANCH  20  23
ENDBRANCH  14  15
ENDBRANCH  12  14
ENDBRANCH   9  10
ENDBRANCH   1   9
TORSDOF 10
ENDMDL
MODEL 3
REMARK VINA RESULT:    14.923      9.551     12.180
REMARK INTER + INTRA:          22.688
REMARK INTER:                  22.250
REMARK INTRA:                   0.438
REMARK UNBOUND:                -0.523
REMARK SMILES COc1cc(CNC(=O)CCCCC=CC(C)C)ccc1O
REMARK SMILES IDX 11 1 12 2 13 3 14 4 15 5 16 6 17 7 18 8 10 9 8 10 9 11 7 12
REMARK SMILES IDX 6 14 5 15 4 16 19 17 3 18 20 19 21 20 2 21 1 22 22 23
REMARK H PARENT 7 13 22 24
REMARK Flexibility Score: inf
ROOT
ATOM      1  C   UNL     1      89.821  10.992 106.643  1.00  0.00     0.010 C 
ENDROOT
BRANCH   1   2
ATOM      2  C   UNL     1      88.736  11.837 105.952  1.00  0.00     0.005 C 
BRANCH   2   3
ATOM      3  C   UNL     1      88.951  13.354 106.073  1.00  0.00     0.027 C 
BRANCH   3   4
ATOM      4  C   UNL     1      88.250  14.103 104.967  1.00  0.00    -0.031 C 
ATOM      5  C   UNL     1      88.926  14.611 103.921  1.00  0.00    -0.028 C 
BRANCH   5   6
ATOM      6  C   UNL     1      88.241  15.307 102.765  1.00  0.00     0.005 C 
ATOM      7  C   UNL     1      87.825  14.309 101.677  1.00  0.00     0.012 C 
ATOM      8  C   UNL     1      89.122  16.427 102.187  1.00  0.00     0.012 C 
ENDBRANCH   5   6
ENDBRANCH   3   4
ENDBRANCH   2   3
ENDBRANCH   1   2
BRANCH   1   9
ATOM      9  C   UNL     1      90.122   9.681 105.898  1.00  0.00     0.100 C 
BRANCH   9  10
ATOM     10  C   UNL     1      90.392   8.580 106.880  1.00  0.00     0.220 C 
ATOM     11  O   UNL     1      91.237   7.692 106.590  1.00  0.00    -0.275 OA
ATOM     12  N   UNL     1      89.653   8.510 108.113  1.00  0.00    -0.352 N 
ATOM     13  H   UNL     1      88.976   9.272 108.347  1.00  0.00     0.163 HD
BRANCH  12  14
ATOM     14  C   UNL     1      89.684   7.332 108.974  1.00  0.00     0.151 C 
BRANCH  14  15
ATOM     15  C   UNL     1      88.581   7.424 109.993  1.00  0.00    -0.025 A 
ATOM     16  C   UNL     1      88.832   7.139 111.345  1.00  0.00     0.056 A 
ATOM     17  C   UNL     1      87.272   7.731 109.582  1.00  0.00     0.009 A 
ATOM     18  C   UNL     1      87.786   7.182 112.293  1.00  0.00     0.160 A 
ATOM     19  C   UNL     1      86.233   7.777 110.515  1.00  0.00     0.050 A 
ATOM     20  C   UNL     1      86.481   7.507 111.866  1.00  0.00     0.157 A 
BRANCH  18  21
ATOM     21  O   UNL     1      88.007   6.908 113.655  1.00  0.00    -0.493 OA
ATOM     22  C   UNL     1      86.982   6.878 114.651  1.00  0.00     0.278 C 
ENDBRANCH  18  21
BRANCH  20  23
ATOM     23  O   UNL     1      85.417   7.565 112.770  1.00  0.00    -0.504 OA
ATOM     24  H   UNL     1      84.935   6.731 113.092  1.00  0.00     0.293 HD
ENDBRANCH  20  23
ENDBRANCH  14  15
ENDBRANCH  12  14
ENDBRANCH   9  10
ENDBRANCH   1   9
TORSDOF 10
ENDMDL
MODEL 4
REMARK VINA RESULT:    15.473      6.949      9.934
REMARK INTER + INTRA:          23.543
REMARK INTER:                  24.142
REMARK INTRA:                  -0.599
REMARK UNBOUND:                -0.523
REMARK SMILES COc1cc(CNC(=O)CCCCC=CC(C)C)ccc1O
REMARK SMILES IDX 11 1 12 2 13 3 14 4 15 5 16 6 17 7 18 8 10 9 8 10 9 11 7 12
REMARK SMILES IDX 6 14 5 15 4 16 19 17 3 18 20 19 21 20 2 21 1 22 22 23
REMARK H PARENT 7 13 22 24
REMARK Flexibility Score: inf
ROOT
ATOM      1  C   UNL     1      89.176  11.258 105.183  1.00  0.00     0.010 C 
ENDROOT
BRANCH   1   2
ATOM      2  C   UNL     1      89.222   9.750 105.488  1.00  0.00     0.005 C 
BRANCH   2   3
ATOM      3  C   UNL     1      90.631   9.140 105.421  1.00  0.00     0.027 C 
BRANCH   3   4
ATOM      4  C   UNL     1      90.871   8.172 106.553  1.00  0.00    -0.031 C 
ATOM      5  C   UNL     1      89.915   7.892 107.456  1.00  0.00    -0.028 C 
BRANCH   5   6
ATOM      6  C   UNL     1      90.105   6.875 108.560  1.00  0.00     0.005 C 
ATOM      7  C   UNL     1      89.105   7.096 109.702  1.00  0.00     0.012 C 
ATOM      8  C   UNL     1      91.552   6.877 109.078  1.00  0.00     0.012 C 
ENDBRANCH   5   6
ENDBRANCH   3   4
ENDBRANCH   2   3
ENDBRANCH   1   2
BRANCH   1   9
ATOM      9  C   UNL     1      89.494  12.126 106.412  1.00  0.00     0.100 C 
BRANCH   9  10
ATOM     10  C   UNL     1      88.725  13.412 106.346  1.00  0.00     0.220 C 
ATOM     11  O   UNL     1      89.079  14.298 105.522  1.00  0.00    -0.275 OA
ATOM     12  N   UNL     1      87.634  13.653 107.253  1.00  0.00    -0.352 N 
ATOM     13  H   UNL     1      87.338  12.895 107.910  1.00  0.00     0.163 HD
BRANCH  12  14
ATOM     14  C   UNL     1      87.028  14.972 107.411  1.00  0.00     0.151 C 
BRANCH  14  15
ATOM     15  C   UNL     1      85.538  14.828 107.555  1.00  0.00    -0.025 A 
ATOM     16  C   UNL     1      84.992  14.051 108.589  1.00  0.00     0.056 A 
ATOM     17  C   UNL     1      84.683  15.419 106.608  1.00  0.00     0.009 A 
ATOM     18  C   UNL     1      83.594  13.879 108.696  1.00  0.00     0.160 A 
ATOM     19  C   UNL     1      83.300  15.255 106.709  1.00  0.00     0.050 A 
ATOM     20  C   UNL     1      82.750  14.492 107.746  1.00  0.00     0.157 A 
BRANCH  18  21
ATOM     21  O   UNL     1      83.016  13.112 109.723  1.00  0.00    -0.493 OA
ATOM     22  C   UNL     1      82.451  13.655 110.918  1.00  0.00     0.278 C 
ENDBRANCH  18  21
BRANCH  20  23
ATOM     23  O   UNL     1      81.361  14.353 107.814  1.00  0.00    -0.504 OA
ATOM     24  H   UNL     1      80.886  14.089 108.672  1.00  0.00     0.293 HD
ENDBRANCH  20  23
ENDBRANCH  14  15
ENDBRANCH  12  14
ENDBRANCH   9  10
ENDBRANCH   1   9
TORSDOF 10
ENDMDL
