MODEL 1
REMARK VINA RESULT:    -4.135      0.000      0.000
REMARK INTER + INTRA:         -10.038
REMARK INTER:                  -7.520
REMARK INTRA:                  -2.518
REMARK UNBOUND:                -2.518
REMARK SMILES CCCCCCCCCCCCCC[C@@H](C)C(=O)[O-]
REMARK SMILES IDX 9 1 10 2 11 3 12 4 13 5 14 6 15 7 16 8 17 9 18 10 19 11 8 12
REMARK SMILES IDX 7 13 6 14 5 15 4 16 3 17 2 18 1 19
REMARK H PARENT
REMARK Flexibility Score: inf
ROOT
ATOM      1  C   UNL     1     -17.275  43.848  -6.281  1.00  0.00     0.000 C 
ENDROOT
BRANCH   1   2
ATOM      2  C   UNL     1     -17.274  42.901  -7.495  1.00  0.00     0.000 C 
BRANCH   2   3
ATOM      3  C   UNL     1     -16.122  43.183  -8.474  1.00  0.00     0.000 C 
BRANCH   3   4
ATOM      4  C   UNL     1     -16.585  43.919  -9.745  1.00  0.00     0.000 C 
BRANCH   4   5
ATOM      5  C   UNL     1     -16.291  45.433  -9.773  1.00  0.00     0.001 C 
BRANCH   5   6
ATOM      6  C   UNL     1     -15.298  45.932  -8.703  1.00  0.00     0.009 C 
BRANCH   6   7
ATOM      7  C   UNL     1     -15.848  47.035  -7.769  1.00  0.00     0.032 C 
ATOM      8  C   UNL     1     -17.365  47.219  -7.910  1.00  0.00     0.014 C 
BRANCH   7   9
ATOM      9  C   UNL     1     -15.501  46.709  -6.342  1.00  0.00     0.044 C 
ATOM     10  O   UNL     1     -14.415  46.135  -6.063  1.00  0.00    -0.550 OA
ATOM     11  O   UNL     1     -16.377  47.050  -5.320  1.00  0.00    -0.550 OA
ENDBRANCH   7   9
ENDBRANCH   6   7
ENDBRANCH   5   6
ENDBRANCH   4   5
ENDBRANCH   3   4
ENDBRANCH   2   3
ENDBRANCH   1   2
BRANCH   1  12
ATOM     12  C   UNL     1     -18.602  43.909  -5.503  1.00  0.00     0.000 C 
BRANCH  12  13
ATOM     13  C   UNL     1     -19.528  45.038  -5.987  1.00  0.00    -0.000 C 
BRANCH  13  14
ATOM     14  C   UNL     1     -20.648  44.532  -6.911  1.00  0.00    -0.000 C 
BRANCH  14  15
ATOM     15  C   UNL     1     -20.810  45.401  -8.170  1.00  0.00    -0.000 C 
BRANCH  15  16
ATOM     16  C   UNL     1     -19.859  44.979  -9.303  1.00  0.00    -0.000 C 
BRANCH  16  17
ATOM     17  C   UNL     1     -20.611  44.552 -10.576  1.00  0.00    -0.000 C 
BRANCH  17  18
ATOM     18  C   UNL     1     -20.246  43.128 -11.023  1.00  0.00    -0.003 C 
ATOM     19  C   UNL     1     -19.950  42.194  -9.850  1.00  0.00     0.004 C 
ENDBRANCH  17  18
ENDBRANCH  16  17
ENDBRANCH  15  16
ENDBRANCH  14  15
ENDBRANCH  13  14
ENDBRANCH  12  13
ENDBRANCH   1  12
TORSDOF 14
ENDMDL
MODEL 2
REMARK VINA RESULT:    -4.119      2.105      3.367
REMARK INTER + INTRA:         -10.009
REMARK INTER:                  -7.325
REMARK INTRA:                  -2.685
REMARK UNBOUND:                -2.518
REMARK SMILES CCCCCCCCCCCCCC[C@@H](C)C(=O)[O-]
REMARK SMILES IDX 9 1 10 2 11 3 12 4 13 5 14 6 15 7 16 8 17 9 18 10 19 11 8 12
REMARK SMILES IDX 7 13 6 14 5 15 4 16 3 17 2 18 1 19
REMARK H PARENT
REMARK Flexibility Score: inf
ROOT
ATOM      1  C   UNL     1     -19.080  45.003  -5.853  1.00  0.00     0.000 C 
ENDROOT
BRANCH   1   2
ATOM      2  C   UNL     1     -18.808  46.518  -5.859  1.00  0.00     0.000 C 
BRANCH   2   3
ATOM      3  C   UNL     1     -17.332  46.863  -5.603  1.00  0.00     0.000 C 
BRANCH   3   4
ATOM      4  C   UNL     1     -16.384  45.681  -5.878  1.00  0.00     0.000 C 
BRANCH   4   5
ATOM      5  C   UNL     1     -15.432  45.866  -7.078  1.00  0.00     0.001 C 
BRANCH   5   6
ATOM      6  C   UNL     1     -15.495  47.247  -7.762  1.00  0.00     0.009 C 
BRANCH   6   7
ATOM      7  C   UNL     1     -15.998  47.227  -9.224  1.00  0.00     0.032 C 
ATOM      8  C   UNL     1     -17.520  47.050  -9.316  1.00  0.00     0.014 C 
BRANCH   7   9
ATOM      9  C   UNL     1     -15.587  48.497  -9.918  1.00  0.00     0.044 C 
ATOM     10  O   UNL     1     -16.221  48.909 -10.927  1.00  0.00    -0.550 OA
ATOM     11  O   UNL     1     -14.508  49.230  -9.442  1.00  0.00    -0.550 OA
ENDBRANCH   7   9
ENDBRANCH   6   7
ENDBRANCH   5   6
ENDBRANCH   4   5
ENDBRANCH   3   4
ENDBRANCH   2   3
ENDBRANCH   1   2
BRANCH   1  12
ATOM     12  C   UNL     1     -20.290  44.553  -6.693  1.00  0.00     0.000 C 
BRANCH  12  13
ATOM     13  C   UNL     1     -20.567  45.481  -7.888  1.00  0.00    -0.000 C 
BRANCH  13  14
ATOM     14  C   UNL     1     -20.478  44.752  -9.239  1.00  0.00    -0.000 C 
BRANCH  14  15
ATOM     15  C   UNL     1     -20.567  43.223  -9.089  1.00  0.00    -0.000 C 
BRANCH  15  16
ATOM     16  C   UNL     1     -19.311  42.505  -9.612  1.00  0.00    -0.000 C 
BRANCH  16  17
ATOM     17  C   UNL     1     -18.228  43.487 -10.093  1.00  0.00    -0.000 C 
BRANCH  17  18
ATOM     18  C   UNL     1     -16.925  43.365  -9.289  1.00  0.00    -0.003 C 
ATOM     19  C   UNL     1     -17.129  42.708  -7.923  1.00  0.00     0.004 C 
ENDBRANCH  17  18
ENDBRANCH  16  17
ENDBRANCH  15  16
ENDBRANCH  14  15
ENDBRANCH  13  14
ENDBRANCH  12  13
ENDBRANCH   1  12
TORSDOF 14
ENDMDL
MODEL 3
REMARK VINA RESULT:    -4.054      1.889      2.481
REMARK INTER + INTRA:          -9.890
REMARK INTER:                  -7.069
REMARK INTRA:                  -2.821
REMARK UNBOUND:                -2.518
REMARK SMILES CCCCCCCCCCCCCC[C@@H](C)C(=O)[O-]
REMARK SMILES IDX 9 1 10 2 11 3 12 4 13 5 14 6 15 7 16 8 17 9 18 10 19 11 8 12
REMARK SMILES IDX 7 13 6 14 5 15 4 16 3 17 2 18 1 19
REMARK H PARENT
REMARK Flexibility Score: inf
ROOT
ATOM      1  C   UNL     1     -17.317  44.214  -5.951  1.00  0.00     0.000 C 
ENDROOT
BRANCH   1   2
ATOM      2  C   UNL     1     -17.252  43.149  -7.060  1.00  0.00     0.000 C 
BRANCH   2   3
ATOM      3  C   UNL     1     -16.222  43.482  -8.152  1.00  0.00     0.000 C 
BRANCH   3   4
ATOM      4  C   UNL     1     -16.829  43.481  -9.567  1.00  0.00     0.000 C 
BRANCH   4   5
ATOM      5  C   UNL     1     -16.985  44.871 -10.218  1.00  0.00     0.001 C 
BRANCH   5   6
ATOM      6  C   UNL     1     -15.855  45.875  -9.909  1.00  0.00     0.009 C 
BRANCH   6   7
ATOM      7  C   UNL     1     -16.050  47.283 -10.517  1.00  0.00     0.032 C 
ATOM      8  C   UNL     1     -17.499  47.533 -10.960  1.00  0.00     0.014 C 
BRANCH   7   9
ATOM      9  C   UNL     1     -15.632  48.327  -9.519  1.00  0.00     0.044 C 
ATOM     10  O   UNL     1     -16.012  49.522  -9.645  1.00  0.00    -0.550 OA
ATOM     11  O   UNL     1     -14.830  47.976  -8.441  1.00  0.00    -0.550 OA
ENDBRANCH   7   9
ENDBRANCH   6   7
ENDBRANCH   5   6
ENDBRANCH   4   5
ENDBRANCH   3   4
ENDBRANCH   2   3
ENDBRANCH   1   2
BRANCH   1  12
ATOM     12  C   UNL     1     -16.516  45.499  -6.232  1.00  0.00     0.000 C 
BRANCH  12  13
ATOM     13  C   UNL     1     -17.389  46.766  -6.211  1.00  0.00    -0.000 C 
BRANCH  13  14
ATOM     14  C   UNL     1     -18.335  46.855  -7.419  1.00  0.00    -0.000 C 
BRANCH  14  15
ATOM     15  C   UNL     1     -19.813  46.700  -7.022  1.00  0.00    -0.000 C 
BRANCH  15  16
ATOM     16  C   UNL     1     -20.337  45.271  -7.246  1.00  0.00    -0.000 C 
BRANCH  16  17
ATOM     17  C   UNL     1     -20.256  44.838  -8.720  1.00  0.00    -0.000 C 
BRANCH  17  18
ATOM     18  C   UNL     1     -20.527  43.337  -8.908  1.00  0.00    -0.003 C 
ATOM     19  C   UNL     1     -20.271  42.861 -10.337  1.00  0.00     0.004 C 
ENDBRANCH  17  18
ENDBRANCH  16  17
ENDBRANCH  15  16
ENDBRANCH  14  15
ENDBRANCH  13  14
ENDBRANCH  12  13
ENDBRANCH   1  12
TORSDOF 14
ENDMDL
MODEL 4
REMARK VINA RESULT:    -4.008      2.471      5.328
REMARK INTER + INTRA:          -9.807
REMARK INTER:                  -7.305
REMARK INTRA:                  -2.502
REMARK UNBOUND:                -2.518
REMARK SMILES CCCCCCCCCCCCCC[C@@H](C)C(=O)[O-]
REMARK SMILES IDX 9 1 10 2 11 3 12 4 13 5 14 6 15 7 16 8 17 9 18 10 19 11 8 12
REMARK SMILES IDX 7 13 6 14 5 15 4 16 3 17 2 18 1 19
REMARK H PARENT
REMARK Flexibility Score: inf
ROOT
ATOM      1  C   UNL     1     -19.579  45.688  -6.049  1.00  0.00     0.000 C 
ENDROOT
BRANCH   1   2
ATOM      2  C   UNL     1     -19.094  44.232  -6.176  1.00  0.00     0.000 C 
BRANCH   2   3
ATOM      3  C   UNL     1     -17.585  44.078  -5.925  1.00  0.00     0.000 C 
BRANCH   3   4
ATOM      4  C   UNL     1     -16.821  43.577  -7.165  1.00  0.00     0.000 C 
BRANCH   4   5
ATOM      5  C   UNL     1     -17.678  42.839  -8.213  1.00  0.00     0.001 C 
BRANCH   5   6
ATOM      6  C   UNL     1     -17.735  43.502  -9.604  1.00  0.00     0.009 C 
BRANCH   6   7
ATOM      7  C   UNL     1     -19.114  43.438 -10.301  1.00  0.00     0.032 C 
ATOM      8  C   UNL     1     -20.203  42.855  -9.389  1.00  0.00     0.014 C 
BRANCH   7   9
ATOM      9  C   UNL     1     -19.513  44.813 -10.761  1.00  0.00     0.044 C 
ATOM     10  O   UNL     1     -20.728  45.143 -10.817  1.00  0.00    -0.550 OA
ATOM     11  O   UNL     1     -18.537  45.735 -11.119  1.00  0.00    -0.550 OA
ENDBRANCH   7   9
ENDBRANCH   6   7
ENDBRANCH   5   6
ENDBRANCH   4   5
ENDBRANCH   3   4
ENDBRANCH   2   3
ENDBRANCH   1   2
BRANCH   1  12
ATOM     12  C   UNL     1     -18.463  46.734  -5.869  1.00  0.00     0.000 C 
BRANCH  12  13
ATOM     13  C   UNL     1     -18.361  47.709  -7.055  1.00  0.00    -0.000 C 
BRANCH  13  14
ATOM     14  C   UNL     1     -17.717  47.070  -8.295  1.00  0.00    -0.000 C 
BRANCH  14  15
ATOM     15  C   UNL     1     -16.288  47.582  -8.546  1.00  0.00    -0.000 C 
BRANCH  15  16
ATOM     16  C   UNL     1     -15.233  46.469  -8.424  1.00  0.00    -0.000 C 
BRANCH  16  17
ATOM     17  C   UNL     1     -14.154  46.792  -7.375  1.00  0.00    -0.000 C 
BRANCH  17  18
ATOM     18  C   UNL     1     -14.754  47.166  -6.011  1.00  0.00    -0.003 C 
ATOM     19  C   UNL     1     -14.515  46.097  -4.944  1.00  0.00     0.004 C 
ENDBRANCH  17  18
ENDBRANCH  16  17
ENDBRANCH  15  16
ENDBRANCH  14  15
ENDBRANCH  13  14
ENDBRANCH  12  13
ENDBRANCH   1  12
TORSDOF 14
ENDMDL
MODEL 5
REMARK VINA RESULT:    -3.993      1.605      4.365
REMARK INTER + INTRA:          -9.780
REMARK INTER:                  -7.239
REMARK INTRA:                  -2.541
REMARK UNBOUND:                -2.518
REMARK SMILES CCCCCCCCCCCCCC[C@@H](C)C(=O)[O-]
REMARK SMILES IDX 9 1 10 2 11 3 12 4 13 5 14 6 15 7 16 8 17 9 18 10 19 11 8 12
REMARK SMILES IDX 7 13 6 14 5 15 4 16 3 17 2 18 1 19
REMARK H PARENT
REMARK Flexibility Score: inf
ROOT
ATOM      1  C   UNL     1     -20.659  43.167  -9.240  1.00  0.00     0.000 C 
ENDROOT
BRANCH   1   2
ATOM      2  C   UNL     1     -20.407  44.681  -9.355  1.00  0.00     0.000 C 
BRANCH   2   3
ATOM      3  C   UNL     1     -20.502  45.409  -8.004  1.00  0.00     0.000 C 
BRANCH   3   4
ATOM      4  C   UNL     1     -20.547  44.443  -6.806  1.00  0.00     0.000 C 
BRANCH   4   5
ATOM      5  C   UNL     1     -19.463  44.674  -5.733  1.00  0.00     0.001 C 
BRANCH   5   6
ATOM      6  C   UNL     1     -18.074  45.074  -6.274  1.00  0.00     0.009 C 
BRANCH   6   7
ATOM      7  C   UNL     1     -17.394  46.240  -5.521  1.00  0.00     0.032 C 
ATOM      8  C   UNL     1     -15.964  46.502  -6.017  1.00  0.00     0.014 C 
BRANCH   7   9
ATOM      9  C   UNL     1     -18.222  47.487  -5.665  1.00  0.00     0.044 C 
ATOM     10  O   UNL     1     -18.588  47.885  -6.803  1.00  0.00    -0.550 OA
ATOM     11  O   UNL     1     -18.600  48.204  -4.536  1.00  0.00    -0.550 OA
ENDBRANCH   7   9
ENDBRANCH   6   7
ENDBRANCH   5   6
ENDBRANCH   4   5
ENDBRANCH   3   4
ENDBRANCH   2   3
ENDBRANCH   1   2
BRANCH   1  12
ATOM     12  C   UNL     1     -19.472  42.275  -9.645  1.00  0.00     0.000 C 
BRANCH  12  13
ATOM     13  C   UNL     1     -18.159  43.061  -9.804  1.00  0.00    -0.000 C 
BRANCH  13  14
ATOM     14  C   UNL     1     -17.201  42.861  -8.618  1.00  0.00    -0.000 C 
BRANCH  14  15
ATOM     15  C   UNL     1     -15.903  43.675  -8.767  1.00  0.00    -0.000 C 
BRANCH  15  16
ATOM     16  C   UNL     1     -15.906  44.565 -10.021  1.00  0.00    -0.000 C 
BRANCH  16  17
ATOM     17  C   UNL     1     -15.573  46.033  -9.702  1.00  0.00    -0.000 C 
BRANCH  17  18
ATOM     18  C   UNL     1     -16.826  46.921  -9.646  1.00  0.00    -0.003 C 
ATOM     19  C   UNL     1     -17.795  46.654 -10.798  1.00  0.00     0.004 C 
ENDBRANCH  17  18
ENDBRANCH  16  17
ENDBRANCH  15  16
ENDBRANCH  14  15
ENDBRANCH  13  14
ENDBRANCH  12  13
ENDBRANCH   1  12
TORSDOF 14
ENDMDL
MODEL 6
REMARK VINA RESULT:    -3.974      1.788      3.829
REMARK INTER + INTRA:          -9.745
REMARK INTER:                  -7.083
REMARK INTRA:                  -2.662
REMARK UNBOUND:                -2.518
REMARK SMILES CCCCCCCCCCCCCC[C@@H](C)C(=O)[O-]
REMARK SMILES IDX 9 1 10 2 11 3 12 4 13 5 14 6 15 7 16 8 17 9 18 10 19 11 8 12
REMARK SMILES IDX 7 13 6 14 5 15 4 16 3 17 2 18 1 19
REMARK H PARENT
REMARK Flexibility Score: inf
ROOT
ATOM      1  C   UNL     1     -20.110  43.291  -9.081  1.00  0.00     0.000 C 
ENDROOT
BRANCH   1   2
ATOM      2  C   UNL     1     -18.766  42.747  -9.601  1.00  0.00     0.000 C 
BRANCH   2   3
ATOM      3  C   UNL     1     -17.744  42.504  -8.478  1.00  0.00     0.000 C 
BRANCH   3   4
ATOM      4  C   UNL     1     -16.504  43.410  -8.592  1.00  0.00     0.000 C 
BRANCH   4   5
ATOM      5  C   UNL     1     -16.559  44.462  -9.718  1.00  0.00     0.001 C 
BRANCH   5   6
ATOM      6  C   UNL     1     -15.525  45.601  -9.608  1.00  0.00     0.009 C 
BRANCH   6   7
ATOM      7  C   UNL     1     -16.007  46.972 -10.137  1.00  0.00     0.032 C 
ATOM      8  C   UNL     1     -17.505  47.201  -9.890  1.00  0.00     0.014 C 
BRANCH   7   9
ATOM      9  C   UNL     1     -15.208  48.072  -9.494  1.00  0.00     0.044 C 
ATOM     10  O   UNL     1     -15.156  49.217 -10.018  1.00  0.00    -0.550 OA
ATOM     11  O   UNL     1     -14.529  47.833  -8.306  1.00  0.00    -0.550 OA
ENDBRANCH   7   9
ENDBRANCH   6   7
ENDBRANCH   5   6
ENDBRANCH   4   5
ENDBRANCH   3   4
ENDBRANCH   2   3
ENDBRANCH   1   2
BRANCH   1  12
ATOM     12  C   UNL     1     -20.251  44.824  -9.115  1.00  0.00     0.000 C 
BRANCH  12  13
ATOM     13  C   UNL     1     -20.602  45.423  -7.742  1.00  0.00    -0.000 C 
BRANCH  13  14
ATOM     14  C   UNL     1     -20.250  44.483  -6.577  1.00  0.00    -0.000 C 
BRANCH  14  15
ATOM     15  C   UNL     1     -18.931  44.870  -5.886  1.00  0.00    -0.000 C 
BRANCH  15  16
ATOM     16  C   UNL     1     -18.691  46.389  -5.884  1.00  0.00    -0.000 C 
BRANCH  16  17
ATOM     17  C   UNL     1     -17.255  46.759  -6.295  1.00  0.00    -0.000 C 
BRANCH  17  18
ATOM     18  C   UNL     1     -16.247  45.643  -5.979  1.00  0.00    -0.003 C 
ATOM     19  C   UNL     1     -15.011  46.152  -5.238  1.00  0.00     0.004 C 
ENDBRANCH  17  18
ENDBRANCH  16  17
ENDBRANCH  15  16
ENDBRANCH  14  15
ENDBRANCH  13  14
ENDBRANCH  12  13
ENDBRANCH   1  12
TORSDOF 14
ENDMDL
MODEL 7
REMARK VINA RESULT:    -3.959      2.122      5.188
REMARK INTER + INTRA:          -9.717
REMARK INTER:                  -7.356
REMARK INTRA:                  -2.361
REMARK UNBOUND:                -2.518
REMARK SMILES CCCCCCCCCCCCCC[C@@H](C)C(=O)[O-]
REMARK SMILES IDX 9 1 10 2 11 3 12 4 13 5 14 6 15 7 16 8 17 9 18 10 19 11 8 12
REMARK SMILES IDX 7 13 6 14 5 15 4 16 3 17 2 18 1 19
REMARK H PARENT
REMARK Flexibility Score: inf
ROOT
ATOM      1  C   UNL     1     -17.057  44.643  -5.859  1.00  0.00     0.000 C 
ENDROOT
BRANCH   1   2
ATOM      2  C   UNL     1     -18.402  43.911  -5.697  1.00  0.00     0.000 C 
BRANCH   2   3
ATOM      3  C   UNL     1     -19.611  44.859  -5.751  1.00  0.00     0.000 C 
BRANCH   3   4
ATOM      4  C   UNL     1     -20.621  44.478  -6.849  1.00  0.00     0.000 C 
BRANCH   4   5
ATOM      5  C   UNL     1     -20.610  45.386  -8.096  1.00  0.00     0.001 C 
BRANCH   5   6
ATOM      6  C   UNL     1     -19.766  44.871  -9.280  1.00  0.00     0.009 C 
BRANCH   6   7
ATOM      7  C   UNL     1     -19.428  43.363  -9.232  1.00  0.00     0.032 C 
ATOM      8  C   UNL     1     -20.344  42.528 -10.138  1.00  0.00     0.014 C 
BRANCH   7   9
ATOM      9  C   UNL     1     -17.991  43.154  -9.624  1.00  0.00     0.044 C 
ATOM     10  O   UNL     1     -17.600  43.422 -10.791  1.00  0.00    -0.550 OA
ATOM     11  O   UNL     1     -17.080  42.673  -8.692  1.00  0.00    -0.550 OA
ENDBRANCH   7   9
ENDBRANCH   6   7
ENDBRANCH   5   6
ENDBRANCH   4   5
ENDBRANCH   3   4
ENDBRANCH   2   3
ENDBRANCH   1   2
BRANCH   1  12
ATOM     12  C   UNL     1     -17.142  46.180  -5.822  1.00  0.00     0.000 C 
BRANCH  12  13
ATOM     13  C   UNL     1     -15.803  46.845  -5.456  1.00  0.00    -0.000 C 
BRANCH  13  14
ATOM     14  C   UNL     1     -14.623  46.288  -6.268  1.00  0.00    -0.000 C 
BRANCH  14  15
ATOM     15  C   UNL     1     -14.038  47.325  -7.242  1.00  0.00    -0.000 C 
BRANCH  15  16
ATOM     16  C   UNL     1     -14.113  46.865  -8.708  1.00  0.00    -0.000 C 
BRANCH  16  17
ATOM     17  C   UNL     1     -15.298  45.920  -8.970  1.00  0.00    -0.000 C 
BRANCH  17  18
ATOM     18  C   UNL     1     -16.386  46.569  -9.840  1.00  0.00    -0.003 C 
ATOM     19  C   UNL     1     -17.218  47.601  -9.080  1.00  0.00     0.004 C 
ENDBRANCH  17  18
ENDBRANCH  16  17
ENDBRANCH  15  16
ENDBRANCH  14  15
ENDBRANCH  13  14
ENDBRANCH  12  13
ENDBRANCH   1  12
TORSDOF 14
ENDMDL
MODEL 8
REMARK VINA RESULT:    -3.876      1.325      3.347
REMARK INTER + INTRA:          -9.567
REMARK INTER:                  -7.229
REMARK INTRA:                  -2.337
REMARK UNBOUND:                -2.518
REMARK SMILES CCCCCCCCCCCCCC[C@@H](C)C(=O)[O-]
REMARK SMILES IDX 9 1 10 2 11 3 12 4 13 5 14 6 15 7 16 8 17 9 18 10 19 11 8 12
REMARK SMILES IDX 7 13 6 14 5 15 4 16 3 17 2 18 1 19
REMARK H PARENT
REMARK Flexibility Score: inf
ROOT
ATOM      1  C   UNL     1     -17.921  42.982  -8.747  1.00  0.00     0.000 C 
ENDROOT
BRANCH   1   2
ATOM      2  C   UNL     1     -16.694  43.500  -9.520  1.00  0.00     0.000 C 
BRANCH   2   3
ATOM      3  C   UNL     1     -17.072  44.375 -10.726  1.00  0.00     0.000 C 
BRANCH   3   4
ATOM      4  C   UNL     1     -16.469  45.790 -10.652  1.00  0.00     0.000 C 
BRANCH   4   5
ATOM      5  C   UNL     1     -17.287  46.811  -9.836  1.00  0.00     0.001 C 
BRANCH   5   6
ATOM      6  C   UNL     1     -16.634  47.279  -8.518  1.00  0.00     0.009 C 
BRANCH   6   7
ATOM      7  C   UNL     1     -15.322  46.550  -8.147  1.00  0.00     0.032 C 
ATOM      8  C   UNL     1     -14.079  47.407  -8.421  1.00  0.00     0.014 C 
BRANCH   7   9
ATOM      9  C   UNL     1     -15.359  46.148  -6.698  1.00  0.00     0.044 C 
ATOM     10  O   UNL     1     -15.737  44.994  -6.363  1.00  0.00    -0.550 OA
ATOM     11  O   UNL     1     -14.963  47.049  -5.718  1.00  0.00    -0.550 OA
ENDBRANCH   7   9
ENDBRANCH   6   7
ENDBRANCH   5   6
ENDBRANCH   4   5
ENDBRANCH   3   4
ENDBRANCH   2   3
ENDBRANCH   1   2
BRANCH   1  12
ATOM     12  C   UNL     1     -19.063  42.437  -9.624  1.00  0.00     0.000 C 
BRANCH  12  13
ATOM     13  C   UNL     1     -20.392  43.182  -9.407  1.00  0.00    -0.000 C 
BRANCH  13  14
ATOM     14  C   UNL     1     -20.189  44.636  -8.951  1.00  0.00    -0.000 C 
BRANCH  14  15
ATOM     15  C   UNL     1     -21.014  44.980  -7.698  1.00  0.00    -0.000 C 
BRANCH  15  16
ATOM     16  C   UNL     1     -20.319  44.546  -6.397  1.00  0.00    -0.000 C 
BRANCH  16  17
ATOM     17  C   UNL     1     -19.028  45.338  -6.126  1.00  0.00    -0.000 C 
BRANCH  17  18
ATOM     18  C   UNL     1     -19.262  46.856  -6.108  1.00  0.00    -0.003 C 
ATOM     19  C   UNL     1     -18.380  47.582  -5.093  1.00  0.00     0.004 C 
ENDBRANCH  17  18
ENDBRANCH  16  17
ENDBRANCH  15  16
ENDBRANCH  14  15
ENDBRANCH  13  14
ENDBRANCH  12  13
ENDBRANCH   1  12
TORSDOF 14
ENDMDL
MODEL 9
REMARK VINA RESULT:    -3.851      1.396      4.308
REMARK INTER + INTRA:          -9.521
REMARK INTER:                  -7.184
REMARK INTRA:                  -2.337
REMARK UNBOUND:                -2.518
REMARK SMILES CCCCCCCCCCCCCC[C@@H](C)C(=O)[O-]
REMARK SMILES IDX 9 1 10 2 11 3 12 4 13 5 14 6 15 7 16 8 17 9 18 10 19 11 8 12
REMARK SMILES IDX 7 13 6 14 5 15 4 16 3 17 2 18 1 19
REMARK H PARENT
REMARK Flexibility Score: inf
ROOT
ATOM      1  C   UNL     1     -19.034  42.699  -9.507  1.00  0.00     0.000 C 
ENDROOT
BRANCH   1   2
ATOM      2  C   UNL     1     -20.248  43.462  -8.947  1.00  0.00     0.000 C 
BRANCH   2   3
ATOM      3  C   UNL     1     -20.062  44.988  -8.975  1.00  0.00     0.000 C 
BRANCH   3   4
ATOM      4  C   UNL     1     -20.247  45.639  -7.591  1.00  0.00     0.000 C 
BRANCH   4   5
ATOM      5  C   UNL     1     -19.822  44.767  -6.392  1.00  0.00     0.001 C 
BRANCH   5   6
ATOM      6  C   UNL     1     -18.383  44.997  -5.885  1.00  0.00     0.009 C 
BRANCH   6   7
ATOM      7  C   UNL     1     -17.797  46.392  -6.202  1.00  0.00     0.032 C 
ATOM      8  C   UNL     1     -18.407  47.497  -5.328  1.00  0.00     0.014 C 
BRANCH   7   9
ATOM      9  C   UNL     1     -16.303  46.366  -6.025  1.00  0.00     0.044 C 
ATOM     10  O   UNL     1     -15.568  45.795  -6.875  1.00  0.00    -0.550 OA
ATOM     11  O   UNL     1     -15.724  46.983  -4.925  1.00  0.00    -0.550 OA
ENDBRANCH   7   9
ENDBRANCH   6   7
ENDBRANCH   5   6
ENDBRANCH   4   5
ENDBRANCH   3   4
ENDBRANCH   2   3
ENDBRANCH   1   2
BRANCH   1  12
ATOM     12  C   UNL     1     -17.893  42.460  -8.502  1.00  0.00     0.000 C 
BRANCH  12  13
ATOM     13  C   UNL     1     -16.659  43.337  -8.778  1.00  0.00    -0.000 C 
BRANCH  13  14
ATOM     14  C   UNL     1     -16.658  43.931 -10.196  1.00  0.00    -0.000 C 
BRANCH  14  15
ATOM     15  C   UNL     1     -15.461  44.865 -10.442  1.00  0.00    -0.000 C 
BRANCH  15  16
ATOM     16  C   UNL     1     -15.892  46.265 -10.910  1.00  0.00    -0.000 C 
BRANCH  16  17
ATOM     17  C   UNL     1     -17.159  46.762 -10.193  1.00  0.00    -0.000 C 
BRANCH  17  18
ATOM     18  C   UNL     1     -16.896  48.009  -9.333  1.00  0.00    -0.003 C 
ATOM     19  C   UNL     1     -15.418  48.396  -9.285  1.00  0.00     0.004 C 
ENDBRANCH  17  18
ENDBRANCH  16  17
ENDBRANCH  15  16
ENDBRANCH  14  15
ENDBRANCH  13  14
ENDBRANCH  12  13
ENDBRANCH   1  12
TORSDOF 14
ENDMDL
