MODEL 1
REMARK VINA RESULT:    -5.090      0.000      0.000
REMARK INTER + INTRA:          -4.791
REMARK INTER:                  -6.875
REMARK INTRA:                   2.084
REMARK UNBOUND:                 2.084
REMARK SMILES C=C1C(=O)O[C@H]2[C@@H]1CCC(C)=CCC[C@@]1(C)O[C@H]21
REMARK SMILES IDX 6 1 7 2 2 3 1 4 3 5 4 6 5 7 8 8 9 9 10 10 11 11 12 12 18 14
REMARK SMILES IDX 15 15 17 16 16 17 14 18 13 19
REMARK H PARENT
REMARK Flexibility Score: 70.00
ROOT
ATOM      1  C   UNL     1      28.144  38.714  28.380  1.00  0.00     0.216 C 
ATOM      2  C   UNL     1      29.322  39.199  27.447  1.00  0.00     0.070 C 
ATOM      3  C   UNL     1      30.459  39.395  28.408  1.00  0.00     0.037 C 
ATOM      4  C   UNL     1      31.703  39.774  28.105  1.00  0.00     0.021 C 
ATOM      5  C   UNL     1      29.926  39.282  29.742  1.00  0.00     0.334 C 
ATOM      6  O   UNL     1      30.562  39.494  30.808  1.00  0.00    -0.247 OA
ATOM      7  O   UNL     1      28.594  38.939  29.712  1.00  0.00    -0.455 OA
ENDROOT
BRANCH   2   8
ATOM      8  C   UNL     1      29.686  38.273  26.247  1.00  0.00     0.017 C 
BRANCH   8   9
ATOM      9  C   UNL     1      30.995  37.514  26.517  1.00  0.00     0.031 C 
BRANCH   9  10
ATOM     10  C   UNL     1      30.863  36.218  27.300  1.00  0.00    -0.077 C 
ATOM     11  C   UNL     1      31.784  36.018  28.477  1.00  0.00     0.039 C 
ATOM     12  C   UNL     1      30.116  35.143  26.914  1.00  0.00    -0.028 CG0
ATOM     13  G   UNL     1      28.949  35.109  25.947  1.00  0.00     0.000 G0
ENDBRANCH   9  10
ENDBRANCH   8   9
ENDBRANCH   2   8
BRANCH   1  14
ATOM     14  C   UNL     1      27.857  37.211  28.227  1.00  0.00     0.192 C 
ATOM     15  C   UNL     1      27.203  36.738  26.959  1.00  0.00     0.096 C 
ATOM     16  O   UNL     1      26.504  36.840  28.188  1.00  0.00    -0.362 OA
ATOM     17  C   UNL     1      26.447  37.608  25.936  1.00  0.00     0.045 C 
BRANCH  15  18
ATOM     18  C   UNL     1      27.534  35.292  26.540  1.00  0.00     0.042 C 
BRANCH  18  19
ATOM     19  C   UNL     1      28.950  35.093  25.948  1.00  0.00     0.030 CG0
ATOM     20  G   UNL     1      30.107  35.130  26.928  1.00  0.00     0.000 G0
ENDBRANCH  18  19
ENDBRANCH  15  18
ENDBRANCH   1  14
TORSDOF 0
ENDMDL
MODEL 2
REMARK VINA RESULT:    -4.880      1.852      4.453
REMARK INTER + INTRA:          -4.507
REMARK INTER:                  -5.895
REMARK INTRA:                   1.388
REMARK UNBOUND:                 2.084
REMARK SMILES C=C1C(=O)O[C@H]2[C@@H]1CCC(C)=CCC[C@@]1(C)O[C@H]21
REMARK SMILES IDX 6 1 7 2 2 3 1 4 3 5 4 6 5 7 8 8 9 9 10 10 11 11 12 12 18 14
REMARK SMILES IDX 15 15 17 16 16 17 14 18 13 19
REMARK H PARENT
REMARK Flexibility Score: 70.00
ROOT
ATOM      1  C   UNL     1      28.062  37.452  28.435  1.00  0.00     0.216 C 
ATOM      2  C   UNL     1      28.261  36.214  27.475  1.00  0.00     0.070 C 
ATOM      3  C   UNL     1      27.095  36.322  26.535  1.00  0.00     0.037 C 
ATOM      4  C   UNL     1      26.825  35.516  25.504  1.00  0.00     0.021 C 
ATOM      5  C   UNL     1      26.213  37.337  27.049  1.00  0.00     0.334 C 
ATOM      6  O   UNL     1      25.080  37.632  26.584  1.00  0.00    -0.247 OA
ATOM      7  O   UNL     1      26.754  37.943  28.160  1.00  0.00    -0.455 OA
ENDROOT
BRANCH   2   8
ATOM      8  C   UNL     1      29.634  36.113  26.742  1.00  0.00     0.017 C 
BRANCH   8   9
ATOM      9  C   UNL     1      29.843  37.313  25.804  1.00  0.00     0.031 C 
BRANCH   9  10
ATOM     10  C   UNL     1      31.287  37.711  25.547  1.00  0.00    -0.077 C 
ATOM     11  C   UNL     1      32.070  36.887  24.555  1.00  0.00     0.039 C 
ATOM     12  C   UNL     1      31.989  38.626  26.275  1.00  0.00    -0.028 CG0
ATOM     13  G   UNL     1      31.451  39.742  27.150  1.00  0.00     0.000 G0
ENDBRANCH   9  10
ENDBRANCH   8   9
ENDBRANCH   2   8
BRANCH   1  14
ATOM     14  C   UNL     1      29.061  38.584  28.143  1.00  0.00     0.192 C 
ATOM     15  C   UNL     1      30.085  38.915  29.193  1.00  0.00     0.096 C 
ATOM     16  O   UNL     1      28.951  39.729  28.947  1.00  0.00    -0.362 OA
ATOM     17  C   UNL     1      30.040  38.513  30.679  1.00  0.00     0.045 C 
BRANCH  15  18
ATOM     18  C   UNL     1      31.410  39.504  28.666  1.00  0.00     0.042 C 
BRANCH  18  19
ATOM     19  C   UNL     1      31.452  39.750  27.139  1.00  0.00     0.030 CG0
ATOM     20  G   UNL     1      31.998  38.623  26.284  1.00  0.00     0.000 G0
ENDBRANCH  18  19
ENDBRANCH  15  18
ENDBRANCH   1  14
TORSDOF 0
ENDMDL
MODEL 3
REMARK VINA RESULT:    -4.784      2.677      4.085
REMARK INTER + INTRA:          -4.377
REMARK INTER:                  -6.431
REMARK INTRA:                   2.053
REMARK UNBOUND:                 2.084
REMARK SMILES C=C1C(=O)O[C@H]2[C@@H]1CCC(C)=CCC[C@@]1(C)O[C@H]21
REMARK SMILES IDX 6 1 7 2 2 3 1 4 3 5 4 6 5 7 8 8 9 9 10 10 11 11 12 12 18 14
REMARK SMILES IDX 15 15 17 16 16 17 14 18 13 19
REMARK H PARENT
REMARK Flexibility Score: 70.00
ROOT
ATOM      1  C   UNL     1      28.126  38.274  25.599  1.00  0.00     0.216 C 
ATOM      2  C   UNL     1      29.380  37.314  25.601  1.00  0.00     0.070 C 
ATOM      3  C   UNL     1      30.369  38.044  24.738  1.00  0.00     0.037 C 
ATOM      4  C   UNL     1      31.614  37.657  24.450  1.00  0.00     0.021 C 
ATOM      5  C   UNL     1      29.678  39.148  24.122  1.00  0.00     0.334 C 
ATOM      6  O   UNL     1      30.157  39.921  23.251  1.00  0.00    -0.247 OA
ATOM      7  O   UNL     1      28.386  39.240  24.587  1.00  0.00    -0.455 OA
ENDROOT
BRANCH   2   8
ATOM      8  C   UNL     1      29.955  36.921  26.996  1.00  0.00     0.017 C 
BRANCH   8   9
ATOM      9  C   UNL     1      31.261  37.679  27.284  1.00  0.00     0.031 C 
BRANCH   9  10
ATOM     10  C   UNL     1      31.106  39.060  27.900  1.00  0.00    -0.077 C 
ATOM     11  C   UNL     1      31.870  40.195  27.264  1.00  0.00     0.039 C 
ATOM     12  C   UNL     1      30.489  39.323  29.087  1.00  0.00    -0.028 CG0
ATOM     13  G   UNL     1      29.468  38.477  29.823  1.00  0.00     0.000 G0
ENDBRANCH   9  10
ENDBRANCH   8   9
ENDBRANCH   2   8
BRANCH   1  14
ATOM     14  C   UNL     1      27.961  39.021  26.933  1.00  0.00     0.192 C 
ATOM     15  C   UNL     1      27.500  38.241  28.132  1.00  0.00     0.096 C 
ATOM     16  O   UNL     1      26.650  39.128  27.424  1.00  0.00    -0.362 OA
ATOM     17  C   UNL     1      26.819  36.859  28.123  1.00  0.00     0.045 C 
BRANCH  15  18
ATOM     18  C   UNL     1      27.975  38.779  29.497  1.00  0.00     0.042 C 
BRANCH  18  19
ATOM     19  C   UNL     1      29.461  38.500  29.826  1.00  0.00     0.030 CG0
ATOM     20  G   UNL     1      30.488  39.341  29.093  1.00  0.00     0.000 G0
ENDBRANCH  18  19
ENDBRANCH  15  18
ENDBRANCH   1  14
TORSDOF 0
ENDMDL
MODEL 4
REMARK VINA RESULT:    -4.442      2.327      3.823
REMARK INTER + INTRA:          -3.915
REMARK INTER:                  -5.397
REMARK INTRA:                   1.481
REMARK UNBOUND:                 2.084
REMARK SMILES C=C1C(=O)O[C@H]2[C@@H]1CCC(C)=CCC[C@@]1(C)O[C@H]21
REMARK SMILES IDX 6 1 7 2 2 3 1 4 3 5 4 6 5 7 8 8 9 9 10 10 11 11 12 12 18 14
REMARK SMILES IDX 15 15 17 16 16 17 14 18 13 19
REMARK H PARENT
REMARK Flexibility Score: 70.00
ROOT
ATOM      1  C   UNL     1      28.014  36.541  25.880  1.00  0.00     0.216 C 
ATOM      2  C   UNL     1      28.321  37.939  25.213  1.00  0.00     0.070 C 
ATOM      3  C   UNL     1      27.228  38.819  25.746  1.00  0.00     0.037 C 
ATOM      4  C   UNL     1      27.061  40.121  25.500  1.00  0.00     0.021 C 
ATOM      5  C   UNL     1      26.279  37.972  26.423  1.00  0.00     0.334 C 
ATOM      6  O   UNL     1      25.177  38.343  26.906  1.00  0.00    -0.247 OA
ATOM      7  O   UNL     1      26.717  36.668  26.453  1.00  0.00    -0.455 OA
ENDROOT
BRANCH   2   8
ATOM      8  C   UNL     1      29.748  38.524  25.445  1.00  0.00     0.017 C 
BRANCH   8   9
ATOM      9  C   UNL     1      30.021  38.723  26.945  1.00  0.00     0.031 C 
BRANCH   9  10
ATOM     10  C   UNL     1      31.476  38.626  27.374  1.00  0.00    -0.077 C 
ATOM     11  C   UNL     1      32.375  39.795  27.054  1.00  0.00     0.039 C 
ATOM     12  C   UNL     1      32.078  37.500  27.852  1.00  0.00    -0.028 CG0
ATOM     13  G   UNL     1      31.428  36.282  28.479  1.00  0.00     0.000 G0
ENDBRANCH   9  10
ENDBRANCH   8   9
ENDBRANCH   2   8
BRANCH   1  14
ATOM     14  C   UNL     1      28.998  36.205  27.012  1.00  0.00     0.192 C 
ATOM     15  C   UNL     1      29.864  34.985  26.862  1.00  0.00     0.096 C 
ATOM     16  O   UNL     1      28.741  35.025  27.726  1.00  0.00    -0.362 OA
ATOM     17  C   UNL     1      29.642  33.816  25.885  1.00  0.00     0.045 C 
BRANCH  15  18
ATOM     18  C   UNL     1      31.222  35.040  27.591  1.00  0.00     0.042 C 
BRANCH  18  19
ATOM     19  C   UNL     1      31.427  36.280  28.495  1.00  0.00     0.030 CG0
ATOM     20  G   UNL     1      32.078  37.489  27.852  1.00  0.00     0.000 G0
ENDBRANCH  18  19
ENDBRANCH  15  18
ENDBRANCH   1  14
TORSDOF 0
ENDMDL
MODEL 5
REMARK VINA RESULT:    -4.418      1.932      2.815
REMARK INTER + INTRA:          -3.884
REMARK INTER:                  -5.959
REMARK INTRA:                   2.076
REMARK UNBOUND:                 2.084
REMARK SMILES C=C1C(=O)O[C@H]2[C@@H]1CCC(C)=CCC[C@@]1(C)O[C@H]21
REMARK SMILES IDX 6 1 7 2 2 3 1 4 3 5 4 6 5 7 8 8 9 9 10 10 11 11 12 12 18 14
REMARK SMILES IDX 15 15 17 16 16 17 14 18 13 19
REMARK H PARENT
REMARK Flexibility Score: 70.00
ROOT
ATOM      1  C   UNL     1      28.158  39.025  27.172  1.00  0.00     0.216 C 
ATOM      2  C   UNL     1      29.347  39.463  28.115  1.00  0.00     0.070 C 
ATOM      3  C   UNL     1      29.128  38.634  29.347  1.00  0.00     0.037 C 
ATOM      4  C   UNL     1      29.894  38.613  30.441  1.00  0.00     0.021 C 
ATOM      5  C   UNL     1      27.842  37.997  29.221  1.00  0.00     0.334 C 
ATOM      6  O   UNL     1      27.273  37.308  30.107  1.00  0.00    -0.247 OA
ATOM      7  O   UNL     1      27.279  38.265  27.994  1.00  0.00    -0.455 OA
ENDROOT
BRANCH   2   8
ATOM      8  C   UNL     1      30.786  39.328  27.530  1.00  0.00     0.017 C 
BRANCH   8   9
ATOM      9  C   UNL     1      31.462  38.041  28.031  1.00  0.00     0.031 C 
BRANCH   9  10
ATOM     10  C   UNL     1      31.076  36.762  27.306  1.00  0.00    -0.077 C 
ATOM     11  C   UNL     1      30.610  35.599  28.147  1.00  0.00     0.039 C 
ATOM     12  C   UNL     1      31.295  36.515  25.983  1.00  0.00    -0.028 CG0
ATOM     13  G   UNL     1      31.523  37.515  24.866  1.00  0.00     0.000 G0
ENDBRANCH   9  10
ENDBRANCH   8   9
ENDBRANCH   2   8
BRANCH   1  14
ATOM     14  C   UNL     1      28.628  38.119  26.022  1.00  0.00     0.192 C 
ATOM     15  C   UNL     1      29.235  38.767  24.809  1.00  0.00     0.096 C 
ATOM     16  O   UNL     1      27.921  38.235  24.815  1.00  0.00    -0.362 OA
ATOM     17  C   UNL     1      29.120  40.250  24.406  1.00  0.00     0.045 C 
BRANCH  15  18
ATOM     18  C   UNL     1      30.260  37.910  24.040  1.00  0.00     0.042 C 
BRANCH  18  19
ATOM     19  C   UNL     1      31.506  37.493  24.858  1.00  0.00     0.030 CG0
ATOM     20  G   UNL     1      31.276  36.515  25.994  1.00  0.00     0.000 G0
ENDBRANCH  18  19
ENDBRANCH  15  18
ENDBRANCH   1  14
TORSDOF 0
ENDMDL
MODEL 6
REMARK VINA RESULT:    -4.413      1.473      2.433
REMARK INTER + INTRA:          -3.877
REMARK INTER:                  -5.231
REMARK INTRA:                   1.354
REMARK UNBOUND:                 2.084
REMARK SMILES C=C1C(=O)O[C@H]2[C@@H]1CCC(C)=CCC[C@@]1(C)O[C@H]21
REMARK SMILES IDX 6 1 7 2 2 3 1 4 3 5 4 6 5 7 8 8 9 9 10 10 11 11 12 12 18 14
REMARK SMILES IDX 15 15 17 16 16 17 14 18 13 19
REMARK H PARENT
REMARK Flexibility Score: 70.00
ROOT
ATOM      1  C   UNL     1      29.717  38.990  27.458  1.00  0.00     0.216 C 
ATOM      2  C   UNL     1      30.873  37.929  27.277  1.00  0.00     0.070 C 
ATOM      3  C   UNL     1      31.167  37.501  28.685  1.00  0.00     0.037 C 
ATOM      4  C   UNL     1      32.058  36.584  29.070  1.00  0.00     0.021 C 
ATOM      5  C   UNL     1      30.450  38.386  29.568  1.00  0.00     0.334 C 
ATOM      6  O   UNL     1      30.537  38.399  30.824  1.00  0.00    -0.247 OA
ATOM      7  O   UNL     1      29.663  39.260  28.855  1.00  0.00    -0.455 OA
ENDROOT
BRANCH   2   8
ATOM      8  C   UNL     1      30.578  36.734  26.320  1.00  0.00     0.017 C 
BRANCH   8   9
ATOM      9  C   UNL     1      29.979  35.548  27.093  1.00  0.00     0.031 C 
BRANCH   9  10
ATOM     10  C   UNL     1      29.104  34.603  26.287  1.00  0.00    -0.077 C 
ATOM     11  C   UNL     1      29.687  33.262  25.915  1.00  0.00     0.039 C 
ATOM     12  C   UNL     1      27.914  34.937  25.710  1.00  0.00    -0.028 CG0
ATOM     13  G   UNL     1      26.985  36.080  26.070  1.00  0.00     0.000 G0
ENDBRANCH   9  10
ENDBRANCH   8   9
ENDBRANCH   2   8
BRANCH   1  14
ATOM     14  C   UNL     1      28.346  38.439  27.032  1.00  0.00     0.192 C 
ATOM     15  C   UNL     1      28.015  38.416  25.565  1.00  0.00     0.096 C 
ATOM     16  O   UNL     1      27.458  39.364  26.461  1.00  0.00    -0.362 OA
ATOM     17  C   UNL     1      28.724  39.209  24.451  1.00  0.00     0.045 C 
BRANCH  15  18
ATOM     18  C   UNL     1      27.032  37.313  25.123  1.00  0.00     0.042 C 
BRANCH  18  19
ATOM     19  C   UNL     1      26.979  36.077  26.053  1.00  0.00     0.030 CG0
ATOM     20  G   UNL     1      27.906  34.927  25.709  1.00  0.00     0.000 G0
ENDBRANCH  18  19
ENDBRANCH  15  18
ENDBRANCH   1  14
TORSDOF 0
ENDMDL
MODEL 7
REMARK VINA RESULT:    -4.260      2.680      3.912
REMARK INTER + INTRA:          -3.669
REMARK INTER:                  -5.745
REMARK INTRA:                   2.076
REMARK UNBOUND:                 2.084
REMARK SMILES C=C1C(=O)O[C@H]2[C@@H]1CCC(C)=CCC[C@@]1(C)O[C@H]21
REMARK SMILES IDX 6 1 7 2 2 3 1 4 3 5 4 6 5 7 8 8 9 9 10 10 11 11 12 12 18 14
REMARK SMILES IDX 15 15 17 16 16 17 14 18 13 19
REMARK H PARENT
REMARK Flexibility Score: 70.00
ROOT
ATOM      1  C   UNL     1      28.072  36.161  27.086  1.00  0.00     0.216 C 
ATOM      2  C   UNL     1      29.310  36.741  27.876  1.00  0.00     0.070 C 
ATOM      3  C   UNL     1      30.382  35.720  27.626  1.00  0.00     0.037 C 
ATOM      4  C   UNL     1      31.644  35.767  28.060  1.00  0.00     0.021 C 
ATOM      5  C   UNL     1      29.763  34.585  26.991  1.00  0.00     0.334 C 
ATOM      6  O   UNL     1      30.329  33.491  26.726  1.00  0.00    -0.247 OA
ATOM      7  O   UNL     1      28.435  34.831  26.730  1.00  0.00    -0.455 OA
ENDROOT
BRANCH   2   8
ATOM      8  C   UNL     1      29.749  38.193  27.516  1.00  0.00     0.017 C 
BRANCH   8   9
ATOM      9  C   UNL     1      31.023  38.183  26.656  1.00  0.00     0.031 C 
BRANCH   9  10
ATOM     10  C   UNL     1      30.816  37.991  25.162  1.00  0.00    -0.077 C 
ATOM     11  C   UNL     1      31.640  36.930  24.476  1.00  0.00     0.039 C 
ATOM     12  C   UNL     1      30.092  38.822  24.360  1.00  0.00    -0.028 CG0
ATOM     13  G   UNL     1      29.003  39.800  24.759  1.00  0.00     0.000 G0
ENDBRANCH   9  10
ENDBRANCH   8   9
ENDBRANCH   2   8
BRANCH   1  14
ATOM     14  C   UNL     1      27.792  36.936  25.788  1.00  0.00     0.192 C 
ATOM     15  C   UNL     1      27.194  38.311  25.897  1.00  0.00     0.096 C 
ATOM     16  O   UNL     1      26.441  37.180  25.492  1.00  0.00    -0.362 OA
ATOM     17  C   UNL     1      26.484  38.909  27.126  1.00  0.00     0.045 C 
BRANCH  15  18
ATOM     18  C   UNL     1      27.542  39.281  24.749  1.00  0.00     0.042 C 
BRANCH  18  19
ATOM     19  C   UNL     1      28.998  39.806  24.759  1.00  0.00     0.030 CG0
ATOM     20  G   UNL     1      30.080  38.817  24.368  1.00  0.00     0.000 G0
ENDBRANCH  18  19
ENDBRANCH  15  18
ENDBRANCH   1  14
TORSDOF 0
ENDMDL
MODEL 8
REMARK VINA RESULT:    -4.108      2.651      3.777
REMARK INTER + INTRA:          -3.464
REMARK INTER:                  -4.833
REMARK INTRA:                   1.369
REMARK UNBOUND:                 2.084
REMARK SMILES C=C1C(=O)O[C@H]2[C@@H]1CCC(C)=CCC[C@@]1(C)O[C@H]21
REMARK SMILES IDX 6 1 7 2 2 3 1 4 3 5 4 6 5 7 8 8 9 9 10 10 11 11 12 12 18 14
REMARK SMILES IDX 15 15 17 16 16 17 14 18 13 19
REMARK H PARENT
REMARK Flexibility Score: 70.00
ROOT
ATOM      1  C   UNL     1      29.409  37.572  25.205  1.00  0.00     0.216 C 
ATOM      2  C   UNL     1      30.674  37.963  26.065  1.00  0.00     0.070 C 
ATOM      3  C   UNL     1      30.906  39.400  25.696  1.00  0.00     0.037 C 
ATOM      4  C   UNL     1      31.853  40.206  26.184  1.00  0.00     0.021 C 
ATOM      5  C   UNL     1      30.042  39.709  24.585  1.00  0.00     0.334 C 
ATOM      6  O   UNL     1      30.035  40.789  23.938  1.00  0.00    -0.247 OA
ATOM      7  O   UNL     1      29.226  38.643  24.285  1.00  0.00    -0.455 OA
ENDROOT
BRANCH   2   8
ATOM      8  C   UNL     1      30.570  37.732  27.603  1.00  0.00     0.017 C 
BRANCH   8   9
ATOM      9  C   UNL     1      30.041  38.990  28.311  1.00  0.00     0.031 C 
BRANCH   9  10
ATOM     10  C   UNL     1      29.335  38.759  29.637  1.00  0.00    -0.077 C 
ATOM     11  C   UNL     1      30.083  39.120  30.896  1.00  0.00     0.039 C 
ATOM     12  C   UNL     1      28.163  38.079  29.792  1.00  0.00    -0.028 CG0
ATOM     13  G   UNL     1      27.093  37.803  28.753  1.00  0.00     0.000 G0
ENDBRANCH   9  10
ENDBRANCH   8   9
ENDBRANCH   2   8
BRANCH   1  14
ATOM     14  C   UNL     1      28.134  37.461  26.058  1.00  0.00     0.192 C 
ATOM     15  C   UNL     1      27.919  36.204  26.853  1.00  0.00     0.096 C 
ATOM     16  O   UNL     1      27.207  36.486  25.661  1.00  0.00    -0.362 OA
ATOM     17  C   UNL     1      28.630  34.853  26.646  1.00  0.00     0.045 C 
BRANCH  15  18
ATOM     18  C   UNL     1      27.084  36.365  28.140  1.00  0.00     0.042 C 
BRANCH  18  19
ATOM     19  C   UNL     1      27.096  37.788  28.750  1.00  0.00     0.030 CG0
ATOM     20  G   UNL     1      28.161  38.072  29.792  1.00  0.00     0.000 G0
ENDBRANCH  18  19
ENDBRANCH  15  18
ENDBRANCH   1  14
TORSDOF 0
ENDMDL
MODEL 9
REMARK VINA RESULT:    -3.715      2.709      4.864
REMARK INTER + INTRA:          -2.933
REMARK INTER:                  -4.573
REMARK INTRA:                   1.640
REMARK UNBOUND:                 2.084
REMARK SMILES C=C1C(=O)O[C@H]2[C@@H]1CCC(C)=CCC[C@@]1(C)O[C@H]21
REMARK SMILES IDX 6 1 7 2 2 3 1 4 3 5 4 6 5 7 8 8 9 9 10 10 11 11 12 12 18 14
REMARK SMILES IDX 15 15 17 16 16 17 14 18 13 19
REMARK H PARENT
REMARK Flexibility Score: 70.00
ROOT
ATOM      1  C   UNL     1      28.636  37.648  25.569  1.00  0.00     0.216 C 
ATOM      2  C   UNL     1      27.423  38.305  26.337  1.00  0.00     0.070 C 
ATOM      3  C   UNL     1      26.405  37.202  26.374  1.00  0.00     0.037 C 
ATOM      4  C   UNL     1      25.201  37.247  26.950  1.00  0.00     0.021 C 
ATOM      5  C   UNL     1      26.879  36.143  25.520  1.00  0.00     0.334 C 
ATOM      6  O   UNL     1      26.241  35.100  25.220  1.00  0.00    -0.247 OA
ATOM      7  O   UNL     1      28.132  36.430  25.029  1.00  0.00    -0.455 OA
ENDROOT
BRANCH   2   8
ATOM      8  C   UNL     1      27.731  38.905  27.743  1.00  0.00     0.017 C 
BRANCH   8   9
ATOM      9  C   UNL     1      29.099  39.607  27.750  1.00  0.00     0.031 C 
BRANCH   9  10
ATOM     10  C   UNL     1      30.035  39.226  28.886  1.00  0.00    -0.077 C 
ATOM     11  C   UNL     1      29.439  39.101  30.266  1.00  0.00     0.039 C 
ATOM     12  C   UNL     1      31.395  39.176  28.796  1.00  0.00    -0.028 CG0
ATOM     13  G   UNL     1      32.249  39.029  27.551  1.00  0.00     0.000 G0
ENDBRANCH   9  10
ENDBRANCH   8   9
ENDBRANCH   2   8
BRANCH   1  14
ATOM     14  C   UNL     1      29.803  37.300  26.508  1.00  0.00     0.192 C 
ATOM     15  C   UNL     1      31.193  37.279  25.936  1.00  0.00     0.096 C 
ATOM     16  O   UNL     1      30.474  36.096  26.241  1.00  0.00    -0.362 OA
ATOM     17  C   UNL     1      31.571  37.206  24.444  1.00  0.00     0.045 C 
BRANCH  15  18
ATOM     18  C   UNL     1      32.326  37.603  26.931  1.00  0.00     0.042 C 
BRANCH  18  19
ATOM     19  C   UNL     1      32.260  39.018  27.555  1.00  0.00     0.030 CG0
ATOM     20  G   UNL     1      31.393  39.176  28.789  1.00  0.00     0.000 G0
ENDBRANCH  18  19
ENDBRANCH  15  18
ENDBRANCH   1  14
TORSDOF 0
ENDMDL
