MODEL 1
REMARK VINA RESULT:    -6.313      0.000      0.000
REMARK INTER + INTRA:         -14.177
REMARK INTER:                 -11.848
REMARK INTRA:                  -2.329
REMARK UNBOUND:                -2.329
REMARK SMILES CCCCCCCCC=CCCCCCCCC(=O)[O-]
REMARK SMILES IDX 10 1 9 2 11 3 12 4 13 5 14 6 15 7 16 8 17 9 18 10 19 11
REMARK SMILES IDX 20 12 8 13 7 14 6 15 5 16 4 17 3 18 2 19 1 20
REMARK H PARENT
REMARK Flexibility Score: inf
ROOT
ATOM      1  C   UNL     1      23.844  -1.171   0.119  1.00  0.00    -0.031 C 
ATOM      2  C   UNL     1      22.863  -0.258  -0.020  1.00  0.00    -0.031 C 
ENDROOT
BRANCH   1   3
ATOM      3  C   UNL     1      25.127  -1.196  -0.673  1.00  0.00     0.027 C 
BRANCH   3   4
ATOM      4  C   UNL     1      25.602  -2.636  -0.925  1.00  0.00     0.004 C 
BRANCH   4   5
ATOM      5  C   UNL     1      26.796  -3.026  -0.041  1.00  0.00     0.000 C 
BRANCH   5   6
ATOM      6  C   UNL     1      26.363  -3.802   1.216  1.00  0.00     0.000 C 
BRANCH   6   7
ATOM      7  C   UNL     1      25.050  -4.576   1.011  1.00  0.00     0.000 C 
BRANCH   7   8
ATOM      8  C   UNL     1      23.963  -4.179   2.023  1.00  0.00     0.006 C 
BRANCH   8   9
ATOM      9  C   UNL     1      22.624  -4.873   1.737  1.00  0.00     0.053 C 
BRANCH   9  10
ATOM     10  C   UNL     1      21.458  -3.981   2.037  1.00  0.00     0.041 C 
ATOM     11  O   UNL     1      21.089  -3.117   1.197  1.00  0.00    -0.550 OA
ATOM     12  O   UNL     1      20.797  -4.083   3.254  1.00  0.00    -0.550 OA
ENDBRANCH   9  10
ENDBRANCH   8   9
ENDBRANCH   7   8
ENDBRANCH   6   7
ENDBRANCH   5   6
ENDBRANCH   4   5
ENDBRANCH   3   4
ENDBRANCH   1   3
BRANCH   2  13
ATOM     13  C   UNL     1      22.894   0.919  -0.969  1.00  0.00     0.027 C 
BRANCH  13  14
ATOM     14  C   UNL     1      22.121   0.621  -2.264  1.00  0.00     0.004 C 
BRANCH  14  15
ATOM     15  C   UNL     1      21.832  -0.881  -2.439  1.00  0.00     0.000 C 
BRANCH  15  16
ATOM     16  C   UNL     1      22.755  -1.541  -3.476  1.00  0.00     0.000 C 
BRANCH  16  17
ATOM     17  C   UNL     1      22.481  -3.043  -3.644  1.00  0.00    -0.000 C 
BRANCH  17  18
ATOM     18  C   UNL     1      22.433  -3.795  -2.302  1.00  0.00    -0.000 C 
BRANCH  18  19
ATOM     19  C   UNL     1      23.264  -5.095  -2.292  1.00  0.00    -0.003 C 
ATOM     20  C   UNL     1      22.727  -6.139  -3.270  1.00  0.00     0.004 C 
ENDBRANCH  18  19
ENDBRANCH  17  18
ENDBRANCH  16  17
ENDBRANCH  15  16
ENDBRANCH  14  15
ENDBRANCH  13  14
ENDBRANCH   2  13
TORSDOF 15
ENDMDL
MODEL 2
REMARK VINA RESULT:    -6.296      1.539      3.758
REMARK INTER + INTRA:         -14.145
REMARK INTER:                 -11.453
REMARK INTRA:                  -2.691
REMARK UNBOUND:                -2.329
REMARK SMILES CCCCCCCCC=CCCCCCCCC(=O)[O-]
REMARK SMILES IDX 10 1 9 2 11 3 12 4 13 5 14 6 15 7 16 8 17 9 18 10 19 11
REMARK SMILES IDX 20 12 8 13 7 14 6 15 5 16 4 17 3 18 2 19 1 20
REMARK H PARENT
REMARK Flexibility Score: inf
ROOT
ATOM      1  C   UNL     1      21.923  -0.835  -2.972  1.00  0.00    -0.031 C 
ATOM      2  C   UNL     1      22.121   0.184  -2.115  1.00  0.00    -0.031 C 
ENDROOT
BRANCH   1   3
ATOM      3  C   UNL     1      22.929  -1.915  -3.287  1.00  0.00     0.027 C 
BRANCH   3   4
ATOM      4  C   UNL     1      22.532  -3.255  -2.649  1.00  0.00     0.004 C 
BRANCH   4   5
ATOM      5  C   UNL     1      21.305  -3.132  -1.733  1.00  0.00     0.000 C 
BRANCH   5   6
ATOM      6  C   UNL     1      21.523  -3.811  -0.369  1.00  0.00     0.000 C 
BRANCH   6   7
ATOM      7  C   UNL     1      20.952  -2.990   0.799  1.00  0.00     0.000 C 
BRANCH   7   8
ATOM      8  C   UNL     1      20.978  -3.757   2.132  1.00  0.00     0.006 C 
BRANCH   8   9
ATOM      9  C   UNL     1      19.589  -3.838   2.780  1.00  0.00     0.053 C 
BRANCH   9  10
ATOM     10  C   UNL     1      19.673  -4.160   4.241  1.00  0.00     0.041 C 
ATOM     11  O   UNL     1      19.269  -3.329   5.097  1.00  0.00    -0.550 OA
ATOM     12  O   UNL     1      20.225  -5.364   4.658  1.00  0.00    -0.550 OA
ENDBRANCH   9  10
ENDBRANCH   8   9
ENDBRANCH   7   8
ENDBRANCH   6   7
ENDBRANCH   5   6
ENDBRANCH   4   5
ENDBRANCH   3   4
ENDBRANCH   1   3
BRANCH   2  13
ATOM     13  C   UNL     1      23.372   0.404  -1.293  1.00  0.00     0.027 C 
BRANCH  13  14
ATOM     14  C   UNL     1      23.159   0.009   0.177  1.00  0.00     0.004 C 
BRANCH  14  15
ATOM     15  C   UNL     1      23.989  -1.223   0.577  1.00  0.00     0.000 C 
BRANCH  15  16
ATOM     16  C   UNL     1      25.068  -1.569  -0.463  1.00  0.00     0.000 C 
BRANCH  16  17
ATOM     17  C   UNL     1      25.900  -2.799  -0.067  1.00  0.00    -0.000 C 
BRANCH  17  18
ATOM     18  C   UNL     1      25.416  -3.453   1.239  1.00  0.00    -0.000 C 
BRANCH  18  19
ATOM     19  C   UNL     1      24.846  -4.874   1.043  1.00  0.00    -0.003 C 
ATOM     20  C   UNL     1      24.895  -5.327  -0.415  1.00  0.00     0.004 C 
ENDBRANCH  18  19
ENDBRANCH  17  18
ENDBRANCH  16  17
ENDBRANCH  15  16
ENDBRANCH  14  15
ENDBRANCH  13  14
ENDBRANCH   2  13
TORSDOF 15
ENDMDL
MODEL 3
REMARK VINA RESULT:    -6.263      3.069      5.798
REMARK INTER + INTRA:         -14.083
REMARK INTER:                 -12.009
REMARK INTRA:                  -2.074
REMARK UNBOUND:                -2.329
REMARK SMILES CCCCCCCCC=CCCCCCCCC(=O)[O-]
REMARK SMILES IDX 10 1 9 2 11 3 12 4 13 5 14 6 15 7 16 8 17 9 18 10 19 11
REMARK SMILES IDX 20 12 8 13 7 14 6 15 5 16 4 17 3 18 2 19 1 20
REMARK H PARENT
REMARK Flexibility Score: inf
ROOT
ATOM      1  C   UNL     1      22.499  -2.423  -3.463  1.00  0.00    -0.031 C 
ATOM      2  C   UNL     1      22.861  -1.130  -3.368  1.00  0.00    -0.031 C 
ENDROOT
BRANCH   1   3
ATOM      3  C   UNL     1      21.409  -3.082  -2.655  1.00  0.00     0.027 C 
BRANCH   3   4
ATOM      4  C   UNL     1      21.948  -4.278  -1.854  1.00  0.00     0.004 C 
BRANCH   4   5
ATOM      5  C   UNL     1      22.932  -5.135  -2.664  1.00  0.00     0.000 C 
BRANCH   5   6
ATOM      6  C   UNL     1      22.227  -6.270  -3.427  1.00  0.00     0.000 C 
BRANCH   6   7
ATOM      7  C   UNL     1      22.123  -5.995  -4.936  1.00  0.00     0.000 C 
BRANCH   7   8
ATOM      8  C   UNL     1      21.851  -7.267  -5.755  1.00  0.00     0.006 C 
BRANCH   8   9
ATOM      9  C   UNL     1      20.668  -8.072  -5.199  1.00  0.00     0.053 C 
BRANCH   9  10
ATOM     10  C   UNL     1      19.352  -7.460  -5.574  1.00  0.00     0.041 C 
ATOM     11  O   UNL     1      18.761  -7.824  -6.625  1.00  0.00    -0.550 OA
ATOM     12  O   UNL     1      18.794  -6.468  -4.779  1.00  0.00    -0.550 OA
ENDBRANCH   9  10
ENDBRANCH   8   9
ENDBRANCH   7   8
ENDBRANCH   6   7
ENDBRANCH   5   6
ENDBRANCH   4   5
ENDBRANCH   3   4
ENDBRANCH   1   3
BRANCH   2  13
ATOM     13  C   UNL     1      22.215  -0.106  -2.462  1.00  0.00     0.027 C 
BRANCH  13  14
ATOM     14  C   UNL     1      23.142   0.287  -1.301  1.00  0.00     0.004 C 
BRANCH  14  15
ATOM     15  C   UNL     1      22.800  -0.463  -0.002  1.00  0.00     0.000 C 
BRANCH  15  16
ATOM     16  C   UNL     1      23.803  -1.585   0.313  1.00  0.00     0.000 C 
BRANCH  16  17
ATOM     17  C   UNL     1      25.088  -1.483  -0.522  1.00  0.00    -0.000 C 
BRANCH  17  18
ATOM     18  C   UNL     1      25.487  -2.821  -1.171  1.00  0.00    -0.000 C 
BRANCH  18  19
ATOM     19  C   UNL     1      26.803  -3.406  -0.619  1.00  0.00    -0.003 C 
ATOM     20  C   UNL     1      26.682  -3.843   0.840  1.00  0.00     0.004 C 
ENDBRANCH  18  19
ENDBRANCH  17  18
ENDBRANCH  16  17
ENDBRANCH  15  16
ENDBRANCH  14  15
ENDBRANCH  13  14
ENDBRANCH   2  13
TORSDOF 15
ENDMDL
MODEL 4
REMARK VINA RESULT:    -6.249      2.947      5.434
REMARK INTER + INTRA:         -14.056
REMARK INTER:                 -11.741
REMARK INTRA:                  -2.315
REMARK UNBOUND:                -2.329
REMARK SMILES CCCCCCCCC=CCCCCCCCC(=O)[O-]
REMARK SMILES IDX 10 1 9 2 11 3 12 4 13 5 14 6 15 7 16 8 17 9 18 10 19 11
REMARK SMILES IDX 20 12 8 13 7 14 6 15 5 16 4 17 3 18 2 19 1 20
REMARK H PARENT
REMARK Flexibility Score: inf
ROOT
ATOM      1  C   UNL     1      22.466   0.713  -1.214  1.00  0.00    -0.031 C 
ATOM      2  C   UNL     1      22.919   0.335  -0.003  1.00  0.00    -0.031 C 
ENDROOT
BRANCH   1   3
ATOM      3  C   UNL     1      22.568  -0.107  -2.476  1.00  0.00     0.027 C 
BRANCH   3   4
ATOM      4  C   UNL     1      21.250  -0.838  -2.779  1.00  0.00     0.004 C 
BRANCH   4   5
ATOM      5  C   UNL     1      21.471  -2.286  -3.240  1.00  0.00     0.000 C 
BRANCH   5   6
ATOM      6  C   UNL     1      22.909  -2.770  -2.977  1.00  0.00     0.000 C 
BRANCH   6   7
ATOM      7  C   UNL     1      22.967  -4.241  -2.535  1.00  0.00     0.000 C 
BRANCH   7   8
ATOM      8  C   UNL     1      21.905  -5.112  -3.227  1.00  0.00     0.006 C 
BRANCH   8   9
ATOM      9  C   UNL     1      22.498  -6.413  -3.786  1.00  0.00     0.053 C 
BRANCH   9  10
ATOM     10  C   UNL     1      22.182  -6.588  -5.241  1.00  0.00     0.041 C 
ATOM     11  O   UNL     1      22.399  -5.651  -6.053  1.00  0.00    -0.550 OA
ATOM     12  O   UNL     1      21.622  -7.776  -5.694  1.00  0.00    -0.550 OA
ENDBRANCH   9  10
ENDBRANCH   8   9
ENDBRANCH   7   8
ENDBRANCH   6   7
ENDBRANCH   5   6
ENDBRANCH   4   5
ENDBRANCH   3   4
ENDBRANCH   1   3
BRANCH   2  13
ATOM     13  C   UNL     1      23.575  -0.991   0.309  1.00  0.00     0.027 C 
BRANCH  13  14
ATOM     14  C   UNL     1      22.534  -2.105   0.499  1.00  0.00     0.004 C 
BRANCH  14  15
ATOM     15  C   UNL     1      23.095  -3.298   1.293  1.00  0.00     0.000 C 
BRANCH  15  16
ATOM     16  C   UNL     1      24.498  -3.024   1.857  1.00  0.00     0.000 C 
BRANCH  16  17
ATOM     17  C   UNL     1      25.473  -4.186   1.614  1.00  0.00    -0.000 C 
BRANCH  17  18
ATOM     18  C   UNL     1      26.606  -3.822   0.639  1.00  0.00    -0.000 C 
BRANCH  18  19
ATOM     19  C   UNL     1      26.251  -4.071  -0.842  1.00  0.00    -0.003 C 
ATOM     20  C   UNL     1      26.344  -2.801  -1.686  1.00  0.00     0.004 C 
ENDBRANCH  18  19
ENDBRANCH  17  18
ENDBRANCH  16  17
ENDBRANCH  15  16
ENDBRANCH  14  15
ENDBRANCH  13  14
ENDBRANCH   2  13
TORSDOF 15
ENDMDL
MODEL 5
REMARK VINA RESULT:    -6.227      2.659      4.930
REMARK INTER + INTRA:         -14.017
REMARK INTER:                 -12.095
REMARK INTRA:                  -1.922
REMARK UNBOUND:                -2.329
REMARK SMILES CCCCCCCCC=CCCCCCCCC(=O)[O-]
REMARK SMILES IDX 10 1 9 2 11 3 12 4 13 5 14 6 15 7 16 8 17 9 18 10 19 11
REMARK SMILES IDX 20 12 8 13 7 14 6 15 5 16 4 17 3 18 2 19 1 20
REMARK H PARENT
REMARK Flexibility Score: inf
ROOT
ATOM      1  C   UNL     1      22.787  -1.126  -3.385  1.00  0.00    -0.031 C 
ATOM      2  C   UNL     1      22.833  -2.385  -3.860  1.00  0.00    -0.031 C 
ENDROOT
BRANCH   1   3
ATOM      3  C   UNL     1      21.765  -0.603  -2.407  1.00  0.00     0.027 C 
BRANCH   3   4
ATOM      4  C   UNL     1      22.276   0.648  -1.676  1.00  0.00     0.004 C 
BRANCH   4   5
ATOM      5  C   UNL     1      22.865   0.325  -0.295  1.00  0.00     0.000 C 
BRANCH   5   6
ATOM      6  C   UNL     1      22.427  -1.059   0.218  1.00  0.00     0.000 C 
BRANCH   6   7
ATOM      7  C   UNL     1      23.613  -2.013   0.434  1.00  0.00     0.000 C 
BRANCH   7   8
ATOM      8  C   UNL     1      24.898  -1.532  -0.262  1.00  0.00     0.006 C 
BRANCH   8   9
ATOM      9  C   UNL     1      25.412  -2.546  -1.294  1.00  0.00     0.053 C 
BRANCH   9  10
ATOM     10  C   UNL     1      26.170  -3.665  -0.646  1.00  0.00     0.041 C 
ATOM     11  O   UNL     1      27.317  -3.459  -0.169  1.00  0.00    -0.550 OA
ATOM     12  O   UNL     1      25.622  -4.940  -0.597  1.00  0.00    -0.550 OA
ENDBRANCH   9  10
ENDBRANCH   8   9
ENDBRANCH   7   8
ENDBRANCH   6   7
ENDBRANCH   5   6
ENDBRANCH   4   5
ENDBRANCH   3   4
ENDBRANCH   1   3
BRANCH   2  13
ATOM     13  C   UNL     1      21.891  -3.502  -3.470  1.00  0.00     0.027 C 
BRANCH  13  14
ATOM     14  C   UNL     1      22.630  -4.637  -2.745  1.00  0.00     0.004 C 
BRANCH  14  15
ATOM     15  C   UNL     1      22.492  -5.984  -3.475  1.00  0.00     0.000 C 
BRANCH  15  16
ATOM     16  C   UNL     1      21.854  -5.838  -4.866  1.00  0.00     0.000 C 
BRANCH  16  17
ATOM     17  C   UNL     1      22.158  -7.029  -5.787  1.00  0.00    -0.000 C 
BRANCH  17  18
ATOM     18  C   UNL     1      21.010  -8.053  -5.839  1.00  0.00    -0.000 C 
BRANCH  18  19
ATOM     19  C   UNL     1      19.692  -7.535  -5.226  1.00  0.00    -0.003 C 
ATOM     20  C   UNL     1      18.572  -7.423  -6.259  1.00  0.00     0.004 C 
ENDBRANCH  18  19
ENDBRANCH  17  18
ENDBRANCH  16  17
ENDBRANCH  15  16
ENDBRANCH  14  15
ENDBRANCH  13  14
ENDBRANCH   2  13
TORSDOF 15
ENDMDL
MODEL 6
REMARK VINA RESULT:    -6.205      2.698      5.325
REMARK INTER + INTRA:         -13.976
REMARK INTER:                 -11.537
REMARK INTRA:                  -2.438
REMARK UNBOUND:                -2.329
REMARK SMILES CCCCCCCCC=CCCCCCCCC(=O)[O-]
REMARK SMILES IDX 10 1 9 2 11 3 12 4 13 5 14 6 15 7 16 8 17 9 18 10 19 11
REMARK SMILES IDX 20 12 8 13 7 14 6 15 5 16 4 17 3 18 2 19 1 20
REMARK H PARENT
REMARK Flexibility Score: inf
ROOT
ATOM      1  C   UNL     1      22.758  -0.261  -0.119  1.00  0.00    -0.031 C 
ATOM      2  C   UNL     1      23.801  -1.063   0.167  1.00  0.00    -0.031 C 
ENDROOT
BRANCH   1   3
ATOM      3  C   UNL     1      22.716   0.744  -1.243  1.00  0.00     0.027 C 
BRANCH   3   4
ATOM      4  C   UNL     1      22.107   0.137  -2.517  1.00  0.00     0.004 C 
BRANCH   4   5
ATOM      5  C   UNL     1      21.352  -1.173  -2.243  1.00  0.00     0.000 C 
BRANCH   5   6
ATOM      6  C   UNL     1      21.788  -2.307  -3.187  1.00  0.00     0.000 C 
BRANCH   6   7
ATOM      7  C   UNL     1      21.590  -3.701  -2.570  1.00  0.00     0.000 C 
BRANCH   7   8
ATOM      8  C   UNL     1      22.740  -4.667  -2.901  1.00  0.00     0.006 C 
BRANCH   8   9
ATOM      9  C   UNL     1      22.236  -6.080  -3.222  1.00  0.00     0.053 C 
BRANCH   9  10
ATOM     10  C   UNL     1      22.200  -6.337  -4.698  1.00  0.00     0.041 C 
ATOM     11  O   UNL     1      22.117  -7.516  -5.134  1.00  0.00    -0.550 OA
ATOM     12  O   UNL     1      22.289  -5.277  -5.592  1.00  0.00    -0.550 OA
ENDBRANCH   9  10
ENDBRANCH   8   9
ENDBRANCH   7   8
ENDBRANCH   6   7
ENDBRANCH   5   6
ENDBRANCH   4   5
ENDBRANCH   3   4
ENDBRANCH   1   3
BRANCH   2  13
ATOM     13  C   UNL     1      25.098  -1.121  -0.609  1.00  0.00     0.027 C 
BRANCH  13  14
ATOM     14  C   UNL     1      25.094  -2.270  -1.629  1.00  0.00     0.004 C 
BRANCH  14  15
ATOM     15  C   UNL     1      26.085  -3.386  -1.254  1.00  0.00     0.000 C 
BRANCH  15  16
ATOM     16  C   UNL     1      26.818  -3.104   0.067  1.00  0.00     0.000 C 
BRANCH  16  17
ATOM     17  C   UNL     1      26.309  -3.974   1.227  1.00  0.00    -0.000 C 
BRANCH  17  18
ATOM     18  C   UNL     1      25.233  -4.983   0.788  1.00  0.00    -0.000 C 
BRANCH  18  19
ATOM     19  C   UNL     1      23.959  -4.944   1.657  1.00  0.00    -0.003 C 
ATOM     20  C   UNL     1      22.770  -4.325   0.924  1.00  0.00     0.004 C 
ENDBRANCH  18  19
ENDBRANCH  17  18
ENDBRANCH  16  17
ENDBRANCH  15  16
ENDBRANCH  14  15
ENDBRANCH  13  14
ENDBRANCH   2  13
TORSDOF 15
ENDMDL
MODEL 7
REMARK VINA RESULT:    -6.147      2.742      5.387
REMARK INTER + INTRA:         -13.866
REMARK INTER:                 -11.215
REMARK INTRA:                  -2.651
REMARK UNBOUND:                -2.329
REMARK SMILES CCCCCCCCC=CCCCCCCCC(=O)[O-]
REMARK SMILES IDX 10 1 9 2 11 3 12 4 13 5 14 6 15 7 16 8 17 9 18 10 19 11
REMARK SMILES IDX 20 12 8 13 7 14 6 15 5 16 4 17 3 18 2 19 1 20
REMARK H PARENT
REMARK Flexibility Score: inf
ROOT
ATOM      1  C   UNL     1      23.545  -0.379  -0.736  1.00  0.00    -0.031 C 
ATOM      2  C   UNL     1      24.074  -1.218   0.176  1.00  0.00    -0.031 C 
ENDROOT
BRANCH   1   3
ATOM      3  C   UNL     1      22.075  -0.250  -1.049  1.00  0.00     0.027 C 
BRANCH   3   4
ATOM      4  C   UNL     1      21.779  -0.609  -2.513  1.00  0.00     0.004 C 
BRANCH   4   5
ATOM      5  C   UNL     1      22.876  -1.483  -3.139  1.00  0.00     0.000 C 
BRANCH   5   6
ATOM      6  C   UNL     1      22.337  -2.845  -3.613  1.00  0.00     0.000 C 
BRANCH   6   7
ATOM      7  C   UNL     1      21.493  -3.555  -2.541  1.00  0.00     0.000 C 
BRANCH   7   8
ATOM      8  C   UNL     1      21.270  -5.044  -2.851  1.00  0.00     0.006 C 
BRANCH   8   9
ATOM      9  C   UNL     1      22.428  -5.648  -3.657  1.00  0.00     0.053 C 
BRANCH   9  10
ATOM     10  C   UNL     1      21.935  -6.491  -4.795  1.00  0.00     0.041 C 
ATOM     11  O   UNL     1      21.086  -7.397  -4.589  1.00  0.00    -0.550 OA
ATOM     12  O   UNL     1      22.437  -6.294  -6.075  1.00  0.00    -0.550 OA
ENDBRANCH   9  10
ENDBRANCH   8   9
ENDBRANCH   7   8
ENDBRANCH   6   7
ENDBRANCH   5   6
ENDBRANCH   4   5
ENDBRANCH   3   4
ENDBRANCH   1   3
BRANCH   2  13
ATOM     13  C   UNL     1      23.284  -2.149   1.068  1.00  0.00     0.027 C 
BRANCH  13  14
ATOM     14  C   UNL     1      24.207  -3.069   1.881  1.00  0.00     0.004 C 
BRANCH  14  15
ATOM     15  C   UNL     1      23.835  -4.555   1.728  1.00  0.00     0.000 C 
BRANCH  15  16
ATOM     16  C   UNL     1      23.553  -4.943   0.267  1.00  0.00     0.000 C 
BRANCH  16  17
ATOM     17  C   UNL     1      24.837  -5.169  -0.546  1.00  0.00    -0.000 C 
BRANCH  17  18
ATOM     18  C   UNL     1      25.145  -4.010  -1.510  1.00  0.00    -0.000 C 
BRANCH  18  19
ATOM     19  C   UNL     1      26.621  -3.562  -1.486  1.00  0.00    -0.003 C 
ATOM     20  C   UNL     1      27.108  -3.232  -0.075  1.00  0.00     0.004 C 
ENDBRANCH  18  19
ENDBRANCH  17  18
ENDBRANCH  16  17
ENDBRANCH  15  16
ENDBRANCH  14  15
ENDBRANCH  13  14
ENDBRANCH   2  13
TORSDOF 15
ENDMDL
MODEL 8
REMARK VINA RESULT:    -6.139      1.586      3.479
REMARK INTER + INTRA:         -13.851
REMARK INTER:                 -11.428
REMARK INTRA:                  -2.423
REMARK UNBOUND:                -2.329
REMARK SMILES CCCCCCCCC=CCCCCCCCC(=O)[O-]
REMARK SMILES IDX 10 1 9 2 11 3 12 4 13 5 14 6 15 7 16 8 17 9 18 10 19 11
REMARK SMILES IDX 20 12 8 13 7 14 6 15 5 16 4 17 3 18 2 19 1 20
REMARK H PARENT
REMARK Flexibility Score: inf
ROOT
ATOM      1  C   UNL     1      23.258   0.321  -1.412  1.00  0.00    -0.031 C 
ATOM      2  C   UNL     1      22.665  -0.178  -2.513  1.00  0.00    -0.031 C 
ENDROOT
BRANCH   1   3
ATOM      3  C   UNL     1      22.760   0.143   0.001  1.00  0.00     0.027 C 
BRANCH   3   4
ATOM      4  C   UNL     1      23.429  -1.060   0.684  1.00  0.00     0.004 C 
BRANCH   4   5
ATOM      5  C   UNL     1      22.465  -2.241   0.875  1.00  0.00     0.000 C 
BRANCH   5   6
ATOM      6  C   UNL     1      23.079  -3.364   1.729  1.00  0.00     0.000 C 
BRANCH   6   7
ATOM      7  C   UNL     1      22.147  -4.579   1.869  1.00  0.00     0.000 C 
BRANCH   7   8
ATOM      8  C   UNL     1      21.295  -4.531   3.148  1.00  0.00     0.006 C 
BRANCH   8   9
ATOM      9  C   UNL     1      19.874  -4.016   2.878  1.00  0.00     0.053 C 
BRANCH   9  10
ATOM     10  C   UNL     1      19.012  -4.093   4.101  1.00  0.00     0.041 C 
ATOM     11  O   UNL     1      19.168  -3.266   5.039  1.00  0.00    -0.550 OA
ATOM     12  O   UNL     1      18.057  -5.095   4.219  1.00  0.00    -0.550 OA
ENDBRANCH   9  10
ENDBRANCH   8   9
ENDBRANCH   7   8
ENDBRANCH   6   7
ENDBRANCH   5   6
ENDBRANCH   4   5
ENDBRANCH   3   4
ENDBRANCH   1   3
BRANCH   2  13
ATOM     13  C   UNL     1      21.417  -1.033  -2.522  1.00  0.00     0.027 C 
BRANCH  13  14
ATOM     14  C   UNL     1      21.736  -2.495  -2.872  1.00  0.00     0.004 C 
BRANCH  14  15
ATOM     15  C   UNL     1      23.228  -2.826  -2.692  1.00  0.00     0.000 C 
BRANCH  15  16
ATOM     16  C   UNL     1      23.451  -4.166  -1.971  1.00  0.00     0.000 C 
BRANCH  16  17
ATOM     17  C   UNL     1      24.865  -4.297  -1.385  1.00  0.00    -0.000 C 
BRANCH  17  18
ATOM     18  C   UNL     1      25.643  -2.969  -1.401  1.00  0.00    -0.000 C 
BRANCH  18  19
ATOM     19  C   UNL     1      26.860  -2.955  -0.452  1.00  0.00    -0.003 C 
ATOM     20  C   UNL     1      26.640  -3.813   0.793  1.00  0.00     0.004 C 
ENDBRANCH  18  19
ENDBRANCH  17  18
ENDBRANCH  16  17
ENDBRANCH  15  16
ENDBRANCH  14  15
ENDBRANCH  13  14
ENDBRANCH   2  13
TORSDOF 15
ENDMDL
MODEL 9
REMARK VINA RESULT:    -6.136      1.440      2.917
REMARK INTER + INTRA:         -13.845
REMARK INTER:                 -11.335
REMARK INTRA:                  -2.510
REMARK UNBOUND:                -2.329
REMARK SMILES CCCCCCCCC=CCCCCCCCC(=O)[O-]
REMARK SMILES IDX 10 1 9 2 11 3 12 4 13 5 14 6 15 7 16 8 17 9 18 10 19 11
REMARK SMILES IDX 20 12 8 13 7 14 6 15 5 16 4 17 3 18 2 19 1 20
REMARK H PARENT
REMARK Flexibility Score: inf
ROOT
ATOM      1  C   UNL     1      25.323  -2.682  -1.141  1.00  0.00    -0.031 C 
ATOM      2  C   UNL     1      25.009  -1.503  -0.571  1.00  0.00    -0.031 C 
ENDROOT
BRANCH   1   3
ATOM      3  C   UNL     1      24.700  -4.010  -0.790  1.00  0.00     0.027 C 
BRANCH   3   4
ATOM      4  C   UNL     1      25.373  -4.640   0.440  1.00  0.00     0.004 C 
BRANCH   4   5
ATOM      5  C   UNL     1      24.371  -4.974   1.555  1.00  0.00     0.000 C 
BRANCH   5   6
ATOM      6  C   UNL     1      22.923  -4.634   1.159  1.00  0.00     0.000 C 
BRANCH   6   7
ATOM      7  C   UNL     1      22.056  -4.239   2.367  1.00  0.00     0.000 C 
BRANCH   7   8
ATOM      8  C   UNL     1      20.616  -3.875   1.970  1.00  0.00     0.006 C 
BRANCH   8   9
ATOM      9  C   UNL     1      19.615  -4.978   2.344  1.00  0.00     0.053 C 
BRANCH   9  10
ATOM     10  C   UNL     1      18.954  -4.707   3.662  1.00  0.00     0.041 C 
ATOM     11  O   UNL     1      18.233  -5.588   4.200  1.00  0.00    -0.550 OA
ATOM     12  O   UNL     1      19.110  -3.473   4.279  1.00  0.00    -0.550 OA
ENDBRANCH   9  10
ENDBRANCH   8   9
ENDBRANCH   7   8
ENDBRANCH   6   7
ENDBRANCH   5   6
ENDBRANCH   4   5
ENDBRANCH   3   4
ENDBRANCH   1   3
BRANCH   2  13
ATOM     13  C   UNL     1      23.954  -1.299   0.492  1.00  0.00     0.027 C 
BRANCH  13  14
ATOM     14  C   UNL     1      22.710  -0.597  -0.073  1.00  0.00     0.004 C 
BRANCH  14  15
ATOM     15  C   UNL     1      23.073   0.548  -1.036  1.00  0.00     0.000 C 
BRANCH  15  16
ATOM     16  C   UNL     1      22.403   0.396  -2.411  1.00  0.00     0.000 C 
BRANCH  16  17
ATOM     17  C   UNL     1      21.807  -1.003  -2.630  1.00  0.00    -0.000 C 
BRANCH  17  18
ATOM     18  C   UNL     1      22.674  -1.886  -3.545  1.00  0.00    -0.000 C 
BRANCH  18  19
ATOM     19  C   UNL     1      22.212  -3.356  -3.605  1.00  0.00    -0.003 C 
ATOM     20  C   UNL     1      21.433  -3.774  -2.359  1.00  0.00     0.004 C 
ENDBRANCH  18  19
ENDBRANCH  17  18
ENDBRANCH  16  17
ENDBRANCH  15  16
ENDBRANCH  14  15
ENDBRANCH  13  14
ENDBRANCH   2  13
TORSDOF 15
ENDMDL
