MODEL 1
REMARK VINA RESULT:    -3.624      0.000      0.000
REMARK INTER + INTRA:         -11.936
REMARK INTER:                  -9.451
REMARK INTRA:                  -2.485
REMARK UNBOUND:                -2.485
REMARK SMILES CCCCCCCCCCCCCCCCCCCCCCCCCCCCCO
REMARK SMILES IDX 16 1 15 2 14 3 13 4 12 5 11 6 10 7 9 8 8 9 7 10 6 11 5 12
REMARK SMILES IDX 4 13 3 14 2 15 1 16 17 17 18 18 19 19 20 20 21 21 22 22
REMARK SMILES IDX 23 23 24 24 25 25 26 26 27 27 28 28 29 29 30 30
REMARK H PARENT 30 31
REMARK Flexibility Score: inf
ROOT
ATOM      1  C   UNL     1      -3.963   6.101 -24.837  1.00  0.00     0.000 C 
ENDROOT
BRANCH   1   2
ATOM      2  C   UNL     1      -2.994   4.929 -25.122  1.00  0.00     0.000 C 
BRANCH   2   3
ATOM      3  C   UNL     1      -1.499   5.304 -25.067  1.00  0.00     0.000 C 
BRANCH   3   4
ATOM      4  C   UNL     1      -0.537   4.102 -25.010  1.00  0.00     0.000 C 
BRANCH   4   5
ATOM      5  C   UNL     1      -1.270   2.758 -24.854  1.00  0.00     0.000 C 
BRANCH   5   6
ATOM      6  C   UNL     1      -1.321   2.279 -23.390  1.00  0.00     0.000 C 
BRANCH   6   7
ATOM      7  C   UNL     1      -1.021   0.779 -23.205  1.00  0.00     0.000 C 
BRANCH   7   8
ATOM      8  C   UNL     1       0.314   0.528 -22.483  1.00  0.00    -0.000 C 
BRANCH   8   9
ATOM      9  C   UNL     1       1.528   0.608 -23.426  1.00  0.00    -0.000 C 
BRANCH   9  10
ATOM     10  C   UNL     1       2.704  -0.313 -23.051  1.00  0.00    -0.000 C 
BRANCH  10  11
ATOM     11  C   UNL     1       2.395  -1.801 -23.293  1.00  0.00    -0.000 C 
BRANCH  11  12
ATOM     12  C   UNL     1       2.186  -2.579 -21.983  1.00  0.00    -0.000 C 
BRANCH  12  13
ATOM     13  C   UNL     1       3.467  -3.292 -21.515  1.00  0.00    -0.000 C 
BRANCH  13  14
ATOM     14  C   UNL     1       4.058  -4.230 -22.584  1.00  0.00    -0.000 C 
BRANCH  14  15
ATOM     15  C   UNL     1       4.451  -5.630 -22.079  1.00  0.00    -0.003 C 
ATOM     16  C   UNL     1       5.045  -5.619 -20.672  1.00  0.00     0.004 C 
ENDBRANCH  14  15
ENDBRANCH  13  14
ENDBRANCH  12  13
ENDBRANCH  11  12
ENDBRANCH  10  11
ENDBRANCH   9  10
ENDBRANCH   8   9
ENDBRANCH   7   8
ENDBRANCH   6   7
ENDBRANCH   5   6
ENDBRANCH   4   5
ENDBRANCH   3   4
ENDBRANCH   2   3
ENDBRANCH   1   2
BRANCH   1  17
ATOM     17  C   UNL     1      -3.370   7.496 -25.125  1.00  0.00     0.000 C 
BRANCH  17  18
ATOM     18  C   UNL     1      -4.381   8.654 -25.115  1.00  0.00     0.000 C 
BRANCH  18  19
ATOM     19  C   UNL     1      -4.485   9.437 -23.790  1.00  0.00     0.000 C 
BRANCH  19  20
ATOM     20  C   UNL     1      -5.925   9.613 -23.263  1.00  0.00     0.000 C 
BRANCH  20  21
ATOM     21  C   UNL     1      -6.463   8.358 -22.545  1.00  0.00     0.000 C 
BRANCH  21  22
ATOM     22  C   UNL     1      -7.937   8.074 -22.874  1.00  0.00     0.000 C 
BRANCH  22  23
ATOM     23  C   UNL     1      -8.115   6.898 -23.851  1.00  0.00     0.000 C 
BRANCH  23  24
ATOM     24  C   UNL     1      -6.901   5.954 -23.869  1.00  0.00     0.000 C 
BRANCH  24  25
ATOM     25  C   UNL     1      -7.305   4.473 -23.997  1.00  0.00     0.000 C 
BRANCH  25  26
ATOM     26  C   UNL     1      -6.803   3.617 -22.814  1.00  0.00     0.000 C 
BRANCH  26  27
ATOM     27  C   UNL     1      -5.621   4.246 -22.047  1.00  0.00     0.002 C 
BRANCH  27  28
ATOM     28  C   UNL     1      -4.446   3.291 -21.764  1.00  0.00     0.028 C 
BRANCH  28  29
ATOM     29  C   UNL     1      -4.755   2.232 -20.698  1.00  0.00     0.156 C 
BRANCH  29  30
ATOM     30  O   UNL     1      -4.039   2.502 -19.524  1.00  0.00    -0.396 OA
ATOM     31  H   UNL     1      -3.549   1.668 -19.300  1.00  0.00     0.210 HD
ENDBRANCH  29  30
ENDBRANCH  28  29
ENDBRANCH  27  28
ENDBRANCH  26  27
ENDBRANCH  25  26
ENDBRANCH  24  25
ENDBRANCH  23  24
ENDBRANCH  22  23
ENDBRANCH  21  22
ENDBRANCH  20  21
ENDBRANCH  19  20
ENDBRANCH  18  19
ENDBRANCH  17  18
ENDBRANCH   1  17
TORSDOF 28
ENDMDL
MODEL 2
REMARK VINA RESULT:    -3.557      2.407      9.639
REMARK INTER + INTRA:         -11.759
REMARK INTER:                  -9.549
REMARK INTRA:                  -2.209
REMARK UNBOUND:                -2.485
REMARK SMILES CCCCCCCCCCCCCCCCCCCCCCCCCCCCCO
REMARK SMILES IDX 16 1 15 2 14 3 13 4 12 5 11 6 10 7 9 8 8 9 7 10 6 11 5 12
REMARK SMILES IDX 4 13 3 14 2 15 1 16 17 17 18 18 19 19 20 20 21 21 22 22
REMARK SMILES IDX 23 23 24 24 25 25 26 26 27 27 28 28 29 29 30 30
REMARK H PARENT 30 31
REMARK Flexibility Score: inf
ROOT
ATOM      1  C   UNL     1      -3.054   6.251 -25.115  1.00  0.00     0.000 C 
ENDROOT
BRANCH   1   2
ATOM      2  C   UNL     1      -3.296   7.778 -25.125  1.00  0.00     0.000 C 
BRANCH   2   3
ATOM      3  C   UNL     1      -4.699   8.208 -24.651  1.00  0.00     0.000 C 
BRANCH   3   4
ATOM      4  C   UNL     1      -4.789   9.659 -24.140  1.00  0.00     0.000 C 
BRANCH   4   5
ATOM      5  C   UNL     1      -5.832   9.834 -23.022  1.00  0.00     0.000 C 
BRANCH   5   6
ATOM      6  C   UNL     1      -7.212   9.267 -23.408  1.00  0.00     0.000 C 
BRANCH   6   7
ATOM      7  C   UNL     1      -7.751   8.199 -22.437  1.00  0.00     0.000 C 
BRANCH   7   8
ATOM      8  C   UNL     1      -7.820   6.801 -23.075  1.00  0.00    -0.000 C 
BRANCH   8   9
ATOM      9  C   UNL     1      -8.058   5.684 -22.043  1.00  0.00    -0.000 C 
BRANCH   9  10
ATOM     10  C   UNL     1      -7.987   4.253 -22.606  1.00  0.00    -0.000 C 
BRANCH  10  11
ATOM     11  C   UNL     1      -6.632   3.938 -23.264  1.00  0.00    -0.000 C 
BRANCH  11  12
ATOM     12  C   UNL     1      -5.914   2.755 -22.593  1.00  0.00    -0.000 C 
BRANCH  12  13
ATOM     13  C   UNL     1      -4.421   3.038 -22.351  1.00  0.00    -0.000 C 
BRANCH  13  14
ATOM     14  C   UNL     1      -4.030   2.976 -20.863  1.00  0.00    -0.000 C 
BRANCH  14  15
ATOM     15  C   UNL     1      -5.182   3.231 -19.874  1.00  0.00    -0.003 C 
ATOM     16  C   UNL     1      -5.262   2.189 -18.760  1.00  0.00     0.004 C 
ENDBRANCH  14  15
ENDBRANCH  13  14
ENDBRANCH  12  13
ENDBRANCH  11  12
ENDBRANCH  10  11
ENDBRANCH   9  10
ENDBRANCH   8   9
ENDBRANCH   7   8
ENDBRANCH   6   7
ENDBRANCH   5   6
ENDBRANCH   4   5
ENDBRANCH   3   4
ENDBRANCH   2   3
ENDBRANCH   1   2
BRANCH   1  17
ATOM     17  C   UNL     1      -1.864   5.805 -24.240  1.00  0.00     0.000 C 
BRANCH  17  18
ATOM     18  C   UNL     1      -0.594   5.409 -25.011  1.00  0.00     0.000 C 
BRANCH  18  19
ATOM     19  C   UNL     1      -0.280   3.900 -25.049  1.00  0.00     0.000 C 
BRANCH  19  20
ATOM     20  C   UNL     1      -1.403   2.998 -24.495  1.00  0.00     0.000 C 
BRANCH  20  21
ATOM     21  C   UNL     1      -1.077   1.494 -24.594  1.00  0.00     0.000 C 
BRANCH  21  22
ATOM     22  C   UNL     1      -0.977   0.818 -23.218  1.00  0.00     0.000 C 
BRANCH  22  23
ATOM     23  C   UNL     1       0.359   1.105 -22.507  1.00  0.00     0.000 C 
BRANCH  23  24
ATOM     24  C   UNL     1       1.522   0.277 -23.075  1.00  0.00     0.000 C 
BRANCH  24  25
ATOM     25  C   UNL     1       2.028  -0.791 -22.087  1.00  0.00     0.000 C 
BRANCH  25  26
ATOM     26  C   UNL     1       2.578  -2.046 -22.798  1.00  0.00     0.000 C 
BRANCH  26  27
ATOM     27  C   UNL     1       2.693  -3.282 -21.882  1.00  0.00     0.002 C 
BRANCH  27  28
ATOM     28  C   UNL     1       4.121  -3.830 -21.703  1.00  0.00     0.028 C 
BRANCH  28  29
ATOM     29  C   UNL     1       4.194  -5.361 -21.665  1.00  0.00     0.156 C 
BRANCH  29  30
ATOM     30  O   UNL     1       3.894  -5.893 -22.926  1.00  0.00    -0.396 OA
ATOM     31  H   UNL     1       3.052  -6.408 -22.818  1.00  0.00     0.210 HD
ENDBRANCH  29  30
ENDBRANCH  28  29
ENDBRANCH  27  28
ENDBRANCH  26  27
ENDBRANCH  25  26
ENDBRANCH  24  25
ENDBRANCH  23  24
ENDBRANCH  22  23
ENDBRANCH  21  22
ENDBRANCH  20  21
ENDBRANCH  19  20
ENDBRANCH  18  19
ENDBRANCH  17  18
ENDBRANCH   1  17
TORSDOF 28
ENDMDL
MODEL 3
REMARK VINA RESULT:    -3.278      1.327      2.759
REMARK INTER + INTRA:         -11.032
REMARK INTER:                  -9.188
REMARK INTRA:                  -1.844
REMARK UNBOUND:                -2.485
REMARK SMILES CCCCCCCCCCCCCCCCCCCCCCCCCCCCCO
REMARK SMILES IDX 16 1 15 2 14 3 13 4 12 5 11 6 10 7 9 8 8 9 7 10 6 11 5 12
REMARK SMILES IDX 4 13 3 14 2 15 1 16 17 17 18 18 19 19 20 20 21 21 22 22
REMARK SMILES IDX 23 23 24 24 25 25 26 26 27 27 28 28 29 29 30 30
REMARK H PARENT 30 31
REMARK Flexibility Score: inf
ROOT
ATOM      1  C   UNL     1      -1.529   4.609 -23.819  1.00  0.00     0.000 C 
ENDROOT
BRANCH   1   2
ATOM      2  C   UNL     1      -1.735   3.733 -25.076  1.00  0.00     0.000 C 
BRANCH   2   3
ATOM      3  C   UNL     1      -1.099   2.330 -24.994  1.00  0.00     0.000 C 
BRANCH   3   4
ATOM      4  C   UNL     1      -0.363   2.035 -23.673  1.00  0.00     0.000 C 
BRANCH   4   5
ATOM      5  C   UNL     1      -0.978   0.854 -22.899  1.00  0.00     0.000 C 
BRANCH   5   6
ATOM      6  C   UNL     1       0.070  -0.206 -22.509  1.00  0.00     0.000 C 
BRANCH   6   7
ATOM      7  C   UNL     1       1.460   0.370 -22.180  1.00  0.00     0.000 C 
BRANCH   7   8
ATOM      8  C   UNL     1       2.598  -0.403 -22.868  1.00  0.00    -0.000 C 
BRANCH   8   9
ATOM      9  C   UNL     1       2.297  -1.906 -23.014  1.00  0.00    -0.000 C 
BRANCH   9  10
ATOM     10  C   UNL     1       2.603  -2.754 -21.766  1.00  0.00    -0.000 C 
BRANCH  10  11
ATOM     11  C   UNL     1       4.050  -3.276 -21.741  1.00  0.00    -0.000 C 
BRANCH  11  12
ATOM     12  C   UNL     1       4.148  -4.715 -21.209  1.00  0.00    -0.000 C 
BRANCH  12  13
ATOM     13  C   UNL     1       4.542  -5.719 -22.305  1.00  0.00    -0.000 C 
BRANCH  13  14
ATOM     14  C   UNL     1       4.242  -5.207 -23.726  1.00  0.00    -0.000 C 
BRANCH  14  15
ATOM     15  C   UNL     1       4.219  -6.290 -24.820  1.00  0.00    -0.003 C 
ATOM     16  C   UNL     1       3.459  -7.548 -24.406  1.00  0.00     0.004 C 
ENDBRANCH  14  15
ENDBRANCH  13  14
ENDBRANCH  12  13
ENDBRANCH  11  12
ENDBRANCH  10  11
ENDBRANCH   9  10
ENDBRANCH   8   9
ENDBRANCH   7   8
ENDBRANCH   6   7
ENDBRANCH   5   6
ENDBRANCH   4   5
ENDBRANCH   3   4
ENDBRANCH   2   3
ENDBRANCH   1   2
BRANCH   1  17
ATOM     17  C   UNL     1      -0.366   5.618 -23.935  1.00  0.00     0.000 C 
BRANCH  17  18
ATOM     18  C   UNL     1      -0.462   6.596 -25.117  1.00  0.00     0.000 C 
BRANCH  18  19
ATOM     19  C   UNL     1      -1.273   7.882 -24.856  1.00  0.00     0.000 C 
BRANCH  19  20
ATOM     20  C   UNL     1      -2.797   7.665 -24.748  1.00  0.00     0.000 C 
BRANCH  20  21
ATOM     21  C   UNL     1      -3.532   8.854 -24.096  1.00  0.00     0.000 C 
BRANCH  21  22
ATOM     22  C   UNL     1      -5.048   8.821 -24.342  1.00  0.00     0.000 C 
BRANCH  22  23
ATOM     23  C   UNL     1      -5.587   7.394 -24.554  1.00  0.00     0.000 C 
BRANCH  23  24
ATOM     24  C   UNL     1      -6.321   6.848 -23.319  1.00  0.00     0.000 C 
BRANCH  24  25
ATOM     25  C   UNL     1      -7.128   5.572 -23.625  1.00  0.00     0.000 C 
BRANCH  25  26
ATOM     26  C   UNL     1      -7.047   4.532 -22.487  1.00  0.00     0.000 C 
BRANCH  26  27
ATOM     27  C   UNL     1      -6.042   3.393 -22.755  1.00  0.00     0.002 C 
BRANCH  27  28
ATOM     28  C   UNL     1      -5.548   2.650 -21.500  1.00  0.00     0.028 C 
BRANCH  28  29
ATOM     29  C   UNL     1      -4.034   2.405 -21.482  1.00  0.00     0.156 C 
BRANCH  29  30
ATOM     30  O   UNL     1      -3.466   2.958 -20.326  1.00  0.00    -0.396 OA
ATOM     31  H   UNL     1      -3.242   3.898 -20.550  1.00  0.00     0.210 HD
ENDBRANCH  29  30
ENDBRANCH  28  29
ENDBRANCH  27  28
ENDBRANCH  26  27
ENDBRANCH  25  26
ENDBRANCH  24  25
ENDBRANCH  23  24
ENDBRANCH  22  23
ENDBRANCH  21  22
ENDBRANCH  20  21
ENDBRANCH  19  20
ENDBRANCH  18  19
ENDBRANCH  17  18
ENDBRANCH   1  17
TORSDOF 28
ENDMDL
MODEL 4
REMARK VINA RESULT:    -3.219      2.407     10.047
REMARK INTER + INTRA:         -10.878
REMARK INTER:                  -9.438
REMARK INTRA:                  -1.440
REMARK UNBOUND:                -2.485
REMARK SMILES CCCCCCCCCCCCCCCCCCCCCCCCCCCCCO
REMARK SMILES IDX 16 1 15 2 14 3 13 4 12 5 11 6 10 7 9 8 8 9 7 10 6 11 5 12
REMARK SMILES IDX 4 13 3 14 2 15 1 16 17 17 18 18 19 19 20 20 21 21 22 22
REMARK SMILES IDX 23 23 24 24 25 25 26 26 27 27 28 28 29 29 30 30
REMARK H PARENT 30 31
REMARK Flexibility Score: inf
ROOT
ATOM      1  C   UNL     1      -3.575   4.158 -23.860  1.00  0.00     0.000 C 
ENDROOT
BRANCH   1   2
ATOM      2  C   UNL     1      -3.540   5.047 -25.125  1.00  0.00     0.000 C 
BRANCH   2   3
ATOM      3  C   UNL     1      -4.370   6.343 -25.023  1.00  0.00     0.000 C 
BRANCH   3   4
ATOM      4  C   UNL     1      -3.538   7.639 -25.000  1.00  0.00     0.000 C 
BRANCH   4   5
ATOM      5  C   UNL     1      -3.965   8.602 -23.877  1.00  0.00     0.000 C 
BRANCH   5   6
ATOM      6  C   UNL     1      -4.510   9.937 -24.420  1.00  0.00     0.000 C 
BRANCH   6   7
ATOM      7  C   UNL     1      -5.983   9.884 -24.868  1.00  0.00     0.000 C 
BRANCH   7   8
ATOM      8  C   UNL     1      -6.957   9.777 -23.682  1.00  0.00    -0.000 C 
BRANCH   8   9
ATOM      9  C   UNL     1      -6.731   8.512 -22.834  1.00  0.00    -0.000 C 
BRANCH   9  10
ATOM     10  C   UNL     1      -7.929   7.546 -22.776  1.00  0.00    -0.000 C 
BRANCH  10  11
ATOM     11  C   UNL     1      -7.570   6.123 -23.237  1.00  0.00    -0.000 C 
BRANCH  11  12
ATOM     12  C   UNL     1      -7.560   5.114 -22.076  1.00  0.00    -0.000 C 
BRANCH  12  13
ATOM     13  C   UNL     1      -6.457   4.053 -22.232  1.00  0.00    -0.000 C 
BRANCH  13  14
ATOM     14  C   UNL     1      -5.485   4.016 -21.037  1.00  0.00    -0.000 C 
BRANCH  14  15
ATOM     15  C   UNL     1      -5.017   2.610 -20.620  1.00  0.00    -0.003 C 
ATOM     16  C   UNL     1      -5.976   1.502 -21.052  1.00  0.00     0.004 C 
ENDBRANCH  14  15
ENDBRANCH  13  14
ENDBRANCH  12  13
ENDBRANCH  11  12
ENDBRANCH  10  11
ENDBRANCH   9  10
ENDBRANCH   8   9
ENDBRANCH   7   8
ENDBRANCH   6   7
ENDBRANCH   5   6
ENDBRANCH   4   5
ENDBRANCH   3   4
ENDBRANCH   2   3
ENDBRANCH   1   2
BRANCH   1  17
ATOM     17  C   UNL     1      -2.299   4.238 -22.995  1.00  0.00     0.000 C 
BRANCH  17  18
ATOM     18  C   UNL     1      -1.057   4.797 -23.708  1.00  0.00     0.000 C 
BRANCH  18  19
ATOM     19  C   UNL     1      -0.669   4.091 -25.023  1.00  0.00     0.000 C 
BRANCH  19  20
ATOM     20  C   UNL     1      -0.166   2.642 -24.847  1.00  0.00     0.000 C 
BRANCH  20  21
ATOM     21  C   UNL     1      -1.308   1.629 -24.624  1.00  0.00     0.000 C 
BRANCH  21  22
ATOM     22  C   UNL     1      -1.127   0.806 -23.339  1.00  0.00     0.000 C 
BRANCH  22  23
ATOM     23  C   UNL     1       0.329   0.793 -22.838  1.00  0.00     0.000 C 
BRANCH  23  24
ATOM     24  C   UNL     1       0.671  -0.478 -22.044  1.00  0.00     0.000 C 
BRANCH  24  25
ATOM     25  C   UNL     1       1.956  -1.163 -22.548  1.00  0.00     0.000 C 
BRANCH  25  26
ATOM     26  C   UNL     1       2.357  -2.380 -21.687  1.00  0.00     0.000 C 
BRANCH  26  27
ATOM     27  C   UNL     1       3.349  -3.335 -22.381  1.00  0.00     0.002 C 
BRANCH  27  28
ATOM     28  C   UNL     1       4.199  -4.197 -21.429  1.00  0.00     0.028 C 
BRANCH  28  29
ATOM     29  C   UNL     1       4.580  -5.565 -22.009  1.00  0.00     0.156 C 
BRANCH  29  30
ATOM     30  O   UNL     1       3.527  -6.077 -22.778  1.00  0.00    -0.396 OA
ATOM     31  H   UNL     1       3.006  -5.292 -23.093  1.00  0.00     0.210 HD
ENDBRANCH  29  30
ENDBRANCH  28  29
ENDBRANCH  27  28
ENDBRANCH  26  27
ENDBRANCH  25  26
ENDBRANCH  24  25
ENDBRANCH  23  24
ENDBRANCH  22  23
ENDBRANCH  21  22
ENDBRANCH  20  21
ENDBRANCH  19  20
ENDBRANCH  18  19
ENDBRANCH  17  18
ENDBRANCH   1  17
TORSDOF 28
ENDMDL
MODEL 5
REMARK VINA RESULT:    -3.185      2.596     10.727
REMARK INTER + INTRA:         -10.790
REMARK INTER:                  -9.676
REMARK INTRA:                  -1.114
REMARK UNBOUND:                -2.485
REMARK SMILES CCCCCCCCCCCCCCCCCCCCCCCCCCCCCO
REMARK SMILES IDX 16 1 15 2 14 3 13 4 12 5 11 6 10 7 9 8 8 9 7 10 6 11 5 12
REMARK SMILES IDX 4 13 3 14 2 15 1 16 17 17 18 18 19 19 20 20 21 21 22 22
REMARK SMILES IDX 23 23 24 24 25 25 26 26 27 27 28 28 29 29 30 30
REMARK H PARENT 30 31
REMARK Flexibility Score: inf
ROOT
ATOM      1  C   UNL     1      -1.410   3.026 -23.135  1.00  0.00     0.000 C 
ENDROOT
BRANCH   1   2
ATOM      2  C   UNL     1      -1.929   4.388 -23.652  1.00  0.00     0.000 C 
BRANCH   2   3
ATOM      3  C   UNL     1      -1.143   4.963 -24.848  1.00  0.00     0.000 C 
BRANCH   3   4
ATOM      4  C   UNL     1      -1.182   6.499 -24.966  1.00  0.00     0.000 C 
BRANCH   4   5
ATOM      5  C   UNL     1      -2.607   7.069 -24.848  1.00  0.00     0.000 C 
BRANCH   5   6
ATOM      6  C   UNL     1      -2.645   8.601 -25.017  1.00  0.00     0.000 C 
BRANCH   6   7
ATOM      7  C   UNL     1      -3.598   9.320 -24.043  1.00  0.00     0.000 C 
BRANCH   7   8
ATOM      8  C   UNL     1      -4.927   9.721 -24.707  1.00  0.00    -0.000 C 
BRANCH   8   9
ATOM      9  C   UNL     1      -6.126   9.635 -23.744  1.00  0.00    -0.000 C 
BRANCH   9  10
ATOM     10  C   UNL     1      -6.914   8.314 -23.805  1.00  0.00    -0.000 C 
BRANCH  10  11
ATOM     11  C   UNL     1      -6.001   7.080 -23.907  1.00  0.00    -0.000 C 
BRANCH  11  12
ATOM     12  C   UNL     1      -6.635   5.826 -23.283  1.00  0.00    -0.000 C 
BRANCH  12  13
ATOM     13  C   UNL     1      -5.613   4.695 -23.074  1.00  0.00    -0.000 C 
BRANCH  13  14
ATOM     14  C   UNL     1      -6.177   3.517 -22.259  1.00  0.00    -0.000 C 
BRANCH  14  15
ATOM     15  C   UNL     1      -5.120   2.586 -21.637  1.00  0.00    -0.003 C 
ATOM     16  C   UNL     1      -4.806   2.919 -20.180  1.00  0.00     0.004 C 
ENDBRANCH  14  15
ENDBRANCH  13  14
ENDBRANCH  12  13
ENDBRANCH  11  12
ENDBRANCH  10  11
ENDBRANCH   9  10
ENDBRANCH   8   9
ENDBRANCH   7   8
ENDBRANCH   6   7
ENDBRANCH   5   6
ENDBRANCH   4   5
ENDBRANCH   3   4
ENDBRANCH   2   3
ENDBRANCH   1   2
BRANCH   1  17
ATOM     17  C   UNL     1      -1.004   2.039 -24.250  1.00  0.00     0.000 C 
BRANCH  17  18
ATOM     18  C   UNL     1       0.369   2.300 -24.890  1.00  0.00     0.000 C 
BRANCH  18  19
ATOM     19  C   UNL     1       1.243   1.052 -25.125  1.00  0.00     0.000 C 
BRANCH  19  20
ATOM     20  C   UNL     1       2.717   1.214 -24.698  1.00  0.00     0.000 C 
BRANCH  20  21
ATOM     21  C   UNL     1       3.087   0.362 -23.465  1.00  0.00     0.000 C 
BRANCH  21  22
ATOM     22  C   UNL     1       2.025   0.430 -22.358  1.00  0.00     0.000 C 
BRANCH  22  23
ATOM     23  C   UNL     1       1.024  -0.739 -22.417  1.00  0.00     0.000 C 
BRANCH  23  24
ATOM     24  C   UNL     1       1.394  -1.885 -21.462  1.00  0.00     0.000 C 
BRANCH  24  25
ATOM     25  C   UNL     1       2.885  -2.265 -21.543  1.00  0.00     0.000 C 
BRANCH  25  26
ATOM     26  C   UNL     1       3.109  -3.667 -22.149  1.00  0.00     0.000 C 
BRANCH  26  27
ATOM     27  C   UNL     1       4.413  -4.346 -21.683  1.00  0.00     0.002 C 
BRANCH  27  28
ATOM     28  C   UNL     1       4.510  -5.852 -21.993  1.00  0.00     0.028 C 
BRANCH  28  29
ATOM     29  C   UNL     1       4.253  -6.198 -23.465  1.00  0.00     0.156 C 
BRANCH  29  30
ATOM     30  O   UNL     1       3.177  -7.089 -23.573  1.00  0.00    -0.396 OA
ATOM     31  H   UNL     1       2.913  -7.320 -22.644  1.00  0.00     0.210 HD
ENDBRANCH  29  30
ENDBRANCH  28  29
ENDBRANCH  27  28
ENDBRANCH  26  27
ENDBRANCH  25  26
ENDBRANCH  24  25
ENDBRANCH  23  24
ENDBRANCH  22  23
ENDBRANCH  21  22
ENDBRANCH  20  21
ENDBRANCH  19  20
ENDBRANCH  18  19
ENDBRANCH  17  18
ENDBRANCH   1  17
TORSDOF 28
ENDMDL
MODEL 6
REMARK VINA RESULT:    -2.803      1.789      4.152
REMARK INTER + INTRA:          -9.793
REMARK INTER:                  -8.040
REMARK INTRA:                  -1.753
REMARK UNBOUND:                -2.485
REMARK SMILES CCCCCCCCCCCCCCCCCCCCCCCCCCCCCO
REMARK SMILES IDX 16 1 15 2 14 3 13 4 12 5 11 6 10 7 9 8 8 9 7 10 6 11 5 12
REMARK SMILES IDX 4 13 3 14 2 15 1 16 17 17 18 18 19 19 20 20 21 21 22 22
REMARK SMILES IDX 23 23 24 24 25 25 26 26 27 27 28 28 29 29 30 30
REMARK H PARENT 30 31
REMARK Flexibility Score: inf
ROOT
ATOM      1  C   UNL     1      -4.436   3.372 -20.756  1.00  0.00     0.000 C 
ENDROOT
BRANCH   1   2
ATOM      2  C   UNL     1      -3.839   2.009 -21.176  1.00  0.00     0.000 C 
BRANCH   2   3
ATOM      3  C   UNL     1      -3.110   2.018 -22.535  1.00  0.00     0.000 C 
BRANCH   3   4
ATOM      4  C   UNL     1      -2.290   3.291 -22.817  1.00  0.00     0.000 C 
BRANCH   4   5
ATOM      5  C   UNL     1      -1.948   3.463 -24.308  1.00  0.00     0.000 C 
BRANCH   5   6
ATOM      6  C   UNL     1      -0.514   3.008 -24.642  1.00  0.00     0.000 C 
BRANCH   6   7
ATOM      7  C   UNL     1      -0.278   1.494 -24.481  1.00  0.00     0.000 C 
BRANCH   7   8
ATOM      8  C   UNL     1       1.041   1.031 -25.125  1.00  0.00    -0.000 C 
BRANCH   8   9
ATOM      9  C   UNL     1       2.284   1.525 -24.363  1.00  0.00    -0.000 C 
BRANCH   9  10
ATOM     10  C   UNL     1       3.011   0.448 -23.538  1.00  0.00    -0.000 C 
BRANCH  10  11
ATOM     11  C   UNL     1       2.044  -0.470 -22.771  1.00  0.00    -0.000 C 
BRANCH  11  12
ATOM     12  C   UNL     1       2.423  -1.955 -22.890  1.00  0.00    -0.000 C 
BRANCH  12  13
ATOM     13  C   UNL     1       2.782  -2.579 -21.530  1.00  0.00    -0.000 C 
BRANCH  13  14
ATOM     14  C   UNL     1       3.856  -3.677 -21.638  1.00  0.00    -0.000 C 
BRANCH  14  15
ATOM     15  C   UNL     1       3.493  -4.859 -22.555  1.00  0.00    -0.003 C 
ATOM     16  C   UNL     1       4.663  -5.337 -23.414  1.00  0.00     0.004 C 
ENDBRANCH  14  15
ENDBRANCH  13  14
ENDBRANCH  12  13
ENDBRANCH  11  12
ENDBRANCH  10  11
ENDBRANCH   9  10
ENDBRANCH   8   9
ENDBRANCH   7   8
ENDBRANCH   6   7
ENDBRANCH   5   6
ENDBRANCH   4   5
ENDBRANCH   3   4
ENDBRANCH   2   3
ENDBRANCH   1   2
BRANCH   1  17
ATOM     17  C   UNL     1      -5.884   3.605 -21.237  1.00  0.00     0.000 C 
BRANCH  17  18
ATOM     18  C   UNL     1      -6.085   3.557 -22.760  1.00  0.00     0.000 C 
BRANCH  18  19
ATOM     19  C   UNL     1      -7.542   3.701 -23.245  1.00  0.00     0.000 C 
BRANCH  19  20
ATOM     20  C   UNL     1      -7.953   5.142 -23.614  1.00  0.00     0.000 C 
BRANCH  20  21
ATOM     21  C   UNL     1      -7.810   6.132 -22.439  1.00  0.00     0.000 C 
BRANCH  21  22
ATOM     22  C   UNL     1      -6.593   7.058 -22.590  1.00  0.00     0.000 C 
BRANCH  22  23
ATOM     23  C   UNL     1      -6.572   7.801 -23.938  1.00  0.00     0.000 C 
BRANCH  23  24
ATOM     24  C   UNL     1      -5.910   9.185 -23.841  1.00  0.00     0.000 C 
BRANCH  24  25
ATOM     25  C   UNL     1      -4.881   9.430 -24.962  1.00  0.00     0.000 C 
BRANCH  25  26
ATOM     26  C   UNL     1      -3.424   9.366 -24.455  1.00  0.00     0.000 C 
BRANCH  26  27
ATOM     27  C   UNL     1      -2.716   8.031 -24.763  1.00  0.00     0.002 C 
BRANCH  27  28
ATOM     28  C   UNL     1      -1.177   8.081 -24.707  1.00  0.00     0.028 C 
BRANCH  28  29
ATOM     29  C   UNL     1      -0.529   6.748 -24.318  1.00  0.00     0.156 C 
BRANCH  29  30
ATOM     30  O   UNL     1      -0.374   6.671 -22.927  1.00  0.00    -0.396 OA
ATOM     31  H   UNL     1      -0.121   5.732 -22.727  1.00  0.00     0.210 HD
ENDBRANCH  29  30
ENDBRANCH  28  29
ENDBRANCH  27  28
ENDBRANCH  26  27
ENDBRANCH  25  26
ENDBRANCH  24  25
ENDBRANCH  23  24
ENDBRANCH  22  23
ENDBRANCH  21  22
ENDBRANCH  20  21
ENDBRANCH  19  20
ENDBRANCH  18  19
ENDBRANCH  17  18
ENDBRANCH   1  17
TORSDOF 28
ENDMDL
MODEL 7
REMARK VINA RESULT:    -2.670      1.187      2.002
REMARK INTER + INTRA:          -9.447
REMARK INTER:                  -8.195
REMARK INTRA:                  -1.253
REMARK UNBOUND:                -2.485
REMARK SMILES CCCCCCCCCCCCCCCCCCCCCCCCCCCCCO
REMARK SMILES IDX 16 1 15 2 14 3 13 4 12 5 11 6 10 7 9 8 8 9 7 10 6 11 5 12
REMARK SMILES IDX 4 13 3 14 2 15 1 16 17 17 18 18 19 19 20 20 21 21 22 22
REMARK SMILES IDX 23 23 24 24 25 25 26 26 27 27 28 28 29 29 30 30
REMARK H PARENT 30 31
REMARK Flexibility Score: inf
ROOT
ATOM      1  C   UNL     1      -4.572   6.497 -24.081  1.00  0.00     0.000 C 
ENDROOT
BRANCH   1   2
ATOM      2  C   UNL     1      -3.451   6.210 -25.107  1.00  0.00     0.000 C 
BRANCH   2   3
ATOM      3  C   UNL     1      -2.157   7.018 -24.888  1.00  0.00     0.000 C 
BRANCH   3   4
ATOM      4  C   UNL     1      -1.096   6.313 -24.021  1.00  0.00     0.000 C 
BRANCH   4   5
ATOM      5  C   UNL     1      -0.445   5.114 -24.735  1.00  0.00     0.000 C 
BRANCH   5   6
ATOM      6  C   UNL     1      -1.307   3.839 -24.654  1.00  0.00     0.000 C 
BRANCH   6   7
ATOM      7  C   UNL     1      -0.514   2.529 -24.820  1.00  0.00     0.000 C 
BRANCH   7   8
ATOM      8  C   UNL     1      -0.993   1.423 -23.863  1.00  0.00    -0.000 C 
BRANCH   8   9
ATOM      9  C   UNL     1       0.023   1.118 -22.747  1.00  0.00    -0.000 C 
BRANCH   9  10
ATOM     10  C   UNL     1       0.460  -0.355 -22.653  1.00  0.00    -0.000 C 
BRANCH  10  11
ATOM     11  C   UNL     1       1.867  -0.521 -22.052  1.00  0.00    -0.000 C 
BRANCH  11  12
ATOM     12  C   UNL     1       2.662  -1.655 -22.721  1.00  0.00    -0.000 C 
BRANCH  12  13
ATOM     13  C   UNL     1       2.877  -2.853 -21.780  1.00  0.00    -0.000 C 
BRANCH  13  14
ATOM     14  C   UNL     1       3.999  -3.797 -22.255  1.00  0.00    -0.000 C 
BRANCH  14  15
ATOM     15  C   UNL     1       3.834  -5.269 -21.838  1.00  0.00    -0.003 C 
ATOM     16  C   UNL     1       4.069  -6.250 -22.985  1.00  0.00     0.004 C 
ENDBRANCH  14  15
ENDBRANCH  13  14
ENDBRANCH  12  13
ENDBRANCH  11  12
ENDBRANCH  10  11
ENDBRANCH   9  10
ENDBRANCH   8   9
ENDBRANCH   7   8
ENDBRANCH   6   7
ENDBRANCH   5   6
ENDBRANCH   4   5
ENDBRANCH   3   4
ENDBRANCH   2   3
ENDBRANCH   1   2
BRANCH   1  17
ATOM     17  C   UNL     1      -4.821   7.997 -23.820  1.00  0.00     0.000 C 
BRANCH  17  18
ATOM     18  C   UNL     1      -5.649   8.721 -24.893  1.00  0.00     0.000 C 
BRANCH  18  19
ATOM     19  C   UNL     1      -7.171   8.768 -24.643  1.00  0.00     0.000 C 
BRANCH  19  20
ATOM     20  C   UNL     1      -7.831   7.385 -24.459  1.00  0.00     0.000 C 
BRANCH  20  21
ATOM     21  C   UNL     1      -8.020   6.998 -22.977  1.00  0.00     0.000 C 
BRANCH  21  22
ATOM     22  C   UNL     1      -7.800   5.499 -22.724  1.00  0.00     0.000 C 
BRANCH  22  23
ATOM     23  C   UNL     1      -8.105   4.633 -23.960  1.00  0.00     0.000 C 
BRANCH  23  24
ATOM     24  C   UNL     1      -7.138   3.448 -24.107  1.00  0.00     0.000 C 
BRANCH  24  25
ATOM     25  C   UNL     1      -6.987   2.641 -22.804  1.00  0.00     0.000 C 
BRANCH  25  26
ATOM     26  C   UNL     1      -6.021   3.309 -21.801  1.00  0.00     0.000 C 
BRANCH  26  27
ATOM     27  C   UNL     1      -4.648   2.614 -21.700  1.00  0.00     0.002 C 
BRANCH  27  28
ATOM     28  C   UNL     1      -4.022   2.608 -20.293  1.00  0.00     0.028 C 
BRANCH  28  29
ATOM     29  C   UNL     1      -4.963   2.088 -19.200  1.00  0.00     0.156 C 
BRANCH  29  30
ATOM     30  O   UNL     1      -5.269   3.114 -18.295  1.00  0.00    -0.396 OA
ATOM     31  H   UNL     1      -5.518   3.903 -18.844  1.00  0.00     0.210 HD
ENDBRANCH  29  30
ENDBRANCH  28  29
ENDBRANCH  27  28
ENDBRANCH  26  27
ENDBRANCH  25  26
ENDBRANCH  24  25
ENDBRANCH  23  24
ENDBRANCH  22  23
ENDBRANCH  21  22
ENDBRANCH  20  21
ENDBRANCH  19  20
ENDBRANCH  18  19
ENDBRANCH  17  18
ENDBRANCH   1  17
TORSDOF 28
ENDMDL
MODEL 8
REMARK VINA RESULT:    -2.441      2.777     10.067
REMARK INTER + INTRA:          -8.850
REMARK INTER:                  -6.118
REMARK INTRA:                  -2.733
REMARK UNBOUND:                -2.485
REMARK SMILES CCCCCCCCCCCCCCCCCCCCCCCCCCCCCO
REMARK SMILES IDX 16 1 15 2 14 3 13 4 12 5 11 6 10 7 9 8 8 9 7 10 6 11 5 12
REMARK SMILES IDX 4 13 3 14 2 15 1 16 17 17 18 18 19 19 20 20 21 21 22 22
REMARK SMILES IDX 23 23 24 24 25 25 26 26 27 27 28 28 29 29 30 30
REMARK H PARENT 30 31
REMARK Flexibility Score: inf
ROOT
ATOM      1  C   UNL     1      -1.840   0.990 -22.684  1.00  0.00     0.000 C 
ENDROOT
BRANCH   1   2
ATOM      2  C   UNL     1      -2.706   2.253 -22.898  1.00  0.00     0.000 C 
BRANCH   2   3
ATOM      3  C   UNL     1      -2.016   3.577 -22.512  1.00  0.00     0.000 C 
BRANCH   3   4
ATOM      4  C   UNL     1      -1.635   4.476 -23.704  1.00  0.00     0.000 C 
BRANCH   4   5
ATOM      5  C   UNL     1      -2.818   4.739 -24.654  1.00  0.00     0.000 C 
BRANCH   5   6
ATOM      6  C   UNL     1      -3.862   5.696 -24.046  1.00  0.00     0.000 C 
BRANCH   6   7
ATOM      7  C   UNL     1      -4.834   6.306 -25.073  1.00  0.00     0.000 C 
BRANCH   7   8
ATOM      8  C   UNL     1      -6.308   6.129 -24.669  1.00  0.00    -0.000 C 
BRANCH   8   9
ATOM      9  C   UNL     1      -6.475   5.602 -23.232  1.00  0.00    -0.000 C 
BRANCH   9  10
ATOM     10  C   UNL     1      -7.564   4.529 -23.055  1.00  0.00    -0.000 C 
BRANCH  10  11
ATOM     11  C   UNL     1      -7.474   3.410 -24.107  1.00  0.00    -0.000 C 
BRANCH  11  12
ATOM     12  C   UNL     1      -7.449   2.008 -23.474  1.00  0.00    -0.000 C 
BRANCH  12  13
ATOM     13  C   UNL     1      -7.349   2.060 -21.940  1.00  0.00    -0.000 C 
BRANCH  13  14
ATOM     14  C   UNL     1      -6.039   1.455 -21.402  1.00  0.00    -0.000 C 
BRANCH  14  15
ATOM     15  C   UNL     1      -5.577   2.003 -20.040  1.00  0.00    -0.003 C 
ATOM     16  C   UNL     1      -4.380   2.947 -20.144  1.00  0.00     0.004 C 
ENDBRANCH  14  15
ENDBRANCH  13  14
ENDBRANCH  12  13
ENDBRANCH  11  12
ENDBRANCH  10  11
ENDBRANCH   9  10
ENDBRANCH   8   9
ENDBRANCH   7   8
ENDBRANCH   6   7
ENDBRANCH   5   6
ENDBRANCH   4   5
ENDBRANCH   3   4
ENDBRANCH   2   3
ENDBRANCH   1   2
BRANCH   1  17
ATOM     17  C   UNL     1      -0.364   1.157 -23.100  1.00  0.00     0.000 C 
BRANCH  17  18
ATOM     18  C   UNL     1      -0.106   1.171 -24.615  1.00  0.00     0.000 C 
BRANCH  18  19
ATOM     19  C   UNL     1       0.821   2.294 -25.124  1.00  0.00     0.000 C 
BRANCH  19  20
ATOM     20  C   UNL     1       2.325   1.953 -25.075  1.00  0.00     0.000 C 
BRANCH  20  21
ATOM     21  C   UNL     1       2.603   0.436 -25.124  1.00  0.00     0.000 C 
BRANCH  21  22
ATOM     22  C   UNL     1       3.448  -0.050 -23.936  1.00  0.00     0.000 C 
BRANCH  22  23
ATOM     23  C   UNL     1       3.142   0.712 -22.634  1.00  0.00     0.000 C 
BRANCH  23  24
ATOM     24  C   UNL     1       2.308  -0.117 -21.644  1.00  0.00     0.000 C 
BRANCH  24  25
ATOM     25  C   UNL     1       1.586  -1.297 -22.322  1.00  0.00     0.000 C 
BRANCH  25  26
ATOM     26  C   UNL     1       1.951  -2.658 -21.690  1.00  0.00     0.000 C 
BRANCH  26  27
ATOM     27  C   UNL     1       3.061  -3.417 -22.445  1.00  0.00     0.002 C 
BRANCH  27  28
ATOM     28  C   UNL     1       4.218  -3.926 -21.565  1.00  0.00     0.028 C 
BRANCH  28  29
ATOM     29  C   UNL     1       4.602  -5.386 -21.832  1.00  0.00     0.156 C 
BRANCH  29  30
ATOM     30  O   UNL     1       3.562  -6.047 -22.501  1.00  0.00    -0.396 OA
ATOM     31  H   UNL     1       3.684  -7.015 -22.315  1.00  0.00     0.210 HD
ENDBRANCH  29  30
ENDBRANCH  28  29
ENDBRANCH  27  28
ENDBRANCH  26  27
ENDBRANCH  25  26
ENDBRANCH  24  25
ENDBRANCH  23  24
ENDBRANCH  22  23
ENDBRANCH  21  22
ENDBRANCH  20  21
ENDBRANCH  19  20
ENDBRANCH  18  19
ENDBRANCH  17  18
ENDBRANCH   1  17
TORSDOF 28
ENDMDL
MODEL 9
REMARK VINA RESULT:    -1.845      2.495     10.541
REMARK INTER + INTRA:          -7.295
REMARK INTER:                  -6.254
REMARK INTRA:                  -1.041
REMARK UNBOUND:                -2.485
REMARK SMILES CCCCCCCCCCCCCCCCCCCCCCCCCCCCCO
REMARK SMILES IDX 16 1 15 2 14 3 13 4 12 5 11 6 10 7 9 8 8 9 7 10 6 11 5 12
REMARK SMILES IDX 4 13 3 14 2 15 1 16 17 17 18 18 19 19 20 20 21 21 22 22
REMARK SMILES IDX 23 23 24 24 25 25 26 26 27 27 28 28 29 29 30 30
REMARK H PARENT 30 31
REMARK Flexibility Score: inf
ROOT
ATOM      1  C   UNL     1      -4.454   2.425 -22.000  1.00  0.00     0.000 C 
ENDROOT
BRANCH   1   2
ATOM      2  C   UNL     1      -5.333   3.314 -21.091  1.00  0.00     0.000 C 
BRANCH   2   3
ATOM      3  C   UNL     1      -5.479   4.774 -21.568  1.00  0.00     0.000 C 
BRANCH   3   4
ATOM      4  C   UNL     1      -6.870   5.134 -22.123  1.00  0.00     0.000 C 
BRANCH   4   5
ATOM      5  C   UNL     1      -7.455   4.033 -23.026  1.00  0.00     0.000 C 
BRANCH   5   6
ATOM      6  C   UNL     1      -7.528   4.459 -24.505  1.00  0.00     0.000 C 
BRANCH   6   7
ATOM      7  C   UNL     1      -6.836   5.801 -24.811  1.00  0.00     0.000 C 
BRANCH   7   8
ATOM      8  C   UNL     1      -7.582   7.001 -24.202  1.00  0.00    -0.000 C 
BRANCH   8   9
ATOM      9  C   UNL     1      -6.631   8.089 -23.670  1.00  0.00    -0.000 C 
BRANCH   9  10
ATOM     10  C   UNL     1      -5.631   8.638 -24.703  1.00  0.00    -0.000 C 
BRANCH  10  11
ATOM     11  C   UNL     1      -4.306   9.092 -24.066  1.00  0.00    -0.000 C 
BRANCH  11  12
ATOM     12  C   UNL     1      -3.194   9.305 -25.108  1.00  0.00    -0.000 C 
BRANCH  12  13
ATOM     13  C   UNL     1      -2.129   8.196 -25.061  1.00  0.00    -0.000 C 
BRANCH  13  14
ATOM     14  C   UNL     1      -2.591   6.950 -24.284  1.00  0.00    -0.000 C 
BRANCH  14  15
ATOM     15  C   UNL     1      -2.684   5.658 -25.116  1.00  0.00    -0.003 C 
ATOM     16  C   UNL     1      -3.996   4.902 -24.909  1.00  0.00     0.004 C 
ENDBRANCH  14  15
ENDBRANCH  13  14
ENDBRANCH  12  13
ENDBRANCH  11  12
ENDBRANCH  10  11
ENDBRANCH   9  10
ENDBRANCH   8   9
ENDBRANCH   7   8
ENDBRANCH   6   7
ENDBRANCH   5   6
ENDBRANCH   4   5
ENDBRANCH   3   4
ENDBRANCH   2   3
ENDBRANCH   1   2
BRANCH   1  17
ATOM     17  C   UNL     1      -2.952   2.776 -21.967  1.00  0.00     0.000 C 
BRANCH  17  18
ATOM     18  C   UNL     1      -2.000   1.621 -22.319  1.00  0.00     0.000 C 
BRANCH  18  19
ATOM     19  C   UNL     1      -1.416   1.649 -23.746  1.00  0.00     0.000 C 
BRANCH  19  20
ATOM     20  C   UNL     1       0.018   1.090 -23.862  1.00  0.00     0.000 C 
BRANCH  20  21
ATOM     21  C   UNL     1       0.757   1.578 -25.125  1.00  0.00     0.000 C 
BRANCH  21  22
ATOM     22  C   UNL     1       2.218   1.964 -24.845  1.00  0.00     0.000 C 
BRANCH  22  23
ATOM     23  C   UNL     1       3.198   0.799 -25.079  1.00  0.00     0.000 C 
BRANCH  23  24
ATOM     24  C   UNL     1       2.722  -0.514 -24.438  1.00  0.00     0.000 C 
BRANCH  24  25
ATOM     25  C   UNL     1       2.836  -0.500 -22.902  1.00  0.00     0.000 C 
BRANCH  25  26
ATOM     26  C   UNL     1       2.233  -1.762 -22.250  1.00  0.00     0.000 C 
BRANCH  26  27
ATOM     27  C   UNL     1       2.998  -3.060 -22.581  1.00  0.00     0.002 C 
BRANCH  27  28
ATOM     28  C   UNL     1       3.516  -3.842 -21.359  1.00  0.00     0.028 C 
BRANCH  28  29
ATOM     29  C   UNL     1       4.494  -4.968 -21.715  1.00  0.00     0.156 C 
BRANCH  29  30
ATOM     30  O   UNL     1       4.068  -5.632 -22.873  1.00  0.00    -0.396 OA
ATOM     31  H   UNL     1       4.657  -6.426 -22.970  1.00  0.00     0.210 HD
ENDBRANCH  29  30
ENDBRANCH  28  29
ENDBRANCH  27  28
ENDBRANCH  26  27
ENDBRANCH  25  26
ENDBRANCH  24  25
ENDBRANCH  23  24
ENDBRANCH  22  23
ENDBRANCH  21  22
ENDBRANCH  20  21
ENDBRANCH  19  20
ENDBRANCH  18  19
ENDBRANCH  17  18
ENDBRANCH   1  17
TORSDOF 28
ENDMDL
