MODEL 1
REMARK VINA RESULT:    -3.380      0.000      0.000
REMARK INTER + INTRA:          -6.656
REMARK INTER:                  -6.146
REMARK INTRA:                  -0.510
REMARK UNBOUND:                -0.510
REMARK SMILES CCCCCCCCCCCCCCCC(=O)[O-]
REMARK SMILES IDX 9 1 10 2 11 3 12 4 13 5 14 6 15 7 16 8 17 9 18 10 8 11 7 12
REMARK SMILES IDX 6 13 5 14 4 15 3 16 2 17 1 18
REMARK H PARENT
REMARK Flexibility Score: inf
ROOT
ATOM      1  C   UNL     1       5.261 -36.638  20.668  1.00  0.00     0.000 C 
ENDROOT
BRANCH   1   2
ATOM      2  C   UNL     1       5.243 -35.103  20.690  1.00  0.00     0.000 C 
BRANCH   2   3
ATOM      3  C   UNL     1       4.359 -34.581  21.833  1.00  0.00     0.000 C 
BRANCH   3   4
ATOM      4  C   UNL     1       5.173 -33.956  22.980  1.00  0.00     0.000 C 
BRANCH   4   5
ATOM      5  C   UNL     1       6.125 -34.925  23.708  1.00  0.00     0.000 C 
BRANCH   5   6
ATOM      6  C   UNL     1       5.985 -34.952  25.243  1.00  0.00     0.006 C 
BRANCH   6   7
ATOM      7  C   UNL     1       4.915 -35.925  25.765  1.00  0.00     0.053 C 
BRANCH   7   8
ATOM      8  C   UNL     1       5.403 -37.340  25.773  1.00  0.00     0.041 C 
ATOM      9  O   UNL     1       5.372 -38.027  24.719  1.00  0.00    -0.550 OA
ATOM     10  O   UNL     1       5.861 -37.912  26.953  1.00  0.00    -0.550 OA
ENDBRANCH   7   8
ENDBRANCH   6   7
ENDBRANCH   5   6
ENDBRANCH   4   5
ENDBRANCH   3   4
ENDBRANCH   2   3
ENDBRANCH   1   2
BRANCH   1  11
ATOM     11  C   UNL     1       4.856 -37.222  19.303  1.00  0.00     0.000 C 
BRANCH  11  12
ATOM     12  C   UNL     1       3.486 -36.750  18.777  1.00  0.00    -0.000 C 
BRANCH  12  13
ATOM     13  C   UNL     1       3.278 -36.900  17.257  1.00  0.00    -0.000 C 
BRANCH  13  14
ATOM     14  C   UNL     1       2.054 -36.159  16.686  1.00  0.00    -0.000 C 
BRANCH  14  15
ATOM     15  C   UNL     1       2.174 -35.884  15.178  1.00  0.00    -0.000 C 
BRANCH  15  16
ATOM     16  C   UNL     1       3.542 -35.296  14.784  1.00  0.00    -0.000 C 
BRANCH  16  17
ATOM     17  C   UNL     1       4.402 -36.197  13.879  1.00  0.00    -0.003 C 
ATOM     18  C   UNL     1       4.253 -37.684  14.197  1.00  0.00     0.004 C 
ENDBRANCH  16  17
ENDBRANCH  15  16
ENDBRANCH  14  15
ENDBRANCH  13  14
ENDBRANCH  12  13
ENDBRANCH  11  12
ENDBRANCH   1  11
TORSDOF 14
ENDMDL
MODEL 2
REMARK VINA RESULT:    -3.243      1.757      2.764
REMARK INTER + INTRA:          -6.408
REMARK INTER:                  -5.335
REMARK INTRA:                  -1.073
REMARK UNBOUND:                -0.510
REMARK SMILES CCCCCCCCCCCCCCCC(=O)[O-]
REMARK SMILES IDX 9 1 10 2 11 3 12 4 13 5 14 6 15 7 16 8 17 9 18 10 8 11 7 12
REMARK SMILES IDX 6 13 5 14 4 15 3 16 2 17 1 18
REMARK H PARENT
REMARK Flexibility Score: inf
ROOT
ATOM      1  C   UNL     1       5.662 -35.687  21.612  1.00  0.00     0.000 C 
ENDROOT
BRANCH   1   2
ATOM      2  C   UNL     1       6.002 -34.598  22.640  1.00  0.00     0.000 C 
BRANCH   2   3
ATOM      3  C   UNL     1       5.115 -34.724  23.887  1.00  0.00     0.000 C 
BRANCH   3   4
ATOM      4  C   UNL     1       5.778 -35.537  25.014  1.00  0.00     0.000 C 
BRANCH   4   5
ATOM      5  C   UNL     1       5.112 -36.893  25.319  1.00  0.00     0.000 C 
BRANCH   5   6
ATOM      6  C   UNL     1       5.733 -38.105  24.597  1.00  0.00     0.006 C 
BRANCH   6   7
ATOM      7  C   UNL     1       4.838 -38.725  23.512  1.00  0.00     0.053 C 
BRANCH   7   8
ATOM      8  C   UNL     1       5.609 -39.625  22.598  1.00  0.00     0.041 C 
ATOM      9  O   UNL     1       5.824 -40.823  22.920  1.00  0.00    -0.550 OA
ATOM     10  O   UNL     1       6.121 -39.131  21.405  1.00  0.00    -0.550 OA
ENDBRANCH   7   8
ENDBRANCH   6   7
ENDBRANCH   5   6
ENDBRANCH   4   5
ENDBRANCH   3   4
ENDBRANCH   2   3
ENDBRANCH   1   2
BRANCH   1  11
ATOM     11  C   UNL     1       5.563 -35.143  20.175  1.00  0.00     0.000 C 
BRANCH  11  12
ATOM     12  C   UNL     1       5.069 -36.162  19.129  1.00  0.00    -0.000 C 
BRANCH  12  13
ATOM     13  C   UNL     1       3.756 -36.888  19.488  1.00  0.00    -0.000 C 
BRANCH  13  14
ATOM     14  C   UNL     1       2.643 -36.790  18.428  1.00  0.00    -0.000 C 
BRANCH  14  15
ATOM     15  C   UNL     1       3.186 -36.811  16.989  1.00  0.00    -0.000 C 
BRANCH  15  16
ATOM     16  C   UNL     1       2.483 -35.796  16.069  1.00  0.00    -0.000 C 
BRANCH  16  17
ATOM     17  C   UNL     1       3.077 -35.680  14.654  1.00  0.00    -0.003 C 
ATOM     18  C   UNL     1       4.153 -36.726  14.366  1.00  0.00     0.004 C 
ENDBRANCH  16  17
ENDBRANCH  15  16
ENDBRANCH  14  15
ENDBRANCH  13  14
ENDBRANCH  12  13
ENDBRANCH  11  12
ENDBRANCH   1  11
TORSDOF 14
ENDMDL
MODEL 3
REMARK VINA RESULT:    -3.127      3.861      8.220
REMARK INTER + INTRA:          -6.196
REMARK INTER:                  -5.284
REMARK INTRA:                  -0.912
REMARK UNBOUND:                -0.510
REMARK SMILES CCCCCCCCCCCCCCCC(=O)[O-]
REMARK SMILES IDX 9 1 10 2 11 3 12 4 13 5 14 6 15 7 16 8 17 9 18 10 8 11 7 12
REMARK SMILES IDX 6 13 5 14 4 15 3 16 2 17 1 18
REMARK H PARENT
REMARK Flexibility Score: inf
ROOT
ATOM      1  C   UNL     1       6.105 -34.606  22.606  1.00  0.00     0.000 C 
ENDROOT
BRANCH   1   2
ATOM      2  C   UNL     1       5.089 -34.600  21.456  1.00  0.00     0.000 C 
BRANCH   2   3
ATOM      3  C   UNL     1       5.507 -35.579  20.349  1.00  0.00     0.000 C 
BRANCH   3   4
ATOM      4  C   UNL     1       4.572 -35.534  19.126  1.00  0.00     0.000 C 
BRANCH   4   5
ATOM      5  C   UNL     1       3.877 -36.868  18.787  1.00  0.00     0.000 C 
BRANCH   5   6
ATOM      6  C   UNL     1       2.846 -36.797  17.645  1.00  0.00     0.006 C 
BRANCH   6   7
ATOM      7  C   UNL     1       3.461 -36.759  16.236  1.00  0.00     0.053 C 
BRANCH   7   8
ATOM      8  C   UNL     1       2.772 -35.765  15.353  1.00  0.00     0.041 C 
ATOM      9  O   UNL     1       1.968 -34.930  15.845  1.00  0.00    -0.550 OA
ATOM     10  O   UNL     1       2.991 -35.784  13.982  1.00  0.00    -0.550 OA
ENDBRANCH   7   8
ENDBRANCH   6   7
ENDBRANCH   5   6
ENDBRANCH   4   5
ENDBRANCH   3   4
ENDBRANCH   2   3
ENDBRANCH   1   2
BRANCH   1  11
ATOM     11  C   UNL     1       5.450 -34.411  23.985  1.00  0.00     0.000 C 
BRANCH  11  12
ATOM     12  C   UNL     1       6.022 -35.301  25.106  1.00  0.00    -0.000 C 
BRANCH  12  13
ATOM     13  C   UNL     1       5.002 -36.231  25.793  1.00  0.00    -0.000 C 
BRANCH  13  14
ATOM     14  C   UNL     1       5.222 -37.737  25.553  1.00  0.00    -0.000 C 
BRANCH  14  15
ATOM     15  C   UNL     1       5.512 -38.069  24.080  1.00  0.00    -0.000 C 
BRANCH  15  16
ATOM     16  C   UNL     1       5.278 -39.554  23.744  1.00  0.00    -0.000 C 
BRANCH  16  17
ATOM     17  C   UNL     1       5.750 -39.987  22.345  1.00  0.00    -0.003 C 
ATOM     18  C   UNL     1       6.124 -38.810  21.446  1.00  0.00     0.004 C 
ENDBRANCH  16  17
ENDBRANCH  15  16
ENDBRANCH  14  15
ENDBRANCH  13  14
ENDBRANCH  12  13
ENDBRANCH  11  12
ENDBRANCH   1  11
TORSDOF 14
ENDMDL
MODEL 4
REMARK VINA RESULT:    -2.809      4.182      8.611
REMARK INTER + INTRA:          -5.619
REMARK INTER:                  -4.509
REMARK INTRA:                  -1.110
REMARK UNBOUND:                -0.510
REMARK SMILES CCCCCCCCCCCCCCCC(=O)[O-]
REMARK SMILES IDX 9 1 10 2 11 3 12 4 13 5 14 6 15 7 16 8 17 9 18 10 8 11 7 12
REMARK SMILES IDX 6 13 5 14 4 15 3 16 2 17 1 18
REMARK H PARENT
REMARK Flexibility Score: inf
ROOT
ATOM      1  C   UNL     1       4.386 -35.028  20.933  1.00  0.00     0.000 C 
ENDROOT
BRANCH   1   2
ATOM      2  C   UNL     1       4.638 -35.675  19.564  1.00  0.00     0.000 C 
BRANCH   2   3
ATOM      3  C   UNL     1       3.924 -37.030  19.458  1.00  0.00     0.000 C 
BRANCH   3   4
ATOM      4  C   UNL     1       2.436 -36.895  19.088  1.00  0.00     0.000 C 
BRANCH   4   5
ATOM      5  C   UNL     1       2.112 -37.108  17.596  1.00  0.00     0.000 C 
BRANCH   5   6
ATOM      6  C   UNL     1       2.225 -35.848  16.715  1.00  0.00     0.006 C 
BRANCH   6   7
ATOM      7  C   UNL     1       3.580 -35.689  16.007  1.00  0.00     0.053 C 
BRANCH   7   8
ATOM      8  C   UNL     1       3.488 -36.003  14.546  1.00  0.00     0.041 C 
ATOM      9  O   UNL     1       4.508 -36.384  13.914  1.00  0.00    -0.550 OA
ATOM     10  O   UNL     1       2.282 -35.842  13.875  1.00  0.00    -0.550 OA
ENDBRANCH   7   8
ENDBRANCH   6   7
ENDBRANCH   5   6
ENDBRANCH   4   5
ENDBRANCH   3   4
ENDBRANCH   2   3
ENDBRANCH   1   2
BRANCH   1  11
ATOM     11  C   UNL     1       5.681 -34.550  21.616  1.00  0.00     0.000 C 
BRANCH  11  12
ATOM     12  C   UNL     1       6.125 -35.396  22.826  1.00  0.00    -0.000 C 
BRANCH  12  13
ATOM     13  C   UNL     1       5.571 -34.936  24.189  1.00  0.00    -0.000 C 
BRANCH  13  14
ATOM     14  C   UNL     1       5.964 -35.819  25.389  1.00  0.00    -0.000 C 
BRANCH  14  15
ATOM     15  C   UNL     1       4.967 -36.963  25.638  1.00  0.00    -0.000 C 
BRANCH  15  16
ATOM     16  C   UNL     1       5.434 -38.304  25.043  1.00  0.00    -0.000 C 
BRANCH  16  17
ATOM     17  C   UNL     1       4.764 -38.695  23.713  1.00  0.00    -0.003 C 
ATOM     18  C   UNL     1       5.733 -39.334  22.718  1.00  0.00     0.004 C 
ENDBRANCH  16  17
ENDBRANCH  15  16
ENDBRANCH  14  15
ENDBRANCH  13  14
ENDBRANCH  12  13
ENDBRANCH  11  12
ENDBRANCH   1  11
TORSDOF 14
ENDMDL
MODEL 5
REMARK VINA RESULT:    -2.645      3.966      8.843
REMARK INTER + INTRA:          -5.320
REMARK INTER:                  -4.515
REMARK INTRA:                  -0.805
REMARK UNBOUND:                -0.510
REMARK SMILES CCCCCCCCCCCCCCCC(=O)[O-]
REMARK SMILES IDX 9 1 10 2 11 3 12 4 13 5 14 6 15 7 16 8 17 9 18 10 8 11 7 12
REMARK SMILES IDX 6 13 5 14 4 15 3 16 2 17 1 18
REMARK H PARENT
REMARK Flexibility Score: inf
ROOT
ATOM      1  C   UNL     1       3.849 -37.067  19.962  1.00  0.00     0.000 C 
ENDROOT
BRANCH   1   2
ATOM      2  C   UNL     1       3.546 -36.935  18.462  1.00  0.00     0.000 C 
BRANCH   2   3
ATOM      3  C   UNL     1       2.032 -36.905  18.210  1.00  0.00     0.000 C 
BRANCH   3   4
ATOM      4  C   UNL     1       1.648 -36.077  16.970  1.00  0.00     0.000 C 
BRANCH   4   5
ATOM      5  C   UNL     1       2.836 -35.458  16.206  1.00  0.00     0.000 C 
BRANCH   5   6
ATOM      6  C   UNL     1       2.636 -35.322  14.684  1.00  0.00     0.006 C 
BRANCH   6   7
ATOM      7  C   UNL     1       2.918 -36.608  13.890  1.00  0.00     0.053 C 
BRANCH   7   8
ATOM      8  C   UNL     1       4.344 -37.045  14.023  1.00  0.00     0.041 C 
ATOM      9  O   UNL     1       5.278 -36.212  13.885  1.00  0.00    -0.550 OA
ATOM     10  O   UNL     1       4.642 -38.379  14.265  1.00  0.00    -0.550 OA
ENDBRANCH   7   8
ENDBRANCH   6   7
ENDBRANCH   5   6
ENDBRANCH   4   5
ENDBRANCH   3   4
ENDBRANCH   2   3
ENDBRANCH   1   2
BRANCH   1  11
ATOM     11  C   UNL     1       5.351 -37.238  20.255  1.00  0.00     0.000 C 
BRANCH  11  12
ATOM     12  C   UNL     1       5.854 -36.496  21.510  1.00  0.00    -0.000 C 
BRANCH  12  13
ATOM     13  C   UNL     1       5.619 -34.973  21.512  1.00  0.00    -0.000 C 
BRANCH  13  14
ATOM     14  C   UNL     1       4.756 -34.444  22.673  1.00  0.00    -0.000 C 
BRANCH  14  15
ATOM     15  C   UNL     1       5.593 -34.003  23.885  1.00  0.00    -0.000 C 
BRANCH  15  16
ATOM     16  C   UNL     1       6.124 -35.191  24.709  1.00  0.00    -0.000 C 
BRANCH  16  17
ATOM     17  C   UNL     1       5.041 -36.118  25.290  1.00  0.00    -0.003 C 
ATOM     18  C   UNL     1       5.616 -37.276  26.104  1.00  0.00     0.004 C 
ENDBRANCH  16  17
ENDBRANCH  15  16
ENDBRANCH  14  15
ENDBRANCH  13  14
ENDBRANCH  12  13
ENDBRANCH  11  12
ENDBRANCH   1  11
TORSDOF 14
ENDMDL
MODEL 6
REMARK VINA RESULT:    -2.532      2.066      3.163
REMARK INTER + INTRA:          -5.115
REMARK INTER:                  -4.297
REMARK INTRA:                  -0.818
REMARK UNBOUND:                -0.510
REMARK SMILES CCCCCCCCCCCCCCCC(=O)[O-]
REMARK SMILES IDX 9 1 10 2 11 3 12 4 13 5 14 6 15 7 16 8 17 9 18 10 8 11 7 12
REMARK SMILES IDX 6 13 5 14 4 15 3 16 2 17 1 18
REMARK H PARENT
REMARK Flexibility Score: inf
ROOT
ATOM      1  C   UNL     1       5.799 -38.070  21.810  1.00  0.00     0.000 C 
ENDROOT
BRANCH   1   2
ATOM      2  C   UNL     1       5.333 -39.395  22.430  1.00  0.00     0.000 C 
BRANCH   2   3
ATOM      3  C   UNL     1       5.419 -39.344  23.962  1.00  0.00     0.000 C 
BRANCH   3   4
ATOM      4  C   UNL     1       4.667 -38.143  24.563  1.00  0.00     0.000 C 
BRANCH   4   5
ATOM      5  C   UNL     1       5.470 -37.317  25.588  1.00  0.00     0.000 C 
BRANCH   5   6
ATOM      6  C   UNL     1       5.421 -35.791  25.382  1.00  0.00     0.006 C 
BRANCH   6   7
ATOM      7  C   UNL     1       6.125 -35.300  24.107  1.00  0.00     0.053 C 
BRANCH   7   8
ATOM      8  C   UNL     1       5.319 -34.263  23.388  1.00  0.00     0.041 C 
ATOM      9  O   UNL     1       4.648 -34.574  22.370  1.00  0.00    -0.550 OA
ATOM     10  O   UNL     1       5.337 -32.944  23.823  1.00  0.00    -0.550 OA
ENDBRANCH   7   8
ENDBRANCH   6   7
ENDBRANCH   5   6
ENDBRANCH   4   5
ENDBRANCH   3   4
ENDBRANCH   2   3
ENDBRANCH   1   2
BRANCH   1  11
ATOM     11  C   UNL     1       5.555 -38.000  20.292  1.00  0.00     0.000 C 
BRANCH  11  12
ATOM     12  C   UNL     1       5.135 -36.614  19.766  1.00  0.00    -0.000 C 
BRANCH  12  13
ATOM     13  C   UNL     1       3.683 -36.516  19.256  1.00  0.00    -0.000 C 
BRANCH  13  14
ATOM     14  C   UNL     1       3.488 -36.849  17.764  1.00  0.00    -0.000 C 
BRANCH  14  15
ATOM     15  C   UNL     1       3.321 -35.595  16.891  1.00  0.00    -0.000 C 
BRANCH  15  16
ATOM     16  C   UNL     1       2.380 -35.821  15.693  1.00  0.00    -0.000 C 
BRANCH  16  17
ATOM     17  C   UNL     1       3.080 -35.938  14.327  1.00  0.00    -0.003 C 
ATOM     18  C   UNL     1       4.202 -36.976  14.314  1.00  0.00     0.004 C 
ENDBRANCH  16  17
ENDBRANCH  15  16
ENDBRANCH  14  15
ENDBRANCH  13  14
ENDBRANCH  12  13
ENDBRANCH  11  12
ENDBRANCH   1  11
TORSDOF 14
ENDMDL
MODEL 7
REMARK VINA RESULT:    -2.054      1.712      2.741
REMARK INTER + INTRA:          -4.246
REMARK INTER:                  -3.211
REMARK INTRA:                  -1.035
REMARK UNBOUND:                -0.510
REMARK SMILES CCCCCCCCCCCCCCCC(=O)[O-]
REMARK SMILES IDX 9 1 10 2 11 3 12 4 13 5 14 6 15 7 16 8 17 9 18 10 8 11 7 12
REMARK SMILES IDX 6 13 5 14 4 15 3 16 2 17 1 18
REMARK H PARENT
REMARK Flexibility Score: inf
ROOT
ATOM      1  C   UNL     1       5.216 -34.748  20.840  1.00  0.00     0.000 C 
ENDROOT
BRANCH   1   2
ATOM      2  C   UNL     1       5.725 -35.912  21.701  1.00  0.00     0.000 C 
BRANCH   2   3
ATOM      3  C   UNL     1       5.674 -37.234  20.922  1.00  0.00     0.000 C 
BRANCH   3   4
ATOM      4  C   UNL     1       4.862 -38.324  21.646  1.00  0.00     0.000 C 
BRANCH   4   5
ATOM      5  C   UNL     1       5.688 -39.258  22.553  1.00  0.00     0.000 C 
BRANCH   5   6
ATOM      6  C   UNL     1       5.371 -39.159  24.058  1.00  0.00     0.006 C 
BRANCH   6   7
ATOM      7  C   UNL     1       4.721 -37.832  24.483  1.00  0.00     0.053 C 
BRANCH   7   8
ATOM      8  C   UNL     1       5.553 -37.101  25.491  1.00  0.00     0.041 C 
ATOM      9  O   UNL     1       5.914 -37.676  26.552  1.00  0.00    -0.550 OA
ATOM     10  O   UNL     1       5.900 -35.774  25.276  1.00  0.00    -0.550 OA
ENDBRANCH   7   8
ENDBRANCH   6   7
ENDBRANCH   5   6
ENDBRANCH   4   5
ENDBRANCH   3   4
ENDBRANCH   2   3
ENDBRANCH   1   2
BRANCH   1  11
ATOM     11  C   UNL     1       6.020 -34.569  19.539  1.00  0.00     0.000 C 
BRANCH  11  12
ATOM     12  C   UNL     1       5.322 -33.722  18.457  1.00  0.00    -0.000 C 
BRANCH  12  13
ATOM     13  C   UNL     1       4.554 -34.525  17.388  1.00  0.00    -0.000 C 
BRANCH  13  14
ATOM     14  C   UNL     1       4.055 -35.910  17.840  1.00  0.00    -0.000 C 
BRANCH  14  15
ATOM     15  C   UNL     1       3.021 -36.515  16.877  1.00  0.00    -0.000 C 
BRANCH  15  16
ATOM     16  C   UNL     1       2.590 -35.535  15.769  1.00  0.00    -0.000 C 
BRANCH  16  17
ATOM     17  C   UNL     1       2.943 -35.976  14.337  1.00  0.00    -0.003 C 
ATOM     18  C   UNL     1       4.185 -36.864  14.271  1.00  0.00     0.004 C 
ENDBRANCH  16  17
ENDBRANCH  15  16
ENDBRANCH  14  15
ENDBRANCH  13  14
ENDBRANCH  12  13
ENDBRANCH  11  12
ENDBRANCH   1  11
TORSDOF 14
ENDMDL
MODEL 8
REMARK VINA RESULT:    -1.508      4.159      8.537
REMARK INTER + INTRA:          -3.253
REMARK INTER:                  -2.387
REMARK INTRA:                  -0.865
REMARK UNBOUND:                -0.510
REMARK SMILES CCCCCCCCCCCCCCCC(=O)[O-]
REMARK SMILES IDX 9 1 10 2 11 3 12 4 13 5 14 6 15 7 16 8 17 9 18 10 8 11 7 12
REMARK SMILES IDX 6 13 5 14 4 15 3 16 2 17 1 18
REMARK H PARENT
REMARK Flexibility Score: inf
ROOT
ATOM      1  C   UNL     1       5.096 -39.006  21.292  1.00  0.00     0.000 C 
ENDROOT
BRANCH   1   2
ATOM      2  C   UNL     1       4.676 -37.542  21.095  1.00  0.00     0.000 C 
BRANCH   2   3
ATOM      3  C   UNL     1       5.274 -36.969  19.802  1.00  0.00     0.000 C 
BRANCH   3   4
ATOM      4  C   UNL     1       4.276 -36.098  19.017  1.00  0.00     0.000 C 
BRANCH   4   5
ATOM      5  C   UNL     1       3.190 -36.878  18.251  1.00  0.00     0.000 C 
BRANCH   5   6
ATOM      6  C   UNL     1       2.682 -36.201  16.963  1.00  0.00     0.006 C 
BRANCH   6   7
ATOM      7  C   UNL     1       3.795 -35.730  16.013  1.00  0.00     0.053 C 
BRANCH   7   8
ATOM      8  C   UNL     1       3.532 -36.141  14.598  1.00  0.00     0.041 C 
ATOM      9  O   UNL     1       4.385 -36.818  13.965  1.00  0.00    -0.550 OA
ATOM     10  O   UNL     1       2.360 -35.747  13.966  1.00  0.00    -0.550 OA
ENDBRANCH   7   8
ENDBRANCH   6   7
ENDBRANCH   5   6
ENDBRANCH   4   5
ENDBRANCH   3   4
ENDBRANCH   2   3
ENDBRANCH   1   2
BRANCH   1  11
ATOM     11  C   UNL     1       6.036 -39.203  22.495  1.00  0.00     0.000 C 
BRANCH  11  12
ATOM     12  C   UNL     1       5.351 -39.718  23.776  1.00  0.00    -0.000 C 
BRANCH  12  13
ATOM     13  C   UNL     1       4.737 -38.628  24.677  1.00  0.00    -0.000 C 
BRANCH  13  14
ATOM     14  C   UNL     1       5.726 -37.560  25.180  1.00  0.00    -0.000 C 
BRANCH  14  15
ATOM     15  C   UNL     1       5.063 -36.191  25.402  1.00  0.00    -0.000 C 
BRANCH  15  16
ATOM     16  C   UNL     1       6.024 -35.013  25.157  1.00  0.00    -0.000 C 
BRANCH  16  17
ATOM     17  C   UNL     1       5.754 -34.207  23.874  1.00  0.00    -0.003 C 
ATOM     18  C   UNL     1       6.122 -34.967  22.600  1.00  0.00     0.004 C 
ENDBRANCH  16  17
ENDBRANCH  15  16
ENDBRANCH  14  15
ENDBRANCH  13  14
ENDBRANCH  12  13
ENDBRANCH  11  12
ENDBRANCH   1  11
TORSDOF 14
ENDMDL
