MODEL 1
REMARK VINA RESULT:    -4.692      0.000      0.000
REMARK INTER + INTRA:         -10.615
REMARK INTER:                  -7.983
REMARK INTRA:                  -2.631
REMARK UNBOUND:                -2.631
REMARK SMILES CC(=O)CCC[C@@H](C)CCC[C@@H](C)CCCC(C)C
REMARK SMILES IDX 10 1 11 2 12 3 13 4 14 5 15 6 16 7 17 8 18 9 19 10 9 11 7 12
REMARK SMILES IDX 8 13 6 14 5 15 4 16 2 17 3 18 1 19
REMARK H PARENT
REMARK Flexibility Score: inf
ROOT
ATOM      1  C   UNL     1     119.579 120.969 119.200  1.00  0.00     0.001 C 
ENDROOT
BRANCH   1   2
ATOM      2  C   UNL     1     119.779 120.179 117.891  1.00  0.00     0.003 C 
BRANCH   2   3
ATOM      3  C   UNL     1     118.516 119.446 117.371  1.00  0.00    -0.014 C 
ATOM      4  C   UNL     1     118.797 118.651 116.083  1.00  0.00     0.007 C 
BRANCH   3   5
ATOM      5  C   UNL     1     117.880 118.555 118.465  1.00  0.00     0.003 C 
BRANCH   5   6
ATOM      6  C   UNL     1     118.557 117.185 118.650  1.00  0.00     0.001 C 
BRANCH   6   7
ATOM      7  C   UNL     1     119.100 117.032 120.080  1.00  0.00     0.003 C 
BRANCH   7   8
ATOM      8  C   UNL     1     120.566 116.545 120.117  1.00  0.00    -0.017 C 
ATOM      9  C   UNL     1     121.435 117.260 119.071  1.00  0.00     0.007 C 
ATOM     10  C   UNL     1     121.156 116.759 121.517  1.00  0.00     0.007 C 
ENDBRANCH   7   8
ENDBRANCH   6   7
ENDBRANCH   5   6
ENDBRANCH   3   5
ENDBRANCH   2   3
ENDBRANCH   1   2
BRANCH   1  11
ATOM     11  C   UNL     1     120.703 120.731 120.227  1.00  0.00     0.003 C 
BRANCH  11  12
ATOM     12  C   UNL     1     120.290 121.124 121.668  1.00  0.00    -0.014 C 
ATOM     13  C   UNL     1     121.480 121.732 122.433  1.00  0.00     0.007 C 
BRANCH  12  14
ATOM     14  C   UNL     1     119.722 119.887 122.409  1.00  0.00     0.004 C 
BRANCH  14  15
ATOM     15  C   UNL     1     118.282 120.079 122.937  1.00  0.00     0.008 C 
BRANCH  15  16
ATOM     16  C   UNL     1     117.224 119.775 121.859  1.00  0.00     0.075 C 
BRANCH  16  17
ATOM     17  C   UNL     1     116.379 120.962 121.457  1.00  0.00     0.129 C 
ATOM     18  O   UNL     1     115.904 121.661 122.341  1.00  0.00    -0.300 OA
ATOM     19  C   UNL     1     116.103 121.327 120.024  1.00  0.00     0.087 C 
ENDBRANCH  16  17
ENDBRANCH  15  16
ENDBRANCH  14  15
ENDBRANCH  12  14
ENDBRANCH  11  12
ENDBRANCH   1  11
TORSDOF 12
ENDMDL
MODEL 2
REMARK VINA RESULT:    -4.674      1.432      3.825
REMARK INTER + INTRA:         -10.583
REMARK INTER:                  -7.935
REMARK INTRA:                  -2.649
REMARK UNBOUND:                -2.631
REMARK SMILES CC(=O)CCC[C@@H](C)CCC[C@@H](C)CCCC(C)C
REMARK SMILES IDX 10 1 11 2 12 3 13 4 14 5 15 6 16 7 17 8 18 9 19 10 9 11 7 12
REMARK SMILES IDX 8 13 6 14 5 15 4 16 2 17 3 18 1 19
REMARK H PARENT
REMARK Flexibility Score: inf
ROOT
ATOM      1  C   UNL     1     119.796 120.483 118.249  1.00  0.00     0.001 C 
ENDROOT
BRANCH   1   2
ATOM      2  C   UNL     1     119.736 121.275 119.570  1.00  0.00     0.003 C 
BRANCH   2   3
ATOM      3  C   UNL     1     120.564 120.670 120.733  1.00  0.00    -0.014 C 
ATOM      4  C   UNL     1     121.712 121.597 121.170  1.00  0.00     0.007 C 
BRANCH   3   5
ATOM      5  C   UNL     1     119.666 120.270 121.929  1.00  0.00     0.003 C 
BRANCH   5   6
ATOM      6  C   UNL     1     119.911 118.849 122.468  1.00  0.00     0.001 C 
BRANCH   6   7
ATOM      7  C   UNL     1     121.085 118.181 121.734  1.00  0.00     0.003 C 
BRANCH   7   8
ATOM      8  C   UNL     1     120.963 116.641 121.683  1.00  0.00    -0.017 C 
ATOM      9  C   UNL     1     121.245 116.088 120.278  1.00  0.00     0.007 C 
ATOM     10  C   UNL     1     121.924 116.004 122.696  1.00  0.00     0.007 C 
ENDBRANCH   7   8
ENDBRANCH   6   7
ENDBRANCH   5   6
ENDBRANCH   3   5
ENDBRANCH   2   3
ENDBRANCH   1   2
BRANCH   1  11
ATOM     11  C   UNL     1     120.017 118.972 118.462  1.00  0.00     0.003 C 
BRANCH  11  12
ATOM     12  C   UNL     1     119.230 118.104 117.446  1.00  0.00    -0.014 C 
ATOM     13  C   UNL     1     118.655 118.973 116.313  1.00  0.00     0.007 C 
BRANCH  12  14
ATOM     14  C   UNL     1     118.108 117.325 118.178  1.00  0.00     0.004 C 
BRANCH  14  15
ATOM     15  C   UNL     1     117.920 117.737 119.656  1.00  0.00     0.008 C 
BRANCH  15  16
ATOM     16  C   UNL     1     116.508 118.287 119.930  1.00  0.00     0.075 C 
BRANCH  16  17
ATOM     17  C   UNL     1     116.371 119.782 119.744  1.00  0.00     0.129 C 
ATOM     18  O   UNL     1     116.264 120.216 118.607  1.00  0.00    -0.300 OA
ATOM     19  C   UNL     1     116.352 120.754 120.892  1.00  0.00     0.087 C 
ENDBRANCH  16  17
ENDBRANCH  15  16
ENDBRANCH  14  15
ENDBRANCH  12  14
ENDBRANCH  11  12
ENDBRANCH   1  11
TORSDOF 12
ENDMDL
MODEL 3
REMARK VINA RESULT:    -4.596      1.519      3.640
REMARK INTER + INTRA:         -10.452
REMARK INTER:                  -7.674
REMARK INTRA:                  -2.777
REMARK UNBOUND:                -2.631
REMARK SMILES CC(=O)CCC[C@@H](C)CCC[C@@H](C)CCCC(C)C
REMARK SMILES IDX 10 1 11 2 12 3 13 4 14 5 15 6 16 7 17 8 18 9 19 10 9 11 7 12
REMARK SMILES IDX 8 13 6 14 5 15 4 16 2 17 3 18 1 19
REMARK H PARENT
REMARK Flexibility Score: inf
ROOT
ATOM      1  C   UNL     1     121.269 117.573 119.199  1.00  0.00     0.001 C 
ENDROOT
BRANCH   1   2
ATOM      2  C   UNL     1     121.228 119.054 119.624  1.00  0.00     0.003 C 
BRANCH   2   3
ATOM      3  C   UNL     1     120.049 119.869 119.034  1.00  0.00    -0.014 C 
ATOM      4  C   UNL     1     120.294 121.386 119.118  1.00  0.00     0.007 C 
BRANCH   3   5
ATOM      5  C   UNL     1     119.709 119.425 117.590  1.00  0.00     0.003 C 
BRANCH   5   6
ATOM      6  C   UNL     1     118.214 119.158 117.337  1.00  0.00     0.001 C 
BRANCH   6   7
ATOM      7  C   UNL     1     117.826 117.744 117.795  1.00  0.00     0.003 C 
BRANCH   7   8
ATOM      8  C   UNL     1     117.414 117.687 119.285  1.00  0.00    -0.017 C 
ATOM      9  C   UNL     1     116.438 118.814 119.654  1.00  0.00     0.007 C 
ATOM     10  C   UNL     1     116.783 116.325 119.603  1.00  0.00     0.007 C 
ENDBRANCH   7   8
ENDBRANCH   6   7
ENDBRANCH   5   6
ENDBRANCH   3   5
ENDBRANCH   2   3
ENDBRANCH   1   2
BRANCH   1  11
ATOM     11  C   UNL     1     120.702 116.622 120.272  1.00  0.00     0.003 C 
BRANCH  11  12
ATOM     12  C   UNL     1     120.701 117.251 121.689  1.00  0.00    -0.014 C 
ATOM     13  C   UNL     1     121.730 116.556 122.598  1.00  0.00     0.007 C 
BRANCH  12  14
ATOM     14  C   UNL     1     119.277 117.177 122.297  1.00  0.00     0.004 C 
BRANCH  14  15
ATOM     15  C   UNL     1     118.915 118.382 123.194  1.00  0.00     0.008 C 
BRANCH  15  16
ATOM     16  C   UNL     1     118.826 119.695 122.394  1.00  0.00     0.075 C 
BRANCH  16  17
ATOM     17  C   UNL     1     119.479 120.883 123.064  1.00  0.00     0.129 C 
ATOM     18  O   UNL     1     118.849 121.482 123.923  1.00  0.00    -0.300 OA
ATOM     19  C   UNL     1     120.868 121.355 122.728  1.00  0.00     0.087 C 
ENDBRANCH  16  17
ENDBRANCH  15  16
ENDBRANCH  14  15
ENDBRANCH  12  14
ENDBRANCH  11  12
ENDBRANCH   1  11
TORSDOF 12
ENDMDL
MODEL 4
REMARK VINA RESULT:    -4.583      1.686      4.397
REMARK INTER + INTRA:         -10.430
REMARK INTER:                  -7.448
REMARK INTRA:                  -2.982
REMARK UNBOUND:                -2.631
REMARK SMILES CC(=O)CCC[C@@H](C)CCC[C@@H](C)CCCC(C)C
REMARK SMILES IDX 10 1 11 2 12 3 13 4 14 5 15 6 16 7 17 8 18 9 19 10 9 11 7 12
REMARK SMILES IDX 8 13 6 14 5 15 4 16 2 17 3 18 1 19
REMARK H PARENT
REMARK Flexibility Score: inf
ROOT
ATOM      1  C   UNL     1     118.101 116.425 119.499  1.00  0.00     0.001 C 
ENDROOT
BRANCH   1   2
ATOM      2  C   UNL     1     117.864 117.178 118.175  1.00  0.00     0.003 C 
BRANCH   2   3
ATOM      3  C   UNL     1     119.060 118.035 117.688  1.00  0.00    -0.014 C 
ATOM      4  C   UNL     1     118.738 118.795 116.388  1.00  0.00     0.007 C 
BRANCH   3   5
ATOM      5  C   UNL     1     119.570 118.990 118.795  1.00  0.00     0.003 C 
BRANCH   5   6
ATOM      6  C   UNL     1     119.317 120.483 118.520  1.00  0.00     0.001 C 
BRANCH   6   7
ATOM      7  C   UNL     1     118.524 121.125 119.671  1.00  0.00     0.003 C 
BRANCH   7   8
ATOM      8  C   UNL     1     117.274 120.307 120.067  1.00  0.00    -0.017 C 
ATOM      9  C   UNL     1     116.684 120.774 121.406  1.00  0.00     0.007 C 
ATOM     10  C   UNL     1     116.209 120.408 118.966  1.00  0.00     0.007 C 
ENDBRANCH   7   8
ENDBRANCH   6   7
ENDBRANCH   5   6
ENDBRANCH   3   5
ENDBRANCH   2   3
ENDBRANCH   1   2
BRANCH   1  11
ATOM     11  C   UNL     1     117.043 116.746 120.573  1.00  0.00     0.003 C 
BRANCH  11  12
ATOM     12  C   UNL     1     117.610 116.661 122.014  1.00  0.00    -0.014 C 
ATOM     13  C   UNL     1     116.742 117.473 122.993  1.00  0.00     0.007 C 
BRANCH  12  14
ATOM     14  C   UNL     1     119.080 117.151 122.032  1.00  0.00     0.004 C 
BRANCH  14  15
ATOM     15  C   UNL     1     119.290 118.478 122.796  1.00  0.00     0.008 C 
BRANCH  15  16
ATOM     16  C   UNL     1     120.483 119.281 122.247  1.00  0.00     0.075 C 
BRANCH  16  17
ATOM     17  C   UNL     1     120.483 120.745 122.629  1.00  0.00     0.129 C 
ATOM     18  O   UNL     1     119.584 121.155 123.348  1.00  0.00    -0.300 OA
ATOM     19  C   UNL     1     121.539 121.713 122.171  1.00  0.00     0.087 C 
ENDBRANCH  16  17
ENDBRANCH  15  16
ENDBRANCH  14  15
ENDBRANCH  12  14
ENDBRANCH  11  12
ENDBRANCH   1  11
TORSDOF 12
ENDMDL
MODEL 5
REMARK VINA RESULT:    -4.505      2.152      4.070
REMARK INTER + INTRA:         -10.297
REMARK INTER:                  -7.759
REMARK INTRA:                  -2.539
REMARK UNBOUND:                -2.631
REMARK SMILES CC(=O)CCC[C@@H](C)CCC[C@@H](C)CCCC(C)C
REMARK SMILES IDX 10 1 11 2 12 3 13 4 14 5 15 6 16 7 17 8 18 9 19 10 9 11 7 12
REMARK SMILES IDX 8 13 6 14 5 15 4 16 2 17 3 18 1 19
REMARK H PARENT
REMARK Flexibility Score: inf
ROOT
ATOM      1  C   UNL     1     118.020 119.453 117.885  1.00  0.00     0.001 C 
ENDROOT
BRANCH   1   2
ATOM      2  C   UNL     1     119.481 119.935 117.979  1.00  0.00     0.003 C 
BRANCH   2   3
ATOM      3  C   UNL     1     119.751 120.986 119.086  1.00  0.00    -0.014 C 
ATOM      4  C   UNL     1     118.491 121.292 119.915  1.00  0.00     0.007 C 
BRANCH   3   5
ATOM      5  C   UNL     1     120.942 120.577 119.987  1.00  0.00     0.003 C 
BRANCH   5   6
ATOM      6  C   UNL     1     121.326 119.089 119.905  1.00  0.00     0.001 C 
BRANCH   6   7
ATOM      7  C   UNL     1     120.790 118.318 121.122  1.00  0.00     0.003 C 
BRANCH   7   8
ATOM      8  C   UNL     1     120.849 116.785 120.935  1.00  0.00    -0.017 C 
ATOM      9  C   UNL     1     121.441 116.395 119.572  1.00  0.00     0.007 C 
ATOM     10  C   UNL     1     121.675 116.150 122.062  1.00  0.00     0.007 C 
ENDBRANCH   7   8
ENDBRANCH   6   7
ENDBRANCH   5   6
ENDBRANCH   3   5
ENDBRANCH   2   3
ENDBRANCH   1   2
BRANCH   1  11
ATOM     11  C   UNL     1     117.898 117.926 117.714  1.00  0.00     0.003 C 
BRANCH  11  12
ATOM     12  C   UNL     1     117.702 117.186 119.062  1.00  0.00    -0.014 C 
ATOM     13  C   UNL     1     117.222 115.742 118.831  1.00  0.00     0.007 C 
BRANCH  12  14
ATOM     14  C   UNL     1     116.705 117.971 119.953  1.00  0.00     0.004 C 
BRANCH  14  15
ATOM     15  C   UNL     1     117.217 118.232 121.387  1.00  0.00     0.008 C 
BRANCH  15  16
ATOM     16  C   UNL     1     117.462 116.925 122.163  1.00  0.00     0.075 C 
BRANCH  16  17
ATOM     17  C   UNL     1     116.349 116.543 123.114  1.00  0.00     0.129 C 
ATOM     18  O   UNL     1     115.957 117.379 123.913  1.00  0.00    -0.300 OA
ATOM     19  C   UNL     1     115.700 115.186 123.114  1.00  0.00     0.087 C 
ENDBRANCH  16  17
ENDBRANCH  15  16
ENDBRANCH  14  15
ENDBRANCH  12  14
ENDBRANCH  11  12
ENDBRANCH   1  11
TORSDOF 12
ENDMDL
MODEL 6
REMARK VINA RESULT:    -4.488      1.916      3.606
REMARK INTER + INTRA:         -10.268
REMARK INTER:                  -7.748
REMARK INTRA:                  -2.521
REMARK UNBOUND:                -2.631
REMARK SMILES CC(=O)CCC[C@@H](C)CCC[C@@H](C)CCCC(C)C
REMARK SMILES IDX 10 1 11 2 12 3 13 4 14 5 15 6 16 7 17 8 18 9 19 10 9 11 7 12
REMARK SMILES IDX 8 13 6 14 5 15 4 16 2 17 3 18 1 19
REMARK H PARENT
REMARK Flexibility Score: inf
ROOT
ATOM      1  C   UNL     1     116.536 119.752 119.365  1.00  0.00     0.001 C 
ENDROOT
BRANCH   1   2
ATOM      2  C   UNL     1     117.409 119.845 118.098  1.00  0.00     0.003 C 
BRANCH   2   3
ATOM      3  C   UNL     1     118.026 118.502 117.630  1.00  0.00    -0.014 C 
ATOM      4  C   UNL     1     118.656 118.609 116.230  1.00  0.00     0.007 C 
BRANCH   3   5
ATOM      5  C   UNL     1     119.030 117.941 118.667  1.00  0.00     0.003 C 
BRANCH   5   6
ATOM      6  C   UNL     1     120.438 118.560 118.595  1.00  0.00     0.001 C 
BRANCH   6   7
ATOM      7  C   UNL     1     120.867 119.102 119.968  1.00  0.00     0.003 C 
BRANCH   7   8
ATOM      8  C   UNL     1     120.411 120.560 120.207  1.00  0.00    -0.017 C 
ATOM      9  C   UNL     1     121.240 121.249 121.302  1.00  0.00     0.007 C 
ATOM     10  C   UNL     1     120.506 121.361 118.901  1.00  0.00     0.007 C 
ENDBRANCH   7   8
ENDBRANCH   6   7
ENDBRANCH   5   6
ENDBRANCH   3   5
ENDBRANCH   2   3
ENDBRANCH   1   2
BRANCH   1  11
ATOM     11  C   UNL     1     116.648 120.996 120.267  1.00  0.00     0.003 C 
BRANCH  11  12
ATOM     12  C   UNL     1     116.440 120.667 121.768  1.00  0.00    -0.014 C 
ATOM     13  C   UNL     1     115.585 121.749 122.453  1.00  0.00     0.007 C 
BRANCH  12  14
ATOM     14  C   UNL     1     117.814 120.514 122.469  1.00  0.00     0.004 C 
BRANCH  14  15
ATOM     15  C   UNL     1     118.063 119.109 123.061  1.00  0.00     0.008 C 
BRANCH  15  16
ATOM     16  C   UNL     1     116.922 118.129 122.730  1.00  0.00     0.075 C 
BRANCH  16  17
ATOM     17  C   UNL     1     117.310 117.008 121.792  1.00  0.00     0.129 C 
ATOM     18  O   UNL     1     118.458 116.589 121.834  1.00  0.00    -0.300 OA
ATOM     19  C   UNL     1     116.349 116.382 120.819  1.00  0.00     0.087 C 
ENDBRANCH  16  17
ENDBRANCH  15  16
ENDBRANCH  14  15
ENDBRANCH  12  14
ENDBRANCH  11  12
ENDBRANCH   1  11
TORSDOF 12
ENDMDL
MODEL 7
REMARK VINA RESULT:    -4.479      2.107      4.074
REMARK INTER + INTRA:         -10.253
REMARK INTER:                  -7.758
REMARK INTRA:                  -2.494
REMARK UNBOUND:                -2.631
REMARK SMILES CC(=O)CCC[C@@H](C)CCC[C@@H](C)CCCC(C)C
REMARK SMILES IDX 10 1 11 2 12 3 13 4 14 5 15 6 16 7 17 8 18 9 19 10 9 11 7 12
REMARK SMILES IDX 8 13 6 14 5 15 4 16 2 17 3 18 1 19
REMARK H PARENT
REMARK Flexibility Score: inf
ROOT
ATOM      1  C   UNL     1     116.312 120.011 119.221  1.00  0.00     0.001 C 
ENDROOT
BRANCH   1   2
ATOM      2  C   UNL     1     116.363 118.571 119.769  1.00  0.00     0.003 C 
BRANCH   2   3
ATOM      3  C   UNL     1     117.569 117.729 119.279  1.00  0.00    -0.014 C 
ATOM      4  C   UNL     1     117.394 116.232 119.590  1.00  0.00     0.007 C 
BRANCH   3   5
ATOM      5  C   UNL     1     117.864 117.969 117.778  1.00  0.00     0.003 C 
BRANCH   5   6
ATOM      6  C   UNL     1     119.340 118.265 117.455  1.00  0.00     0.001 C 
BRANCH   6   7
ATOM      7  C   UNL     1     119.654 119.757 117.651  1.00  0.00     0.003 C 
BRANCH   7   8
ATOM      8  C   UNL     1     120.072 120.097 119.100  1.00  0.00    -0.017 C 
ATOM      9  C   UNL     1     121.194 119.178 119.605  1.00  0.00     0.007 C 
ATOM     10  C   UNL     1     120.519 121.562 119.187  1.00  0.00     0.007 C 
ENDBRANCH   7   8
ENDBRANCH   6   7
ENDBRANCH   5   6
ENDBRANCH   3   5
ENDBRANCH   2   3
ENDBRANCH   1   2
BRANCH   1  11
ATOM     11  C   UNL     1     116.789 121.062 120.243  1.00  0.00     0.003 C 
BRANCH  11  12
ATOM     12  C   UNL     1     116.737 120.544 121.703  1.00  0.00    -0.014 C 
ATOM     13  C   UNL     1     115.851 121.451 122.576  1.00  0.00     0.007 C 
BRANCH  12  14
ATOM     14  C   UNL     1     118.173 120.444 122.278  1.00  0.00     0.004 C 
BRANCH  14  15
ATOM     15  C   UNL     1     118.403 119.210 123.179  1.00  0.00     0.008 C 
BRANCH  15  16
ATOM     16  C   UNL     1     119.236 118.124 122.473  1.00  0.00     0.075 C 
BRANCH  16  17
ATOM     17  C   UNL     1     120.662 118.011 122.962  1.00  0.00     0.129 C 
ATOM     18  O   UNL     1     121.155 118.969 123.537  1.00  0.00    -0.300 OA
ATOM     19  C   UNL     1     121.497 116.772 122.779  1.00  0.00     0.087 C 
ENDBRANCH  16  17
ENDBRANCH  15  16
ENDBRANCH  14  15
ENDBRANCH  12  14
ENDBRANCH  11  12
ENDBRANCH   1  11
TORSDOF 12
ENDMDL
MODEL 8
REMARK VINA RESULT:    -4.477      2.137      3.983
REMARK INTER + INTRA:         -10.250
REMARK INTER:                  -7.535
REMARK INTRA:                  -2.714
REMARK UNBOUND:                -2.631
REMARK SMILES CC(=O)CCC[C@@H](C)CCC[C@@H](C)CCCC(C)C
REMARK SMILES IDX 10 1 11 2 12 3 13 4 14 5 15 6 16 7 17 8 18 9 19 10 9 11 7 12
REMARK SMILES IDX 8 13 6 14 5 15 4 16 2 17 3 18 1 19
REMARK H PARENT
REMARK Flexibility Score: inf
ROOT
ATOM      1  C   UNL     1     119.386 119.590 117.857  1.00  0.00     0.001 C 
ENDROOT
BRANCH   1   2
ATOM      2  C   UNL     1     119.947 118.155 117.851  1.00  0.00     0.003 C 
BRANCH   2   3
ATOM      3  C   UNL     1     120.939 117.837 119.000  1.00  0.00    -0.014 C 
ATOM      4  C   UNL     1     121.343 119.099 119.782  1.00  0.00     0.007 C 
BRANCH   3   5
ATOM      5  C   UNL     1     120.393 116.734 119.940  1.00  0.00     0.003 C 
BRANCH   5   6
ATOM      6  C   UNL     1     118.861 116.583 119.928  1.00  0.00     0.001 C 
BRANCH   6   7
ATOM      7  C   UNL     1     118.286 116.738 121.345  1.00  0.00     0.003 C 
BRANCH   7   8
ATOM      8  C   UNL     1     116.742 116.821 121.361  1.00  0.00    -0.017 C 
ATOM      9  C   UNL     1     116.128 116.341 120.037  1.00  0.00     0.007 C 
ATOM     10  C   UNL     1     116.183 115.993 122.525  1.00  0.00     0.007 C 
ENDBRANCH   7   8
ENDBRANCH   6   7
ENDBRANCH   5   6
ENDBRANCH   3   5
ENDBRANCH   2   3
ENDBRANCH   1   2
BRANCH   1  11
ATOM     11  C   UNL     1     117.851 119.638 117.731  1.00  0.00     0.003 C 
BRANCH  11  12
ATOM     12  C   UNL     1     117.147 119.874 119.093  1.00  0.00    -0.014 C 
ATOM     13  C   UNL     1     115.761 120.513 118.890  1.00  0.00     0.007 C 
BRANCH  12  14
ATOM     14  C   UNL     1     118.041 120.754 120.002  1.00  0.00     0.004 C 
BRANCH  14  15
ATOM     15  C   UNL     1     117.966 120.386 121.501  1.00  0.00     0.008 C 
BRANCH  15  16
ATOM     16  C   UNL     1     119.273 120.717 122.246  1.00  0.00     0.075 C 
BRANCH  16  17
ATOM     17  C   UNL     1     119.681 119.694 123.282  1.00  0.00     0.129 C 
ATOM     18  O   UNL     1     120.865 119.408 123.379  1.00  0.00    -0.300 OA
ATOM     19  C   UNL     1     118.699 119.020 124.201  1.00  0.00     0.087 C 
ENDBRANCH  16  17
ENDBRANCH  15  16
ENDBRANCH  14  15
ENDBRANCH  12  14
ENDBRANCH  11  12
ENDBRANCH   1  11
TORSDOF 12
ENDMDL
MODEL 9
REMARK VINA RESULT:    -4.461      1.979      3.329
REMARK INTER + INTRA:         -10.221
REMARK INTER:                  -7.233
REMARK INTRA:                  -2.988
REMARK UNBOUND:                -2.631
REMARK SMILES CC(=O)CCC[C@@H](C)CCC[C@@H](C)CCCC(C)C
REMARK SMILES IDX 10 1 11 2 12 3 13 4 14 5 15 6 16 7 17 8 18 9 19 10 9 11 7 12
REMARK SMILES IDX 8 13 6 14 5 15 4 16 2 17 3 18 1 19
REMARK H PARENT
REMARK Flexibility Score: inf
ROOT
ATOM      1  C   UNL     1     118.322 119.405 117.633  1.00  0.00     0.001 C 
ENDROOT
BRANCH   1   2
ATOM      2  C   UNL     1     118.462 117.870 117.597  1.00  0.00     0.003 C 
BRANCH   2   3
ATOM      3  C   UNL     1     118.019 117.143 118.892  1.00  0.00    -0.014 C 
ATOM      4  C   UNL     1     117.066 115.970 118.602  1.00  0.00     0.007 C 
BRANCH   3   5
ATOM      5  C   UNL     1     119.233 116.695 119.743  1.00  0.00     0.003 C 
BRANCH   5   6
ATOM      6  C   UNL     1     120.569 117.347 119.344  1.00  0.00     0.001 C 
BRANCH   6   7
ATOM      7  C   UNL     1     121.222 118.038 120.552  1.00  0.00     0.003 C 
BRANCH   7   8
ATOM      8  C   UNL     1     120.800 117.414 121.902  1.00  0.00    -0.017 C 
ATOM      9  C   UNL     1     121.690 116.223 122.286  1.00  0.00     0.007 C 
ATOM     10  C   UNL     1     120.845 118.477 123.008  1.00  0.00     0.007 C 
ENDBRANCH   7   8
ENDBRANCH   6   7
ENDBRANCH   5   6
ENDBRANCH   3   5
ENDBRANCH   2   3
ENDBRANCH   1   2
BRANCH   1  11
ATOM     11  C   UNL     1     117.404 119.900 118.768  1.00  0.00     0.003 C 
BRANCH  11  12
ATOM     12  C   UNL     1     118.141 120.818 119.776  1.00  0.00    -0.014 C 
ATOM     13  C   UNL     1     119.561 121.146 119.282  1.00  0.00     0.007 C 
BRANCH  12  14
ATOM     14  C   UNL     1     118.176 120.145 121.172  1.00  0.00     0.004 C 
BRANCH  14  15
ATOM     15  C   UNL     1     116.951 119.251 121.469  1.00  0.00     0.008 C 
BRANCH  15  16
ATOM     16  C   UNL     1     117.066 118.542 122.831  1.00  0.00     0.075 C 
BRANCH  16  17
ATOM     17  C   UNL     1     117.030 117.031 122.756  1.00  0.00     0.129 C 
ATOM     18  O   UNL     1     116.312 116.510 121.916  1.00  0.00    -0.300 OA
ATOM     19  C   UNL     1     117.841 116.145 123.661  1.00  0.00     0.087 C 
ENDBRANCH  16  17
ENDBRANCH  15  16
ENDBRANCH  14  15
ENDBRANCH  12  14
ENDBRANCH  11  12
ENDBRANCH   1  11
TORSDOF 12
ENDMDL
