MODEL 1
REMARK VINA RESULT:     0.264      0.000      0.000
REMARK INTER + INTRA:           0.571
REMARK INTER:                   0.411
REMARK INTRA:                   0.160
REMARK UNBOUND:                 0.160
REMARK SMILES C=C(C)[C@H]1CC=C2C(=CC[C@]3(C)[C@@H]([C@H](CCC=C(C)C)C(=O)[O-])[C@@H](O)C[C@]23C)[C@]1(C)CCC(=O)[O-]
REMARK SMILES IDX 29 1 8 2 4 3 30 4 7 5 9 6 5 7 27 8 6 9 10 10 11 11 26 12
REMARK SMILES IDX 28 13 13 14 12 15 24 16 31 17 32 18 33 19 34 20 35 21 2 22
REMARK SMILES IDX 1 23 3 24 14 25 21 26 22 27 23 28 15 29 16 30 17 31 18 32
REMARK SMILES IDX 19 33 20 34 25 35
REMARK H PARENT 25 36
REMARK Flexibility Score: inf
ROOT
ATOM      1  C   UNL     1     100.425 114.883 121.181  1.00  0.00    -0.000 C 
ATOM      2  C   UNL     1     100.629 114.013 119.913  1.00  0.00    -0.042 C 
ATOM      3  C   UNL     1     100.959 116.353 120.898  1.00  0.00     0.028 C 
ATOM      4  C   UNL     1     101.214 114.262 122.366  1.00  0.00     0.017 C 
ATOM      5  C   UNL     1     101.115 114.621 118.637  1.00  0.00    -0.042 C 
ATOM      6  C   UNL     1     100.433 112.684 119.917  1.00  0.00    -0.022 C 
ATOM      7  C   UNL     1     102.217 116.349 120.010  1.00  0.00     0.036 C 
ATOM      8  C   UNL     1     100.723 114.007 117.281  1.00  0.00     0.001 C 
ATOM      9  C   UNL     1     101.871 115.730 118.694  1.00  0.00    -0.022 C 
ATOM     10  C   UNL     1     100.665 111.870 118.682  1.00  0.00     0.035 C 
ATOM     11  C   UNL     1     100.078 112.567 117.416  1.00  0.00    -0.014 C 
ATOM     12  C   UNL     1     101.981 113.769 116.423  1.00  0.00     0.044 C 
ATOM     13  C   UNL     1      99.785 115.028 116.571  1.00  0.00     0.017 C 
ATOM     14  C   UNL     1     100.574 111.744 116.147  1.00  0.00     0.034 C 
ATOM     15  C   UNL     1      98.527 112.651 117.606  1.00  0.00     0.013 C 
ATOM     16  C   UNL     1     101.674 112.616 115.472  1.00  0.00     0.119 C 
ENDROOT
BRANCH   1  17
ATOM     17  C   UNL     1      98.897 115.028 121.530  1.00  0.00     0.018 C 
BRANCH  17  18
ATOM     18  C   UNL     1      98.380 114.603 122.921  1.00  0.00     0.053 C 
BRANCH  18  19
ATOM     19  C   UNL     1      98.690 115.584 124.008  1.00  0.00     0.041 C 
ATOM     20  O   UNL     1      97.927 116.563 124.217  1.00  0.00    -0.550 OA
ATOM     21  O   UNL     1      99.798 115.392 124.822  1.00  0.00    -0.550 OA
ENDBRANCH  18  19
ENDBRANCH  17  18
ENDBRANCH   1  17
BRANCH   3  22
ATOM     22  C   UNL     1     101.128 117.238 122.139  1.00  0.00    -0.076 C 
ATOM     23  C   UNL     1     102.175 117.107 122.973  1.00  0.00     0.008 C 
ATOM     24  C   UNL     1     100.128 118.333 122.421  1.00  0.00     0.039 C 
ENDBRANCH   3  22
BRANCH  14  25
ATOM     25  C   UNL     1      99.491 111.150 115.175  1.00  0.00     0.042 C 
BRANCH  25  26
ATOM     26  C   UNL     1      99.105 109.736 115.545  1.00  0.00     0.045 C 
ATOM     27  O   UNL     1      98.716 108.933 114.655  1.00  0.00    -0.550 OA
ATOM     28  O   UNL     1      99.130 109.324 116.873  1.00  0.00    -0.550 OA
ENDBRANCH  25  26
BRANCH  25  29
ATOM     29  C   UNL     1      98.187 111.997 115.176  1.00  0.00     0.014 C 
BRANCH  29  30
ATOM     30  C   UNL     1      97.868 112.549 113.781  1.00  0.00     0.028 C 
BRANCH  30  31
ATOM     31  C   UNL     1      96.978 111.600 113.019  1.00  0.00    -0.028 C 
ATOM     32  C   UNL     1      95.888 111.976 112.314  1.00  0.00    -0.080 C 
ATOM     33  C   UNL     1      95.422 113.412 112.267  1.00  0.00     0.039 C 
ATOM     34  C   UNL     1      95.115 110.918 111.567  1.00  0.00     0.039 C 
ENDBRANCH  30  31
ENDBRANCH  29  30
ENDBRANCH  25  29
ENDBRANCH  14  25
BRANCH  16  35
ATOM     35  O   UNL     1     101.343 113.099 114.191  1.00  0.00    -0.393 OA
ATOM     36  H   UNL     1     101.322 112.339 113.560  1.00  0.00     0.210 HD
ENDBRANCH  16  35
TORSDOF 10
ENDMDL
MODEL 2
REMARK VINA RESULT:     0.425      1.976      2.462
REMARK INTER + INTRA:           0.821
REMARK INTER:                  -1.640
REMARK INTRA:                   2.461
REMARK UNBOUND:                 0.160
REMARK SMILES C=C(C)[C@H]1CC=C2C(=CC[C@]3(C)[C@@H]([C@H](CCC=C(C)C)C(=O)[O-])[C@@H](O)C[C@]23C)[C@]1(C)CCC(=O)[O-]
REMARK SMILES IDX 29 1 8 2 4 3 30 4 7 5 9 6 5 7 27 8 6 9 10 10 11 11 26 12
REMARK SMILES IDX 28 13 13 14 12 15 24 16 31 17 32 18 33 19 34 20 35 21 2 22
REMARK SMILES IDX 1 23 3 24 14 25 21 26 22 27 23 28 15 29 16 30 17 31 18 32
REMARK SMILES IDX 19 33 20 34 25 35
REMARK H PARENT 25 36
REMARK Flexibility Score: inf
ROOT
ATOM      1  C   UNL     1     100.268 114.505 121.027  1.00  0.00    -0.000 C 
ATOM      2  C   UNL     1     100.442 113.724 119.698  1.00  0.00    -0.042 C 
ATOM      3  C   UNL     1     100.896 115.956 120.866  1.00  0.00     0.028 C 
ATOM      4  C   UNL     1     100.994 113.748 122.172  1.00  0.00     0.017 C 
ATOM      5  C   UNL     1     100.989 114.396 118.480  1.00  0.00    -0.042 C 
ATOM      6  C   UNL     1     100.164 112.413 119.596  1.00  0.00    -0.022 C 
ATOM      7  C   UNL     1     102.168 115.941 119.999  1.00  0.00     0.036 C 
ATOM      8  C   UNL     1     100.585 113.913 117.075  1.00  0.00     0.001 C 
ATOM      9  C   UNL     1     101.810 115.447 118.634  1.00  0.00    -0.022 C 
ATOM     10  C   UNL     1     100.369 111.683 118.305  1.00  0.00     0.035 C 
ATOM     11  C   UNL     1      99.850 112.511 117.089  1.00  0.00    -0.014 C 
ATOM     12  C   UNL     1     101.842 113.663 116.219  1.00  0.00     0.044 C 
ATOM     13  C   UNL     1      99.725 115.042 116.434  1.00  0.00     0.017 C 
ATOM     14  C   UNL     1     100.318 111.757 115.767  1.00  0.00     0.034 C 
ATOM     15  C   UNL     1      98.304 112.677 117.263  1.00  0.00     0.013 C 
ATOM     16  C   UNL     1     101.483 112.607 115.178  1.00  0.00     0.119 C 
ENDROOT
BRANCH   1  17
ATOM     17  C   UNL     1      98.745 114.720 121.364  1.00  0.00     0.018 C 
BRANCH  17  18
ATOM     18  C   UNL     1      98.290 114.834 122.835  1.00  0.00     0.053 C 
BRANCH  18  19
ATOM     19  C   UNL     1      97.928 116.227 123.249  1.00  0.00     0.041 C 
ATOM     20  O   UNL     1      97.992 116.566 124.460  1.00  0.00    -0.550 OA
ATOM     21  O   UNL     1      97.565 117.165 122.293  1.00  0.00    -0.550 OA
ENDBRANCH  18  19
ENDBRANCH  17  18
ENDBRANCH   1  17
BRANCH   3  22
ATOM     22  C   UNL     1     101.096 116.732 122.174  1.00  0.00    -0.076 C 
ATOM     23  C   UNL     1     101.716 116.190 123.239  1.00  0.00     0.008 C 
ATOM     24  C   UNL     1     100.639 118.166 122.272  1.00  0.00     0.039 C 
ENDBRANCH   3  22
BRANCH  14  25
ATOM     25  C   UNL     1      99.220 111.309 114.737  1.00  0.00     0.042 C 
BRANCH  25  26
ATOM     26  C   UNL     1      98.292 112.443 114.362  1.00  0.00     0.045 C 
ATOM     27  O   UNL     1      97.051 112.242 114.277  1.00  0.00    -0.550 OA
ATOM     28  O   UNL     1      98.803 113.701 114.063  1.00  0.00    -0.550 OA
ENDBRANCH  25  26
BRANCH  25  29
ATOM     29  C   UNL     1      99.847 110.776 113.418  1.00  0.00     0.014 C 
BRANCH  29  30
ATOM     30  C   UNL     1      99.336 111.548 112.195  1.00  0.00     0.028 C 
BRANCH  30  31
ATOM     31  C   UNL     1      99.928 110.991 110.924  1.00  0.00    -0.028 C 
ATOM     32  C   UNL     1     100.860 111.622 110.177  1.00  0.00    -0.080 C 
ATOM     33  C   UNL     1     101.369 113.001 110.528  1.00  0.00     0.039 C 
ATOM     34  C   UNL     1     101.391 110.924 108.950  1.00  0.00     0.039 C 
ENDBRANCH  30  31
ENDBRANCH  29  30
ENDBRANCH  25  29
ENDBRANCH  14  25
BRANCH  16  35
ATOM     35  O   UNL     1     101.207 113.207 113.934  1.00  0.00    -0.393 OA
ATOM     36  H   UNL     1     100.302 112.935 113.644  1.00  0.00     0.210 HD
ENDBRANCH  16  35
TORSDOF 10
ENDMDL
MODEL 3
REMARK VINA RESULT:     1.712      1.818      8.838
REMARK INTER + INTRA:           2.823
REMARK INTER:                   1.245
REMARK INTRA:                   1.578
REMARK UNBOUND:                 0.160
REMARK SMILES C=C(C)[C@H]1CC=C2C(=CC[C@]3(C)[C@@H]([C@H](CCC=C(C)C)C(=O)[O-])[C@@H](O)C[C@]23C)[C@]1(C)CCC(=O)[O-]
REMARK SMILES IDX 29 1 8 2 4 3 30 4 7 5 9 6 5 7 27 8 6 9 10 10 11 11 26 12
REMARK SMILES IDX 28 13 13 14 12 15 24 16 31 17 32 18 33 19 34 20 35 21 2 22
REMARK SMILES IDX 1 23 3 24 14 25 21 26 22 27 23 28 15 29 16 30 17 31 18 32
REMARK SMILES IDX 19 33 20 34 25 35
REMARK H PARENT 25 36
REMARK Flexibility Score: inf
ROOT
ATOM      1  C   UNL     1      99.750 112.179 116.691  1.00  0.00    -0.000 C 
ATOM      2  C   UNL     1     100.145 112.954 117.975  1.00  0.00    -0.042 C 
ATOM      3  C   UNL     1      99.445 110.665 117.066  1.00  0.00     0.028 C 
ATOM      4  C   UNL     1     100.921 112.236 115.671  1.00  0.00     0.017 C 
ATOM      5  C   UNL     1     100.060 112.304 119.319  1.00  0.00    -0.042 C 
ATOM      6  C   UNL     1     100.626 114.207 117.937  1.00  0.00    -0.022 C 
ATOM      7  C   UNL     1     100.383 110.144 118.171  1.00  0.00     0.036 C 
ATOM      8  C   UNL     1      99.805 113.149 120.579  1.00  0.00     0.001 C 
ATOM      9  C   UNL     1     100.176 110.968 119.401  1.00  0.00    -0.022 C 
ATOM     10  C   UNL     1     101.023 114.917 119.194  1.00  0.00     0.035 C 
ATOM     11  C   UNL     1      99.975 114.703 120.329  1.00  0.00    -0.014 C 
ATOM     12  C   UNL     1     100.861 112.830 121.655  1.00  0.00     0.044 C 
ATOM     13  C   UNL     1      98.387 112.771 121.103  1.00  0.00     0.017 C 
ATOM     14  C   UNL     1     100.598 115.297 121.668  1.00  0.00     0.034 C 
ATOM     15  C   UNL     1      98.635 115.357 119.857  1.00  0.00     0.013 C 
ATOM     16  C   UNL     1     101.008 114.068 122.534  1.00  0.00     0.119 C 
ENDROOT
BRANCH   1  17
ATOM     17  C   UNL     1      98.425 112.754 116.066  1.00  0.00     0.018 C 
BRANCH  17  18
ATOM     18  C   UNL     1      98.412 113.248 114.604  1.00  0.00     0.053 C 
BRANCH  18  19
ATOM     19  C   UNL     1      97.265 112.723 113.797  1.00  0.00     0.041 C 
ATOM     20  O   UNL     1      97.042 111.485 113.741  1.00  0.00    -0.550 OA
ATOM     21  O   UNL     1      96.414 113.604 113.144  1.00  0.00    -0.550 OA
ENDBRANCH  18  19
ENDBRANCH  17  18
ENDBRANCH   1  17
BRANCH   3  22
ATOM     22  C   UNL     1      99.358 109.701 115.877  1.00  0.00    -0.076 C 
ATOM     23  C   UNL     1      99.085 108.392 116.037  1.00  0.00     0.008 C 
ATOM     24  C   UNL     1      99.527 110.224 114.472  1.00  0.00     0.039 C 
ENDBRANCH   3  22
BRANCH  14  25
ATOM     25  C   UNL     1      99.802 116.421 122.425  1.00  0.00     0.042 C 
BRANCH  25  26
ATOM     26  C   UNL     1      98.646 115.863 123.223  1.00  0.00     0.045 C 
ATOM     27  O   UNL     1      97.651 115.363 122.632  1.00  0.00    -0.550 OA
ATOM     28  O   UNL     1      98.646 115.938 124.612  1.00  0.00    -0.550 OA
ENDBRANCH  25  26
BRANCH  25  29
ATOM     29  C   UNL     1     100.708 117.204 123.417  1.00  0.00     0.014 C 
BRANCH  29  30
ATOM     30  C   UNL     1     100.451 118.714 123.348  1.00  0.00     0.028 C 
BRANCH  30  31
ATOM     31  C   UNL     1      99.189 119.008 122.576  1.00  0.00    -0.028 C 
ATOM     32  C   UNL     1      98.120 119.660 123.084  1.00  0.00    -0.080 C 
ATOM     33  C   UNL     1      98.070 120.119 124.522  1.00  0.00     0.039 C 
ATOM     34  C   UNL     1      96.940 119.919 122.180  1.00  0.00     0.039 C 
ENDBRANCH  30  31
ENDBRANCH  29  30
ENDBRANCH  25  29
ENDBRANCH  14  25
BRANCH  16  35
ATOM     35  O   UNL     1     100.281 113.919 123.731  1.00  0.00    -0.393 OA
ATOM     36  H   UNL     1      99.998 112.976 123.816  1.00  0.00     0.210 HD
ENDBRANCH  16  35
TORSDOF 10
ENDMDL
MODEL 4
REMARK VINA RESULT:     1.947      3.291      9.972
REMARK INTER + INTRA:           3.188
REMARK INTER:                   3.116
REMARK INTRA:                   0.073
REMARK UNBOUND:                 0.160
REMARK SMILES C=C(C)[C@H]1CC=C2C(=CC[C@]3(C)[C@@H]([C@H](CCC=C(C)C)C(=O)[O-])[C@@H](O)C[C@]23C)[C@]1(C)CCC(=O)[O-]
REMARK SMILES IDX 29 1 8 2 4 3 30 4 7 5 9 6 5 7 27 8 6 9 10 10 11 11 26 12
REMARK SMILES IDX 28 13 13 14 12 15 24 16 31 17 32 18 33 19 34 20 35 21 2 22
REMARK SMILES IDX 1 23 3 24 14 25 21 26 22 27 23 28 15 29 16 30 17 31 18 32
REMARK SMILES IDX 19 33 20 34 25 35
REMARK H PARENT 25 36
REMARK Flexibility Score: inf
ROOT
ATOM      1  C   UNL     1      95.888 111.803 110.263  1.00  0.00    -0.000 C 
ATOM      2  C   UNL     1      97.013 111.563 111.304  1.00  0.00    -0.042 C 
ATOM      3  C   UNL     1      94.553 111.104 110.765  1.00  0.00     0.028 C 
ATOM      4  C   UNL     1      96.310 111.199 108.896  1.00  0.00     0.017 C 
ATOM      5  C   UNL     1      96.719 110.898 112.609  1.00  0.00    -0.042 C 
ATOM      6  C   UNL     1      98.294 111.887 111.062  1.00  0.00    -0.022 C 
ATOM      7  C   UNL     1      94.835 109.772 111.484  1.00  0.00     0.036 C 
ATOM      8  C   UNL     1      97.567 111.214 113.855  1.00  0.00     0.001 C 
ATOM      9  C   UNL     1      95.683 110.046 112.684  1.00  0.00    -0.022 C 
ATOM     10  C   UNL     1      99.360 111.617 112.078  1.00  0.00     0.035 C 
ATOM     11  C   UNL     1      98.895 112.007 113.515  1.00  0.00    -0.014 C 
ATOM     12  C   UNL     1      98.071 109.908 114.499  1.00  0.00     0.044 C 
ATOM     13  C   UNL     1      96.645 111.974 114.854  1.00  0.00     0.017 C 
ATOM     14  C   UNL     1      99.997 111.472 114.532  1.00  0.00     0.034 C 
ATOM     15  C   UNL     1      98.656 113.553 113.525  1.00  0.00     0.013 C 
ATOM     16  C   UNL     1      99.368 110.231 115.234  1.00  0.00     0.119 C 
ENDROOT
BRANCH   1  17
ATOM     17  C   UNL     1      95.559 113.337 110.128  1.00  0.00     0.018 C 
BRANCH  17  18
ATOM     18  C   UNL     1      94.730 114.046 111.220  1.00  0.00     0.053 C 
BRANCH  18  19
ATOM     19  C   UNL     1      93.691 114.980 110.680  1.00  0.00     0.041 C 
ATOM     20  O   UNL     1      92.497 114.598 110.556  1.00  0.00    -0.550 OA
ATOM     21  O   UNL     1      94.030 116.286 110.357  1.00  0.00    -0.550 OA
ENDBRANCH  18  19
ENDBRANCH  17  18
ENDBRANCH   1  17
BRANCH   3  22
ATOM     22  C   UNL     1      93.447 110.971 109.711  1.00  0.00    -0.076 C 
ATOM     23  C   UNL     1      92.637 111.997 109.391  1.00  0.00     0.008 C 
ATOM     24  C   UNL     1      93.280 109.674 108.959  1.00  0.00     0.039 C 
ENDBRANCH   3  22
BRANCH  14  25
ATOM     25  C   UNL     1     100.693 112.508 115.488  1.00  0.00     0.042 C 
BRANCH  25  26
ATOM     26  C   UNL     1     101.940 113.103 114.872  1.00  0.00     0.045 C 
ATOM     27  O   UNL     1     102.152 112.988 113.635  1.00  0.00    -0.550 OA
ATOM     28  O   UNL     1     102.886 113.737 115.671  1.00  0.00    -0.550 OA
ENDBRANCH  25  26
BRANCH  25  29
ATOM     29  C   UNL     1      99.750 113.690 115.845  1.00  0.00     0.014 C 
BRANCH  29  30
ATOM     30  C   UNL     1      99.605 113.861 117.363  1.00  0.00     0.028 C 
BRANCH  30  31
ATOM     31  C   UNL     1     100.260 112.717 118.095  1.00  0.00    -0.028 C 
ATOM     32  C   UNL     1     100.222 112.547 119.435  1.00  0.00    -0.080 C 
ATOM     33  C   UNL     1      99.547 113.543 120.349  1.00  0.00     0.039 C 
ATOM     34  C   UNL     1     100.890 111.331 120.025  1.00  0.00     0.039 C 
ENDBRANCH  30  31
ENDBRANCH  29  30
ENDBRANCH  25  29
ENDBRANCH  14  25
BRANCH  16  35
ATOM     35  O   UNL     1      99.135 110.387 116.614  1.00  0.00    -0.393 OA
ATOM     36  H   UNL     1      98.321 110.933 116.739  1.00  0.00     0.210 HD
ENDBRANCH  16  35
TORSDOF 10
ENDMDL
MODEL 5
REMARK VINA RESULT:     2.195      3.261      9.493
REMARK INTER + INTRA:           3.575
REMARK INTER:                   3.580
REMARK INTRA:                  -0.005
REMARK UNBOUND:                 0.160
REMARK SMILES C=C(C)[C@H]1CC=C2C(=CC[C@]3(C)[C@@H]([C@H](CCC=C(C)C)C(=O)[O-])[C@@H](O)C[C@]23C)[C@]1(C)CCC(=O)[O-]
REMARK SMILES IDX 29 1 8 2 4 3 30 4 7 5 9 6 5 7 27 8 6 9 10 10 11 11 26 12
REMARK SMILES IDX 28 13 13 14 12 15 24 16 31 17 32 18 33 19 34 20 35 21 2 22
REMARK SMILES IDX 1 23 3 24 14 25 21 26 22 27 23 28 15 29 16 30 17 31 18 32
REMARK SMILES IDX 19 33 20 34 25 35
REMARK H PARENT 25 36
REMARK Flexibility Score: inf
ROOT
ATOM      1  C   UNL     1     101.038 112.902 111.874  1.00  0.00    -0.000 C 
ATOM      2  C   UNL     1     101.034 112.790 113.421  1.00  0.00    -0.042 C 
ATOM      3  C   UNL     1      99.939 111.923 111.277  1.00  0.00     0.028 C 
ATOM      4  C   UNL     1     102.438 112.506 111.330  1.00  0.00     0.017 C 
ATOM      5  C   UNL     1     100.002 111.973 114.128  1.00  0.00    -0.042 C 
ATOM      6  C   UNL     1     101.977 113.370 114.184  1.00  0.00    -0.022 C 
ATOM      7  C   UNL     1      99.837 110.611 112.078  1.00  0.00     0.036 C 
ATOM      8  C   UNL     1      99.563 112.337 115.558  1.00  0.00     0.001 C 
ATOM      9  C   UNL     1      99.440 110.938 113.481  1.00  0.00    -0.022 C 
ATOM     10  C   UNL     1     101.959 113.220 115.673  1.00  0.00     0.035 C 
ATOM     11  C   UNL     1     100.520 113.392 116.250  1.00  0.00    -0.014 C 
ATOM     12  C   UNL     1      99.655 111.099 116.472  1.00  0.00     0.044 C 
ATOM     13  C   UNL     1      98.085 112.822 115.473  1.00  0.00     0.017 C 
ATOM     14  C   UNL     1     100.574 112.991 117.790  1.00  0.00     0.034 C 
ATOM     15  C   UNL     1     100.067 114.859 115.947  1.00  0.00     0.013 C 
ATOM     16  C   UNL     1      99.883 111.599 117.895  1.00  0.00     0.119 C 
ENDROOT
BRANCH   1  17
ATOM     17  C   UNL     1     100.637 114.351 111.408  1.00  0.00     0.018 C 
BRANCH  17  18
ATOM     18  C   UNL     1     101.589 115.160 110.501  1.00  0.00     0.053 C 
BRANCH  18  19
ATOM     19  C   UNL     1     100.922 116.290 109.780  1.00  0.00     0.041 C 
ATOM     20  O   UNL     1     100.062 116.057 108.890  1.00  0.00    -0.550 OA
ATOM     21  O   UNL     1     101.216 117.603 110.122  1.00  0.00    -0.550 OA
ENDBRANCH  18  19
ENDBRANCH  17  18
ENDBRANCH   1  17
BRANCH   3  22
ATOM     22  C   UNL     1     100.034 111.673 109.767  1.00  0.00    -0.076 C 
ATOM     23  C   UNL     1      99.349 112.413 108.875  1.00  0.00     0.008 C 
ATOM     24  C   UNL     1     100.962 110.606 109.240  1.00  0.00     0.039 C 
ENDBRANCH   3  22
BRANCH  14  25
ATOM     25  C   UNL     1     100.118 114.054 118.853  1.00  0.00     0.042 C 
BRANCH  25  26
ATOM     26  C   UNL     1      99.777 113.421 120.183  1.00  0.00     0.045 C 
ATOM     27  O   UNL     1      98.778 113.824 120.838  1.00  0.00    -0.550 OA
ATOM     28  O   UNL     1     100.586 112.425 120.718  1.00  0.00    -0.550 OA
ENDBRANCH  25  26
BRANCH  25  29
ATOM     29  C   UNL     1     101.223 115.115 119.121  1.00  0.00     0.014 C 
BRANCH  29  30
ATOM     30  C   UNL     1     101.603 115.174 120.606  1.00  0.00     0.028 C 
BRANCH  30  31
ATOM     31  C   UNL     1     101.366 116.555 121.165  1.00  0.00    -0.028 C 
ATOM     32  C   UNL     1     100.848 116.804 122.388  1.00  0.00    -0.080 C 
ATOM     33  C   UNL     1     100.400 115.694 123.308  1.00  0.00     0.039 C 
ATOM     34  C   UNL     1     100.706 118.239 122.829  1.00  0.00     0.039 C 
ENDBRANCH  30  31
ENDBRANCH  29  30
ENDBRANCH  25  29
ENDBRANCH  14  25
BRANCH  16  35
ATOM     35  O   UNL     1      98.679 111.590 118.626  1.00  0.00    -0.393 OA
ATOM     36  H   UNL     1      97.929 111.753 118.004  1.00  0.00     0.210 HD
ENDBRANCH  16  35
TORSDOF 10
ENDMDL
MODEL 6
REMARK VINA RESULT:     2.378      2.581      8.774
REMARK INTER + INTRA:           3.860
REMARK INTER:                   2.758
REMARK INTRA:                   1.102
REMARK UNBOUND:                 0.160
REMARK SMILES C=C(C)[C@H]1CC=C2C(=CC[C@]3(C)[C@@H]([C@H](CCC=C(C)C)C(=O)[O-])[C@@H](O)C[C@]23C)[C@]1(C)CCC(=O)[O-]
REMARK SMILES IDX 29 1 8 2 4 3 30 4 7 5 9 6 5 7 27 8 6 9 10 10 11 11 26 12
REMARK SMILES IDX 28 13 13 14 12 15 24 16 31 17 32 18 33 19 34 20 35 21 2 22
REMARK SMILES IDX 1 23 3 24 14 25 21 26 22 27 23 28 15 29 16 30 17 31 18 32
REMARK SMILES IDX 19 33 20 34 25 35
REMARK H PARENT 25 36
REMARK Flexibility Score: inf
ROOT
ATOM      1  C   UNL     1     100.303 113.554 117.789  1.00  0.00    -0.000 C 
ATOM      2  C   UNL     1     100.613 114.052 119.225  1.00  0.00    -0.042 C 
ATOM      3  C   UNL     1      99.658 112.104 117.866  1.00  0.00     0.028 C 
ATOM      4  C   UNL     1     101.619 113.495 116.966  1.00  0.00     0.017 C 
ATOM      5  C   UNL     1     100.179 113.265 120.419  1.00  0.00    -0.042 C 
ATOM      6  C   UNL     1     101.322 115.169 119.458  1.00  0.00    -0.022 C 
ATOM      7  C   UNL     1     100.279 111.256 118.992  1.00  0.00     0.036 C 
ATOM      8  C   UNL     1      99.878 113.972 121.752  1.00  0.00     0.001 C 
ATOM      9  C   UNL     1     100.025 111.936 120.299  1.00  0.00    -0.022 C 
ATOM     10  C   UNL     1     101.626 115.607 120.857  1.00  0.00     0.035 C 
ATOM     11  C   UNL     1     100.379 115.474 121.785  1.00  0.00    -0.014 C 
ATOM     12  C   UNL     1     100.657 113.298 122.899  1.00  0.00     0.044 C 
ATOM     13  C   UNL     1      98.346 113.839 122.004  1.00  0.00     0.017 C 
ATOM     14  C   UNL     1     100.867 115.742 123.276  1.00  0.00     0.034 C 
ATOM     15  C   UNL     1      99.287 116.454 121.242  1.00  0.00     0.013 C 
ATOM     16  C   UNL     1     100.883 114.352 123.979  1.00  0.00     0.119 C 
ENDROOT
BRANCH   1  17
ATOM     17  C   UNL     1      99.236 114.474 117.087  1.00  0.00     0.018 C 
BRANCH  17  18
ATOM     18  C   UNL     1      99.665 115.422 115.947  1.00  0.00     0.053 C 
BRANCH  18  19
ATOM     19  C   UNL     1      98.723 115.437 114.784  1.00  0.00     0.041 C 
ATOM     20  O   UNL     1      98.035 116.462 114.536  1.00  0.00    -0.550 OA
ATOM     21  O   UNL     1      98.638 114.334 113.945  1.00  0.00    -0.550 OA
ENDBRANCH  18  19
ENDBRANCH  17  18
ENDBRANCH   1  17
BRANCH   3  22
ATOM     22  C   UNL     1      99.593 111.344 116.536  1.00  0.00    -0.076 C 
ATOM     23  C   UNL     1     100.201 111.797 115.424  1.00  0.00     0.008 C 
ATOM     24  C   UNL     1      98.878 110.018 116.464  1.00  0.00     0.039 C 
ENDBRANCH   3  22
BRANCH  14  25
ATOM     25  C   UNL     1     100.181 116.901 124.087  1.00  0.00     0.042 C 
BRANCH  25  26
ATOM     26  C   UNL     1     100.822 118.243 123.817  1.00  0.00     0.045 C 
ATOM     27  O   UNL     1     101.629 118.377 122.859  1.00  0.00    -0.550 OA
ATOM     28  O   UNL     1     100.566 119.326 124.651  1.00  0.00    -0.550 OA
ENDBRANCH  25  26
BRANCH  25  29
ATOM     29  C   UNL     1      98.672 117.036 123.738  1.00  0.00     0.014 C 
BRANCH  29  30
ATOM     30  C   UNL     1      98.060 118.302 124.351  1.00  0.00     0.028 C 
BRANCH  30  31
ATOM     31  C   UNL     1      96.998 118.875 123.446  1.00  0.00    -0.028 C 
ATOM     32  C   UNL     1      97.250 119.656 122.373  1.00  0.00    -0.080 C 
ATOM     33  C   UNL     1      98.652 120.080 122.004  1.00  0.00     0.039 C 
ATOM     34  C   UNL     1      96.087 120.125 121.535  1.00  0.00     0.039 C 
ENDBRANCH  30  31
ENDBRANCH  29  30
ENDBRANCH  25  29
ENDBRANCH  14  25
BRANCH  16  35
ATOM     35  O   UNL     1      99.949 114.205 125.023  1.00  0.00    -0.393 OA
ATOM     36  H   UNL     1     100.209 114.801 125.767  1.00  0.00     0.210 HD
ENDBRANCH  16  35
TORSDOF 10
ENDMDL
MODEL 7
REMARK VINA RESULT:     2.449      2.557      9.650
REMARK INTER + INTRA:           3.970
REMARK INTER:                   3.554
REMARK INTRA:                   0.416
REMARK UNBOUND:                 0.160
REMARK SMILES C=C(C)[C@H]1CC=C2C(=CC[C@]3(C)[C@@H]([C@H](CCC=C(C)C)C(=O)[O-])[C@@H](O)C[C@]23C)[C@]1(C)CCC(=O)[O-]
REMARK SMILES IDX 29 1 8 2 4 3 30 4 7 5 9 6 5 7 27 8 6 9 10 10 11 11 26 12
REMARK SMILES IDX 28 13 13 14 12 15 24 16 31 17 32 18 33 19 34 20 35 21 2 22
REMARK SMILES IDX 1 23 3 24 14 25 21 26 22 27 23 28 15 29 16 30 17 31 18 32
REMARK SMILES IDX 19 33 20 34 25 35
REMARK H PARENT 25 36
REMARK Flexibility Score: inf
ROOT
ATOM      1  C   UNL     1      96.720 111.745 111.989  1.00  0.00    -0.000 C 
ATOM      2  C   UNL     1      97.491 112.226 113.246  1.00  0.00    -0.042 C 
ATOM      3  C   UNL     1      97.748 111.116 110.953  1.00  0.00     0.028 C 
ATOM      4  C   UNL     1      95.995 112.953 111.333  1.00  0.00     0.017 C 
ATOM      5  C   UNL     1      98.950 111.941 113.405  1.00  0.00    -0.042 C 
ATOM      6  C   UNL     1      96.906 112.957 114.209  1.00  0.00    -0.022 C 
ATOM      7  C   UNL     1      99.091 111.868 110.944  1.00  0.00     0.036 C 
ATOM      8  C   UNL     1      99.568 111.802 114.808  1.00  0.00     0.001 C 
ATOM      9  C   UNL     1      99.702 111.774 112.305  1.00  0.00    -0.022 C 
ATOM     10  C   UNL     1      97.687 113.428 115.397  1.00  0.00     0.035 C 
ATOM     11  C   UNL     1      98.607 112.302 115.962  1.00  0.00    -0.014 C 
ATOM     12  C   UNL     1     100.804 112.714 114.935  1.00  0.00     0.044 C 
ATOM     13  C   UNL     1      99.992 110.312 114.975  1.00  0.00     0.017 C 
ATOM     14  C   UNL     1      99.549 112.966 117.061  1.00  0.00     0.034 C 
ATOM     15  C   UNL     1      97.677 111.151 116.472  1.00  0.00     0.013 C 
ATOM     16  C   UNL     1     100.961 113.068 116.411  1.00  0.00     0.119 C 
ENDROOT
BRANCH   1  17
ATOM     17  C   UNL     1      95.702 110.600 112.351  1.00  0.00     0.018 C 
BRANCH  17  18
ATOM     18  C   UNL     1      94.223 110.720 111.924  1.00  0.00     0.053 C 
BRANCH  18  19
ATOM     19  C   UNL     1      93.915 110.060 110.616  1.00  0.00     0.041 C 
ATOM     20  O   UNL     1      94.221 108.853 110.426  1.00  0.00    -0.550 OA
ATOM     21  O   UNL     1      93.249 110.763 109.622  1.00  0.00    -0.550 OA
ENDBRANCH  18  19
ENDBRANCH  17  18
ENDBRANCH   1  17
BRANCH   3  22
ATOM     22  C   UNL     1      97.199 110.892 109.539  1.00  0.00    -0.076 C 
ATOM     23  C   UNL     1      97.385 109.736 108.875  1.00  0.00     0.008 C 
ATOM     24  C   UNL     1      96.375 111.967 108.875  1.00  0.00     0.039 C 
ENDBRANCH   3  22
BRANCH  14  25
ATOM     25  C   UNL     1      99.517 112.382 118.520  1.00  0.00     0.042 C 
BRANCH  25  26
ATOM     26  C   UNL     1     100.364 111.136 118.654  1.00  0.00     0.045 C 
ATOM     27  O   UNL     1     100.079 110.103 117.991  1.00  0.00    -0.550 OA
ATOM     28  O   UNL     1     101.431 111.103 119.544  1.00  0.00    -0.550 OA
ENDBRANCH  25  26
BRANCH  25  29
ATOM     29  C   UNL     1     100.041 113.407 119.564  1.00  0.00     0.014 C 
BRANCH  29  30
ATOM     30  C   UNL     1      99.146 113.453 120.810  1.00  0.00     0.028 C 
BRANCH  30  31
ATOM     31  C   UNL     1      99.895 114.030 121.986  1.00  0.00    -0.028 C 
ATOM     32  C   UNL     1      99.448 115.054 122.746  1.00  0.00    -0.080 C 
ATOM     33  C   UNL     1      98.151 115.767 122.446  1.00  0.00     0.039 C 
ATOM     34  C   UNL     1     100.288 115.499 123.917  1.00  0.00     0.039 C 
ENDBRANCH  30  31
ENDBRANCH  29  30
ENDBRANCH  25  29
ENDBRANCH  14  25
BRANCH  16  35
ATOM     35  O   UNL     1     101.950 112.267 117.014  1.00  0.00    -0.393 OA
ATOM     36  H   UNL     1     102.800 112.770 117.029  1.00  0.00     0.210 HD
ENDBRANCH  16  35
TORSDOF 10
ENDMDL
MODEL 8
REMARK VINA RESULT:     2.733      2.234      8.761
REMARK INTER + INTRA:           4.411
REMARK INTER:                   3.978
REMARK INTRA:                   0.433
REMARK UNBOUND:                 0.160
REMARK SMILES C=C(C)[C@H]1CC=C2C(=CC[C@]3(C)[C@@H]([C@H](CCC=C(C)C)C(=O)[O-])[C@@H](O)C[C@]23C)[C@]1(C)CCC(=O)[O-]
REMARK SMILES IDX 29 1 8 2 4 3 30 4 7 5 9 6 5 7 27 8 6 9 10 10 11 11 26 12
REMARK SMILES IDX 28 13 13 14 12 15 24 16 31 17 32 18 33 19 34 20 35 21 2 22
REMARK SMILES IDX 1 23 3 24 14 25 21 26 22 27 23 28 15 29 16 30 17 31 18 32
REMARK SMILES IDX 19 33 20 34 25 35
REMARK H PARENT 25 36
REMARK Flexibility Score: inf
ROOT
ATOM      1  C   UNL     1     100.115 112.861 113.326  1.00  0.00    -0.000 C 
ATOM      2  C   UNL     1     100.436 112.865 114.844  1.00  0.00    -0.042 C 
ATOM      3  C   UNL     1      99.427 111.482 112.941  1.00  0.00     0.028 C 
ATOM      4  C   UNL     1     101.431 113.030 112.518  1.00  0.00     0.017 C 
ATOM      5  C   UNL     1      99.977 111.750 115.727  1.00  0.00    -0.042 C 
ATOM      6  C   UNL     1     101.178 113.828 115.417  1.00  0.00    -0.022 C 
ATOM      7  C   UNL     1     100.020 110.301 113.731  1.00  0.00     0.036 C 
ATOM      8  C   UNL     1      99.693 112.003 117.218  1.00  0.00     0.001 C 
ATOM      9  C   UNL     1      99.784 110.535 115.189  1.00  0.00    -0.022 C 
ATOM     10  C   UNL     1     101.491 113.787 116.880  1.00  0.00     0.035 C 
ATOM     11  C   UNL     1     100.239 113.400 117.725  1.00  0.00    -0.014 C 
ATOM     12  C   UNL     1     100.449 110.975 118.083  1.00  0.00     0.044 C 
ATOM     13  C   UNL     1      98.158 111.840 117.426  1.00  0.00     0.017 C 
ATOM     14  C   UNL     1     100.731 113.163 119.221  1.00  0.00     0.034 C 
ATOM     15  C   UNL     1      99.177 114.533 117.532  1.00  0.00     0.013 C 
ATOM     16  C   UNL     1     100.704 111.621 119.442  1.00  0.00     0.119 C 
ENDROOT
BRANCH   1  17
ATOM     17  C   UNL     1      99.077 113.988 112.963  1.00  0.00     0.018 C 
BRANCH  17  18
ATOM     18  C   UNL     1      97.780 114.136 113.787  1.00  0.00     0.053 C 
BRANCH  18  19
ATOM     19  C   UNL     1      96.763 113.073 113.511  1.00  0.00     0.041 C 
ATOM     20  O   UNL     1      96.792 111.986 114.147  1.00  0.00    -0.550 OA
ATOM     21  O   UNL     1      95.755 113.299 112.584  1.00  0.00    -0.550 OA
ENDBRANCH  18  19
ENDBRANCH  17  18
ENDBRANCH   1  17
BRANCH   3  22
ATOM     22  C   UNL     1      99.343 111.189 111.438  1.00  0.00    -0.076 C 
ATOM     23  C   UNL     1     100.407 110.761 110.732  1.00  0.00     0.008 C 
ATOM     24  C   UNL     1      98.024 111.327 110.719  1.00  0.00     0.039 C 
ENDBRANCH   3  22
BRANCH  14  25
ATOM     25  C   UNL     1     100.077 114.021 120.364  1.00  0.00     0.042 C 
BRANCH  25  26
ATOM     26  C   UNL     1      99.917 113.235 121.646  1.00  0.00     0.045 C 
ATOM     27  O   UNL     1      98.787 113.147 122.197  1.00  0.00    -0.550 OA
ATOM     28  O   UNL     1     101.020 112.646 122.254  1.00  0.00    -0.550 OA
ENDBRANCH  25  26
BRANCH  25  29
ATOM     29  C   UNL     1     100.927 115.279 120.701  1.00  0.00     0.014 C 
BRANCH  29  30
ATOM     30  C   UNL     1     101.030 115.504 122.215  1.00  0.00     0.028 C 
BRANCH  30  31
ATOM     31  C   UNL     1     100.813 116.957 122.556  1.00  0.00    -0.028 C 
ATOM     32  C   UNL     1      99.712 117.439 123.173  1.00  0.00    -0.080 C 
ATOM     33  C   UNL     1      98.546 116.551 123.539  1.00  0.00     0.039 C 
ATOM     34  C   UNL     1      99.651 118.913 123.487  1.00  0.00     0.039 C 
ENDBRANCH  30  31
ENDBRANCH  29  30
ENDBRANCH  25  29
ENDBRANCH  14  25
BRANCH  16  35
ATOM     35  O   UNL     1      99.764 111.175 120.391  1.00  0.00    -0.393 OA
ATOM     36  H   UNL     1     100.167 111.238 121.291  1.00  0.00     0.210 HD
ENDBRANCH  16  35
TORSDOF 10
ENDMDL
MODEL 9
REMARK VINA RESULT:     2.929      3.192      9.580
REMARK INTER + INTRA:           4.716
REMARK INTER:                   3.937
REMARK INTRA:                   0.779
REMARK UNBOUND:                 0.160
REMARK SMILES C=C(C)[C@H]1CC=C2C(=CC[C@]3(C)[C@@H]([C@H](CCC=C(C)C)C(=O)[O-])[C@@H](O)C[C@]23C)[C@]1(C)CCC(=O)[O-]
REMARK SMILES IDX 29 1 8 2 4 3 30 4 7 5 9 6 5 7 27 8 6 9 10 10 11 11 26 12
REMARK SMILES IDX 28 13 13 14 12 15 24 16 31 17 32 18 33 19 34 20 35 21 2 22
REMARK SMILES IDX 1 23 3 24 14 25 21 26 22 27 23 28 15 29 16 30 17 31 18 32
REMARK SMILES IDX 19 33 20 34 25 35
REMARK H PARENT 25 36
REMARK Flexibility Score: inf
ROOT
ATOM      1  C   UNL     1      96.779 111.904 111.899  1.00  0.00    -0.000 C 
ATOM      2  C   UNL     1      97.740 112.450 112.987  1.00  0.00    -0.042 C 
ATOM      3  C   UNL     1      97.626 111.166 110.775  1.00  0.00     0.028 C 
ATOM      4  C   UNL     1      95.991 113.084 111.266  1.00  0.00     0.017 C 
ATOM      5  C   UNL     1      99.199 112.128 112.951  1.00  0.00    -0.042 C 
ATOM      6  C   UNL     1      97.323 113.269 113.966  1.00  0.00    -0.022 C 
ATOM      7  C   UNL     1      98.969 111.870 110.509  1.00  0.00     0.036 C 
ATOM      8  C   UNL     1     100.018 112.071 114.253  1.00  0.00     0.001 C 
ATOM      9  C   UNL     1      99.774 111.856 111.768  1.00  0.00    -0.022 C 
ATOM     10  C   UNL     1      98.283 113.799 114.986  1.00  0.00     0.035 C 
ATOM     11  C   UNL     1      99.252 112.687 115.495  1.00  0.00    -0.014 C 
ATOM     12  C   UNL     1     101.279 112.948 114.126  1.00  0.00     0.044 C 
ATOM     13  C   UNL     1     100.428 110.584 114.471  1.00  0.00     0.017 C 
ATOM     14  C   UNL     1     100.362 113.398 116.387  1.00  0.00     0.034 C 
ATOM     15  C   UNL     1      98.383 111.609 116.224  1.00  0.00     0.013 C 
ATOM     16  C   UNL     1     101.663 113.404 115.530  1.00  0.00     0.119 C 
ENDROOT
BRANCH   1  17
ATOM     17  C   UNL     1      95.801 110.824 112.495  1.00  0.00     0.018 C 
BRANCH  17  18
ATOM     18  C   UNL     1      94.293 110.886 112.170  1.00  0.00     0.053 C 
BRANCH  18  19
ATOM     19  C   UNL     1      93.897 110.070 110.978  1.00  0.00     0.041 C 
ATOM     20  O   UNL     1      94.237 108.860 110.895  1.00  0.00    -0.550 OA
ATOM     21  O   UNL     1      93.114 110.633 109.980  1.00  0.00    -0.550 OA
ENDBRANCH  18  19
ENDBRANCH  17  18
ENDBRANCH   1  17
BRANCH   3  22
ATOM     22  C   UNL     1      96.866 110.857 109.479  1.00  0.00    -0.076 C 
ATOM     23  C   UNL     1      96.941 109.656 108.876  1.00  0.00     0.008 C 
ATOM     24  C   UNL     1      95.958 111.900 108.875  1.00  0.00     0.039 C 
ENDBRANCH   3  22
BRANCH  14  25
ATOM     25  C   UNL     1     100.536 112.924 117.876  1.00  0.00     0.042 C 
BRANCH  25  26
ATOM     26  C   UNL     1      99.730 113.765 118.840  1.00  0.00     0.045 C 
ATOM     27  O   UNL     1      98.793 114.492 118.415  1.00  0.00    -0.550 OA
ATOM     28  O   UNL     1     100.045 113.781 120.194  1.00  0.00    -0.550 OA
ENDBRANCH  25  26
BRANCH  25  29
ATOM     29  C   UNL     1     100.088 111.448 118.069  1.00  0.00     0.014 C 
BRANCH  29  30
ATOM     30  C   UNL     1     100.572 110.880 119.409  1.00  0.00     0.028 C 
BRANCH  30  31
ATOM     31  C   UNL     1     101.601 109.799 119.191  1.00  0.00    -0.028 C 
ATOM     32  C   UNL     1     102.354 109.254 120.172  1.00  0.00    -0.080 C 
ATOM     33  C   UNL     1     102.269 109.728 121.604  1.00  0.00     0.039 C 
ATOM     34  C   UNL     1     103.316 108.150 119.811  1.00  0.00     0.039 C 
ENDBRANCH  30  31
ENDBRANCH  29  30
ENDBRANCH  25  29
ENDBRANCH  14  25
BRANCH  16  35
ATOM     35  O   UNL     1     102.713 112.617 116.042  1.00  0.00    -0.393 OA
ATOM     36  H   UNL     1     103.026 112.005 115.331  1.00  0.00     0.210 HD
ENDBRANCH  16  35
TORSDOF 10
ENDMDL
