MODEL 1
REMARK VINA RESULT:    -6.132      0.000      0.000
REMARK INTER + INTRA:          -8.670
REMARK INTER:                  -7.566
REMARK INTRA:                  -1.104
REMARK UNBOUND:                -1.104
REMARK SMILES CC(C)=CCC[C@H](C)c1ccc(C)cc1
REMARK SMILES IDX 6 1 7 2 8 3 9 4 13 5 12 6 11 7 14 8 10 9 15 10 5 11 4 12
REMARK SMILES IDX 2 13 1 14 3 15
REMARK H PARENT
REMARK Flexibility Score: inf
ROOT
ATOM      1  C   UNL     1     -33.981  37.733   9.315  1.00  0.00     0.012 C 
ENDROOT
BRANCH   1   2
ATOM      2  C   UNL     1     -33.709  37.859   7.800  1.00  0.00     0.016 C 
ATOM      3  C   UNL     1     -32.270  38.305   7.493  1.00  0.00     0.013 C 
BRANCH   2   4
ATOM      4  C   UNL     1     -34.777  38.695   7.106  1.00  0.00    -0.045 A 
ATOM      5  C   UNL     1     -37.711  40.994   4.917  1.00  0.00     0.044 C 
ATOM      6  C   UNL     1     -36.694  40.218   5.699  1.00  0.00    -0.051 A 
ATOM      7  C   UNL     1     -37.102  39.239   6.614  1.00  0.00     0.004 A 
ATOM      8  C   UNL     1     -35.325  40.412   5.466  1.00  0.00     0.004 A 
ATOM      9  C   UNL     1     -36.154  38.486   7.314  1.00  0.00     0.004 A 
ATOM     10  C   UNL     1     -34.377  39.660   6.164  1.00  0.00     0.004 A 
ENDBRANCH   2   4
ENDBRANCH   1   2
BRANCH   1  11
ATOM     11  C   UNL     1     -34.073  36.284   9.825  1.00  0.00     0.028 C 
BRANCH  11  12
ATOM     12  C   UNL     1     -34.705  35.392   8.788  1.00  0.00    -0.028 C 
ATOM     13  C   UNL     1     -36.024  35.096   8.744  1.00  0.00    -0.080 C 
ATOM     14  C   UNL     1     -36.526  34.216   7.628  1.00  0.00     0.039 C 
ATOM     15  C   UNL     1     -36.993  35.605   9.787  1.00  0.00     0.039 C 
ENDBRANCH  11  12
ENDBRANCH   1  11
TORSDOF 4
ENDMDL
MODEL 2
REMARK VINA RESULT:    -6.126      1.407      3.731
REMARK INTER + INTRA:          -8.663
REMARK INTER:                  -7.318
REMARK INTRA:                  -1.345
REMARK UNBOUND:                -1.104
REMARK SMILES CC(C)=CCC[C@H](C)c1ccc(C)cc1
REMARK SMILES IDX 6 1 7 2 8 3 9 4 13 5 12 6 11 7 14 8 10 9 15 10 5 11 4 12
REMARK SMILES IDX 2 13 1 14 3 15
REMARK H PARENT
REMARK Flexibility Score: inf
ROOT
ATOM      1  C   UNL     1     -34.453  36.665  10.022  1.00  0.00     0.012 C 
ENDROOT
BRANCH   1   2
ATOM      2  C   UNL     1     -35.956  37.003   9.899  1.00  0.00     0.016 C 
ATOM      3  C   UNL     1     -36.821  35.759   9.639  1.00  0.00     0.013 C 
BRANCH   2   4
ATOM      4  C   UNL     1     -36.195  38.139   8.913  1.00  0.00    -0.045 A 
ATOM      5  C   UNL     1     -36.634  41.432   6.147  1.00  0.00     0.044 C 
ATOM      6  C   UNL     1     -36.512  40.293   7.115  1.00  0.00    -0.051 A 
ATOM      7  C   UNL     1     -36.788  38.983   6.704  1.00  0.00     0.004 A 
ATOM      8  C   UNL     1     -36.047  40.521   8.418  1.00  0.00     0.004 A 
ATOM      9  C   UNL     1     -36.635  37.915   7.593  1.00  0.00     0.004 A 
ATOM     10  C   UNL     1     -35.893  39.455   9.308  1.00  0.00     0.004 A 
ENDBRANCH   2   4
ENDBRANCH   1   2
BRANCH   1  11
ATOM     11  C   UNL     1     -33.685  36.694   8.688  1.00  0.00     0.028 C 
BRANCH  11  12
ATOM     12  C   UNL     1     -32.503  37.625   8.772  1.00  0.00    -0.028 C 
ATOM     13  C   UNL     1     -32.238  38.597   7.870  1.00  0.00    -0.080 C 
ATOM     14  C   UNL     1     -31.038  39.480   8.096  1.00  0.00     0.039 C 
ATOM     15  C   UNL     1     -33.096  38.804   6.642  1.00  0.00     0.039 C 
ENDBRANCH  11  12
ENDBRANCH   1  11
TORSDOF 4
ENDMDL
MODEL 3
REMARK VINA RESULT:    -5.993      1.355      4.654
REMARK INTER + INTRA:          -8.498
REMARK INTER:                  -7.206
REMARK INTRA:                  -1.292
REMARK UNBOUND:                -1.104
REMARK SMILES CC(C)=CCC[C@H](C)c1ccc(C)cc1
REMARK SMILES IDX 6 1 7 2 8 3 9 4 13 5 12 6 11 7 14 8 10 9 15 10 5 11 4 12
REMARK SMILES IDX 2 13 1 14 3 15
REMARK H PARENT
REMARK Flexibility Score: inf
ROOT
ATOM      1  C   UNL     1     -33.356  38.822   6.175  1.00  0.00     0.012 C 
ENDROOT
BRANCH   1   2
ATOM      2  C   UNL     1     -33.093  38.572   7.676  1.00  0.00     0.016 C 
ATOM      3  C   UNL     1     -31.653  38.107   7.954  1.00  0.00     0.013 C 
BRANCH   2   4
ATOM      4  C   UNL     1     -34.161  37.677   8.292  1.00  0.00    -0.045 A 
ATOM      5  C   UNL     1     -37.357  35.328  10.009  1.00  0.00     0.044 C 
ATOM      6  C   UNL     1     -36.228  36.128   9.432  1.00  0.00    -0.051 A 
ATOM      7  C   UNL     1     -35.539  35.666   8.302  1.00  0.00     0.004 A 
ATOM      8  C   UNL     1     -35.902  37.380   9.971  1.00  0.00     0.004 A 
ATOM      9  C   UNL     1     -34.513  36.431   7.738  1.00  0.00     0.004 A 
ATOM     10  C   UNL     1     -34.877  38.145   9.408  1.00  0.00     0.004 A 
ENDBRANCH   2   4
ENDBRANCH   1   2
BRANCH   1  11
ATOM     11  C   UNL     1     -34.314  39.991   5.885  1.00  0.00     0.028 C 
BRANCH  11  12
ATOM     12  C   UNL     1     -35.750  39.557   6.038  1.00  0.00    -0.028 C 
ATOM     13  C   UNL     1     -36.623  40.118   6.904  1.00  0.00    -0.080 C 
ATOM     14  C   UNL     1     -38.041  39.606   6.927  1.00  0.00     0.039 C 
ATOM     15  C   UNL     1     -36.213  41.221   7.853  1.00  0.00     0.039 C 
ENDBRANCH  11  12
ENDBRANCH   1  11
TORSDOF 4
ENDMDL
MODEL 4
REMARK VINA RESULT:    -5.898      2.382      5.700
REMARK INTER + INTRA:          -8.381
REMARK INTER:                  -7.496
REMARK INTRA:                  -0.885
REMARK UNBOUND:                -1.104
REMARK SMILES CC(C)=CCC[C@H](C)c1ccc(C)cc1
REMARK SMILES IDX 6 1 7 2 8 3 9 4 13 5 12 6 11 7 14 8 10 9 15 10 5 11 4 12
REMARK SMILES IDX 2 13 1 14 3 15
REMARK H PARENT
REMARK Flexibility Score: inf
ROOT
ATOM      1  C   UNL     1     -33.054  39.613   6.517  1.00  0.00     0.012 C 
ENDROOT
BRANCH   1   2
ATOM      2  C   UNL     1     -32.697  38.893   7.836  1.00  0.00     0.016 C 
ATOM      3  C   UNL     1     -31.354  38.147   7.757  1.00  0.00     0.013 C 
BRANCH   2   4
ATOM      4  C   UNL     1     -33.851  38.035   8.336  1.00  0.00    -0.045 A 
ATOM      5  C   UNL     1     -37.038  35.627   9.990  1.00  0.00     0.044 C 
ATOM      6  C   UNL     1     -35.934  36.445   9.390  1.00  0.00    -0.051 A 
ATOM      7  C   UNL     1     -36.229  37.602   8.658  1.00  0.00     0.004 A 
ATOM      8  C   UNL     1     -34.594  36.102   9.621  1.00  0.00     0.004 A 
ATOM      9  C   UNL     1     -35.200  38.390   8.133  1.00  0.00     0.004 A 
ATOM     10  C   UNL     1     -33.565  36.888   9.098  1.00  0.00     0.004 A 
ENDBRANCH   2   4
ENDBRANCH   1   2
BRANCH   1  11
ATOM     11  C   UNL     1     -32.579  41.075   6.444  1.00  0.00     0.028 C 
BRANCH  11  12
ATOM     12  C   UNL     1     -33.219  41.899   7.533  1.00  0.00    -0.028 C 
ATOM     13  C   UNL     1     -32.547  42.416   8.586  1.00  0.00    -0.080 C 
ATOM     14  C   UNL     1     -33.308  43.252   9.584  1.00  0.00     0.039 C 
ATOM     15  C   UNL     1     -31.071  42.163   8.796  1.00  0.00     0.039 C 
ENDBRANCH  11  12
ENDBRANCH   1  11
TORSDOF 4
ENDMDL
MODEL 5
REMARK VINA RESULT:    -5.794      1.448      2.075
REMARK INTER + INTRA:          -8.252
REMARK INTER:                  -6.931
REMARK INTRA:                  -1.321
REMARK UNBOUND:                -1.104
REMARK SMILES CC(C)=CCC[C@H](C)c1ccc(C)cc1
REMARK SMILES IDX 6 1 7 2 8 3 9 4 13 5 12 6 11 7 14 8 10 9 15 10 5 11 4 12
REMARK SMILES IDX 2 13 1 14 3 15
REMARK H PARENT
REMARK Flexibility Score: inf
ROOT
ATOM      1  C   UNL     1     -31.618  38.174   7.735  1.00  0.00     0.012 C 
ENDROOT
BRANCH   1   2
ATOM      2  C   UNL     1     -32.012  39.584   7.241  1.00  0.00     0.016 C 
ATOM      3  C   UNL     1     -31.368  40.704   8.077  1.00  0.00     0.013 C 
BRANCH   2   4
ATOM      4  C   UNL     1     -33.520  39.721   7.081  1.00  0.00    -0.045 A 
ATOM      5  C   UNL     1     -37.817  39.858   6.625  1.00  0.00     0.044 C 
ATOM      6  C   UNL     1     -36.324  39.837   6.767  1.00  0.00    -0.051 A 
ATOM      7  C   UNL     1     -35.710  40.453   7.865  1.00  0.00     0.004 A 
ATOM      8  C   UNL     1     -35.537  39.136   5.843  1.00  0.00     0.004 A 
ATOM      9  C   UNL     1     -34.322  40.399   8.022  1.00  0.00     0.004 A 
ATOM     10  C   UNL     1     -34.149  39.081   5.998  1.00  0.00     0.004 A 
ENDBRANCH   2   4
ENDBRANCH   1   2
BRANCH   1  11
ATOM     11  C   UNL     1     -32.503  37.630   8.871  1.00  0.00     0.028 C 
BRANCH  11  12
ATOM     12  C   UNL     1     -33.472  36.601   8.347  1.00  0.00    -0.028 C 
ATOM     13  C   UNL     1     -34.741  36.460   8.791  1.00  0.00    -0.080 C 
ATOM     14  C   UNL     1     -35.613  35.409   8.154  1.00  0.00     0.039 C 
ATOM     15  C   UNL     1     -35.295  37.308   9.914  1.00  0.00     0.039 C 
ENDBRANCH  11  12
ENDBRANCH   1  11
TORSDOF 4
ENDMDL
MODEL 6
REMARK VINA RESULT:    -5.791      2.334      2.674
REMARK INTER + INTRA:          -8.249
REMARK INTER:                  -7.026
REMARK INTRA:                  -1.223
REMARK UNBOUND:                -1.104
REMARK SMILES CC(C)=CCC[C@H](C)c1ccc(C)cc1
REMARK SMILES IDX 6 1 7 2 8 3 9 4 13 5 12 6 11 7 14 8 10 9 15 10 5 11 4 12
REMARK SMILES IDX 2 13 1 14 3 15
REMARK H PARENT
REMARK Flexibility Score: inf
ROOT
ATOM      1  C   UNL     1     -33.201  37.891   7.879  1.00  0.00     0.012 C 
ENDROOT
BRANCH   1   2
ATOM      2  C   UNL     1     -34.501  38.400   7.218  1.00  0.00     0.016 C 
ATOM      3  C   UNL     1     -34.368  38.552   5.693  1.00  0.00     0.013 C 
BRANCH   2   4
ATOM      4  C   UNL     1     -35.038  39.641   7.918  1.00  0.00    -0.045 A 
ATOM      5  C   UNL     1     -36.480  43.301   9.710  1.00  0.00     0.044 C 
ATOM      6  C   UNL     1     -35.974  42.020   9.118  1.00  0.00    -0.051 A 
ATOM      7  C   UNL     1     -36.854  40.959   8.872  1.00  0.00     0.004 A 
ATOM      8  C   UNL     1     -34.631  41.902   8.733  1.00  0.00     0.004 A 
ATOM      9  C   UNL     1     -36.393  39.779   8.281  1.00  0.00     0.004 A 
ATOM     10  C   UNL     1     -34.168  40.724   8.142  1.00  0.00     0.004 A 
ENDBRANCH   2   4
ENDBRANCH   1   2
BRANCH   1  11
ATOM     11  C   UNL     1     -33.416  37.144   9.207  1.00  0.00     0.028 C 
BRANCH  11  12
ATOM     12  C   UNL     1     -34.667  36.304   9.152  1.00  0.00    -0.028 C 
ATOM     13  C   UNL     1     -35.737  36.484   9.957  1.00  0.00    -0.080 C 
ATOM     14  C   UNL     1     -36.937  35.592   9.769  1.00  0.00     0.039 C 
ATOM     15  C   UNL     1     -35.753  37.536  11.044  1.00  0.00     0.039 C 
ENDBRANCH  11  12
ENDBRANCH   1  11
TORSDOF 4
ENDMDL
MODEL 7
REMARK VINA RESULT:    -5.783      2.697      3.663
REMARK INTER + INTRA:          -8.239
REMARK INTER:                  -7.594
REMARK INTRA:                  -0.645
REMARK UNBOUND:                -1.104
REMARK SMILES CC(C)=CCC[C@H](C)c1ccc(C)cc1
REMARK SMILES IDX 6 1 7 2 8 3 9 4 13 5 12 6 11 7 14 8 10 9 15 10 5 11 4 12
REMARK SMILES IDX 2 13 1 14 3 15
REMARK H PARENT
REMARK Flexibility Score: inf
ROOT
ATOM      1  C   UNL     1     -33.813  38.068   7.436  1.00  0.00     0.012 C 
ENDROOT
BRANCH   1   2
ATOM      2  C   UNL     1     -32.604  38.997   7.189  1.00  0.00     0.016 C 
ATOM      3  C   UNL     1     -31.268  38.345   7.583  1.00  0.00     0.013 C 
BRANCH   2   4
ATOM      4  C   UNL     1     -32.822  40.376   7.799  1.00  0.00    -0.045 A 
ATOM      5  C   UNL     1     -33.569  44.177   9.718  1.00  0.00     0.044 C 
ATOM      6  C   UNL     1     -33.311  42.873   9.024  1.00  0.00    -0.051 A 
ATOM      7  C   UNL     1     -31.999  42.456   8.768  1.00  0.00     0.004 A 
ATOM      8  C   UNL     1     -34.378  42.024   8.696  1.00  0.00     0.004 A 
ATOM      9  C   UNL     1     -31.754  41.221   8.159  1.00  0.00     0.004 A 
ATOM     10  C   UNL     1     -34.135  40.790   8.087  1.00  0.00     0.004 A 
ENDBRANCH   2   4
ENDBRANCH   1   2
BRANCH   1  11
ATOM     11  C   UNL     1     -33.611  37.053   8.575  1.00  0.00     0.028 C 
BRANCH  11  12
ATOM     12  C   UNL     1     -34.904  36.810   9.311  1.00  0.00    -0.028 C 
ATOM     13  C   UNL     1     -35.714  35.751   9.090  1.00  0.00    -0.080 C 
ATOM     14  C   UNL     1     -36.962  35.614   9.924  1.00  0.00     0.039 C 
ATOM     15  C   UNL     1     -35.413  34.721   8.025  1.00  0.00     0.039 C 
ENDBRANCH  11  12
ENDBRANCH   1  11
TORSDOF 4
ENDMDL
MODEL 8
REMARK VINA RESULT:    -5.700      3.020      4.418
REMARK INTER + INTRA:          -8.136
REMARK INTER:                  -7.433
REMARK INTRA:                  -0.704
REMARK UNBOUND:                -1.104
REMARK SMILES CC(C)=CCC[C@H](C)c1ccc(C)cc1
REMARK SMILES IDX 6 1 7 2 8 3 9 4 13 5 12 6 11 7 14 8 10 9 15 10 5 11 4 12
REMARK SMILES IDX 2 13 1 14 3 15
REMARK H PARENT
REMARK Flexibility Score: inf
ROOT
ATOM      1  C   UNL     1     -33.355  38.806   6.723  1.00  0.00     0.012 C 
ENDROOT
BRANCH   1   2
ATOM      2  C   UNL     1     -31.872  38.923   7.138  1.00  0.00     0.016 C 
ATOM      3  C   UNL     1     -31.520  38.022   8.334  1.00  0.00     0.013 C 
BRANCH   2   4
ATOM      4  C   UNL     1     -31.453  40.377   7.316  1.00  0.00    -0.045 A 
ATOM      5  C   UNL     1     -30.504  44.569   7.778  1.00  0.00     0.044 C 
ATOM      6  C   UNL     1     -30.804  43.110   7.606  1.00  0.00    -0.051 A 
ATOM      7  C   UNL     1     -30.540  42.207   8.644  1.00  0.00     0.004 A 
ATOM      8  C   UNL     1     -31.422  42.649   6.435  1.00  0.00     0.004 A 
ATOM      9  C   UNL     1     -30.858  40.853   8.502  1.00  0.00     0.004 A 
ATOM     10  C   UNL     1     -31.740  41.296   6.291  1.00  0.00     0.004 A 
ENDBRANCH   2   4
ENDBRANCH   1   2
BRANCH   1  11
ATOM     11  C   UNL     1     -34.303  38.395   7.864  1.00  0.00     0.028 C 
BRANCH  11  12
ATOM     12  C   UNL     1     -34.964  37.075   7.559  1.00  0.00    -0.028 C 
ATOM     13  C   UNL     1     -35.028  36.041   8.428  1.00  0.00    -0.080 C 
ATOM     14  C   UNL     1     -35.752  34.789   8.003  1.00  0.00     0.039 C 
ATOM     15  C   UNL     1     -34.381  36.101   9.793  1.00  0.00     0.039 C 
ENDBRANCH  11  12
ENDBRANCH   1  11
TORSDOF 4
ENDMDL
MODEL 9
REMARK VINA RESULT:    -5.690      2.437      5.477
REMARK INTER + INTRA:          -8.124
REMARK INTER:                  -7.131
REMARK INTRA:                  -0.993
REMARK UNBOUND:                -1.104
REMARK SMILES CC(C)=CCC[C@H](C)c1ccc(C)cc1
REMARK SMILES IDX 6 1 7 2 8 3 9 4 13 5 12 6 11 7 14 8 10 9 15 10 5 11 4 12
REMARK SMILES IDX 2 13 1 14 3 15
REMARK H PARENT
REMARK Flexibility Score: inf
ROOT
ATOM      1  C   UNL     1     -31.705  39.847   7.903  1.00  0.00     0.012 C 
ENDROOT
BRANCH   1   2
ATOM      2  C   UNL     1     -32.415  38.808   7.008  1.00  0.00     0.016 C 
ATOM      3  C   UNL     1     -32.916  39.411   5.685  1.00  0.00     0.013 C 
BRANCH   2   4
ATOM      4  C   UNL     1     -33.480  38.038   7.779  1.00  0.00    -0.045 A 
ATOM      5  C   UNL     1     -36.560  35.735   9.752  1.00  0.00     0.044 C 
ATOM      6  C   UNL     1     -35.497  36.558   9.088  1.00  0.00    -0.051 A 
ATOM      7  C   UNL     1     -34.172  36.499   9.539  1.00  0.00     0.004 A 
ATOM      8  C   UNL     1     -35.806  37.334   7.962  1.00  0.00     0.004 A 
ATOM      9  C   UNL     1     -33.172  37.233   8.894  1.00  0.00     0.004 A 
ATOM     10  C   UNL     1     -34.807  38.068   7.316  1.00  0.00     0.004 A 
ENDBRANCH   2   4
ENDBRANCH   1   2
BRANCH   1  11
ATOM     11  C   UNL     1     -31.839  41.301   7.416  1.00  0.00     0.028 C 
BRANCH  11  12
ATOM     12  C   UNL     1     -32.307  42.199   8.533  1.00  0.00    -0.028 C 
ATOM     13  C   UNL     1     -33.606  42.449   8.810  1.00  0.00    -0.080 C 
ATOM     14  C   UNL     1     -33.932  43.341   9.980  1.00  0.00     0.039 C 
ATOM     15  C   UNL     1     -34.728  41.878   7.972  1.00  0.00     0.039 C 
ENDBRANCH  11  12
ENDBRANCH   1  11
TORSDOF 4
ENDMDL
