MODEL 1
REMARK VINA RESULT:    -5.634      0.000      0.000
REMARK INTER + INTRA:          -6.093
REMARK INTER:                  -5.964
REMARK INTRA:                  -0.129
REMARK UNBOUND:                -0.129
REMARK SMILES C=C(C)[C@@H]1CC=C(C)CC1
REMARK SMILES IDX 8 1 7 2 6 3 5 4 4 5 10 6 9 7 2 8 1 9 3 10
REMARK H PARENT
REMARK Flexibility Score: inf
ROOT
ATOM      1  C   UNL     1     134.886 139.333 123.372  1.00  0.00     0.039 C 
ATOM      2  C   UNL     1     135.981 138.320 123.559  1.00  0.00    -0.077 C 
ATOM      3  C   UNL     1     136.009 137.586 124.693  1.00  0.00    -0.027 C 
ATOM      4  C   UNL     1     137.034 136.510 124.950  1.00  0.00     0.035 C 
ATOM      5  C   UNL     1     138.308 136.706 124.108  1.00  0.00     0.018 C 
ATOM      6  C   UNL     1     137.929 136.966 122.643  1.00  0.00     0.013 C 
ATOM      7  C   UNL     1     137.094 138.247 122.532  1.00  0.00     0.031 C 
ENDROOT
BRANCH   5   8
ATOM      8  C   UNL     1     139.249 135.516 124.241  1.00  0.00    -0.077 C 
ATOM      9  C   UNL     1     139.364 134.877 125.415  1.00  0.00     0.008 C 
ATOM     10  C   UNL     1     140.060 135.020 123.069  1.00  0.00     0.039 C 
ENDBRANCH   5   8
TORSDOF 1
ENDMDL
MODEL 2
REMARK VINA RESULT:    -5.549      0.963      4.624
REMARK INTER + INTRA:          -6.002
REMARK INTER:                  -5.872
REMARK INTRA:                  -0.131
REMARK UNBOUND:                -0.129
REMARK SMILES C=C(C)[C@@H]1CC=C(C)CC1
REMARK SMILES IDX 8 1 7 2 6 3 5 4 4 5 10 6 9 7 2 8 1 9 3 10
REMARK H PARENT
REMARK Flexibility Score: inf
ROOT
ATOM      1  C   UNL     1     139.988 134.875 123.077  1.00  0.00     0.039 C 
ATOM      2  C   UNL     1     138.897 135.890 123.274  1.00  0.00    -0.077 C 
ATOM      3  C   UNL     1     138.602 136.740 122.267  1.00  0.00    -0.027 C 
ATOM      4  C   UNL     1     137.490 137.756 122.348  1.00  0.00     0.035 C 
ATOM      5  C   UNL     1     137.121 138.101 123.802  1.00  0.00     0.018 C 
ATOM      6  C   UNL     1     136.940 136.810 124.614  1.00  0.00     0.013 C 
ATOM      7  C   UNL     1     138.252 136.015 124.641  1.00  0.00     0.031 C 
ENDROOT
BRANCH   5   8
ATOM      8  C   UNL     1     135.881 138.981 123.866  1.00  0.00    -0.077 C 
ATOM      9  C   UNL     1     134.877 138.793 122.996  1.00  0.00     0.008 C 
ATOM     10  C   UNL     1     135.740 140.069 124.903  1.00  0.00     0.039 C 
ENDBRANCH   5   8
TORSDOF 1
ENDMDL
MODEL 3
REMARK VINA RESULT:    -5.077      0.905      2.116
REMARK INTER + INTRA:          -5.503
REMARK INTER:                  -5.378
REMARK INTRA:                  -0.124
REMARK UNBOUND:                -0.129
REMARK SMILES C=C(C)[C@@H]1CC=C(C)CC1
REMARK SMILES IDX 8 1 7 2 6 3 5 4 4 5 10 6 9 7 2 8 1 9 3 10
REMARK H PARENT
REMARK Flexibility Score: inf
ROOT
ATOM      1  C   UNL     1     135.145 139.984 124.099  1.00  0.00     0.039 C 
ATOM      2  C   UNL     1     136.070 138.818 123.883  1.00  0.00    -0.077 C 
ATOM      3  C   UNL     1     136.852 138.797 122.782  1.00  0.00    -0.027 C 
ATOM      4  C   UNL     1     137.849 137.700 122.504  1.00  0.00     0.035 C 
ATOM      5  C   UNL     1     137.508 136.398 123.251  1.00  0.00     0.018 C 
ATOM      6  C   UNL     1     137.211 136.707 124.726  1.00  0.00     0.013 C 
ATOM      7  C   UNL     1     136.000 137.642 124.837  1.00  0.00     0.031 C 
ENDROOT
BRANCH   5   8
ATOM      8  C   UNL     1     138.619 135.368 123.107  1.00  0.00    -0.077 C 
ATOM      9  C   UNL     1     138.928 134.876 121.897  1.00  0.00     0.008 C 
ATOM     10  C   UNL     1     139.403 134.884 124.302  1.00  0.00     0.039 C 
ENDBRANCH   5   8
TORSDOF 1
ENDMDL
MODEL 4
REMARK VINA RESULT:    -4.697     14.180     16.635
REMARK INTER + INTRA:          -5.101
REMARK INTER:                  -4.973
REMARK INTRA:                  -0.128
REMARK UNBOUND:                -0.129
REMARK SMILES C=C(C)[C@@H]1CC=C(C)CC1
REMARK SMILES IDX 8 1 7 2 6 3 5 4 4 5 10 6 9 7 2 8 1 9 3 10
REMARK H PARENT
REMARK Flexibility Score: inf
ROOT
ATOM      1  C   UNL     1     139.579 155.122 125.245  1.00  0.00     0.039 C 
ATOM      2  C   UNL     1     138.507 154.345 124.533  1.00  0.00    -0.077 C 
ATOM      3  C   UNL     1     137.349 154.083 125.178  1.00  0.00    -0.027 C 
ATOM      4  C   UNL     1     136.194 153.358 124.532  1.00  0.00     0.035 C 
ATOM      5  C   UNL     1     136.642 152.497 123.338  1.00  0.00     0.018 C 
ATOM      6  C   UNL     1     137.548 153.321 122.411  1.00  0.00     0.013 C 
ATOM      7  C   UNL     1     138.808 153.767 123.164  1.00  0.00     0.031 C 
ENDROOT
BRANCH   5   8
ATOM      8  C   UNL     1     135.447 151.924 122.588  1.00  0.00    -0.077 C 
ATOM      9  C   UNL     1     134.885 152.618 121.588  1.00  0.00     0.008 C 
ATOM     10  C   UNL     1     134.875 150.571 122.936  1.00  0.00     0.039 C 
ENDBRANCH   5   8
TORSDOF 1
ENDMDL
MODEL 5
REMARK VINA RESULT:    -4.414     15.068     16.207
REMARK INTER + INTRA:          -4.801
REMARK INTER:                  -4.677
REMARK INTRA:                  -0.124
REMARK UNBOUND:                -0.129
REMARK SMILES C=C(C)[C@@H]1CC=C(C)CC1
REMARK SMILES IDX 8 1 7 2 6 3 5 4 4 5 10 6 9 7 2 8 1 9 3 10
REMARK H PARENT
REMARK Flexibility Score: inf
ROOT
ATOM      1  C   UNL     1     137.978 152.837 120.032  1.00  0.00     0.039 C 
ATOM      2  C   UNL     1     137.275 152.783 121.360  1.00  0.00    -0.077 C 
ATOM      3  C   UNL     1     137.867 153.339 122.439  1.00  0.00    -0.027 C 
ATOM      4  C   UNL     1     137.219 153.382 123.801  1.00  0.00     0.035 C 
ATOM      5  C   UNL     1     136.140 152.297 123.967  1.00  0.00     0.018 C 
ATOM      6  C   UNL     1     135.200 152.306 122.752  1.00  0.00     0.013 C 
ATOM      7  C   UNL     1     135.986 151.991 121.474  1.00  0.00     0.031 C 
ENDROOT
BRANCH   5   8
ATOM      8  C   UNL     1     135.372 152.474 125.270  1.00  0.00    -0.077 C 
ATOM      9  C   UNL     1     134.887 151.402 125.915  1.00  0.00     0.008 C 
ATOM     10  C   UNL     1     135.149 153.839 125.873  1.00  0.00     0.039 C 
ENDBRANCH   5   8
TORSDOF 1
ENDMDL
MODEL 6
REMARK VINA RESULT:    -4.214      1.514      2.615
REMARK INTER + INTRA:          -4.589
REMARK INTER:                  -4.458
REMARK INTRA:                  -0.131
REMARK UNBOUND:                -0.129
REMARK SMILES C=C(C)[C@@H]1CC=C(C)CC1
REMARK SMILES IDX 8 1 7 2 6 3 5 4 4 5 10 6 9 7 2 8 1 9 3 10
REMARK H PARENT
REMARK Flexibility Score: inf
ROOT
ATOM      1  C   UNL     1     137.873 138.251 120.050  1.00  0.00     0.039 C 
ATOM      2  C   UNL     1     137.884 137.497 121.350  1.00  0.00    -0.077 C 
ATOM      3  C   UNL     1     137.335 138.068 122.444  1.00  0.00    -0.027 C 
ATOM      4  C   UNL     1     137.249 137.371 123.780  1.00  0.00     0.035 C 
ATOM      5  C   UNL     1     138.292 136.247 123.918  1.00  0.00     0.018 C 
ATOM      6  C   UNL     1     138.266 135.355 122.668  1.00  0.00     0.013 C 
ATOM      7  C   UNL     1     138.628 136.177 121.425  1.00  0.00     0.031 C 
ENDROOT
BRANCH   5   8
ATOM      8  C   UNL     1     138.071 135.438 125.189  1.00  0.00    -0.077 C 
ATOM      9  C   UNL     1     136.825 135.202 125.627  1.00  0.00     0.008 C 
ATOM     10  C   UNL     1     139.229 134.875 125.975  1.00  0.00     0.039 C 
ENDBRANCH   5   8
TORSDOF 1
ENDMDL
MODEL 7
REMARK VINA RESULT:    -4.029     13.489     15.934
REMARK INTER + INTRA:          -4.393
REMARK INTER:                  -4.270
REMARK INTRA:                  -0.123
REMARK UNBOUND:                -0.129
REMARK SMILES C=C(C)[C@@H]1CC=C(C)CC1
REMARK SMILES IDX 8 1 7 2 6 3 5 4 4 5 10 6 9 7 2 8 1 9 3 10
REMARK H PARENT
REMARK Flexibility Score: inf
ROOT
ATOM      1  C   UNL     1     150.592 134.875 124.610  1.00  0.00     0.039 C 
ATOM      2  C   UNL     1     151.628 135.883 124.194  1.00  0.00    -0.077 C 
ATOM      3  C   UNL     1     151.472 136.537 123.022  1.00  0.00    -0.027 C 
ATOM      4  C   UNL     1     152.426 137.602 122.543  1.00  0.00     0.035 C 
ATOM      5  C   UNL     1     153.815 137.477 123.195  1.00  0.00     0.018 C 
ATOM      6  C   UNL     1     153.664 137.316 124.715  1.00  0.00     0.013 C 
ATOM      7  C   UNL     1     152.880 136.037 125.035  1.00  0.00     0.031 C 
ENDROOT
BRANCH   5   8
ATOM      8  C   UNL     1     154.702 138.663 122.843  1.00  0.00    -0.077 C 
ATOM      9  C   UNL     1     155.124 138.837 121.582  1.00  0.00     0.008 C 
ATOM     10  C   UNL     1     155.117 139.672 123.887  1.00  0.00     0.039 C 
ENDBRANCH   5   8
TORSDOF 1
ENDMDL
MODEL 8
REMARK VINA RESULT:    -3.514     15.249     16.709
REMARK INTER + INTRA:          -3.848
REMARK INTER:                  -3.723
REMARK INTRA:                  -0.125
REMARK UNBOUND:                -0.129
REMARK SMILES C=C(C)[C@@H]1CC=C(C)CC1
REMARK SMILES IDX 8 1 7 2 6 3 5 4 4 5 10 6 9 7 2 8 1 9 3 10
REMARK H PARENT
REMARK Flexibility Score: inf
ROOT
ATOM      1  C   UNL     1     152.761 137.840 119.757  1.00  0.00     0.039 C 
ATOM      2  C   UNL     1     153.250 137.897 121.177  1.00  0.00    -0.077 C 
ATOM      3  C   UNL     1     154.352 138.624 121.463  1.00  0.00    -0.027 C 
ATOM      4  C   UNL     1     154.889 138.786 122.863  1.00  0.00     0.035 C 
ATOM      5  C   UNL     1     154.431 137.652 123.798  1.00  0.00     0.018 C 
ATOM      6  C   UNL     1     152.916 137.440 123.657  1.00  0.00     0.013 C 
ATOM      7  C   UNL     1     152.571 137.030 122.220  1.00  0.00     0.031 C 
ENDROOT
BRANCH   5   8
ATOM      8  C   UNL     1     154.826 137.930 125.242  1.00  0.00    -0.077 C 
ATOM      9  C   UNL     1     154.925 136.918 126.118  1.00  0.00     0.008 C 
ATOM     10  C   UNL     1     155.125 139.329 125.721  1.00  0.00     0.039 C 
ENDBRANCH   5   8
TORSDOF 1
ENDMDL
MODEL 9
REMARK VINA RESULT:    -3.424      1.076      4.568
REMARK INTER + INTRA:          -3.753
REMARK INTER:                  -3.622
REMARK INTRA:                  -0.132
REMARK UNBOUND:                -0.129
REMARK SMILES C=C(C)[C@@H]1CC=C(C)CC1
REMARK SMILES IDX 8 1 7 2 6 3 5 4 4 5 10 6 9 7 2 8 1 9 3 10
REMARK H PARENT
REMARK Flexibility Score: inf
ROOT
ATOM      1  C   UNL     1     140.006 134.875 126.095  1.00  0.00     0.039 C 
ATOM      2  C   UNL     1     139.000 135.680 125.322  1.00  0.00    -0.077 C 
ATOM      3  C   UNL     1     139.434 136.526 124.362  1.00  0.00    -0.027 C 
ATOM      4  C   UNL     1     138.501 137.336 123.497  1.00  0.00     0.035 C 
ATOM      5  C   UNL     1     137.121 137.530 124.151  1.00  0.00     0.018 C 
ATOM      6  C   UNL     1     136.594 136.182 124.665  1.00  0.00     0.013 C 
ATOM      7  C   UNL     1     137.541 135.616 125.731  1.00  0.00     0.031 C 
ENDROOT
BRANCH   5   8
ATOM      8  C   UNL     1     136.139 138.185 123.190  1.00  0.00    -0.077 C 
ATOM      9  C   UNL     1     136.377 138.169 121.869  1.00  0.00     0.008 C 
ATOM     10  C   UNL     1     134.879 138.852 123.686  1.00  0.00     0.039 C 
ENDBRANCH   5   8
TORSDOF 1
ENDMDL
