MODEL 1
REMARK VINA RESULT:    -4.396      0.000      0.000
REMARK INTER + INTRA:          -6.239
REMARK INTER:                  -6.195
REMARK INTRA:                  -0.043
REMARK UNBOUND:                -0.043
REMARK SMILES CC1=CCC(=C(C)C)C(=O)CC(C)=CCC1
REMARK SMILES IDX 12 1 14 2 13 3 15 4 16 5 2 6 1 7 3 8 11 10 9 11 10 12 5 13
REMARK SMILES IDX 6 14 7 15 8 16 4 17
REMARK H PARENT
REMARK Flexibility Score: 60.00
ROOT
ATOM      1  C   UNL     1      -9.061 -28.876 -19.167  1.00  0.00    -0.070 C 
ATOM      2  C   UNL     1     -10.092 -27.995 -19.020  1.00  0.00    -0.027 C 
ATOM      3  C   UNL     1      -9.254 -29.980 -20.181  1.00  0.00     0.039 C 
ENDROOT
BRANCH   2   4
ATOM      4  C   UNL     1     -10.280 -26.811 -18.078  1.00  0.00     0.032 C 
BRANCH   4   5
ATOM      5  C   UNL     1      -9.477 -25.539 -18.374  1.00  0.00     0.034 C 
BRANCH   5   6
ATOM      6  C   UNL     1      -8.366 -25.135 -17.393  1.00  0.00    -0.077 C 
ATOM      7  C   UNL     1      -8.839 -24.492 -16.107  1.00  0.00     0.039 C 
ATOM      8  C   UNL     1      -7.011 -25.200 -17.555  1.00  0.00    -0.023 CG0
ATOM      9  G   UNL     1      -6.172 -25.710 -18.710  1.00  0.00     0.000 G0
ENDBRANCH   5   6
ENDBRANCH   4   5
ENDBRANCH   2   4
BRANCH   1  10
ATOM     10  C   UNL     1      -7.735 -28.861 -18.424  1.00  0.00     0.111 C 
BRANCH  10  11
ATOM     11  C   UNL     1      -6.666 -28.157 -19.204  1.00  0.00     0.163 C 
ATOM     12  O   UNL     1      -6.512 -28.441 -20.423  1.00  0.00    -0.294 OA
BRANCH  11  13
ATOM     13  C   UNL     1      -5.771 -27.170 -18.548  1.00  0.00    -0.002 C 
ATOM     14  C   UNL     1      -4.679 -27.563 -17.829  1.00  0.00    -0.069 C 
ATOM     15  C   UNL     1      -3.829 -26.569 -17.071  1.00  0.00     0.039 C 
ATOM     16  C   UNL     1      -4.263 -29.016 -17.773  1.00  0.00     0.039 C 
BRANCH  13  17
ATOM     17  C   UNL     1      -6.154 -25.714 -18.710  1.00  0.00     0.066 CG0
ATOM     18  G   UNL     1      -7.013 -25.220 -17.562  1.00  0.00     0.000 G0
ENDBRANCH  13  17
ENDBRANCH  11  13
ENDBRANCH  10  11
ENDBRANCH   1  10
TORSDOF 0
ENDMDL
MODEL 2
REMARK VINA RESULT:    -4.183      1.986      4.942
REMARK INTER + INTRA:          -5.938
REMARK INTER:                  -6.038
REMARK INTRA:                   0.100
REMARK UNBOUND:                -0.043
REMARK SMILES CC1=CCC(=C(C)C)C(=O)CC(C)=CCC1
REMARK SMILES IDX 12 1 14 2 13 3 15 4 16 5 2 6 1 7 3 8 11 10 9 11 10 12 5 13
REMARK SMILES IDX 6 14 7 15 8 16 4 17
REMARK H PARENT
REMARK Flexibility Score: 60.00
ROOT
ATOM      1  C   UNL     1      -7.580 -23.470 -16.140  1.00  0.00    -0.070 C 
ATOM      2  C   UNL     1      -6.237 -23.356 -15.928  1.00  0.00    -0.027 C 
ATOM      3  C   UNL     1      -8.364 -22.181 -16.223  1.00  0.00     0.039 C 
ENDROOT
BRANCH   2   4
ATOM      4  C   UNL     1      -5.153 -24.410 -15.735  1.00  0.00     0.032 C 
BRANCH   4   5
ATOM      5  C   UNL     1      -4.223 -24.690 -16.922  1.00  0.00     0.034 C 
BRANCH   5   6
ATOM      6  C   UNL     1      -4.827 -24.700 -18.334  1.00  0.00    -0.077 C 
ATOM      7  C   UNL     1      -4.391 -23.563 -19.233  1.00  0.00     0.039 C 
ATOM      8  C   UNL     1      -5.762 -25.543 -18.864  1.00  0.00    -0.023 CG0
ATOM      9  G   UNL     1      -6.474 -26.740 -18.263  1.00  0.00     0.000 G0
ENDBRANCH   5   6
ENDBRANCH   4   5
ENDBRANCH   2   4
BRANCH   1  10
ATOM     10  C   UNL     1      -8.370 -24.758 -16.310  1.00  0.00     0.111 C 
BRANCH  10  11
ATOM     11  C   UNL     1      -8.432 -25.190 -17.743  1.00  0.00     0.163 C 
ATOM     12  O   UNL     1      -8.908 -24.398 -18.601  1.00  0.00    -0.294 OA
BRANCH  11  13
ATOM     13  C   UNL     1      -7.979 -26.546 -18.149  1.00  0.00    -0.002 C 
ATOM     14  C   UNL     1      -8.869 -27.551 -18.396  1.00  0.00    -0.069 C 
ATOM     15  C   UNL     1      -8.410 -28.959 -18.703  1.00  0.00     0.039 C 
ATOM     16  C   UNL     1     -10.359 -27.294 -18.389  1.00  0.00     0.039 C 
BRANCH  13  17
ATOM     17  C   UNL     1      -6.481 -26.744 -18.251  1.00  0.00     0.066 CG0
ATOM     18  G   UNL     1      -5.789 -25.542 -18.863  1.00  0.00     0.000 G0
ENDBRANCH  13  17
ENDBRANCH  11  13
ENDBRANCH  10  11
ENDBRANCH   1  10
TORSDOF 0
ENDMDL
MODEL 3
REMARK VINA RESULT:    -4.128      3.356      5.384
REMARK INTER + INTRA:          -5.861
REMARK INTER:                  -5.970
REMARK INTRA:                   0.108
REMARK UNBOUND:                -0.043
REMARK SMILES CC1=CCC(=C(C)C)C(=O)CC(C)=CCC1
REMARK SMILES IDX 12 1 14 2 13 3 15 4 16 5 2 6 1 7 3 8 11 10 9 11 10 12 5 13
REMARK SMILES IDX 6 14 7 15 8 16 4 17
REMARK H PARENT
REMARK Flexibility Score: 60.00
ROOT
ATOM      1  C   UNL     1      -5.349 -25.086 -17.450  1.00  0.00    -0.070 C 
ATOM      2  C   UNL     1      -6.379 -25.960 -17.634  1.00  0.00    -0.027 C 
ATOM      3  C   UNL     1      -4.244 -25.529 -16.520  1.00  0.00     0.039 C 
ENDROOT
BRANCH   2   4
ATOM      4  C   UNL     1      -7.670 -25.843 -18.437  1.00  0.00     0.032 C 
BRANCH   4   5
ATOM      5  C   UNL     1      -8.971 -25.638 -17.653  1.00  0.00     0.034 C 
BRANCH   5   6
ATOM      6  C   UNL     1      -9.055 -24.455 -16.677  1.00  0.00    -0.077 C 
ATOM      7  C   UNL     1      -9.573 -24.789 -15.296  1.00  0.00     0.039 C 
ATOM      8  C   UNL     1      -8.803 -23.131 -16.907  1.00  0.00    -0.023 CG0
ATOM      9  G   UNL     1      -8.339 -22.411 -18.158  1.00  0.00     0.000 G0
ENDBRANCH   5   6
ENDBRANCH   4   5
ENDBRANCH   2   4
BRANCH   1  10
ATOM     10  C   UNL     1      -5.191 -23.714 -18.087  1.00  0.00     0.111 C 
BRANCH  10  11
ATOM     11  C   UNL     1      -5.953 -22.662 -17.341  1.00  0.00     0.163 C 
ATOM     12  O   UNL     1      -5.757 -22.528 -16.102  1.00  0.00    -0.294 OA
BRANCH  11  13
ATOM     13  C   UNL     1      -6.956 -21.813 -18.035  1.00  0.00    -0.002 C 
ATOM     14  C   UNL     1      -6.639 -20.572 -18.505  1.00  0.00    -0.069 C 
ATOM     15  C   UNL     1      -7.683 -19.664 -19.115  1.00  0.00     0.039 C 
ATOM     16  C   UNL     1      -5.218 -20.057 -18.451  1.00  0.00     0.039 C 
BRANCH  13  17
ATOM     17  C   UNL     1      -8.345 -22.401 -18.168  1.00  0.00     0.066 CG0
ATOM     18  G   UNL     1      -8.776 -23.135 -16.912  1.00  0.00     0.000 G0
ENDBRANCH  13  17
ENDBRANCH  11  13
ENDBRANCH  10  11
ENDBRANCH   1  10
TORSDOF 0
ENDMDL
MODEL 4
REMARK VINA RESULT:    -4.079      1.926      4.056
REMARK INTER + INTRA:          -5.792
REMARK INTER:                  -6.068
REMARK INTRA:                   0.276
REMARK UNBOUND:                -0.043
REMARK SMILES CC1=CCC(=C(C)C)C(=O)CC(C)=CCC1
REMARK SMILES IDX 12 1 14 2 13 3 15 4 16 5 2 6 1 7 3 8 11 10 9 11 10 12 5 13
REMARK SMILES IDX 6 14 7 15 8 16 4 17
REMARK H PARENT
REMARK Flexibility Score: 60.00
ROOT
ATOM      1  C   UNL     1      -8.162 -25.211 -17.549  1.00  0.00    -0.070 C 
ATOM      2  C   UNL     1      -9.402 -25.779 -17.514  1.00  0.00    -0.027 C 
ATOM      3  C   UNL     1      -7.738 -24.437 -16.323  1.00  0.00     0.039 C 
ENDROOT
BRANCH   2   4
ATOM      4  C   UNL     1     -10.179 -26.570 -18.561  1.00  0.00     0.032 C 
BRANCH   4   5
ATOM      5  C   UNL     1     -10.217 -28.095 -18.407  1.00  0.00     0.034 C 
BRANCH   5   6
ATOM      6  C   UNL     1      -9.485 -28.950 -19.452  1.00  0.00    -0.077 C 
ATOM      7  C   UNL     1     -10.376 -29.653 -20.453  1.00  0.00     0.039 C 
ATOM      8  C   UNL     1      -8.151 -29.228 -19.555  1.00  0.00    -0.023 CG0
ATOM      9  G   UNL     1      -6.974 -28.773 -18.714  1.00  0.00     0.000 G0
ENDBRANCH   5   6
ENDBRANCH   4   5
ENDBRANCH   2   4
BRANCH   1  10
ATOM     10  C   UNL     1      -7.158 -25.282 -18.689  1.00  0.00     0.111 C 
BRANCH  10  11
ATOM     11  C   UNL     1      -6.156 -26.377 -18.483  1.00  0.00     0.163 C 
ATOM     12  O   UNL     1      -5.247 -26.220 -17.623  1.00  0.00    -0.294 OA
BRANCH  11  13
ATOM     13  C   UNL     1      -6.202 -27.614 -19.304  1.00  0.00    -0.002 C 
ATOM     14  C   UNL     1      -5.604 -27.681 -20.529  1.00  0.00    -0.069 C 
ATOM     15  C   UNL     1      -5.740 -28.899 -21.413  1.00  0.00     0.039 C 
ATOM     16  C   UNL     1      -4.761 -26.537 -21.049  1.00  0.00     0.039 C 
BRANCH  13  17
ATOM     17  C   UNL     1      -6.966 -28.779 -18.710  1.00  0.00     0.066 CG0
ATOM     18  G   UNL     1      -8.136 -29.195 -19.579  1.00  0.00     0.000 G0
ENDBRANCH  13  17
ENDBRANCH  11  13
ENDBRANCH  10  11
ENDBRANCH   1  10
TORSDOF 0
ENDMDL
MODEL 5
REMARK VINA RESULT:    -3.914      2.329      4.597
REMARK INTER + INTRA:          -5.559
REMARK INTER:                  -5.819
REMARK INTRA:                   0.260
REMARK UNBOUND:                -0.043
REMARK SMILES CC1=CCC(=C(C)C)C(=O)CC(C)=CCC1
REMARK SMILES IDX 12 1 14 2 13 3 15 4 16 5 2 6 1 7 3 8 11 10 9 11 10 12 5 13
REMARK SMILES IDX 6 14 7 15 8 16 4 17
REMARK H PARENT
REMARK Flexibility Score: 60.00
ROOT
ATOM      1  C   UNL     1      -4.787 -22.697 -16.713  1.00  0.00    -0.070 C 
ATOM      2  C   UNL     1      -5.830 -21.879 -17.035  1.00  0.00    -0.027 C 
ATOM      3  C   UNL     1      -3.440 -22.037 -16.534  1.00  0.00     0.039 C 
ENDROOT
BRANCH   2   4
ATOM      4  C   UNL     1      -7.292 -22.182 -17.342  1.00  0.00     0.032 C 
BRANCH   4   5
ATOM      5  C   UNL     1      -8.136 -22.795 -16.219  1.00  0.00     0.034 C 
BRANCH   5   6
ATOM      6  C   UNL     1      -8.686 -24.216 -16.414  1.00  0.00    -0.077 C 
ATOM      7  C   UNL     1      -9.684 -24.673 -15.372  1.00  0.00     0.039 C 
ATOM      8  C   UNL     1      -8.341 -25.151 -17.348  1.00  0.00    -0.023 CG0
ATOM      9  G   UNL     1      -7.351 -25.091 -18.495  1.00  0.00     0.000 G0
ENDBRANCH   5   6
ENDBRANCH   4   5
ENDBRANCH   2   4
BRANCH   1  10
ATOM     10  C   UNL     1      -4.838 -24.202 -16.509  1.00  0.00     0.111 C 
BRANCH  10  11
ATOM     11  C   UNL     1      -4.893 -24.941 -17.812  1.00  0.00     0.163 C 
ATOM     12  O   UNL     1      -3.956 -24.787 -18.642  1.00  0.00    -0.294 OA
BRANCH  11  13
ATOM     13  C   UNL     1      -6.051 -25.809 -18.146  1.00  0.00    -0.002 C 
ATOM     14  C   UNL     1      -5.948 -27.170 -18.146  1.00  0.00    -0.069 C 
ATOM     15  C   UNL     1      -7.092 -28.053 -18.589  1.00  0.00     0.039 C 
ATOM     16  C   UNL     1      -4.681 -27.856 -17.684  1.00  0.00     0.039 C 
BRANCH  13  17
ATOM     17  C   UNL     1      -7.338 -25.093 -18.501  1.00  0.00     0.066 CG0
ATOM     18  G   UNL     1      -8.352 -25.152 -17.375  1.00  0.00     0.000 G0
ENDBRANCH  13  17
ENDBRANCH  11  13
ENDBRANCH  10  11
ENDBRANCH   1  10
TORSDOF 0
ENDMDL
MODEL 6
REMARK VINA RESULT:    -3.831      3.052      5.353
REMARK INTER + INTRA:          -5.443
REMARK INTER:                  -5.500
REMARK INTRA:                   0.057
REMARK UNBOUND:                -0.043
REMARK SMILES CC1=CCC(=C(C)C)C(=O)CC(C)=CCC1
REMARK SMILES IDX 12 1 14 2 13 3 15 4 16 5 2 6 1 7 3 8 11 10 9 11 10 12 5 13
REMARK SMILES IDX 6 14 7 15 8 16 4 17
REMARK H PARENT
REMARK Flexibility Score: 60.00
ROOT
ATOM      1  C   UNL     1      -8.436 -22.073 -17.957  1.00  0.00    -0.070 C 
ATOM      2  C   UNL     1      -7.518 -21.363 -18.673  1.00  0.00    -0.027 C 
ATOM      3  C   UNL     1      -9.663 -22.540 -18.705  1.00  0.00     0.039 C 
ENDROOT
BRANCH   2   4
ATOM      4  C   UNL     1      -6.213 -20.694 -18.257  1.00  0.00     0.032 C 
BRANCH   4   5
ATOM      5  C   UNL     1      -5.209 -21.539 -17.465  1.00  0.00     0.034 C 
BRANCH   5   6
ATOM      6  C   UNL     1      -4.745 -22.874 -18.066  1.00  0.00    -0.077 C 
ATOM      7  C   UNL     1      -3.882 -22.761 -19.304  1.00  0.00     0.039 C 
ATOM      8  C   UNL     1      -5.069 -24.146 -17.688  1.00  0.00    -0.023 CG0
ATOM      9  G   UNL     1      -5.943 -24.655 -16.559  1.00  0.00     0.000 G0
ENDBRANCH   5   6
ENDBRANCH   4   5
ENDBRANCH   2   4
BRANCH   1  10
ATOM     10  C   UNL     1      -8.352 -22.452 -16.487  1.00  0.00     0.111 C 
BRANCH  10  11
ATOM     11  C   UNL     1      -8.387 -23.938 -16.291  1.00  0.00     0.163 C 
ATOM     12  O   UNL     1      -9.242 -24.430 -15.507  1.00  0.00    -0.294 OA
BRANCH  11  13
ATOM     13  C   UNL     1      -7.405 -24.818 -16.975  1.00  0.00    -0.002 C 
ATOM     14  C   UNL     1      -7.795 -25.730 -17.913  1.00  0.00    -0.069 C 
ATOM     15  C   UNL     1      -6.814 -26.701 -18.531  1.00  0.00     0.039 C 
ATOM     16  C   UNL     1      -9.229 -25.796 -18.388  1.00  0.00     0.039 C 
BRANCH  13  17
ATOM     17  C   UNL     1      -5.960 -24.655 -16.553  1.00  0.00     0.066 CG0
ATOM     18  G   UNL     1      -5.090 -24.149 -17.688  1.00  0.00     0.000 G0
ENDBRANCH  13  17
ENDBRANCH  11  13
ENDBRANCH  10  11
ENDBRANCH   1  10
TORSDOF 0
ENDMDL
MODEL 7
REMARK VINA RESULT:    -3.759      3.766      6.029
REMARK INTER + INTRA:          -5.340
REMARK INTER:                  -5.299
REMARK INTRA:                  -0.041
REMARK UNBOUND:                -0.043
REMARK SMILES CC1=CCC(=C(C)C)C(=O)CC(C)=CCC1
REMARK SMILES IDX 12 1 14 2 13 3 15 4 16 5 2 6 1 7 3 8 11 10 9 11 10 12 5 13
REMARK SMILES IDX 6 14 7 15 8 16 4 17
REMARK H PARENT
REMARK Flexibility Score: 60.00
ROOT
ATOM      1  C   UNL     1      -4.069 -22.431 -17.593  1.00  0.00    -0.070 C 
ATOM      2  C   UNL     1      -4.181 -21.103 -17.884  1.00  0.00    -0.027 C 
ATOM      3  C   UNL     1      -2.866 -22.846 -16.779  1.00  0.00     0.039 C 
ENDROOT
BRANCH   2   4
ATOM      4  C   UNL     1      -5.206 -20.334 -18.711  1.00  0.00     0.032 C 
BRANCH   4   5
ATOM      5  C   UNL     1      -6.633 -20.244 -18.159  1.00  0.00     0.034 C 
BRANCH   5   6
ATOM      6  C   UNL     1      -7.756 -20.963 -18.922  1.00  0.00    -0.077 C 
ATOM      7  C   UNL     1      -8.134 -20.347 -20.251  1.00  0.00     0.039 C 
ATOM      8  C   UNL     1      -8.513 -22.032 -18.533  1.00  0.00    -0.023 CG0
ATOM      9  G   UNL     1      -8.479 -22.864 -17.266  1.00  0.00     0.000 G0
ENDBRANCH   5   6
ENDBRANCH   4   5
ENDBRANCH   2   4
BRANCH   1  10
ATOM     10  C   UNL     1      -5.031 -23.537 -17.996  1.00  0.00     0.111 C 
BRANCH  10  11
ATOM     11  C   UNL     1      -6.107 -23.741 -16.973  1.00  0.00     0.163 C 
ATOM     12  O   UNL     1      -5.802 -23.704 -15.750  1.00  0.00    -0.294 OA
BRANCH  11  13
ATOM     13  C   UNL     1      -7.505 -24.026 -17.386  1.00  0.00    -0.002 C 
ATOM     14  C   UNL     1      -7.873 -25.249 -17.867  1.00  0.00    -0.069 C 
ATOM     15  C   UNL     1      -9.268 -25.509 -18.389  1.00  0.00     0.039 C 
ATOM     16  C   UNL     1      -6.899 -26.406 -17.883  1.00  0.00     0.039 C 
BRANCH  13  17
ATOM     17  C   UNL     1      -8.483 -22.876 -17.258  1.00  0.00     0.066 CG0
ATOM     18  G   UNL     1      -8.527 -22.025 -18.513  1.00  0.00     0.000 G0
ENDBRANCH  13  17
ENDBRANCH  11  13
ENDBRANCH  10  11
ENDBRANCH   1  10
TORSDOF 0
ENDMDL
MODEL 8
REMARK VINA RESULT:    -3.718      2.705      4.765
REMARK INTER + INTRA:          -5.283
REMARK INTER:                  -5.231
REMARK INTRA:                  -0.052
REMARK UNBOUND:                -0.043
REMARK SMILES CC1=CCC(=C(C)C)C(=O)CC(C)=CCC1
REMARK SMILES IDX 12 1 14 2 13 3 15 4 16 5 2 6 1 7 3 8 11 10 9 11 10 12 5 13
REMARK SMILES IDX 6 14 7 15 8 16 4 17
REMARK H PARENT
REMARK Flexibility Score: 60.00
ROOT
ATOM      1  C   UNL     1      -8.129 -26.047 -18.259  1.00  0.00    -0.070 C 
ATOM      2  C   UNL     1      -7.479 -27.241 -18.375  1.00  0.00    -0.027 C 
ATOM      3  C   UNL     1      -9.603 -26.107 -17.938  1.00  0.00     0.039 C 
ENDROOT
BRANCH   2   4
ATOM      4  C   UNL     1      -6.036 -27.574 -18.738  1.00  0.00     0.032 C 
BRANCH   4   5
ATOM      5  C   UNL     1      -4.947 -27.171 -17.737  1.00  0.00     0.034 C 
BRANCH   5   6
ATOM      6  C   UNL     1      -3.923 -26.108 -18.164  1.00  0.00    -0.077 C 
ATOM      7  C   UNL     1      -2.928 -26.552 -19.213  1.00  0.00     0.039 C 
ATOM      8  C   UNL     1      -3.735 -24.848 -17.671  1.00  0.00    -0.023 CG0
ATOM      9  G   UNL     1      -4.475 -24.083 -16.590  1.00  0.00     0.000 G0
ENDBRANCH   5   6
ENDBRANCH   4   5
ENDBRANCH   2   4
BRANCH   1  10
ATOM     10  C   UNL     1      -7.523 -24.661 -18.413  1.00  0.00     0.111 C 
BRANCH  10  11
ATOM     11  C   UNL     1      -6.950 -24.156 -17.123  1.00  0.00     0.163 C 
ATOM     12  O   UNL     1      -7.571 -24.382 -16.049  1.00  0.00    -0.294 OA
BRANCH  11  13
ATOM     13  C   UNL     1      -5.693 -23.365 -17.108  1.00  0.00    -0.002 C 
ATOM     14  C   UNL     1      -5.652 -22.079 -17.562  1.00  0.00    -0.069 C 
ATOM     15  C   UNL     1      -4.354 -21.309 -17.648  1.00  0.00     0.039 C 
ATOM     16  C   UNL     1      -6.914 -21.361 -17.985  1.00  0.00     0.039 C 
BRANCH  13  17
ATOM     17  C   UNL     1      -4.466 -24.078 -16.578  1.00  0.00     0.066 CG0
ATOM     18  G   UNL     1      -3.732 -24.834 -17.669  1.00  0.00     0.000 G0
ENDBRANCH  13  17
ENDBRANCH  11  13
ENDBRANCH  10  11
ENDBRANCH   1  10
TORSDOF 0
ENDMDL
MODEL 9
REMARK VINA RESULT:    -3.630      3.319      5.307
REMARK INTER + INTRA:          -5.158
REMARK INTER:                  -5.246
REMARK INTRA:                   0.088
REMARK UNBOUND:                -0.043
REMARK SMILES CC1=CCC(=C(C)C)C(=O)CC(C)=CCC1
REMARK SMILES IDX 12 1 14 2 13 3 15 4 16 5 2 6 1 7 3 8 11 10 9 11 10 12 5 13
REMARK SMILES IDX 6 14 7 15 8 16 4 17
REMARK H PARENT
REMARK Flexibility Score: 60.00
ROOT
ATOM      1  C   UNL     1      -8.873 -24.664 -17.423  1.00  0.00    -0.070 C 
ATOM      2  C   UNL     1      -8.156 -25.811 -17.599  1.00  0.00    -0.027 C 
ATOM      3  C   UNL     1      -9.868 -24.656 -16.286  1.00  0.00     0.039 C 
ENDROOT
BRANCH   2   4
ATOM      4  C   UNL     1      -7.124 -26.204 -18.650  1.00  0.00     0.032 C 
BRANCH   4   5
ATOM      5  C   UNL     1      -5.667 -26.334 -18.193  1.00  0.00     0.034 C 
BRANCH   5   6
ATOM      6  C   UNL     1      -5.019 -25.139 -17.478  1.00  0.00    -0.077 C 
ATOM      7  C   UNL     1      -4.410 -25.445 -16.127  1.00  0.00     0.039 C 
ATOM      8  C   UNL     1      -4.986 -23.826 -17.854  1.00  0.00    -0.023 CG0
ATOM      9  G   UNL     1      -5.535 -23.132 -19.086  1.00  0.00     0.000 G0
ENDBRANCH   5   6
ENDBRANCH   4   5
ENDBRANCH   2   4
BRANCH   1  10
ATOM     10  C   UNL     1      -8.772 -23.389 -18.246  1.00  0.00     0.111 C 
BRANCH  10  11
ATOM     11  C   UNL     1      -7.639 -22.520 -17.791  1.00  0.00     0.163 C 
ATOM     12  O   UNL     1      -7.613 -22.127 -16.593  1.00  0.00    -0.294 OA
BRANCH  11  13
ATOM     13  C   UNL     1      -6.582 -22.090 -18.742  1.00  0.00    -0.002 C 
ATOM     14  C   UNL     1      -6.568 -20.833 -19.274  1.00  0.00    -0.069 C 
ATOM     15  C   UNL     1      -5.557 -20.427 -20.323  1.00  0.00     0.039 C 
ATOM     16  C   UNL     1      -7.559 -19.783 -18.822  1.00  0.00     0.039 C 
BRANCH  13  17
ATOM     17  C   UNL     1      -5.541 -23.132 -19.094  1.00  0.00     0.066 CG0
ATOM     18  G   UNL     1      -4.988 -23.823 -17.862  1.00  0.00     0.000 G0
ENDBRANCH  13  17
ENDBRANCH  11  13
ENDBRANCH  10  11
ENDBRANCH   1  10
TORSDOF 0
ENDMDL
