MODEL 1
REMARK VINA RESULT:    -4.304      0.000      0.000
REMARK INTER + INTRA:          -6.358
REMARK INTER:                  -5.814
REMARK INTRA:                  -0.544
REMARK UNBOUND:                -0.544
REMARK SMILES [NH3+]CCCC[C@H]([NH3+])C(=O)[O-]
REMARK SMILES IDX 4 1 3 2 2 3 1 4 5 8 6 9 7 10 8 14 9 15 10 16
REMARK H PARENT 1 5 1 6 1 7 7 11 7 12 7 13
REMARK Flexibility Score: inf
ROOT
ATOM      1  C   UNL     1     161.832 166.891 150.236  1.00  0.00     0.012 C 
ENDROOT
BRANCH   1   2
ATOM      2  C   UNL     1     161.885 165.421 150.685  1.00  0.00     0.061 C 
BRANCH   2   3
ATOM      3  C   UNL     1     161.188 165.193 152.038  1.00  0.00     0.258 C 
BRANCH   3   4
ATOM      4  N   UNL     1     160.043 164.286 151.927  1.00  0.00    -0.358 N 
ATOM      5  H   UNL     1     159.162 164.848 151.951  1.00  0.00     0.344 HD
ATOM      6  H   UNL     1     160.076 163.767 151.020  1.00  0.00     0.344 HD
ATOM      7  H   UNL     1     160.031 163.611 152.725  1.00  0.00     0.344 HD
ENDBRANCH   3   4
ENDBRANCH   2   3
ENDBRANCH   1   2
BRANCH   1   8
ATOM      8  C   UNL     1     160.703 167.169 149.226  1.00  0.00     0.072 C 
BRANCH   8   9
ATOM      9  C   UNL     1     159.541 168.038 149.764  1.00  0.00     0.227 C 
BRANCH   9  10
ATOM     10  N   UNL     1     160.014 169.078 150.688  1.00  0.00    -0.350 N 
ATOM     11  H   UNL     1     160.619 169.760 150.179  1.00  0.00     0.345 HD
ATOM     12  H   UNL     1     160.552 168.655 151.479  1.00  0.00     0.345 HD
ATOM     13  H   UNL     1     159.200 169.610 151.074  1.00  0.00     0.345 HD
ENDBRANCH   9  10
BRANCH   9  14
ATOM     14  C   UNL     1     158.531 167.153 150.447  1.00  0.00     0.099 C 
ATOM     15  O   UNL     1     157.938 167.544 151.487  1.00  0.00    -0.544 OA
ATOM     16  O   UNL     1     158.270 165.883 149.947  1.00  0.00    -0.544 OA
ENDBRANCH   9  14
ENDBRANCH   8   9
ENDBRANCH   1   8
TORSDOF 7
ENDMDL
MODEL 2
REMARK VINA RESULT:    -4.290     15.942     17.081
REMARK INTER + INTRA:          -6.339
REMARK INTER:                  -5.800
REMARK INTRA:                  -0.539
REMARK UNBOUND:                -0.544
REMARK SMILES [NH3+]CCCC[C@H]([NH3+])C(=O)[O-]
REMARK SMILES IDX 4 1 3 2 2 3 1 4 5 8 6 9 7 10 8 14 9 15 10 16
REMARK H PARENT 1 5 1 6 1 7 7 11 7 12 7 13
REMARK Flexibility Score: inf
ROOT
ATOM      1  C   UNL     1     156.174 166.864 167.644  1.00  0.00     0.012 C 
ENDROOT
BRANCH   1   2
ATOM      2  C   UNL     1     156.090 165.381 167.247  1.00  0.00     0.061 C 
BRANCH   2   3
ATOM      3  C   UNL     1     156.800 165.087 165.913  1.00  0.00     0.258 C 
BRANCH   3   4
ATOM      4  N   UNL     1     158.011 164.285 166.095  1.00  0.00    -0.358 N 
ATOM      5  H   UNL     1     157.738 163.324 166.403  1.00  0.00     0.344 HD
ATOM      6  H   UNL     1     158.534 164.203 165.194  1.00  0.00     0.344 HD
ATOM      7  H   UNL     1     158.625 164.709 166.828  1.00  0.00     0.344 HD
ENDBRANCH   3   4
ENDBRANCH   2   3
ENDBRANCH   1   2
BRANCH   1   8
ATOM      8  C   UNL     1     157.279 167.147 168.678  1.00  0.00     0.072 C 
BRANCH   8   9
ATOM      9  C   UNL     1     158.435 168.044 168.175  1.00  0.00     0.227 C 
BRANCH   9  10
ATOM     10  N   UNL     1     157.961 169.088 167.257  1.00  0.00    -0.350 N 
ATOM     11  H   UNL     1     157.170 168.725 166.679  1.00  0.00     0.345 HD
ATOM     12  H   UNL     1     158.733 169.410 166.629  1.00  0.00     0.345 HD
ATOM     13  H   UNL     1     157.600 169.905 167.801  1.00  0.00     0.345 HD
ENDBRANCH   9  10
BRANCH   9  14
ATOM     14  C   UNL     1     159.473 167.187 167.500  1.00  0.00     0.099 C 
ATOM     15  O   UNL     1     160.044 167.582 166.449  1.00  0.00    -0.544 OA
ATOM     16  O   UNL     1     159.786 165.936 168.018  1.00  0.00    -0.544 OA
ENDBRANCH   9  14
ENDBRANCH   8   9
ENDBRANCH   1   8
TORSDOF 7
ENDMDL
MODEL 3
REMARK VINA RESULT:    -4.285     21.041     22.898
REMARK INTER + INTRA:          -6.332
REMARK INTER:                  -5.804
REMARK INTRA:                  -0.528
REMARK UNBOUND:                -0.544
REMARK SMILES [NH3+]CCCC[C@H]([NH3+])C(=O)[O-]
REMARK SMILES IDX 4 1 3 2 2 3 1 4 5 8 6 9 7 10 8 14 9 15 10 16
REMARK H PARENT 1 5 1 6 1 7 7 11 7 12 7 13
REMARK Flexibility Score: inf
ROOT
ATOM      1  C   UNL     1     161.805 151.174 167.750  1.00  0.00     0.012 C 
ENDROOT
BRANCH   1   2
ATOM      2  C   UNL     1     161.879 152.671 167.400  1.00  0.00     0.061 C 
BRANCH   2   3
ATOM      3  C   UNL     1     161.290 152.980 166.012  1.00  0.00     0.258 C 
BRANCH   3   4
ATOM      4  N   UNL     1     160.001 153.669 166.097  1.00  0.00    -0.358 N 
ATOM      5  H   UNL     1     159.234 152.971 165.970  1.00  0.00     0.344 HD
ATOM      6  H   UNL     1     159.886 154.114 167.036  1.00  0.00     0.344 HD
ATOM      7  H   UNL     1     159.922 154.393 165.346  1.00  0.00     0.344 HD
ENDBRANCH   3   4
ENDBRANCH   2   3
ENDBRANCH   1   2
BRANCH   1   8
ATOM      8  C   UNL     1     160.700 150.852 168.773  1.00  0.00     0.072 C 
BRANCH   8   9
ATOM      9  C   UNL     1     159.536 149.988 168.232  1.00  0.00     0.227 C 
BRANCH   9  10
ATOM     10  N   UNL     1     160.002 148.978 167.271  1.00  0.00    -0.350 N 
ATOM     11  H   UNL     1     160.047 148.041 167.730  1.00  0.00     0.345 HD
ATOM     12  H   UNL     1     160.945 149.230 166.896  1.00  0.00     0.345 HD
ATOM     13  H   UNL     1     159.327 148.904 166.475  1.00  0.00     0.345 HD
ENDBRANCH   9  10
BRANCH   9  14
ATOM     14  C   UNL     1     158.507 150.882 167.592  1.00  0.00     0.099 C 
ATOM     15  O   UNL     1     157.878 150.503 166.569  1.00  0.00    -0.544 OA
ATOM     16  O   UNL     1     158.267 152.147 168.113  1.00  0.00    -0.544 OA
ENDBRANCH   9  14
ENDBRANCH   8   9
ENDBRANCH   1   8
TORSDOF 7
ENDMDL
MODEL 4
REMARK VINA RESULT:    -4.265     14.323     15.885
REMARK INTER + INTRA:          -6.305
REMARK INTER:                  -5.800
REMARK INTRA:                  -0.505
REMARK UNBOUND:                -0.544
REMARK SMILES [NH3+]CCCC[C@H]([NH3+])C(=O)[O-]
REMARK SMILES IDX 4 1 3 2 2 3 1 4 5 8 6 9 7 10 8 14 9 15 10 16
REMARK H PARENT 1 5 1 6 1 7 7 11 7 12 7 13
REMARK Flexibility Score: inf
ROOT
ATOM      1  C   UNL     1     156.127 151.174 150.345  1.00  0.00     0.012 C 
ENDROOT
BRANCH   1   2
ATOM      2  C   UNL     1     155.956 152.639 150.783  1.00  0.00     0.061 C 
BRANCH   2   3
ATOM      3  C   UNL     1     156.669 152.944 152.112  1.00  0.00     0.258 C 
BRANCH   3   4
ATOM      4  N   UNL     1     157.945 153.634 151.912  1.00  0.00    -0.358 N 
ATOM      5  H   UNL     1     157.935 154.528 152.454  1.00  0.00     0.344 HD
ATOM      6  H   UNL     1     158.736 153.048 152.262  1.00  0.00     0.344 HD
ATOM      7  H   UNL     1     158.085 153.858 150.900  1.00  0.00     0.344 HD
ENDBRANCH   3   4
ENDBRANCH   2   3
ENDBRANCH   1   2
BRANCH   1   8
ATOM      8  C   UNL     1     157.261 150.982 149.321  1.00  0.00     0.072 C 
BRANCH   8   9
ATOM      9  C   UNL     1     158.416 150.063 149.785  1.00  0.00     0.227 C 
BRANCH   9  10
ATOM     10  N   UNL     1     157.951 149.021 150.712  1.00  0.00    -0.350 N 
ATOM     11  H   UNL     1     158.620 148.219 150.715  1.00  0.00     0.345 HD
ATOM     12  H   UNL     1     156.999 148.681 150.442  1.00  0.00     0.345 HD
ATOM     13  H   UNL     1     157.914 149.401 151.687  1.00  0.00     0.345 HD
ENDBRANCH   9  10
BRANCH   9  14
ATOM     14  C   UNL     1     159.488 150.898 150.434  1.00  0.00     0.099 C 
ATOM     15  O   UNL     1     160.118 150.464 151.435  1.00  0.00    -0.544 OA
ATOM     16  O   UNL     1     159.768 152.169 149.948  1.00  0.00    -0.544 OA
ENDBRANCH   9  14
ENDBRANCH   8   9
ENDBRANCH   1   8
TORSDOF 7
ENDMDL
MODEL 5
REMARK VINA RESULT:    -4.148     13.913     15.022
REMARK INTER + INTRA:          -6.146
REMARK INTER:                  -5.665
REMARK INTRA:                  -0.481
REMARK UNBOUND:                -0.544
REMARK SMILES [NH3+]CCCC[C@H]([NH3+])C(=O)[O-]
REMARK SMILES IDX 4 1 3 2 2 3 1 4 5 8 6 9 7 10 8 14 9 15 10 16
REMARK H PARENT 1 5 1 6 1 7 7 11 7 12 7 13
REMARK Flexibility Score: inf
ROOT
ATOM      1  C   UNL     1     159.588 152.354 150.050  1.00  0.00     0.012 C 
ENDROOT
BRANCH   1   2
ATOM      2  C   UNL     1     159.760 150.829 150.158  1.00  0.00     0.061 C 
BRANCH   2   3
ATOM      3  C   UNL     1     159.206 150.266 151.478  1.00  0.00     0.258 C 
BRANCH   3   4
ATOM      4  N   UNL     1     158.406 149.057 151.273  1.00  0.00    -0.358 N 
ATOM      5  H   UNL     1     158.881 148.252 151.742  1.00  0.00     0.344 HD
ATOM      6  H   UNL     1     157.458 149.169 151.698  1.00  0.00     0.344 HD
ATOM      7  H   UNL     1     158.318 148.844 150.253  1.00  0.00     0.344 HD
ENDBRANCH   3   4
ENDBRANCH   2   3
ENDBRANCH   1   2
BRANCH   1   8
ATOM      8  C   UNL     1     158.184 152.767 149.572  1.00  0.00     0.072 C 
BRANCH   8   9
ATOM      9  C   UNL     1     157.254 153.327 150.675  1.00  0.00     0.227 C 
BRANCH   9  10
ATOM     10  N   UNL     1     158.000 153.702 151.884  1.00  0.00    -0.350 N 
ATOM     11  H   UNL     1     159.026 153.597 151.719  1.00  0.00     0.345 HD
ATOM     12  H   UNL     1     157.714 153.108 152.696  1.00  0.00     0.345 HD
ATOM     13  H   UNL     1     157.822 154.707 152.116  1.00  0.00     0.345 HD
ENDBRANCH   9  10
BRANCH   9  14
ATOM     14  C   UNL     1     156.202 152.301 151.008  1.00  0.00     0.099 C 
ATOM     15  O   UNL     1     155.429 152.473 151.987  1.00  0.00    -0.544 OA
ATOM     16  O   UNL     1     156.099 151.141 150.250  1.00  0.00    -0.544 OA
ENDBRANCH   9  14
ENDBRANCH   8   9
ENDBRANCH   1   8
TORSDOF 7
ENDMDL
MODEL 6
REMARK VINA RESULT:    -4.114      2.229      4.052
REMARK INTER + INTRA:          -6.102
REMARK INTER:                  -5.779
REMARK INTRA:                  -0.323
REMARK UNBOUND:                -0.544
REMARK SMILES [NH3+]CCCC[C@H]([NH3+])C(=O)[O-]
REMARK SMILES IDX 4 1 3 2 2 3 1 4 5 8 6 9 7 10 8 14 9 15 10 16
REMARK H PARENT 1 5 1 6 1 7 7 11 7 12 7 13
REMARK Flexibility Score: inf
ROOT
ATOM      1  C   UNL     1     158.481 165.644 150.003  1.00  0.00     0.012 C 
ENDROOT
BRANCH   1   2
ATOM      2  C   UNL     1     158.568 167.180 149.997  1.00  0.00     0.061 C 
BRANCH   2   3
ATOM      3  C   UNL     1     158.913 167.756 151.382  1.00  0.00     0.258 C 
BRANCH   3   4
ATOM      4  N   UNL     1     159.519 169.085 151.295  1.00  0.00    -0.358 N 
ATOM      5  H   UNL     1     160.477 169.049 151.712  1.00  0.00     0.344 HD
ATOM      6  H   UNL     1     159.609 169.381 150.297  1.00  0.00     0.344 HD
ATOM      7  H   UNL     1     158.950 169.784 151.826  1.00  0.00     0.344 HD
ENDBRANCH   3   4
ENDBRANCH   2   3
ENDBRANCH   1   2
BRANCH   1   8
ATOM      8  C   UNL     1     159.801 164.966 149.592  1.00  0.00     0.072 C 
BRANCH   8   9
ATOM      9  C   UNL     1     160.630 164.380 150.760  1.00  0.00     0.227 C 
BRANCH   9  10
ATOM     10  N   UNL     1     159.786 164.032 151.912  1.00  0.00    -0.350 N 
ATOM     11  H   UNL     1     159.113 164.806 152.109  1.00  0.00     0.345 HD
ATOM     12  H   UNL     1     160.371 163.854 152.761  1.00  0.00     0.345 HD
ATOM     13  H   UNL     1     159.224 163.176 151.698  1.00  0.00     0.345 HD
ENDBRANCH   9  10
BRANCH   9  14
ATOM     14  C   UNL     1     161.688 165.371 151.169  1.00  0.00     0.099 C 
ATOM     15  O   UNL     1     162.242 165.287 152.297  1.00  0.00    -0.544 OA
ATOM     16  O   UNL     1     162.038 166.406 150.310  1.00  0.00    -0.544 OA
ENDBRANCH   9  14
ENDBRANCH   8   9
ENDBRANCH   1   8
TORSDOF 7
ENDMDL
MODEL 7
REMARK VINA RESULT:    -4.081     20.713     22.125
REMARK INTER + INTRA:          -6.056
REMARK INTER:                  -5.762
REMARK INTRA:                  -0.294
REMARK UNBOUND:                -0.544
REMARK SMILES [NH3+]CCCC[C@H]([NH3+])C(=O)[O-]
REMARK SMILES IDX 4 1 3 2 2 3 1 4 5 8 6 9 7 10 8 14 9 15 10 16
REMARK H PARENT 1 5 1 6 1 7 7 11 7 12 7 13
REMARK Flexibility Score: inf
ROOT
ATOM      1  C   UNL     1     158.569 152.366 168.004  1.00  0.00     0.012 C 
ENDROOT
BRANCH   1   2
ATOM      2  C   UNL     1     158.744 150.838 168.036  1.00  0.00     0.061 C 
BRANCH   2   3
ATOM      3  C   UNL     1     158.969 150.242 166.635  1.00  0.00     0.258 C 
BRANCH   3   4
ATOM      4  N   UNL     1     159.491 148.875 166.691  1.00  0.00    -0.358 N 
ATOM      5  H   UNL     1     159.123 148.407 167.551  1.00  0.00     0.344 HD
ATOM      6  H   UNL     1     159.174 148.328 165.860  1.00  0.00     0.344 HD
ATOM      7  H   UNL     1     160.536 148.884 166.737  1.00  0.00     0.344 HD
ENDBRANCH   3   4
ENDBRANCH   2   3
ENDBRANCH   1   2
BRANCH   1   8
ATOM      8  C   UNL     1     159.867 153.126 168.332  1.00  0.00     0.072 C 
BRANCH   8   9
ATOM      9  C   UNL     1     160.566 153.786 167.120  1.00  0.00     0.227 C 
BRANCH   9  10
ATOM     10  N   UNL     1     159.604 154.197 166.088  1.00  0.00    -0.350 N 
ATOM     11  H   UNL     1     158.728 153.634 166.171  1.00  0.00     0.345 HD
ATOM     12  H   UNL     1     160.009 154.073 165.132  1.00  0.00     0.345 HD
ATOM     13  H   UNL     1     159.343 155.201 166.221  1.00  0.00     0.345 HD
ENDBRANCH   9  10
BRANCH   9  14
ATOM     14  C   UNL     1     161.573 152.828 166.542  1.00  0.00     0.099 C 
ATOM     15  O   UNL     1     161.933 152.926 165.339  1.00  0.00    -0.544 OA
ATOM     16  O   UNL     1     162.091 151.806 167.330  1.00  0.00    -0.544 OA
ENDBRANCH   9  14
ENDBRANCH   8   9
ENDBRANCH   1   8
TORSDOF 7
ENDMDL
MODEL 8
REMARK VINA RESULT:    -4.011     15.870     16.799
REMARK INTER + INTRA:          -5.962
REMARK INTER:                  -5.662
REMARK INTRA:                  -0.300
REMARK UNBOUND:                -0.544
REMARK SMILES [NH3+]CCCC[C@H]([NH3+])C(=O)[O-]
REMARK SMILES IDX 4 1 3 2 2 3 1 4 5 8 6 9 7 10 8 14 9 15 10 16
REMARK H PARENT 1 5 1 6 1 7 7 11 7 12 7 13
REMARK Flexibility Score: inf
ROOT
ATOM      1  C   UNL     1     159.547 165.695 167.940  1.00  0.00     0.012 C 
ENDROOT
BRANCH   1   2
ATOM      2  C   UNL     1     159.411 167.226 168.006  1.00  0.00     0.061 C 
BRANCH   2   3
ATOM      3  C   UNL     1     159.160 167.855 166.624  1.00  0.00     0.258 C 
BRANCH   3   4
ATOM      4  N   UNL     1     158.437 169.125 166.716  1.00  0.00    -0.358 N 
ATOM      5  H   UNL     1     157.422 168.951 166.532  1.00  0.00     0.344 HD
ATOM      6  H   UNL     1     158.530 169.530 167.675  1.00  0.00     0.344 HD
ATOM      7  H   UNL     1     158.794 169.802 166.005  1.00  0.00     0.344 HD
ENDBRANCH   3   4
ENDBRANCH   2   3
ENDBRANCH   1   2
BRANCH   1   8
ATOM      8  C   UNL     1     158.242 164.960 168.296  1.00  0.00     0.072 C 
BRANCH   8   9
ATOM      9  C   UNL     1     157.565 164.217 167.119  1.00  0.00     0.227 C 
BRANCH   9  10
ATOM     10  N   UNL     1     158.550 163.676 166.172  1.00  0.00    -0.350 N 
ATOM     11  H   UNL     1     159.328 164.359 166.035  1.00  0.00     0.345 HD
ATOM     12  H   UNL     1     158.102 163.467 165.250  1.00  0.00     0.345 HD
ATOM     13  H   UNL     1     158.969 162.798 166.556  1.00  0.00     0.345 HD
ENDBRANCH   9  10
BRANCH   9  14
ATOM     14  C   UNL     1     156.623 165.155 166.413  1.00  0.00     0.099 C 
ATOM     15  O   UNL     1     156.380 165.014 165.185  1.00  0.00    -0.544 OA
ATOM     16  O   UNL     1     156.036 166.205 167.109  1.00  0.00    -0.544 OA
ENDBRANCH   9  14
ENDBRANCH   8   9
ENDBRANCH   1   8
TORSDOF 7
ENDMDL
MODEL 9
REMARK VINA RESULT:    -3.940     20.406     22.147
REMARK INTER + INTRA:          -5.866
REMARK INTER:                  -5.389
REMARK INTRA:                  -0.477
REMARK UNBOUND:                -0.544
REMARK SMILES [NH3+]CCCC[C@H]([NH3+])C(=O)[O-]
REMARK SMILES IDX 4 1 3 2 2 3 1 4 5 8 6 9 7 10 8 14 9 15 10 16
REMARK H PARENT 1 5 1 6 1 7 7 11 7 12 7 13
REMARK Flexibility Score: inf
ROOT
ATOM      1  C   UNL     1     161.577 150.890 168.001  1.00  0.00     0.012 C 
ENDROOT
BRANCH   1   2
ATOM      2  C   UNL     1     160.475 150.943 169.073  1.00  0.00     0.061 C 
BRANCH   2   3
ATOM      3  C   UNL     1     159.316 149.975 168.775  1.00  0.00     0.258 C 
BRANCH   3   4
ATOM      4  N   UNL     1     158.272 150.595 167.957  1.00  0.00    -0.358 N 
ATOM      5  H   UNL     1     158.525 151.594 167.785  1.00  0.00     0.344 HD
ATOM      6  H   UNL     1     158.197 150.113 167.033  1.00  0.00     0.344 HD
ATOM      7  H   UNL     1     157.352 150.564 168.452  1.00  0.00     0.344 HD
ENDBRANCH   3   4
ENDBRANCH   2   3
ENDBRANCH   1   2
BRANCH   1   8
ATOM      8  C   UNL     1     161.804 152.245 167.306  1.00  0.00     0.072 C 
BRANCH   8   9
ATOM      9  C   UNL     1     160.737 152.631 166.254  1.00  0.00     0.227 C 
BRANCH   9  10
ATOM     10  N   UNL     1     161.336 152.919 164.944  1.00  0.00    -0.350 N 
ATOM     11  H   UNL     1     160.810 152.419 164.192  1.00  0.00     0.345 HD
ATOM     12  H   UNL     1     162.340 152.626 164.922  1.00  0.00     0.345 HD
ATOM     13  H   UNL     1     161.274 153.943 164.740  1.00  0.00     0.345 HD
ENDBRANCH   9  10
BRANCH   9  14
ATOM     14  C   UNL     1     159.961 153.824 166.746  1.00  0.00     0.099 C 
ATOM     15  O   UNL     1     160.293 154.990 166.403  1.00  0.00    -0.544 OA
ATOM     16  O   UNL     1     158.886 153.646 167.609  1.00  0.00    -0.544 OA
ENDBRANCH   9  14
ENDBRANCH   8   9
ENDBRANCH   1   8
TORSDOF 7
ENDMDL
