MODEL 1
REMARK VINA RESULT:    -4.618      0.000      0.000
REMARK INTER + INTRA:          -6.082
REMARK INTER:                  -5.697
REMARK INTRA:                  -0.384
REMARK UNBOUND:                -0.384
REMARK SMILES Oc1cc(O)c2cc(O)c(-c3cc(O)c(O)c(O)c3)[o+]c2c1
REMARK SMILES IDX 10 1 20 2 21 3 22 4 2 5 3 6 4 7 6 8 7 9 8 10 11 11 12 12
REMARK SMILES IDX 13 13 19 14 15 15 17 16 14 17 16 19 18 21 9 23 1 25 5 27
REMARK H PARENT 14 18 16 20 18 22 9 24 1 26 5 28
REMARK Flexibility Score: inf
ROOT
ATOM      1  C   UNL     1      20.600 -37.733   7.507  1.00  0.00     0.402 A 
ATOM      2  O   UNL     1      19.529 -38.184   6.860  1.00  0.00    -0.202 OA
ATOM      3  C   UNL     1      19.585 -39.123   5.921  1.00  0.00     0.368 A 
ATOM      4  C   UNL     1      18.404 -39.529   5.294  1.00  0.00     0.162 A 
ATOM      5  C   UNL     1      18.433 -40.510   4.302  1.00  0.00     0.128 A 
ATOM      6  C   UNL     1      19.652 -41.090   3.931  1.00  0.00     0.093 A 
ATOM      7  C   UNL     1      20.850 -40.699   4.543  1.00  0.00     0.136 A 
ATOM      8  C   UNL     1      20.823 -39.704   5.554  1.00  0.00     0.125 A 
ATOM      9  C   UNL     1      21.972 -39.260   6.231  1.00  0.00     0.078 A 
ATOM     10  C   UNL     1      21.866 -38.278   7.220  1.00  0.00     0.223 A 
ENDROOT
BRANCH   1  11
ATOM     11  C   UNL     1      20.410 -36.677   8.527  1.00  0.00     0.091 A 
ATOM     12  C   UNL     1      20.097 -37.040   9.845  1.00  0.00     0.068 A 
ATOM     13  C   UNL     1      19.889 -36.068  10.831  1.00  0.00     0.162 A 
ATOM     14  C   UNL     1      20.479 -35.316   8.193  1.00  0.00     0.068 A 
ATOM     15  C   UNL     1      19.984 -34.698  10.492  1.00  0.00     0.200 A 
ATOM     16  C   UNL     1      20.274 -34.333   9.169  1.00  0.00     0.162 A 
BRANCH  13  17
ATOM     17  O   UNL     1      19.593 -36.507  12.124  1.00  0.00    -0.504 OA
ATOM     18  H   UNL     1      19.320 -37.452  12.351  1.00  0.00     0.293 HD
ENDBRANCH  13  17
BRANCH  15  19
ATOM     19  O   UNL     1      19.795 -33.678  11.427  1.00  0.00    -0.502 OA
ATOM     20  H   UNL     1      19.035 -33.014  11.397  1.00  0.00     0.293 HD
ENDBRANCH  15  19
BRANCH  16  21
ATOM     21  O   UNL     1      20.352 -32.983   8.829  1.00  0.00    -0.504 OA
ATOM     22  H   UNL     1      21.243 -32.520   8.691  1.00  0.00     0.293 HD
ENDBRANCH  16  21
ENDBRANCH   1  11
BRANCH  10  23
ATOM     23  O   UNL     1      22.998 -37.872   7.927  1.00  0.00    -0.500 OA
ATOM     24  H   UNL     1      22.929 -37.300   8.761  1.00  0.00     0.294 HD
ENDBRANCH  10  23
BRANCH   5  25
ATOM     25  O   UNL     1      17.244 -40.902   3.690  1.00  0.00    -0.507 OA
ATOM     26  H   UNL     1      16.618 -40.226   3.269  1.00  0.00     0.293 HD
ENDBRANCH   5  25
BRANCH   7  27
ATOM     27  O   UNL     1      22.024 -41.323   4.114  1.00  0.00    -0.507 OA
ATOM     28  H   UNL     1      22.936 -40.888   4.122  1.00  0.00     0.293 HD
ENDBRANCH   7  27
TORSDOF 7
ENDMDL
MODEL 2
REMARK VINA RESULT:    -4.572      2.790      4.735
REMARK INTER + INTRA:          -6.026
REMARK INTER:                  -5.661
REMARK INTRA:                  -0.364
REMARK UNBOUND:                -0.384
REMARK SMILES Oc1cc(O)c2cc(O)c(-c3cc(O)c(O)c(O)c3)[o+]c2c1
REMARK SMILES IDX 10 1 20 2 21 3 22 4 2 5 3 6 4 7 6 8 7 9 8 10 11 11 12 12
REMARK SMILES IDX 13 13 19 14 15 15 17 16 14 17 16 19 18 21 9 23 1 25 5 27
REMARK H PARENT 14 18 16 20 18 22 9 24 1 26 5 28
REMARK Flexibility Score: inf
ROOT
ATOM      1  C   UNL     1      19.427 -35.895   8.753  1.00  0.00     0.402 A 
ATOM      2  O   UNL     1      20.115 -36.541   7.816  1.00  0.00    -0.202 OA
ATOM      3  C   UNL     1      20.926 -37.561   8.078  1.00  0.00     0.368 A 
ATOM      4  C   UNL     1      21.610 -38.175   7.025  1.00  0.00     0.162 A 
ATOM      5  C   UNL     1      22.470 -39.245   7.271  1.00  0.00     0.128 A 
ATOM      6  C   UNL     1      22.650 -39.708   8.580  1.00  0.00     0.093 A 
ATOM      7  C   UNL     1      21.977 -39.110   9.653  1.00  0.00     0.136 A 
ATOM      8  C   UNL     1      21.100 -38.023   9.405  1.00  0.00     0.125 A 
ATOM      9  C   UNL     1      20.374 -37.371  10.417  1.00  0.00     0.078 A 
ATOM     10  C   UNL     1      19.524 -36.309  10.096  1.00  0.00     0.223 A 
ENDROOT
BRANCH   1  11
ATOM     11  C   UNL     1      18.564 -34.767   8.337  1.00  0.00     0.091 A 
ATOM     12  C   UNL     1      17.336 -35.032   7.713  1.00  0.00     0.068 A 
ATOM     13  C   UNL     1      16.504 -33.990   7.287  1.00  0.00     0.162 A 
ATOM     14  C   UNL     1      18.972 -33.435   8.501  1.00  0.00     0.068 A 
ATOM     15  C   UNL     1      16.912 -32.649   7.476  1.00  0.00     0.200 A 
ATOM     16  C   UNL     1      18.150 -32.382   8.079  1.00  0.00     0.162 A 
BRANCH  13  17
ATOM     17  O   UNL     1      15.291 -34.333   6.685  1.00  0.00    -0.504 OA
ATOM     18  H   UNL     1      14.549 -34.832   7.152  1.00  0.00     0.293 HD
ENDBRANCH  13  17
BRANCH  15  19
ATOM     19  O   UNL     1      16.127 -31.563   7.082  1.00  0.00    -0.502 OA
ATOM     20  H   UNL     1      15.192 -31.387   7.419  1.00  0.00     0.293 HD
ENDBRANCH  15  19
BRANCH  16  21
ATOM     21  O   UNL     1      18.560 -31.061   8.253  1.00  0.00    -0.504 OA
ATOM     22  H   UNL     1      19.011 -30.543   7.509  1.00  0.00     0.293 HD
ENDBRANCH  16  21
ENDBRANCH   1  11
BRANCH  10  23
ATOM     23  O   UNL     1      18.765 -35.694  11.092  1.00  0.00    -0.500 OA
ATOM     24  H   UNL     1      18.283 -34.818  10.930  1.00  0.00     0.294 HD
ENDBRANCH  10  23
BRANCH   5  25
ATOM     25  O   UNL     1      23.142 -39.844   6.207  1.00  0.00    -0.507 OA
ATOM     26  H   UNL     1      23.829 -40.573   6.358  1.00  0.00     0.293 HD
ENDBRANCH   5  25
BRANCH   7  27
ATOM     27  O   UNL     1      22.214 -39.628  10.929  1.00  0.00    -0.507 OA
ATOM     28  H   UNL     1      21.491 -39.945  11.559  1.00  0.00     0.293 HD
ENDBRANCH   7  27
TORSDOF 7
ENDMDL
MODEL 3
REMARK VINA RESULT:    -4.570      2.386      7.149
REMARK INTER + INTRA:          -6.023
REMARK INTER:                  -6.044
REMARK INTRA:                   0.021
REMARK UNBOUND:                -0.384
REMARK SMILES Oc1cc(O)c2cc(O)c(-c3cc(O)c(O)c(O)c3)[o+]c2c1
REMARK SMILES IDX 10 1 20 2 21 3 22 4 2 5 3 6 4 7 6 8 7 9 8 10 11 11 12 12
REMARK SMILES IDX 13 13 19 14 15 15 17 16 14 17 16 19 18 21 9 23 1 25 5 27
REMARK H PARENT 14 18 16 20 18 22 9 24 1 26 5 28
REMARK Flexibility Score: inf
ROOT
ATOM      1  C   UNL     1      20.705 -36.873   9.073  1.00  0.00     0.402 A 
ATOM      2  O   UNL     1      20.506 -35.694   8.488  1.00  0.00    -0.202 OA
ATOM      3  C   UNL     1      19.798 -34.715   9.041  1.00  0.00     0.368 A 
ATOM      4  C   UNL     1      19.641 -33.513   8.346  1.00  0.00     0.162 A 
ATOM      5  C   UNL     1      18.900 -32.469   8.901  1.00  0.00     0.128 A 
ATOM      6  C   UNL     1      18.309 -32.626  10.160  1.00  0.00     0.093 A 
ATOM      7  C   UNL     1      18.450 -33.821  10.876  1.00  0.00     0.136 A 
ATOM      8  C   UNL     1      19.205 -34.884  10.316  1.00  0.00     0.125 A 
ATOM      9  C   UNL     1      19.410 -36.112  10.967  1.00  0.00     0.078 A 
ATOM     10  C   UNL     1      20.171 -37.112  10.353  1.00  0.00     0.223 A 
ENDROOT
BRANCH   1  11
ATOM     11  C   UNL     1      21.505 -37.888   8.350  1.00  0.00     0.091 A 
ATOM     12  C   UNL     1      21.219 -38.161   7.005  1.00  0.00     0.068 A 
ATOM     13  C   UNL     1      21.941 -39.129   6.296  1.00  0.00     0.162 A 
ATOM     14  C   UNL     1      22.507 -38.625   8.998  1.00  0.00     0.068 A 
ATOM     15  C   UNL     1      22.966 -39.853   6.950  1.00  0.00     0.200 A 
ATOM     16  C   UNL     1      23.237 -39.597   8.302  1.00  0.00     0.162 A 
BRANCH  13  17
ATOM     17  O   UNL     1      21.607 -39.337   4.956  1.00  0.00    -0.504 OA
ATOM     18  H   UNL     1      21.974 -40.089   4.392  1.00  0.00     0.293 HD
ENDBRANCH  13  17
BRANCH  15  19
ATOM     19  O   UNL     1      23.728 -40.826   6.301  1.00  0.00    -0.502 OA
ATOM     20  H   UNL     1      24.725 -40.938   6.419  1.00  0.00     0.293 HD
ENDBRANCH  15  19
BRANCH  16  21
ATOM     21  O   UNL     1      24.236 -40.320   8.952  1.00  0.00    -0.504 OA
ATOM     22  H   UNL     1      24.356 -41.315   8.802  1.00  0.00     0.293 HD
ENDBRANCH  16  21
ENDBRANCH   1  11
BRANCH  10  23
ATOM     23  O   UNL     1      20.417 -38.312  11.020  1.00  0.00    -0.500 OA
ATOM     24  H   UNL     1      20.609 -38.339  12.014  1.00  0.00     0.294 HD
ENDBRANCH  10  23
BRANCH   5  25
ATOM     25  O   UNL     1      18.757 -31.277   8.193  1.00  0.00    -0.507 OA
ATOM     26  H   UNL     1      18.786 -31.257   7.180  1.00  0.00     0.293 HD
ENDBRANCH   5  25
BRANCH   7  27
ATOM     27  O   UNL     1      17.826 -33.901  12.124  1.00  0.00    -0.507 OA
ATOM     28  H   UNL     1      18.005 -34.624  12.806  1.00  0.00     0.293 HD
ENDBRANCH   7  27
TORSDOF 7
ENDMDL
MODEL 4
REMARK VINA RESULT:    -4.549      2.533      6.884
REMARK INTER + INTRA:          -5.998
REMARK INTER:                  -5.902
REMARK INTRA:                  -0.095
REMARK UNBOUND:                -0.384
REMARK SMILES Oc1cc(O)c2cc(O)c(-c3cc(O)c(O)c(O)c3)[o+]c2c1
REMARK SMILES IDX 10 1 20 2 21 3 22 4 2 5 3 6 4 7 6 8 7 9 8 10 11 11 12 12
REMARK SMILES IDX 13 13 19 14 15 15 17 16 14 17 16 19 18 21 9 23 1 25 5 27
REMARK H PARENT 14 18 16 20 18 22 9 24 1 26 5 28
REMARK Flexibility Score: inf
ROOT
ATOM      1  C   UNL     1      20.506 -36.994   8.145  1.00  0.00     0.402 A 
ATOM      2  O   UNL     1      20.816 -35.960   8.923  1.00  0.00    -0.202 OA
ATOM      3  C   UNL     1      20.015 -34.914   9.100  1.00  0.00     0.368 A 
ATOM      4  C   UNL     1      20.430 -33.873   9.935  1.00  0.00     0.162 A 
ATOM      5  C   UNL     1      19.613 -32.761  10.136  1.00  0.00     0.128 A 
ATOM      6  C   UNL     1      18.369 -32.685   9.498  1.00  0.00     0.093 A 
ATOM      7  C   UNL     1      17.930 -33.714   8.655  1.00  0.00     0.136 A 
ATOM      8  C   UNL     1      18.759 -34.848   8.451  1.00  0.00     0.125 A 
ATOM      9  C   UNL     1      18.395 -35.932   7.634  1.00  0.00     0.078 A 
ATOM     10  C   UNL     1      19.263 -37.018   7.484  1.00  0.00     0.223 A 
ENDROOT
BRANCH   1  11
ATOM     11  C   UNL     1      21.486 -38.096   8.021  1.00  0.00     0.091 A 
ATOM     12  C   UNL     1      22.082 -38.622   9.177  1.00  0.00     0.068 A 
ATOM     13  C   UNL     1      23.028 -39.650   9.096  1.00  0.00     0.162 A 
ATOM     14  C   UNL     1      21.876 -38.590   6.767  1.00  0.00     0.068 A 
ATOM     15  C   UNL     1      23.400 -40.160   7.829  1.00  0.00     0.200 A 
ATOM     16  C   UNL     1      22.822 -39.619   6.671  1.00  0.00     0.162 A 
BRANCH  13  17
ATOM     17  O   UNL     1      23.569 -40.131  10.291  1.00  0.00    -0.504 OA
ATOM     18  H   UNL     1      24.539 -40.386  10.410  1.00  0.00     0.293 HD
ENDBRANCH  13  17
BRANCH  15  19
ATOM     19  O   UNL     1      24.332 -41.189   7.678  1.00  0.00    -0.502 OA
ATOM     20  H   UNL     1      24.949 -41.282   6.884  1.00  0.00     0.293 HD
ENDBRANCH  15  19
BRANCH  16  21
ATOM     21  O   UNL     1      23.198 -40.109   5.422  1.00  0.00    -0.504 OA
ATOM     22  H   UNL     1      24.171 -40.242   5.174  1.00  0.00     0.293 HD
ENDBRANCH  16  21
ENDBRANCH   1  11
BRANCH  10  23
ATOM     23  O   UNL     1      18.882 -38.117   6.714  1.00  0.00    -0.500 OA
ATOM     24  H   UNL     1      18.946 -38.107   5.702  1.00  0.00     0.294 HD
ENDBRANCH  10  23
BRANCH   5  25
ATOM     25  O   UNL     1      20.044 -31.734  10.974  1.00  0.00    -0.507 OA
ATOM     26  H   UNL     1      19.426 -31.314  11.658  1.00  0.00     0.293 HD
ENDBRANCH   5  25
BRANCH   7  27
ATOM     27  O   UNL     1      16.679 -33.562   8.052  1.00  0.00    -0.507 OA
ATOM     28  H   UNL     1      16.152 -34.316   7.635  1.00  0.00     0.293 HD
ENDBRANCH   7  27
TORSDOF 7
ENDMDL
MODEL 5
REMARK VINA RESULT:    -4.521     12.700     15.291
REMARK INTER + INTRA:          -5.963
REMARK INTER:                  -5.684
REMARK INTRA:                  -0.279
REMARK UNBOUND:                -0.384
REMARK SMILES Oc1cc(O)c2cc(O)c(-c3cc(O)c(O)c(O)c3)[o+]c2c1
REMARK SMILES IDX 10 1 20 2 21 3 22 4 2 5 3 6 4 7 6 8 7 9 8 10 11 11 12 12
REMARK SMILES IDX 13 13 19 14 15 15 17 16 14 17 16 19 18 21 9 23 1 25 5 27
REMARK H PARENT 14 18 16 20 18 22 9 24 1 26 5 28
REMARK Flexibility Score: inf
ROOT
ATOM      1  C   UNL     1      31.118 -35.361  -0.819  1.00  0.00     0.402 A 
ATOM      2  O   UNL     1      31.138 -35.013   0.465  1.00  0.00    -0.202 OA
ATOM      3  C   UNL     1      31.601 -33.844   0.897  1.00  0.00     0.368 A 
ATOM      4  C   UNL     1      31.584 -33.570   2.267  1.00  0.00     0.162 A 
ATOM      5  C   UNL     1      32.067 -32.354   2.750  1.00  0.00     0.128 A 
ATOM      6  C   UNL     1      32.572 -31.401   1.857  1.00  0.00     0.093 A 
ATOM      7  C   UNL     1      32.601 -31.652   0.479  1.00  0.00     0.136 A 
ATOM      8  C   UNL     1      32.109 -32.887  -0.014  1.00  0.00     0.125 A 
ATOM      9  C   UNL     1      32.087 -33.219  -1.380  1.00  0.00     0.078 A 
ATOM     10  C   UNL     1      31.581 -34.455  -1.792  1.00  0.00     0.223 A 
ENDROOT
BRANCH   1  11
ATOM     11  C   UNL     1      30.586 -36.696  -1.174  1.00  0.00     0.091 A 
ATOM     12  C   UNL     1      31.348 -37.840  -0.894  1.00  0.00     0.068 A 
ATOM     13  C   UNL     1      30.886 -39.116  -1.235  1.00  0.00     0.162 A 
ATOM     14  C   UNL     1      29.359 -36.841  -1.840  1.00  0.00     0.068 A 
ATOM     15  C   UNL     1      29.637 -39.256  -1.885  1.00  0.00     0.200 A 
ATOM     16  C   UNL     1      28.885 -38.112  -2.187  1.00  0.00     0.162 A 
BRANCH  13  17
ATOM     17  O   UNL     1      31.696 -40.208  -0.912  1.00  0.00    -0.504 OA
ATOM     18  H   UNL     1      31.370 -41.163  -0.880  1.00  0.00     0.293 HD
ENDBRANCH  13  17
BRANCH  15  19
ATOM     19  O   UNL     1      29.114 -40.499  -2.247  1.00  0.00    -0.502 OA
ATOM     20  H   UNL     1      28.355 -40.957  -1.763  1.00  0.00     0.293 HD
ENDBRANCH  15  19
BRANCH  16  21
ATOM     21  O   UNL     1      27.661 -38.247  -2.841  1.00  0.00    -0.504 OA
ATOM     22  H   UNL     1      26.954 -38.897  -2.518  1.00  0.00     0.293 HD
ENDBRANCH  16  21
ENDBRANCH   1  11
BRANCH  10  23
ATOM     23  O   UNL     1      31.512 -34.766  -3.150  1.00  0.00    -0.500 OA
ATOM     24  H   UNL     1      32.279 -35.220  -3.633  1.00  0.00     0.294 HD
ENDBRANCH  10  23
BRANCH   5  25
ATOM     25  O   UNL     1      32.040 -32.099   4.120  1.00  0.00    -0.507 OA
ATOM     26  H   UNL     1      32.772 -32.434   4.735  1.00  0.00     0.293 HD
ENDBRANCH   5  25
BRANCH   7  27
ATOM     27  O   UNL     1      33.125 -30.652  -0.345  1.00  0.00    -0.507 OA
ATOM     28  H   UNL     1      33.240 -30.740  -1.345  1.00  0.00     0.293 HD
ENDBRANCH   7  27
TORSDOF 7
ENDMDL
MODEL 6
REMARK VINA RESULT:    -4.506      6.980     10.405
REMARK INTER + INTRA:          -5.944
REMARK INTER:                  -5.564
REMARK INTRA:                  -0.380
REMARK UNBOUND:                -0.384
REMARK SMILES Oc1cc(O)c2cc(O)c(-c3cc(O)c(O)c(O)c3)[o+]c2c1
REMARK SMILES IDX 10 1 20 2 21 3 22 4 2 5 3 6 4 7 6 8 7 9 8 10 11 11 12 12
REMARK SMILES IDX 13 13 19 14 15 15 17 16 14 17 16 19 18 21 9 23 1 25 5 27
REMARK H PARENT 14 18 16 20 18 22 9 24 1 26 5 28
REMARK Flexibility Score: inf
ROOT
ATOM      1  C   UNL     1      16.640 -37.083  -0.381  1.00  0.00     0.402 A 
ATOM      2  O   UNL     1      15.670 -36.347   0.156  1.00  0.00    -0.202 OA
ATOM      3  C   UNL     1      15.321 -35.151  -0.305  1.00  0.00     0.368 A 
ATOM      4  C   UNL     1      14.291 -34.451   0.329  1.00  0.00     0.162 A 
ATOM      5  C   UNL     1      13.905 -33.192  -0.131  1.00  0.00     0.128 A 
ATOM      6  C   UNL     1      14.554 -32.625  -1.234  1.00  0.00     0.093 A 
ATOM      7  C   UNL     1      15.590 -33.305  -1.887  1.00  0.00     0.136 A 
ATOM      8  C   UNL     1      15.982 -34.587  -1.423  1.00  0.00     0.125 A 
ATOM      9  C   UNL     1      17.000 -35.346  -2.023  1.00  0.00     0.078 A 
ATOM     10  C   UNL     1      17.329 -36.605  -1.512  1.00  0.00     0.223 A 
ENDROOT
BRANCH   1  11
ATOM     11  C   UNL     1      16.943 -38.397   0.230  1.00  0.00     0.091 A 
ATOM     12  C   UNL     1      17.927 -38.485   1.225  1.00  0.00     0.068 A 
ATOM     13  C   UNL     1      18.255 -39.714   1.809  1.00  0.00     0.162 A 
ATOM     14  C   UNL     1      16.307 -39.570  -0.205  1.00  0.00     0.068 A 
ATOM     15  C   UNL     1      17.592 -40.889   1.382  1.00  0.00     0.200 A 
ATOM     16  C   UNL     1      16.624 -40.806   0.371  1.00  0.00     0.162 A 
BRANCH  13  17
ATOM     17  O   UNL     1      19.237 -39.720   2.802  1.00  0.00    -0.504 OA
ATOM     18  H   UNL     1      19.788 -38.913   3.057  1.00  0.00     0.293 HD
ENDBRANCH  13  17
BRANCH  15  19
ATOM     19  O   UNL     1      17.866 -42.145   1.927  1.00  0.00    -0.502 OA
ATOM     20  H   UNL     1      18.749 -42.402   2.344  1.00  0.00     0.293 HD
ENDBRANCH  15  19
BRANCH  16  21
ATOM     21  O   UNL     1      15.982 -41.965  -0.062  1.00  0.00    -0.504 OA
ATOM     22  H   UNL     1      16.171 -42.867   0.359  1.00  0.00     0.293 HD
ENDBRANCH  16  21
ENDBRANCH   1  11
BRANCH  10  23
ATOM     23  O   UNL     1      18.306 -37.382  -2.137  1.00  0.00    -0.500 OA
ATOM     24  H   UNL     1      18.843 -37.031  -2.921  1.00  0.00     0.294 HD
ENDBRANCH  10  23
BRANCH   5  25
ATOM     25  O   UNL     1      12.875 -32.511   0.515  1.00  0.00    -0.507 OA
ATOM     26  H   UNL     1      12.368 -32.928   1.287  1.00  0.00     0.293 HD
ENDBRANCH   5  25
BRANCH   7  27
ATOM     27  O   UNL     1      16.189 -32.669  -2.978  1.00  0.00    -0.507 OA
ATOM     28  H   UNL     1      16.987 -32.053  -2.911  1.00  0.00     0.293 HD
ENDBRANCH   7  27
TORSDOF 7
ENDMDL
MODEL 7
REMARK VINA RESULT:    -4.487      2.530      3.827
REMARK INTER + INTRA:          -5.920
REMARK INTER:                  -5.626
REMARK INTRA:                  -0.294
REMARK UNBOUND:                -0.384
REMARK SMILES Oc1cc(O)c2cc(O)c(-c3cc(O)c(O)c(O)c3)[o+]c2c1
REMARK SMILES IDX 10 1 20 2 21 3 22 4 2 5 3 6 4 7 6 8 7 9 8 10 11 11 12 12
REMARK SMILES IDX 13 13 19 14 15 15 17 16 14 17 16 19 18 21 9 23 1 25 5 27
REMARK H PARENT 14 18 16 20 18 22 9 24 1 26 5 28
REMARK Flexibility Score: inf
ROOT
ATOM      1  C   UNL     1      20.714 -37.436   8.384  1.00  0.00     0.402 A 
ATOM      2  O   UNL     1      21.213 -37.909   7.245  1.00  0.00    -0.202 OA
ATOM      3  C   UNL     1      22.034 -38.952   7.186  1.00  0.00     0.368 A 
ATOM      4  C   UNL     1      22.510 -39.373   5.941  1.00  0.00     0.162 A 
ATOM      5  C   UNL     1      23.376 -40.463   5.849  1.00  0.00     0.128 A 
ATOM      6  C   UNL     1      23.772 -41.139   7.009  1.00  0.00     0.093 A 
ATOM      7  C   UNL     1      23.310 -40.736   8.268  1.00  0.00     0.136 A 
ATOM      8  C   UNL     1      22.427 -39.630   8.365  1.00  0.00     0.125 A 
ATOM      9  C   UNL     1      21.904 -39.165   9.583  1.00  0.00     0.078 A 
ATOM     10  C   UNL     1      21.034 -38.070   9.600  1.00  0.00     0.223 A 
ENDROOT
BRANCH   1  11
ATOM     11  C   UNL     1      19.816 -36.260   8.321  1.00  0.00     0.091 A 
ATOM     12  C   UNL     1      20.262 -35.025   8.812  1.00  0.00     0.068 A 
ATOM     13  C   UNL     1      19.432 -33.897   8.788  1.00  0.00     0.162 A 
ATOM     14  C   UNL     1      18.504 -36.367   7.833  1.00  0.00     0.068 A 
ATOM     15  C   UNL     1      18.119 -34.007   8.273  1.00  0.00     0.200 A 
ATOM     16  C   UNL     1      17.664 -35.247   7.803  1.00  0.00     0.162 A 
BRANCH  13  17
ATOM     17  O   UNL     1      19.951 -32.699   9.284  1.00  0.00    -0.504 OA
ATOM     18  H   UNL     1      20.596 -32.640  10.059  1.00  0.00     0.293 HD
ENDBRANCH  13  17
BRANCH  15  19
ATOM     19  O   UNL     1      17.243 -32.921   8.214  1.00  0.00    -0.502 OA
ATOM     20  H   UNL     1      16.285 -32.982   7.899  1.00  0.00     0.293 HD
ENDBRANCH  15  19
BRANCH  16  21
ATOM     21  O   UNL     1      16.365 -35.361   7.309  1.00  0.00    -0.504 OA
ATOM     22  H   UNL     1      15.614 -35.743   7.871  1.00  0.00     0.293 HD
ENDBRANCH  16  21
ENDBRANCH   1  11
BRANCH  10  23
ATOM     23  O   UNL     1      20.475 -37.638  10.803  1.00  0.00    -0.500 OA
ATOM     24  H   UNL     1      19.661 -38.090  11.204  1.00  0.00     0.294 HD
ENDBRANCH  10  23
BRANCH   5  25
ATOM     25  O   UNL     1      23.839 -40.867   4.598  1.00  0.00    -0.507 OA
ATOM     26  H   UNL     1      24.826 -40.854   4.369  1.00  0.00     0.293 HD
ENDBRANCH   5  25
BRANCH   7  27
ATOM     27  O   UNL     1      23.754 -41.460   9.378  1.00  0.00    -0.507 OA
ATOM     28  H   UNL     1      23.169 -41.726  10.157  1.00  0.00     0.293 HD
ENDBRANCH   7  27
TORSDOF 7
ENDMDL
MODEL 8
REMARK VINA RESULT:    -4.484      2.543      3.704
REMARK INTER + INTRA:          -5.917
REMARK INTER:                  -5.584
REMARK INTRA:                  -0.333
REMARK UNBOUND:                -0.384
REMARK SMILES Oc1cc(O)c2cc(O)c(-c3cc(O)c(O)c(O)c3)[o+]c2c1
REMARK SMILES IDX 10 1 20 2 21 3 22 4 2 5 3 6 4 7 6 8 7 9 8 10 11 11 12 12
REMARK SMILES IDX 13 13 19 14 15 15 17 16 14 17 16 19 18 21 9 23 1 25 5 27
REMARK H PARENT 14 18 16 20 18 22 9 24 1 26 5 28
REMARK Flexibility Score: inf
ROOT
ATOM      1  C   UNL     1      20.758 -37.470   8.440  1.00  0.00     0.402 A 
ATOM      2  O   UNL     1      21.252 -37.918   7.289  1.00  0.00    -0.202 OA
ATOM      3  C   UNL     1      22.053 -38.975   7.201  1.00  0.00     0.368 A 
ATOM      4  C   UNL     1      22.525 -39.368   5.946  1.00  0.00     0.162 A 
ATOM      5  C   UNL     1      23.371 -40.471   5.824  1.00  0.00     0.128 A 
ATOM      6  C   UNL     1      23.751 -41.187   6.965  1.00  0.00     0.093 A 
ATOM      7  C   UNL     1      23.293 -40.813   8.234  1.00  0.00     0.136 A 
ATOM      8  C   UNL     1      22.430 -39.693   8.361  1.00  0.00     0.125 A 
ATOM      9  C   UNL     1      21.913 -39.254   9.591  1.00  0.00     0.078 A 
ATOM     10  C   UNL     1      21.063 -38.144   9.637  1.00  0.00     0.223 A 
ENDROOT
BRANCH   1  11
ATOM     11  C   UNL     1      19.882 -36.276   8.409  1.00  0.00     0.091 A 
ATOM     12  C   UNL     1      18.592 -36.382   7.870  1.00  0.00     0.068 A 
ATOM     13  C   UNL     1      17.744 -35.270   7.805  1.00  0.00     0.162 A 
ATOM     14  C   UNL     1      20.335 -35.025   8.855  1.00  0.00     0.068 A 
ATOM     15  C   UNL     1      18.199 -34.016   8.278  1.00  0.00     0.200 A 
ATOM     16  C   UNL     1      19.497 -33.904   8.796  1.00  0.00     0.162 A 
BRANCH  13  17
ATOM     17  O   UNL     1      16.469 -35.456   7.267  1.00  0.00    -0.504 OA
ATOM     18  H   UNL     1      15.959 -34.745   6.762  1.00  0.00     0.293 HD
ENDBRANCH  13  17
BRANCH  15  19
ATOM     19  O   UNL     1      17.403 -32.869   8.250  1.00  0.00    -0.502 OA
ATOM     20  H   UNL     1      16.646 -32.721   7.598  1.00  0.00     0.293 HD
ENDBRANCH  15  19
BRANCH  16  21
ATOM     21  O   UNL     1      19.953 -32.666   9.248  1.00  0.00    -0.504 OA
ATOM     22  H   UNL     1      19.311 -31.937   9.537  1.00  0.00     0.293 HD
ENDBRANCH  16  21
ENDBRANCH   1  11
BRANCH  10  23
ATOM     23  O   UNL     1      20.508 -37.737  10.851  1.00  0.00    -0.500 OA
ATOM     24  H   UNL     1      20.802 -36.883  11.311  1.00  0.00     0.294 HD
ENDBRANCH  10  23
BRANCH   5  25
ATOM     25  O   UNL     1      23.830 -40.848   4.563  1.00  0.00    -0.507 OA
ATOM     26  H   UNL     1      24.777 -40.649   4.263  1.00  0.00     0.293 HD
ENDBRANCH   5  25
BRANCH   7  27
ATOM     27  O   UNL     1      23.721 -41.577   9.324  1.00  0.00    -0.507 OA
ATOM     28  H   UNL     1      24.599 -42.076   9.360  1.00  0.00     0.293 HD
ENDBRANCH   7  27
TORSDOF 7
ENDMDL
MODEL 9
REMARK VINA RESULT:    -4.431      1.508      3.401
REMARK INTER + INTRA:          -5.851
REMARK INTER:                  -5.539
REMARK INTRA:                  -0.312
REMARK UNBOUND:                -0.384
REMARK SMILES Oc1cc(O)c2cc(O)c(-c3cc(O)c(O)c(O)c3)[o+]c2c1
REMARK SMILES IDX 10 1 20 2 21 3 22 4 2 5 3 6 4 7 6 8 7 9 8 10 11 11 12 12
REMARK SMILES IDX 13 13 19 14 15 15 17 16 14 17 16 19 18 21 9 23 1 25 5 27
REMARK H PARENT 14 18 16 20 18 22 9 24 1 26 5 28
REMARK Flexibility Score: inf
ROOT
ATOM      1  C   UNL     1      19.754 -36.773   7.818  1.00  0.00     0.402 A 
ATOM      2  O   UNL     1      20.936 -37.294   7.501  1.00  0.00    -0.202 OA
ATOM      3  C   UNL     1      21.075 -38.400   6.777  1.00  0.00     0.368 A 
ATOM      4  C   UNL     1      22.360 -38.874   6.498  1.00  0.00     0.162 A 
ATOM      5  C   UNL     1      22.537 -40.034   5.744  1.00  0.00     0.128 A 
ATOM      6  C   UNL     1      21.421 -40.729   5.264  1.00  0.00     0.093 A 
ATOM      7  C   UNL     1      20.122 -40.276   5.530  1.00  0.00     0.136 A 
ATOM      8  C   UNL     1      19.940 -39.095   6.295  1.00  0.00     0.125 A 
ATOM      9  C   UNL     1      18.677 -38.560   6.599  1.00  0.00     0.078 A 
ATOM     10  C   UNL     1      18.576 -37.388   7.355  1.00  0.00     0.223 A 
ENDROOT
BRANCH   1  11
ATOM     11  C   UNL     1      19.729 -35.540   8.639  1.00  0.00     0.091 A 
ATOM     12  C   UNL     1      19.454 -34.309   8.026  1.00  0.00     0.068 A 
ATOM     13  C   UNL     1      19.443 -33.122   8.767  1.00  0.00     0.162 A 
ATOM     14  C   UNL     1      20.032 -35.568  10.008  1.00  0.00     0.068 A 
ATOM     15  C   UNL     1      19.726 -33.160  10.153  1.00  0.00     0.200 A 
ATOM     16  C   UNL     1      20.024 -34.388  10.762  1.00  0.00     0.162 A 
BRANCH  13  17
ATOM     17  O   UNL     1      19.149 -31.936   8.089  1.00  0.00    -0.504 OA
ATOM     18  H   UNL     1      19.327 -31.014   8.460  1.00  0.00     0.293 HD
ENDBRANCH  13  17
BRANCH  15  19
ATOM     19  O   UNL     1      19.725 -32.015  10.951  1.00  0.00    -0.502 OA
ATOM     20  H   UNL     1      19.396 -31.110  10.645  1.00  0.00     0.293 HD
ENDBRANCH  15  19
BRANCH  16  21
ATOM     21  O   UNL     1      20.318 -34.426  12.124  1.00  0.00    -0.504 OA
ATOM     22  H   UNL     1      20.158 -33.626  12.725  1.00  0.00     0.293 HD
ENDBRANCH  16  21
ENDBRANCH   1  11
BRANCH  10  23
ATOM     23  O   UNL     1      17.325 -36.829   7.615  1.00  0.00    -0.500 OA
ATOM     24  H   UNL     1      16.926 -36.827   8.547  1.00  0.00     0.294 HD
ENDBRANCH  10  23
BRANCH   5  25
ATOM     25  O   UNL     1      23.826 -40.489   5.476  1.00  0.00    -0.507 OA
ATOM     26  H   UNL     1      24.026 -41.068   4.669  1.00  0.00     0.293 HD
ENDBRANCH   5  25
BRANCH   7  27
ATOM     27  O   UNL     1      19.061 -41.029   5.019  1.00  0.00    -0.507 OA
ATOM     28  H   UNL     1      18.770 -41.925   5.383  1.00  0.00     0.293 HD
ENDBRANCH   7  27
TORSDOF 7
ENDMDL
