MODEL 1
REMARK VINA RESULT:    -5.169      0.000      0.000
REMARK INTER + INTRA:          -8.078
REMARK INTER:                  -7.587
REMARK INTRA:                  -0.491
REMARK UNBOUND:                -0.491
REMARK SMILES O=C([O-])CCCCCCCC(=O)[O-]
REMARK SMILES IDX 7 1 6 2 5 3 4 4 2 5 1 6 3 7 8 8 9 9 10 10 11 11 12 12 13 13
REMARK H PARENT
REMARK Flexibility Score: inf
ROOT
ATOM      1  C   UNL     1     -13.035   3.603 -17.112  1.00  0.00     0.000 C 
ENDROOT
BRANCH   1   2
ATOM      2  C   UNL     1     -13.596   3.290 -18.510  1.00  0.00     0.000 C 
BRANCH   2   3
ATOM      3  C   UNL     1     -13.697   1.779 -18.785  1.00  0.00     0.006 C 
BRANCH   3   4
ATOM      4  C   UNL     1     -14.748   1.398 -19.839  1.00  0.00     0.053 C 
BRANCH   4   5
ATOM      5  C   UNL     1     -15.897   0.646 -19.241  1.00  0.00     0.041 C 
ATOM      6  O   UNL     1     -16.596   1.172 -18.336  1.00  0.00    -0.550 OA
ATOM      7  O   UNL     1     -16.174  -0.650 -19.659  1.00  0.00    -0.550 OA
ENDBRANCH   4   5
ENDBRANCH   3   4
ENDBRANCH   2   3
ENDBRANCH   1   2
BRANCH   1   8
ATOM      8  C   UNL     1     -13.624   2.693 -16.021  1.00  0.00     0.000 C 
BRANCH   8   9
ATOM      9  C   UNL     1     -15.119   2.960 -15.774  1.00  0.00     0.006 C 
BRANCH   9  10
ATOM     10  C   UNL     1     -15.726   1.969 -14.773  1.00  0.00     0.053 C 
BRANCH  10  11
ATOM     11  C   UNL     1     -15.152   2.141 -13.400  1.00  0.00     0.041 C 
ATOM     12  O   UNL     1     -15.173   3.268 -12.840  1.00  0.00    -0.550 OA
ATOM     13  O   UNL     1     -14.622   1.048 -12.725  1.00  0.00    -0.550 OA
ENDBRANCH  10  11
ENDBRANCH   9  10
ENDBRANCH   8   9
ENDBRANCH   1   8
TORSDOF 8
ENDMDL
MODEL 2
REMARK VINA RESULT:    -5.151      1.349      5.838
REMARK INTER + INTRA:          -8.051
REMARK INTER:                  -7.839
REMARK INTRA:                  -0.211
REMARK UNBOUND:                -0.491
REMARK SMILES O=C([O-])CCCCCCCC(=O)[O-]
REMARK SMILES IDX 7 1 6 2 5 3 4 4 2 5 1 6 3 7 8 8 9 9 10 10 11 11 12 12 13 13
REMARK H PARENT
REMARK Flexibility Score: inf
ROOT
ATOM      1  C   UNL     1     -13.570   2.770 -15.977  1.00  0.00     0.000 C 
ENDROOT
BRANCH   1   2
ATOM      2  C   UNL     1     -15.056   3.022 -15.668  1.00  0.00     0.000 C 
BRANCH   2   3
ATOM      3  C   UNL     1     -15.556   2.214 -14.457  1.00  0.00     0.006 C 
BRANCH   3   4
ATOM      4  C   UNL     1     -15.444   2.955 -13.115  1.00  0.00     0.053 C 
BRANCH   4   5
ATOM      5  C   UNL     1     -15.924   2.118 -11.969  1.00  0.00     0.041 C 
ATOM      6  O   UNL     1     -15.208   1.185 -11.522  1.00  0.00    -0.550 OA
ATOM      7  O   UNL     1     -17.179   2.347 -11.418  1.00  0.00    -0.550 OA
ENDBRANCH   4   5
ENDBRANCH   3   4
ENDBRANCH   2   3
ENDBRANCH   1   2
BRANCH   1   8
ATOM      8  C   UNL     1     -13.016   3.730 -17.043  1.00  0.00     0.000 C 
BRANCH   8   9
ATOM      9  C   UNL     1     -13.488   3.370 -18.462  1.00  0.00     0.006 C 
BRANCH   9  10
ATOM     10  C   UNL     1     -13.718   1.863 -18.632  1.00  0.00     0.053 C 
BRANCH  10  11
ATOM     11  C   UNL     1     -14.833   1.572 -19.589  1.00  0.00     0.041 C 
ATOM     12  O   UNL     1     -14.737   1.914 -20.797  1.00  0.00    -0.550 OA
ATOM     13  O   UNL     1     -15.966   0.896 -19.153  1.00  0.00    -0.550 OA
ENDBRANCH  10  11
ENDBRANCH   9  10
ENDBRANCH   8   9
ENDBRANCH   1   8
TORSDOF 8
ENDMDL
MODEL 3
REMARK VINA RESULT:    -5.142      1.386      2.130
REMARK INTER + INTRA:          -8.037
REMARK INTER:                  -7.727
REMARK INTRA:                  -0.310
REMARK UNBOUND:                -0.491
REMARK SMILES O=C([O-])CCCCCCCC(=O)[O-]
REMARK SMILES IDX 7 1 6 2 5 3 4 4 2 5 1 6 3 7 8 8 9 9 10 10 11 11 12 12 13 13
REMARK H PARENT
REMARK Flexibility Score: inf
ROOT
ATOM      1  C   UNL     1     -13.519   2.597 -16.001  1.00  0.00     0.000 C 
ENDROOT
BRANCH   1   2
ATOM      2  C   UNL     1     -13.371   3.745 -17.014  1.00  0.00     0.000 C 
BRANCH   2   3
ATOM      3  C   UNL     1     -13.460   3.264 -18.473  1.00  0.00     0.006 C 
BRANCH   3   4
ATOM      4  C   UNL     1     -13.686   1.751 -18.626  1.00  0.00     0.053 C 
BRANCH   4   5
ATOM      5  C   UNL     1     -14.921   1.445 -19.417  1.00  0.00     0.041 C 
ATOM      6  O   UNL     1     -14.884   1.447 -20.674  1.00  0.00    -0.550 OA
ATOM      7  O   UNL     1     -16.121   1.192 -18.763  1.00  0.00    -0.550 OA
ENDBRANCH   4   5
ENDBRANCH   3   4
ENDBRANCH   2   3
ENDBRANCH   1   2
BRANCH   1   8
ATOM      8  C   UNL     1     -14.837   2.671 -15.211  1.00  0.00     0.000 C 
BRANCH   8   9
ATOM      9  C   UNL     1     -14.717   2.056 -13.806  1.00  0.00     0.006 C 
BRANCH   9  10
ATOM     10  C   UNL     1     -15.424   2.903 -12.741  1.00  0.00     0.053 C 
BRANCH  10  11
ATOM     11  C   UNL     1     -16.069   2.053 -11.689  1.00  0.00     0.041 C 
ATOM     12  O   UNL     1     -15.418   1.131 -11.132  1.00  0.00    -0.550 OA
ATOM     13  O   UNL     1     -17.380   2.301 -11.301  1.00  0.00    -0.550 OA
ENDBRANCH  10  11
ENDBRANCH   9  10
ENDBRANCH   8   9
ENDBRANCH   1   8
TORSDOF 8
ENDMDL
MODEL 4
REMARK VINA RESULT:    -5.102      2.456      5.332
REMARK INTER + INTRA:          -7.980
REMARK INTER:                  -7.114
REMARK INTRA:                  -0.865
REMARK UNBOUND:                -0.491
REMARK SMILES O=C([O-])CCCCCCCC(=O)[O-]
REMARK SMILES IDX 7 1 6 2 5 3 4 4 2 5 1 6 3 7 8 8 9 9 10 10 11 11 12 12 13 13
REMARK H PARENT
REMARK Flexibility Score: inf
ROOT
ATOM      1  C   UNL     1     -17.163  -1.869 -18.945  1.00  0.00     0.000 C 
ENDROOT
BRANCH   1   2
ATOM      2  C   UNL     1     -17.493  -2.192 -17.478  1.00  0.00     0.000 C 
BRANCH   2   3
ATOM      3  C   UNL     1     -16.465  -1.602 -16.495  1.00  0.00     0.006 C 
BRANCH   3   4
ATOM      4  C   UNL     1     -17.072  -0.679 -15.426  1.00  0.00     0.053 C 
BRANCH   4   5
ATOM      5  C   UNL     1     -16.460   0.688 -15.450  1.00  0.00     0.041 C 
ATOM      6  O   UNL     1     -16.837   1.535 -16.300  1.00  0.00    -0.550 OA
ATOM      7  O   UNL     1     -15.447   1.013 -14.556  1.00  0.00    -0.550 OA
ENDBRANCH   4   5
ENDBRANCH   3   4
ENDBRANCH   2   3
ENDBRANCH   1   2
BRANCH   1   8
ATOM      8  C   UNL     1     -17.092  -0.358 -19.217  1.00  0.00     0.000 C 
BRANCH   8   9
ATOM      9  C   UNL     1     -15.821   0.044 -19.987  1.00  0.00     0.006 C 
BRANCH   9  10
ATOM     10  C   UNL     1     -15.061   1.183 -19.297  1.00  0.00     0.053 C 
BRANCH  10  11
ATOM     11  C   UNL     1     -14.032   0.668 -18.338  1.00  0.00     0.041 C 
ATOM     12  O   UNL     1     -13.578   1.416 -17.433  1.00  0.00    -0.550 OA
ATOM     13  O   UNL     1     -13.597  -0.649 -18.425  1.00  0.00    -0.550 OA
ENDBRANCH  10  11
ENDBRANCH   9  10
ENDBRANCH   8   9
ENDBRANCH   1   8
TORSDOF 8
ENDMDL
MODEL 5
REMARK VINA RESULT:    -5.085      2.128      3.115
REMARK INTER + INTRA:          -7.954
REMARK INTER:                  -7.597
REMARK INTRA:                  -0.357
REMARK UNBOUND:                -0.491
REMARK SMILES O=C([O-])CCCCCCCC(=O)[O-]
REMARK SMILES IDX 7 1 6 2 5 3 4 4 2 5 1 6 3 7 8 8 9 9 10 10 11 11 12 12 13 13
REMARK H PARENT
REMARK Flexibility Score: inf
ROOT
ATOM      1  C   UNL     1     -15.728   2.043 -15.258  1.00  0.00     0.000 C 
ENDROOT
BRANCH   1   2
ATOM      2  C   UNL     1     -15.281   2.946 -16.421  1.00  0.00     0.000 C 
BRANCH   2   3
ATOM      3  C   UNL     1     -13.752   2.962 -16.605  1.00  0.00     0.006 C 
BRANCH   3   4
ATOM      4  C   UNL     1     -13.292   2.857 -18.067  1.00  0.00     0.053 C 
BRANCH   4   5
ATOM      5  C   UNL     1     -13.891   1.672 -18.761  1.00  0.00     0.041 C 
ATOM      6  O   UNL     1     -13.626   0.507 -18.367  1.00  0.00    -0.550 OA
ATOM      7  O   UNL     1     -14.714   1.855 -19.866  1.00  0.00    -0.550 OA
ENDBRANCH   4   5
ENDBRANCH   3   4
ENDBRANCH   2   3
ENDBRANCH   1   2
BRANCH   1   8
ATOM      8  C   UNL     1     -15.493   2.689 -13.883  1.00  0.00     0.000 C 
BRANCH   8   9
ATOM      9  C   UNL     1     -15.224   1.649 -12.781  1.00  0.00     0.006 C 
BRANCH   9  10
ATOM     10  C   UNL     1     -15.935   2.000 -11.468  1.00  0.00     0.053 C 
BRANCH  10  11
ATOM     11  C   UNL     1     -17.145   1.145 -11.243  1.00  0.00     0.041 C 
ATOM     12  O   UNL     1     -17.522   0.876 -10.072  1.00  0.00    -0.550 OA
ATOM     13  O   UNL     1     -17.874   0.672 -12.327  1.00  0.00    -0.550 OA
ENDBRANCH  10  11
ENDBRANCH   9  10
ENDBRANCH   8   9
ENDBRANCH   1   8
TORSDOF 8
ENDMDL
MODEL 6
REMARK VINA RESULT:    -5.084      2.005      6.058
REMARK INTER + INTRA:          -7.953
REMARK INTER:                  -7.540
REMARK INTRA:                  -0.413
REMARK UNBOUND:                -0.491
REMARK SMILES O=C([O-])CCCCCCCC(=O)[O-]
REMARK SMILES IDX 7 1 6 2 5 3 4 4 2 5 1 6 3 7 8 8 9 9 10 10 11 11 12 12 13 13
REMARK H PARENT
REMARK Flexibility Score: inf
ROOT
ATOM      1  C   UNL     1     -15.550   2.036 -15.192  1.00  0.00     0.000 C 
ENDROOT
BRANCH   1   2
ATOM      2  C   UNL     1     -14.652   2.257 -13.963  1.00  0.00     0.000 C 
BRANCH   2   3
ATOM      3  C   UNL     1     -15.451   2.647 -12.706  1.00  0.00     0.006 C 
BRANCH   3   4
ATOM      4  C   UNL     1     -15.463   1.572 -11.608  1.00  0.00     0.053 C 
BRANCH   4   5
ATOM      5  C   UNL     1     -16.831   0.999 -11.397  1.00  0.00     0.041 C 
ATOM      6  O   UNL     1     -17.425   0.413 -12.339  1.00  0.00    -0.550 OA
ATOM      7  O   UNL     1     -17.465   1.146 -10.169  1.00  0.00    -0.550 OA
ENDBRANCH   4   5
ENDBRANCH   3   4
ENDBRANCH   2   3
ENDBRANCH   1   2
BRANCH   1   8
ATOM      8  C   UNL     1     -15.200   2.975 -16.358  1.00  0.00     0.000 C 
BRANCH   8   9
ATOM      9  C   UNL     1     -13.694   2.989 -16.671  1.00  0.00     0.006 C 
BRANCH   9  10
ATOM     10  C   UNL     1     -13.416   2.952 -18.179  1.00  0.00     0.053 C 
BRANCH  10  11
ATOM     11  C   UNL     1     -14.033   1.753 -18.832  1.00  0.00     0.041 C 
ATOM     12  O   UNL     1     -14.801   1.893 -19.819  1.00  0.00    -0.550 OA
ATOM     13  O   UNL     1     -13.735   0.477 -18.368  1.00  0.00    -0.550 OA
ENDBRANCH  10  11
ENDBRANCH   9  10
ENDBRANCH   8   9
ENDBRANCH   1   8
TORSDOF 8
ENDMDL
MODEL 7
REMARK VINA RESULT:    -4.997     16.740     17.906
REMARK INTER + INTRA:          -7.825
REMARK INTER:                  -7.101
REMARK INTRA:                  -0.724
REMARK UNBOUND:                -0.491
REMARK SMILES O=C([O-])CCCCCCCC(=O)[O-]
REMARK SMILES IDX 7 1 6 2 5 3 4 4 2 5 1 6 3 7 8 8 9 9 10 10 11 11 12 12 13 13
REMARK H PARENT
REMARK Flexibility Score: inf
ROOT
ATOM      1  C   UNL     1     -28.225   0.367  -7.904  1.00  0.00     0.000 C 
ENDROOT
BRANCH   1   2
ATOM      2  C   UNL     1     -28.608   0.529  -9.385  1.00  0.00     0.000 C 
BRANCH   2   3
ATOM      3  C   UNL     1     -30.113   0.783  -9.585  1.00  0.00     0.006 C 
BRANCH   3   4
ATOM      4  C   UNL     1     -30.991   0.328  -8.407  1.00  0.00     0.053 C 
BRANCH   4   5
ATOM      5  C   UNL     1     -31.896  -0.804  -8.785  1.00  0.00     0.041 C 
ATOM      6  O   UNL     1     -32.820  -1.162  -8.010  1.00  0.00    -0.550 OA
ATOM      7  O   UNL     1     -31.696  -1.486  -9.980  1.00  0.00    -0.550 OA
ENDBRANCH   4   5
ENDBRANCH   3   4
ENDBRANCH   2   3
ENDBRANCH   1   2
BRANCH   1   8
ATOM      8  C   UNL     1     -27.483  -0.950  -7.625  1.00  0.00     0.000 C 
BRANCH   8   9
ATOM      9  C   UNL     1     -27.509  -1.337  -6.136  1.00  0.00     0.006 C 
BRANCH   9  10
ATOM     10  C   UNL     1     -28.235  -2.667  -5.896  1.00  0.00     0.053 C 
BRANCH  10  11
ATOM     11  C   UNL     1     -29.719  -2.527  -6.049  1.00  0.00     0.041 C 
ATOM     12  O   UNL     1     -30.330  -1.586  -5.479  1.00  0.00    -0.550 OA
ATOM     13  O   UNL     1     -30.423  -3.420  -6.848  1.00  0.00    -0.550 OA
ENDBRANCH  10  11
ENDBRANCH   9  10
ENDBRANCH   8   9
ENDBRANCH   1   8
TORSDOF 8
ENDMDL
MODEL 8
REMARK VINA RESULT:    -4.993      2.687      5.519
REMARK INTER + INTRA:          -7.819
REMARK INTER:                  -7.243
REMARK INTRA:                  -0.577
REMARK UNBOUND:                -0.491
REMARK SMILES O=C([O-])CCCCCCCC(=O)[O-]
REMARK SMILES IDX 7 1 6 2 5 3 4 4 2 5 1 6 3 7 8 8 9 9 10 10 11 11 12 12 13 13
REMARK H PARENT
REMARK Flexibility Score: inf
ROOT
ATOM      1  C   UNL     1     -15.449   2.998 -13.337  1.00  0.00     0.000 C 
ENDROOT
BRANCH   1   2
ATOM      2  C   UNL     1     -15.579   2.181 -12.040  1.00  0.00     0.000 C 
BRANCH   2   3
ATOM      3  C   UNL     1     -17.043   1.867 -11.681  1.00  0.00     0.006 C 
BRANCH   3   4
ATOM      4  C   UNL     1     -17.393   0.370 -11.714  1.00  0.00     0.053 C 
BRANCH   4   5
ATOM      5  C   UNL     1     -17.644  -0.117 -13.108  1.00  0.00     0.041 C 
ATOM      6  O   UNL     1     -18.787  -0.009 -13.621  1.00  0.00    -0.550 OA
ATOM      7  O   UNL     1     -16.621  -0.724 -13.828  1.00  0.00    -0.550 OA
ENDBRANCH   4   5
ENDBRANCH   3   4
ENDBRANCH   2   3
ENDBRANCH   1   2
BRANCH   1   8
ATOM      8  C   UNL     1     -14.774   2.208 -14.470  1.00  0.00     0.000 C 
BRANCH   8   9
ATOM      9  C   UNL     1     -15.681   2.055 -15.704  1.00  0.00     0.006 C 
BRANCH   9  10
ATOM     10  C   UNL     1     -15.255   2.977 -16.853  1.00  0.00     0.053 C 
BRANCH  10  11
ATOM     11  C   UNL     1     -13.874   2.661 -17.339  1.00  0.00     0.041 C 
ATOM     12  O   UNL     1     -13.619   1.533 -17.836  1.00  0.00    -0.550 OA
ATOM     13  O   UNL     1     -12.875   3.625 -17.272  1.00  0.00    -0.550 OA
ENDBRANCH  10  11
ENDBRANCH   9  10
ENDBRANCH   8   9
ENDBRANCH   1   8
TORSDOF 8
ENDMDL
MODEL 9
REMARK VINA RESULT:    -4.988      2.464      4.004
REMARK INTER + INTRA:          -7.812
REMARK INTER:                  -6.990
REMARK INTRA:                  -0.821
REMARK UNBOUND:                -0.491
REMARK SMILES O=C([O-])CCCCCCCC(=O)[O-]
REMARK SMILES IDX 7 1 6 2 5 3 4 4 2 5 1 6 3 7 8 8 9 9 10 10 11 11 12 12 13 13
REMARK H PARENT
REMARK Flexibility Score: inf
ROOT
ATOM      1  C   UNL     1     -17.372  -1.784 -18.880  1.00  0.00     0.000 C 
ENDROOT
BRANCH   1   2
ATOM      2  C   UNL     1     -17.196  -0.293 -19.216  1.00  0.00     0.000 C 
BRANCH   2   3
ATOM      3  C   UNL     1     -15.844   0.008 -19.886  1.00  0.00     0.006 C 
BRANCH   3   4
ATOM      4  C   UNL     1     -15.121   1.242 -19.323  1.00  0.00     0.053 C 
BRANCH   4   5
ATOM      5  C   UNL     1     -14.081   0.871 -18.311  1.00  0.00     0.041 C 
ATOM      6  O   UNL     1     -13.538   1.760 -17.605  1.00  0.00    -0.550 OA
ATOM      7  O   UNL     1     -13.687  -0.454 -18.173  1.00  0.00    -0.550 OA
ENDBRANCH   4   5
ENDBRANCH   3   4
ENDBRANCH   2   3
ENDBRANCH   1   2
BRANCH   1   8
ATOM      8  C   UNL     1     -16.923  -2.126 -17.450  1.00  0.00     0.000 C 
BRANCH   8   9
ATOM      9  C   UNL     1     -17.627  -1.263 -16.389  1.00  0.00     0.006 C 
BRANCH   9  10
ATOM     10  C   UNL     1     -16.671  -0.822 -15.274  1.00  0.00     0.053 C 
BRANCH  10  11
ATOM     11  C   UNL     1     -16.324   0.632 -15.378  1.00  0.00     0.041 C 
ATOM     12  O   UNL     1     -16.965   1.382 -16.161  1.00  0.00    -0.550 OA
ATOM     13  O   UNL     1     -15.314   1.166 -14.587  1.00  0.00    -0.550 OA
ENDBRANCH  10  11
ENDBRANCH   9  10
ENDBRANCH   8   9
ENDBRANCH   1   8
TORSDOF 8
ENDMDL
