MODEL 1
REMARK VINA RESULT:    -4.084      0.000      0.000
REMARK INTER + INTRA:          -8.116
REMARK INTER:                  -6.949
REMARK INTRA:                  -1.167
REMARK UNBOUND:                -1.167
REMARK SMILES CCCCCCCCCCCCCC(=O)[O-]
REMARK SMILES IDX 8 1 9 2 10 3 11 4 12 5 13 6 14 7 15 8 16 9 7 10 6 11 5 12
REMARK SMILES IDX 4 13 3 14 2 15 1 16
REMARK H PARENT
REMARK Flexibility Score: inf
ROOT
ATOM      1  C   UNL     1      30.911  33.573  22.964  1.00  0.00     0.000 C 
ENDROOT
BRANCH   1   2
ATOM      2  C   UNL     1      32.284  32.984  22.597  1.00  0.00     0.000 C 
BRANCH   2   3
ATOM      3  C   UNL     1      32.867  33.592  21.310  1.00  0.00     0.000 C 
BRANCH   3   4
ATOM      4  C   UNL     1      31.787  33.943  20.270  1.00  0.00     0.000 C 
BRANCH   4   5
ATOM      5  C   UNL     1      31.827  33.095  18.985  1.00  0.00     0.006 C 
BRANCH   5   6
ATOM      6  C   UNL     1      33.065  32.192  18.901  1.00  0.00     0.053 C 
BRANCH   6   7
ATOM      7  C   UNL     1      33.909  32.571  17.727  1.00  0.00     0.041 C 
ATOM      8  O   UNL     1      35.155  32.390  17.757  1.00  0.00    -0.550 OA
ATOM      9  O   UNL     1      33.329  33.171  16.616  1.00  0.00    -0.550 OA
ENDBRANCH   6   7
ENDBRANCH   5   6
ENDBRANCH   4   5
ENDBRANCH   3   4
ENDBRANCH   2   3
ENDBRANCH   1   2
BRANCH   1  10
ATOM     10  C   UNL     1      29.764  32.543  23.037  1.00  0.00     0.000 C 
BRANCH  10  11
ATOM     11  C   UNL     1      28.345  33.142  22.973  1.00  0.00    -0.000 C 
BRANCH  11  12
ATOM     12  C   UNL     1      28.257  34.548  22.349  1.00  0.00    -0.000 C 
BRANCH  12  13
ATOM     13  C   UNL     1      28.086  34.568  20.820  1.00  0.00    -0.000 C 
BRANCH  13  14
ATOM     14  C   UNL     1      27.367  33.318  20.285  1.00  0.00    -0.000 C 
BRANCH  14  15
ATOM     15  C   UNL     1      26.023  33.653  19.620  1.00  0.00    -0.003 C 
ATOM     16  C   UNL     1      24.875  32.788  20.140  1.00  0.00     0.004 C 
ENDBRANCH  14  15
ENDBRANCH  13  14
ENDBRANCH  12  13
ENDBRANCH  11  12
ENDBRANCH  10  11
ENDBRANCH   1  10
TORSDOF 12
ENDMDL
MODEL 2
REMARK VINA RESULT:    -3.922      2.354      3.418
REMARK INTER + INTRA:          -7.840
REMARK INTER:                  -6.215
REMARK INTRA:                  -1.625
REMARK UNBOUND:                -1.167
REMARK SMILES CCCCCCCCCCCCCC(=O)[O-]
REMARK SMILES IDX 8 1 9 2 10 3 11 4 12 5 13 6 14 7 15 8 16 9 7 10 6 11 5 12
REMARK SMILES IDX 4 13 3 14 2 15 1 16
REMARK H PARENT
REMARK Flexibility Score: inf
ROOT
ATOM      1  C   UNL     1      30.937  35.281  24.099  1.00  0.00     0.000 C 
ENDROOT
BRANCH   1   2
ATOM      2  C   UNL     1      31.999  34.809  23.091  1.00  0.00     0.000 C 
BRANCH   2   3
ATOM      3  C   UNL     1      31.997  33.283  22.895  1.00  0.00     0.000 C 
BRANCH   3   4
ATOM      4  C   UNL     1      33.238  32.776  22.136  1.00  0.00     0.000 C 
BRANCH   4   5
ATOM      5  C   UNL     1      34.264  33.865  21.774  1.00  0.00     0.006 C 
BRANCH   5   6
ATOM      6  C   UNL     1      35.133  33.493  20.565  1.00  0.00     0.053 C 
BRANCH   6   7
ATOM      7  C   UNL     1      36.404  32.848  21.014  1.00  0.00     0.041 C 
ATOM      8  O   UNL     1      36.946  31.955  20.310  1.00  0.00    -0.550 OA
ATOM      9  O   UNL     1      36.968  33.195  22.236  1.00  0.00    -0.550 OA
ENDBRANCH   6   7
ENDBRANCH   5   6
ENDBRANCH   4   5
ENDBRANCH   3   4
ENDBRANCH   2   3
ENDBRANCH   1   2
BRANCH   1  10
ATOM     10  C   UNL     1      29.534  35.513  23.502  1.00  0.00     0.000 C 
BRANCH  10  11
ATOM     11  C   UNL     1      28.458  34.504  23.949  1.00  0.00    -0.000 C 
BRANCH  11  12
ATOM     12  C   UNL     1      28.357  33.232  23.084  1.00  0.00    -0.000 C 
BRANCH  12  13
ATOM     13  C   UNL     1      27.968  33.477  21.616  1.00  0.00    -0.000 C 
BRANCH  13  14
ATOM     14  C   UNL     1      29.036  32.982  20.626  1.00  0.00    -0.000 C 
BRANCH  14  15
ATOM     15  C   UNL     1      29.843  34.133  20.007  1.00  0.00    -0.003 C 
ATOM     16  C   UNL     1      31.062  33.646  19.224  1.00  0.00     0.004 C 
ENDBRANCH  14  15
ENDBRANCH  13  14
ENDBRANCH  12  13
ENDBRANCH  11  12
ENDBRANCH  10  11
ENDBRANCH   1  10
TORSDOF 12
ENDMDL
MODEL 3
REMARK VINA RESULT:    -3.838      1.803      2.964
REMARK INTER + INTRA:          -7.697
REMARK INTER:                  -5.706
REMARK INTRA:                  -1.991
REMARK UNBOUND:                -1.167
REMARK SMILES CCCCCCCCCCCCCC(=O)[O-]
REMARK SMILES IDX 8 1 9 2 10 3 11 4 12 5 13 6 14 7 15 8 16 9 7 10 6 11 5 12
REMARK SMILES IDX 4 13 3 14 2 15 1 16
REMARK H PARENT
REMARK Flexibility Score: inf
ROOT
ATOM      1  C   UNL     1      32.282  35.616  21.686  1.00  0.00     0.000 C 
ENDROOT
BRANCH   1   2
ATOM      2  C   UNL     1      32.179  34.726  22.937  1.00  0.00     0.000 C 
BRANCH   2   3
ATOM      3  C   UNL     1      32.514  33.253  22.648  1.00  0.00     0.000 C 
BRANCH   3   4
ATOM      4  C   UNL     1      33.877  33.074  21.954  1.00  0.00     0.000 C 
BRANCH   4   5
ATOM      5  C   UNL     1      33.824  32.332  20.606  1.00  0.00     0.006 C 
BRANCH   5   6
ATOM      6  C   UNL     1      34.236  33.214  19.420  1.00  0.00     0.053 C 
BRANCH   6   7
ATOM      7  C   UNL     1      34.327  32.399  18.169  1.00  0.00     0.041 C 
ATOM      8  O   UNL     1      33.767  31.273  18.104  1.00  0.00    -0.550 OA
ATOM      9  O   UNL     1      35.072  32.859  17.091  1.00  0.00    -0.550 OA
ENDBRANCH   6   7
ENDBRANCH   5   6
ENDBRANCH   4   5
ENDBRANCH   3   4
ENDBRANCH   2   3
ENDBRANCH   1   2
BRANCH   1  10
ATOM     10  C   UNL     1      30.978  35.744  20.873  1.00  0.00     0.000 C 
BRANCH  10  11
ATOM     11  C   UNL     1      30.886  34.825  19.638  1.00  0.00    -0.000 C 
BRANCH  11  12
ATOM     12  C   UNL     1      30.137  33.498  19.868  1.00  0.00    -0.000 C 
BRANCH  12  13
ATOM     13  C   UNL     1      28.928  33.592  20.815  1.00  0.00    -0.000 C 
BRANCH  13  14
ATOM     14  C   UNL     1      29.027  32.623  22.006  1.00  0.00    -0.000 C 
BRANCH  14  15
ATOM     15  C   UNL     1      28.307  33.153  23.255  1.00  0.00    -0.003 C 
ATOM     16  C   UNL     1      28.594  34.630  23.521  1.00  0.00     0.004 C 
ENDBRANCH  14  15
ENDBRANCH  13  14
ENDBRANCH  12  13
ENDBRANCH  11  12
ENDBRANCH  10  11
ENDBRANCH   1  10
TORSDOF 12
ENDMDL
MODEL 4
REMARK VINA RESULT:    -3.826      4.256      5.532
REMARK INTER + INTRA:          -7.678
REMARK INTER:                  -6.147
REMARK INTRA:                  -1.531
REMARK UNBOUND:                -1.167
REMARK SMILES CCCCCCCCCCCCCC(=O)[O-]
REMARK SMILES IDX 8 1 9 2 10 3 11 4 12 5 13 6 14 7 15 8 16 9 7 10 6 11 5 12
REMARK SMILES IDX 4 13 3 14 2 15 1 16
REMARK H PARENT
REMARK Flexibility Score: inf
ROOT
ATOM      1  C   UNL     1      31.959  33.503  21.040  1.00  0.00     0.000 C 
ENDROOT
BRANCH   1   2
ATOM      2  C   UNL     1      32.000  33.556  22.577  1.00  0.00     0.000 C 
BRANCH   2   3
ATOM      3  C   UNL     1      32.153  34.986  23.120  1.00  0.00     0.000 C 
BRANCH   3   4
ATOM      4  C   UNL     1      31.055  35.363  24.132  1.00  0.00     0.000 C 
BRANCH   4   5
ATOM      5  C   UNL     1      29.665  34.776  23.826  1.00  0.00     0.006 C 
BRANCH   5   6
ATOM      6  C   UNL     1      28.653  35.835  23.370  1.00  0.00     0.053 C 
BRANCH   6   7
ATOM      7  C   UNL     1      27.760  36.226  24.504  1.00  0.00     0.041 C 
ATOM      8  O   UNL     1      27.944  35.742  25.652  1.00  0.00    -0.550 OA
ATOM      9  O   UNL     1      26.691  37.086  24.283  1.00  0.00    -0.550 OA
ENDBRANCH   6   7
ENDBRANCH   5   6
ENDBRANCH   4   5
ENDBRANCH   3   4
ENDBRANCH   2   3
ENDBRANCH   1   2
BRANCH   1  10
ATOM     10  C   UNL     1      31.289  34.720  20.369  1.00  0.00     0.000 C 
BRANCH  10  11
ATOM     11  C   UNL     1      29.792  34.545  20.045  1.00  0.00    -0.000 C 
BRANCH  11  12
ATOM     12  C   UNL     1      29.198  33.174  20.423  1.00  0.00    -0.000 C 
BRANCH  12  13
ATOM     13  C   UNL     1      27.714  33.201  20.830  1.00  0.00    -0.000 C 
BRANCH  13  14
ATOM     14  C   UNL     1      26.931  34.335  20.147  1.00  0.00    -0.000 C 
BRANCH  14  15
ATOM     15  C   UNL     1      25.745  33.816  19.320  1.00  0.00    -0.003 C 
ATOM     16  C   UNL     1      24.916  32.771  20.066  1.00  0.00     0.004 C 
ENDBRANCH  14  15
ENDBRANCH  13  14
ENDBRANCH  12  13
ENDBRANCH  11  12
ENDBRANCH  10  11
ENDBRANCH   1  10
TORSDOF 12
ENDMDL
MODEL 5
REMARK VINA RESULT:    -3.824      1.475      3.742
REMARK INTER + INTRA:          -7.674
REMARK INTER:                  -6.274
REMARK INTRA:                  -1.400
REMARK UNBOUND:                -1.167
REMARK SMILES CCCCCCCCCCCCCC(=O)[O-]
REMARK SMILES IDX 8 1 9 2 10 3 11 4 12 5 13 6 14 7 15 8 16 9 7 10 6 11 5 12
REMARK SMILES IDX 4 13 3 14 2 15 1 16
REMARK H PARENT
REMARK Flexibility Score: inf
ROOT
ATOM      1  C   UNL     1      29.833  34.225  19.939  1.00  0.00     0.000 C 
ENDROOT
BRANCH   1   2
ATOM      2  C   UNL     1      30.695  33.135  19.279  1.00  0.00     0.000 C 
BRANCH   2   3
ATOM      3  C   UNL     1      31.689  33.703  18.251  1.00  0.00     0.000 C 
BRANCH   3   4
ATOM      4  C   UNL     1      33.133  33.761  18.783  1.00  0.00     0.000 C 
BRANCH   4   5
ATOM      5  C   UNL     1      33.720  32.403  19.209  1.00  0.00     0.006 C 
BRANCH   5   6
ATOM      6  C   UNL     1      33.824  31.404  18.049  1.00  0.00     0.053 C 
BRANCH   6   7
ATOM      7  C   UNL     1      34.534  32.023  16.889  1.00  0.00     0.041 C 
ATOM      8  O   UNL     1      35.720  32.428  17.014  1.00  0.00    -0.550 OA
ATOM      9  O   UNL     1      33.871  32.200  15.680  1.00  0.00    -0.550 OA
ENDBRANCH   6   7
ENDBRANCH   5   6
ENDBRANCH   4   5
ENDBRANCH   3   4
ENDBRANCH   2   3
ENDBRANCH   1   2
BRANCH   1  10
ATOM     10  C   UNL     1      28.505  33.723  20.542  1.00  0.00     0.000 C 
BRANCH  10  11
ATOM     11  C   UNL     1      28.260  34.126  22.010  1.00  0.00    -0.000 C 
BRANCH  11  12
ATOM     12  C   UNL     1      28.427  32.988  23.035  1.00  0.00    -0.000 C 
BRANCH  12  13
ATOM     13  C   UNL     1      29.847  32.401  23.125  1.00  0.00    -0.000 C 
BRANCH  13  14
ATOM     14  C   UNL     1      30.931  33.483  23.261  1.00  0.00    -0.000 C 
BRANCH  14  15
ATOM     15  C   UNL     1      32.258  33.071  22.604  1.00  0.00    -0.003 C 
ATOM     16  C   UNL     1      33.243  34.234  22.484  1.00  0.00     0.004 C 
ENDBRANCH  14  15
ENDBRANCH  13  14
ENDBRANCH  12  13
ENDBRANCH  11  12
ENDBRANCH  10  11
ENDBRANCH   1  10
TORSDOF 12
ENDMDL
MODEL 6
REMARK VINA RESULT:    -3.814      1.587      2.965
REMARK INTER + INTRA:          -7.657
REMARK INTER:                  -6.543
REMARK INTRA:                  -1.114
REMARK UNBOUND:                -1.167
REMARK SMILES CCCCCCCCCCCCCC(=O)[O-]
REMARK SMILES IDX 8 1 9 2 10 3 11 4 12 5 13 6 14 7 15 8 16 9 7 10 6 11 5 12
REMARK SMILES IDX 4 13 3 14 2 15 1 16
REMARK H PARENT
REMARK Flexibility Score: inf
ROOT
ATOM      1  C   UNL     1      33.326  33.492  21.142  1.00  0.00     0.000 C 
ENDROOT
BRANCH   1   2
ATOM      2  C   UNL     1      32.157  33.727  20.169  1.00  0.00     0.000 C 
BRANCH   2   3
ATOM      3  C   UNL     1      32.323  32.964  18.843  1.00  0.00     0.000 C 
BRANCH   3   4
ATOM      4  C   UNL     1      33.462  31.929  18.887  1.00  0.00     0.000 C 
BRANCH   4   5
ATOM      5  C   UNL     1      34.660  32.246  17.974  1.00  0.00     0.006 C 
BRANCH   5   6
ATOM      6  C   UNL     1      34.264  33.032  16.717  1.00  0.00     0.053 C 
BRANCH   6   7
ATOM      7  C   UNL     1      34.045  32.101  15.566  1.00  0.00     0.041 C 
ATOM      8  O   UNL     1      33.336  32.458  14.589  1.00  0.00    -0.550 OA
ATOM      9  O   UNL     1      34.582  30.820  15.595  1.00  0.00    -0.550 OA
ENDBRANCH   6   7
ENDBRANCH   5   6
ENDBRANCH   4   5
ENDBRANCH   3   4
ENDBRANCH   2   3
ENDBRANCH   1   2
BRANCH   1  10
ATOM     10  C   UNL     1      32.906  33.128  22.581  1.00  0.00     0.000 C 
BRANCH  10  11
ATOM     11  C   UNL     1      31.385  33.089  22.828  1.00  0.00    -0.000 C 
BRANCH  11  12
ATOM     12  C   UNL     1      30.800  34.350  23.493  1.00  0.00    -0.000 C 
BRANCH  12  13
ATOM     13  C   UNL     1      29.265  34.372  23.600  1.00  0.00    -0.000 C 
BRANCH  13  14
ATOM     14  C   UNL     1      28.604  33.158  22.925  1.00  0.00    -0.000 C 
BRANCH  14  15
ATOM     15  C   UNL     1      27.832  33.540  21.653  1.00  0.00    -0.003 C 
ATOM     16  C   UNL     1      28.562  33.129  20.374  1.00  0.00     0.004 C 
ENDBRANCH  14  15
ENDBRANCH  13  14
ENDBRANCH  12  13
ENDBRANCH  11  12
ENDBRANCH  10  11
ENDBRANCH   1  10
TORSDOF 12
ENDMDL
MODEL 7
REMARK VINA RESULT:    -3.785      1.633      2.524
REMARK INTER + INTRA:          -7.607
REMARK INTER:                  -6.041
REMARK INTRA:                  -1.566
REMARK UNBOUND:                -1.167
REMARK SMILES CCCCCCCCCCCCCC(=O)[O-]
REMARK SMILES IDX 8 1 9 2 10 3 11 4 12 5 13 6 14 7 15 8 16 9 7 10 6 11 5 12
REMARK SMILES IDX 4 13 3 14 2 15 1 16
REMARK H PARENT
REMARK Flexibility Score: inf
ROOT
ATOM      1  C   UNL     1      29.281  34.975  23.952  1.00  0.00     0.000 C 
ENDROOT
BRANCH   1   2
ATOM      2  C   UNL     1      29.138  33.544  23.406  1.00  0.00     0.000 C 
BRANCH   2   3
ATOM      3  C   UNL     1      30.427  33.026  22.748  1.00  0.00     0.000 C 
BRANCH   3   4
ATOM      4  C   UNL     1      31.452  34.143  22.478  1.00  0.00     0.000 C 
BRANCH   4   5
ATOM      5  C   UNL     1      31.539  34.600  21.010  1.00  0.00     0.006 C 
BRANCH   5   6
ATOM      6  C   UNL     1      31.974  33.478  20.058  1.00  0.00     0.053 C 
BRANCH   6   7
ATOM      7  C   UNL     1      33.444  33.229  20.180  1.00  0.00     0.041 C 
ATOM      8  O   UNL     1      33.866  32.120  20.602  1.00  0.00    -0.550 OA
ATOM      9  O   UNL     1      34.348  34.239  19.876  1.00  0.00    -0.550 OA
ENDBRANCH   6   7
ENDBRANCH   5   6
ENDBRANCH   4   5
ENDBRANCH   3   4
ENDBRANCH   2   3
ENDBRANCH   1   2
BRANCH   1  10
ATOM     10  C   UNL     1      28.117  35.923  23.596  1.00  0.00     0.000 C 
BRANCH  10  11
ATOM     11  C   UNL     1      28.185  36.540  22.185  1.00  0.00    -0.000 C 
BRANCH  11  12
ATOM     12  C   UNL     1      27.220  35.922  21.155  1.00  0.00    -0.000 C 
BRANCH  12  13
ATOM     13  C   UNL     1      27.854  34.875  20.222  1.00  0.00    -0.000 C 
BRANCH  13  14
ATOM     14  C   UNL     1      27.112  33.527  20.250  1.00  0.00    -0.000 C 
BRANCH  14  15
ATOM     15  C   UNL     1      25.612  33.675  19.955  1.00  0.00    -0.003 C 
ATOM     16  C   UNL     1      24.880  32.333  19.926  1.00  0.00     0.004 C 
ENDBRANCH  14  15
ENDBRANCH  13  14
ENDBRANCH  12  13
ENDBRANCH  11  12
ENDBRANCH  10  11
ENDBRANCH   1  10
TORSDOF 12
ENDMDL
MODEL 8
REMARK VINA RESULT:    -3.748      1.256      1.723
REMARK INTER + INTRA:          -7.545
REMARK INTER:                  -6.187
REMARK INTRA:                  -1.359
REMARK UNBOUND:                -1.167
REMARK SMILES CCCCCCCCCCCCCC(=O)[O-]
REMARK SMILES IDX 8 1 9 2 10 3 11 4 12 5 13 6 14 7 15 8 16 9 7 10 6 11 5 12
REMARK SMILES IDX 4 13 3 14 2 15 1 16
REMARK H PARENT
REMARK Flexibility Score: inf
ROOT
ATOM      1  C   UNL     1      31.316  35.361  23.749  1.00  0.00     0.000 C 
ENDROOT
BRANCH   1   2
ATOM      2  C   UNL     1      32.596  34.813  23.094  1.00  0.00     0.000 C 
BRANCH   2   3
ATOM      3  C   UNL     1      32.451  33.352  22.636  1.00  0.00     0.000 C 
BRANCH   3   4
ATOM      4  C   UNL     1      33.212  33.057  21.330  1.00  0.00     0.000 C 
BRANCH   4   5
ATOM      5  C   UNL     1      32.865  33.989  20.155  1.00  0.00     0.006 C 
BRANCH   5   6
ATOM      6  C   UNL     1      31.939  33.333  19.122  1.00  0.00     0.053 C 
BRANCH   6   7
ATOM      7  C   UNL     1      32.549  33.394  17.759  1.00  0.00     0.041 C 
ATOM      8  O   UNL     1      33.579  32.720  17.495  1.00  0.00    -0.550 OA
ATOM      9  O   UNL     1      32.011  34.234  16.792  1.00  0.00    -0.550 OA
ENDBRANCH   6   7
ENDBRANCH   5   6
ENDBRANCH   4   5
ENDBRANCH   3   4
ENDBRANCH   2   3
ENDBRANCH   1   2
BRANCH   1  10
ATOM     10  C   UNL     1      30.033  35.184  22.912  1.00  0.00     0.000 C 
BRANCH  10  11
ATOM     11  C   UNL     1      28.864  34.496  23.645  1.00  0.00    -0.000 C 
BRANCH  11  12
ATOM     12  C   UNL     1      28.307  33.239  22.949  1.00  0.00    -0.000 C 
BRANCH  12  13
ATOM     13  C   UNL     1      29.042  32.834  21.659  1.00  0.00    -0.000 C 
BRANCH  13  14
ATOM     14  C   UNL     1      28.228  33.140  20.389  1.00  0.00    -0.000 C 
BRANCH  14  15
ATOM     15  C   UNL     1      26.901  33.850  20.699  1.00  0.00    -0.003 C 
ATOM     16  C   UNL     1      25.703  33.183  20.023  1.00  0.00     0.004 C 
ENDBRANCH  14  15
ENDBRANCH  13  14
ENDBRANCH  12  13
ENDBRANCH  11  12
ENDBRANCH  10  11
ENDBRANCH   1  10
TORSDOF 12
ENDMDL
MODEL 9
REMARK VINA RESULT:    -3.732      1.335      2.099
REMARK INTER + INTRA:          -7.517
REMARK INTER:                  -5.753
REMARK INTRA:                  -1.764
REMARK UNBOUND:                -1.167
REMARK SMILES CCCCCCCCCCCCCC(=O)[O-]
REMARK SMILES IDX 8 1 9 2 10 3 11 4 12 5 13 6 14 7 15 8 16 9 7 10 6 11 5 12
REMARK SMILES IDX 4 13 3 14 2 15 1 16
REMARK H PARENT
REMARK Flexibility Score: inf
ROOT
ATOM      1  C   UNL     1      32.253  34.095  21.782  1.00  0.00     0.000 C 
ENDROOT
BRANCH   1   2
ATOM      2  C   UNL     1      31.605  35.304  21.084  1.00  0.00     0.000 C 
BRANCH   2   3
ATOM      3  C   UNL     1      31.186  35.000  19.636  1.00  0.00     0.000 C 
BRANCH   3   4
ATOM      4  C   UNL     1      31.329  33.511  19.271  1.00  0.00     0.000 C 
BRANCH   4   5
ATOM      5  C   UNL     1      32.352  33.214  18.159  1.00  0.00     0.006 C 
BRANCH   5   6
ATOM      6  C   UNL     1      33.303  32.063  18.511  1.00  0.00     0.053 C 
BRANCH   6   7
ATOM      7  C   UNL     1      34.500  32.581  19.244  1.00  0.00     0.041 C 
ATOM      8  O   UNL     1      35.156  31.820  20.004  1.00  0.00    -0.550 OA
ATOM      9  O   UNL     1      34.862  33.917  19.130  1.00  0.00    -0.550 OA
ENDBRANCH   6   7
ENDBRANCH   5   6
ENDBRANCH   4   5
ENDBRANCH   3   4
ENDBRANCH   2   3
ENDBRANCH   1   2
BRANCH   1  10
ATOM     10  C   UNL     1      31.520  33.609  23.050  1.00  0.00     0.000 C 
BRANCH  10  11
ATOM     11  C   UNL     1      30.449  34.575  23.595  1.00  0.00    -0.000 C 
BRANCH  11  12
ATOM     12  C   UNL     1      28.992  34.144  23.338  1.00  0.00    -0.000 C 
BRANCH  12  13
ATOM     13  C   UNL     1      28.830  32.742  22.724  1.00  0.00    -0.000 C 
BRANCH  13  14
ATOM     14  C   UNL     1      28.406  32.784  21.246  1.00  0.00    -0.000 C 
BRANCH  14  15
ATOM     15  C   UNL     1      27.731  34.111  20.866  1.00  0.00    -0.003 C 
ATOM     16  C   UNL     1      26.559  33.922  19.902  1.00  0.00     0.004 C 
ENDBRANCH  14  15
ENDBRANCH  13  14
ENDBRANCH  12  13
ENDBRANCH  11  12
ENDBRANCH  10  11
ENDBRANCH   1  10
TORSDOF 12
ENDMDL
