MODEL 1
REMARK VINA RESULT:    -3.307      0.000      0.000
REMARK INTER + INTRA:          -3.593
REMARK INTER:                  -3.500
REMARK INTRA:                  -0.093
REMARK UNBOUND:                -0.093
REMARK SMILES C=C(C)[C@H]1CC=C(C)C(=O)C1
REMARK SMILES IDX 8 1 7 2 6 3 5 4 4 5 11 6 9 7 10 8 2 9 1 10 3 11
REMARK H PARENT
REMARK Flexibility Score: inf
ROOT
ATOM      1  C   UNL     1      62.413   7.829  31.262  1.00  0.00     0.048 C 
ATOM      2  C   UNL     1      61.560   6.589  31.276  1.00  0.00    -0.012 C 
ATOM      3  C   UNL     1      60.236   6.686  31.065  1.00  0.00    -0.019 C 
ATOM      4  C   UNL     1      59.335   5.480  31.088  1.00  0.00     0.036 C 
ATOM      5  C   UNL     1      60.072   4.228  30.575  1.00  0.00     0.025 C 
ATOM      6  C   UNL     1      61.366   4.002  31.377  1.00  0.00     0.089 C 
ATOM      7  C   UNL     1      62.199   5.255  31.400  1.00  0.00     0.158 C 
ATOM      8  O   UNL     1      63.444   5.160  31.563  1.00  0.00    -0.295 OA
ENDROOT
BRANCH   5   9
ATOM      9  C   UNL     1      59.173   2.999  30.612  1.00  0.00    -0.077 C 
ATOM     10  C   UNL     1      59.528   1.885  29.953  1.00  0.00     0.008 C 
ATOM     11  C   UNL     1      57.875   2.997  31.382  1.00  0.00     0.039 C 
ENDBRANCH   5   9
TORSDOF 1
ENDMDL
MODEL 2
REMARK VINA RESULT:    -3.293      1.603      4.377
REMARK INTER + INTRA:          -3.578
REMARK INTER:                  -3.490
REMARK INTRA:                  -0.088
REMARK UNBOUND:                -0.093
REMARK SMILES C=C(C)[C@H]1CC=C(C)C(=O)C1
REMARK SMILES IDX 8 1 7 2 6 3 5 4 4 5 11 6 9 7 10 8 2 9 1 10 3 11
REMARK H PARENT
REMARK Flexibility Score: inf
ROOT
ATOM      1  C   UNL     1      57.973   3.296  29.971  1.00  0.00     0.048 C 
ATOM      2  C   UNL     1      59.035   4.293  30.348  1.00  0.00    -0.012 C 
ATOM      3  C   UNL     1      58.794   5.609  30.216  1.00  0.00    -0.019 C 
ATOM      4  C   UNL     1      59.829   6.647  30.561  1.00  0.00     0.036 C 
ATOM      5  C   UNL     1      60.721   6.176  31.725  1.00  0.00     0.025 C 
ATOM      6  C   UNL     1      61.353   4.812  31.397  1.00  0.00     0.089 C 
ATOM      7  C   UNL     1      60.296   3.826  30.978  1.00  0.00     0.158 C 
ATOM      8  O   UNL     1      60.509   2.595  31.134  1.00  0.00    -0.295 OA
ENDROOT
BRANCH   5   9
ATOM      9  C   UNL     1      61.781   7.213  32.068  1.00  0.00    -0.077 C 
ATOM     10  C   UNL     1      61.953   7.605  33.340  1.00  0.00     0.008 C 
ATOM     11  C   UNL     1      62.662   7.820  31.003  1.00  0.00     0.039 C 
ENDBRANCH   5   9
TORSDOF 1
ENDMDL
MODEL 3
REMARK VINA RESULT:    -3.167     20.995     23.084
REMARK INTER + INTRA:          -3.446
REMARK INTER:                  -3.349
REMARK INTRA:                  -0.097
REMARK UNBOUND:                -0.093
REMARK SMILES C=C(C)[C@H]1CC=C(C)C(=O)C1
REMARK SMILES IDX 8 1 7 2 6 3 5 4 4 5 11 6 9 7 10 8 2 9 1 10 3 11
REMARK H PARENT
REMARK Flexibility Score: inf
ROOT
ATOM      1  C   UNL     1      71.091  11.070  47.067  1.00  0.00     0.048 C 
ATOM      2  C   UNL     1      72.566  10.990  47.353  1.00  0.00    -0.012 C 
ATOM      3  C   UNL     1      73.387  11.956  46.906  1.00  0.00    -0.019 C 
ATOM      4  C   UNL     1      74.873  11.914  47.148  1.00  0.00     0.036 C 
ATOM      5  C   UNL     1      75.196  11.238  48.494  1.00  0.00     0.025 C 
ATOM      6  C   UNL     1      74.557   9.840  48.558  1.00  0.00     0.089 C 
ATOM      7  C   UNL     1      73.091   9.913  48.229  1.00  0.00     0.158 C 
ATOM      8  O   UNL     1      72.316   9.026  48.677  1.00  0.00    -0.295 OA
ENDROOT
BRANCH   5   9
ATOM      9  C   UNL     1      76.697  11.176  48.740  1.00  0.00    -0.077 C 
ATOM     10  C   UNL     1      77.526  10.796  47.754  1.00  0.00     0.008 C 
ATOM     11  C   UNL     1      77.291  11.537  50.079  1.00  0.00     0.039 C 
ENDBRANCH   5   9
TORSDOF 1
ENDMDL
MODEL 4
REMARK VINA RESULT:    -3.152      1.932      4.812
REMARK INTER + INTRA:          -3.430
REMARK INTER:                  -3.331
REMARK INTRA:                  -0.098
REMARK UNBOUND:                -0.093
REMARK SMILES C=C(C)[C@H]1CC=C(C)C(=O)C1
REMARK SMILES IDX 8 1 7 2 6 3 5 4 4 5 11 6 9 7 10 8 2 9 1 10 3 11
REMARK H PARENT
REMARK Flexibility Score: inf
ROOT
ATOM      1  C   UNL     1      59.314   3.475  29.875  1.00  0.00     0.048 C 
ATOM      2  C   UNL     1      60.098   4.438  30.725  1.00  0.00    -0.012 C 
ATOM      3  C   UNL     1      61.169   4.005  31.412  1.00  0.00    -0.019 C 
ATOM      4  C   UNL     1      61.977   4.922  32.292  1.00  0.00     0.036 C 
ATOM      5  C   UNL     1      61.996   6.355  31.728  1.00  0.00     0.025 C 
ATOM      6  C   UNL     1      60.560   6.867  31.518  1.00  0.00     0.089 C 
ATOM      7  C   UNL     1      59.762   5.884  30.705  1.00  0.00     0.158 C 
ATOM      8  O   UNL     1      58.780   6.297  30.033  1.00  0.00    -0.295 OA
ENDROOT
BRANCH   5   9
ATOM      9  C   UNL     1      62.796   7.294  32.621  1.00  0.00    -0.077 C 
ATOM     10  C   UNL     1      63.285   6.857  33.791  1.00  0.00     0.008 C 
ATOM     11  C   UNL     1      63.062   8.725  32.220  1.00  0.00     0.039 C 
ENDBRANCH   5   9
TORSDOF 1
ENDMDL
MODEL 5
REMARK VINA RESULT:    -3.123      2.086      3.266
REMARK INTER + INTRA:          -3.398
REMARK INTER:                  -3.300
REMARK INTRA:                  -0.098
REMARK UNBOUND:                -0.093
REMARK SMILES C=C(C)[C@H]1CC=C(C)C(=O)C1
REMARK SMILES IDX 8 1 7 2 6 3 5 4 4 5 11 6 9 7 10 8 2 9 1 10 3 11
REMARK H PARENT
REMARK Flexibility Score: inf
ROOT
ATOM      1  C   UNL     1      64.227   4.666  33.027  1.00  0.00     0.048 C 
ATOM      2  C   UNL     1      62.983   5.230  32.397  1.00  0.00    -0.012 C 
ATOM      3  C   UNL     1      62.102   4.408  31.802  1.00  0.00    -0.019 C 
ATOM      4  C   UNL     1      60.851   4.923  31.140  1.00  0.00     0.036 C 
ATOM      5  C   UNL     1      60.317   6.174  31.862  1.00  0.00     0.025 C 
ATOM      6  C   UNL     1      61.413   7.250  31.950  1.00  0.00     0.089 C 
ATOM      7  C   UNL     1      62.672   6.675  32.541  1.00  0.00     0.158 C 
ATOM      8  O   UNL     1      63.481   7.442  33.129  1.00  0.00    -0.295 OA
ENDROOT
BRANCH   5   9
ATOM      9  C   UNL     1      59.062   6.712  31.188  1.00  0.00    -0.077 C 
ATOM     10  C   UNL     1      58.862   6.511  29.877  1.00  0.00     0.008 C 
ATOM     11  C   UNL     1      58.018   7.476  31.966  1.00  0.00     0.039 C 
ENDBRANCH   5   9
TORSDOF 1
ENDMDL
MODEL 6
REMARK VINA RESULT:    -3.077     15.576     16.359
REMARK INTER + INTRA:          -3.349
REMARK INTER:                  -3.253
REMARK INTRA:                  -0.097
REMARK UNBOUND:                -0.093
REMARK SMILES C=C(C)[C@H]1CC=C(C)C(=O)C1
REMARK SMILES IDX 8 1 7 2 6 3 5 4 4 5 11 6 9 7 10 8 2 9 1 10 3 11
REMARK H PARENT
REMARK Flexibility Score: inf
ROOT
ATOM      1  C   UNL     1      58.246   1.127  48.126  1.00  0.00     0.048 C 
ATOM      2  C   UNL     1      58.858   2.343  47.485  1.00  0.00    -0.012 C 
ATOM      3  C   UNL     1      58.298   3.550  47.670  1.00  0.00    -0.019 C 
ATOM      4  C   UNL     1      58.859   4.796  47.037  1.00  0.00     0.036 C 
ATOM      5  C   UNL     1      60.392   4.709  46.908  1.00  0.00     0.025 C 
ATOM      6  C   UNL     1      60.793   3.436  46.142  1.00  0.00     0.089 C 
ATOM      7  C   UNL     1      60.146   2.224  46.756  1.00  0.00     0.158 C 
ATOM      8  O   UNL     1      60.692   1.097  46.612  1.00  0.00    -0.295 OA
ENDROOT
BRANCH   5   9
ATOM      9  C   UNL     1      60.967   5.957  46.252  1.00  0.00    -0.077 C 
ATOM     10  C   UNL     1      60.436   6.424  45.111  1.00  0.00     0.008 C 
ATOM     11  C   UNL     1      62.133   6.698  46.858  1.00  0.00     0.039 C 
ENDBRANCH   5   9
TORSDOF 1
ENDMDL
MODEL 7
REMARK VINA RESULT:    -3.074     15.419     16.427
REMARK INTER + INTRA:          -3.346
REMARK INTER:                  -3.250
REMARK INTRA:                  -0.096
REMARK UNBOUND:                -0.093
REMARK SMILES C=C(C)[C@H]1CC=C(C)C(=O)C1
REMARK SMILES IDX 8 1 7 2 6 3 5 4 4 5 11 6 9 7 10 8 2 9 1 10 3 11
REMARK H PARENT
REMARK Flexibility Score: inf
ROOT
ATOM      1  C   UNL     1      57.895  -1.365  46.048  1.00  0.00     0.048 C 
ATOM      2  C   UNL     1      58.121   0.099  46.307  1.00  0.00    -0.012 C 
ATOM      3  C   UNL     1      58.018   0.582  47.557  1.00  0.00    -0.019 C 
ATOM      4  C   UNL     1      58.216   2.042  47.868  1.00  0.00     0.036 C 
ATOM      5  C   UNL     1      59.251   2.675  46.918  1.00  0.00     0.025 C 
ATOM      6  C   UNL     1      58.845   2.442  45.452  1.00  0.00     0.089 C 
ATOM      7  C   UNL     1      58.577   0.983  45.204  1.00  0.00     0.158 C 
ATOM      8  O   UNL     1      58.707   0.525  44.037  1.00  0.00    -0.295 OA
ENDROOT
BRANCH   5   9
ATOM      9  C   UNL     1      59.443   4.156  47.213  1.00  0.00    -0.077 C 
ATOM     10  C   UNL     1      58.454   5.028  46.965  1.00  0.00     0.008 C 
ATOM     11  C   UNL     1      60.736   4.682  47.790  1.00  0.00     0.039 C 
ENDBRANCH   5   9
TORSDOF 1
ENDMDL
MODEL 8
REMARK VINA RESULT:    -3.071      2.052      3.145
REMARK INTER + INTRA:          -3.343
REMARK INTER:                  -3.254
REMARK INTRA:                  -0.089
REMARK UNBOUND:                -0.093
REMARK SMILES C=C(C)[C@H]1CC=C(C)C(=O)C1
REMARK SMILES IDX 8 1 7 2 6 3 5 4 4 5 11 6 9 7 10 8 2 9 1 10 3 11
REMARK H PARENT
REMARK Flexibility Score: inf
ROOT
ATOM      1  C   UNL     1      64.807   3.908  33.705  1.00  0.00     0.048 C 
ATOM      2  C   UNL     1      63.511   4.272  33.034  1.00  0.00    -0.012 C 
ATOM      3  C   UNL     1      63.512   5.124  31.994  1.00  0.00    -0.019 C 
ATOM      4  C   UNL     1      62.242   5.537  31.299  1.00  0.00     0.036 C 
ATOM      5  C   UNL     1      61.207   4.396  31.313  1.00  0.00     0.025 C 
ATOM      6  C   UNL     1      60.953   3.921  32.755  1.00  0.00     0.089 C 
ATOM      7  C   UNL     1      62.253   3.598  33.441  1.00  0.00     0.158 C 
ATOM      8  O   UNL     1      62.255   2.773  34.393  1.00  0.00    -0.295 OA
ENDROOT
BRANCH   5   9
ATOM      9  C   UNL     1      59.912   4.810  30.628  1.00  0.00    -0.077 C 
ATOM     10  C   UNL     1      59.236   3.929  29.875  1.00  0.00     0.008 C 
ATOM     11  C   UNL     1      59.357   6.206  30.774  1.00  0.00     0.039 C 
ENDBRANCH   5   9
TORSDOF 1
ENDMDL
MODEL 9
REMARK VINA RESULT:    -3.068      2.272      3.797
REMARK INTER + INTRA:          -3.340
REMARK INTER:                  -3.244
REMARK INTRA:                  -0.097
REMARK UNBOUND:                -0.093
REMARK SMILES C=C(C)[C@H]1CC=C(C)C(=O)C1
REMARK SMILES IDX 8 1 7 2 6 3 5 4 4 5 11 6 9 7 10 8 2 9 1 10 3 11
REMARK H PARENT
REMARK Flexibility Score: inf
ROOT
ATOM      1  C   UNL     1      57.875   7.002  30.970  1.00  0.00     0.048 C 
ATOM      2  C   UNL     1      59.216   6.405  31.299  1.00  0.00    -0.012 C 
ATOM      3  C   UNL     1      60.049   7.050  32.134  1.00  0.00    -0.019 C 
ATOM      4  C   UNL     1      61.409   6.507  32.481  1.00  0.00     0.036 C 
ATOM      5  C   UNL     1      61.404   4.966  32.494  1.00  0.00     0.025 C 
ATOM      6  C   UNL     1      60.886   4.421  31.151  1.00  0.00     0.089 C 
ATOM      7  C   UNL     1      59.565   5.051  30.800  1.00  0.00     0.158 C 
ATOM      8  O   UNL     1      58.770   4.429  30.046  1.00  0.00    -0.295 OA
ENDROOT
BRANCH   5   9
ATOM      9  C   UNL     1      62.780   4.407  32.827  1.00  0.00    -0.077 C 
ATOM     10  C   UNL     1      63.858   4.815  32.139  1.00  0.00     0.008 C 
ATOM     11  C   UNL     1      62.973   3.393  33.928  1.00  0.00     0.039 C 
ENDBRANCH   5   9
TORSDOF 1
ENDMDL
