MODEL 1
REMARK VINA RESULT:    -7.889      0.000      0.000
REMARK INTER + INTRA:          -9.824
REMARK INTER:                  -9.504
REMARK INTRA:                  -0.321
REMARK UNBOUND:                -0.321
REMARK SMILES O=c1c(O)c(-c2ccc(O)c(O)c2)oc2cc(O)cc(O)c12
REMARK SMILES IDX 5 1 3 2 2 3 1 4 22 5 20 6 19 7 17 8 16 9 15 10 14 11 6 12
REMARK SMILES IDX 7 13 8 14 9 15 13 16 11 17 10 18 12 20 4 22 21 24 18 26
REMARK H PARENT 10 19 12 21 4 23 21 25 18 27
REMARK Flexibility Score: inf
ROOT
ATOM      1  C   UNL     1     -15.382   4.763 -20.817  1.00  0.00     0.180 A 
ATOM      2  C   UNL     1     -16.717   5.193 -20.915  1.00  0.00     0.208 A 
ATOM      3  C   UNL     1     -16.999   6.565 -20.823  1.00  0.00     0.238 A 
ATOM      4  O   UNL     1     -18.200   6.939 -20.857  1.00  0.00    -0.285 OA
ATOM      5  C   UNL     1     -15.942   7.492 -20.650  1.00  0.00     0.111 A 
ATOM      6  C   UNL     1     -16.109   8.907 -20.585  1.00  0.00     0.134 A 
ATOM      7  C   UNL     1     -15.008   9.719 -20.281  1.00  0.00     0.093 A 
ATOM      8  C   UNL     1     -13.737   9.173 -20.106  1.00  0.00     0.123 A 
ATOM      9  C   UNL     1     -13.552   7.795 -20.226  1.00  0.00     0.094 A 
ATOM     10  C   UNL     1     -14.637   6.956 -20.493  1.00  0.00     0.146 A 
ATOM     11  O   UNL     1     -14.420   5.650 -20.589  1.00  0.00    -0.452 OA
ENDROOT
BRANCH   1  12
ATOM     12  C   UNL     1     -15.004   3.336 -20.929  1.00  0.00     0.025 A 
ATOM     13  C   UNL     1     -15.010   2.486 -19.812  1.00  0.00     0.016 A 
ATOM     14  C   UNL     1     -14.674   1.138 -19.947  1.00  0.00     0.051 A 
ATOM     15  C   UNL     1     -14.338   0.608 -21.198  1.00  0.00     0.157 A 
ATOM     16  C   UNL     1     -14.690   2.801 -22.188  1.00  0.00     0.062 A 
ATOM     17  C   UNL     1     -14.350   1.450 -22.335  1.00  0.00     0.158 A 
BRANCH  15  18
ATOM     18  O   UNL     1     -14.007  -0.747 -21.264  1.00  0.00    -0.504 OA
ATOM     19  H   UNL     1     -14.663  -1.496 -21.097  1.00  0.00     0.293 HD
ENDBRANCH  15  18
BRANCH  17  20
ATOM     20  O   UNL     1     -14.037   0.992 -23.616  1.00  0.00    -0.504 OA
ATOM     21  H   UNL     1     -14.439   1.365 -24.464  1.00  0.00     0.293 HD
ENDBRANCH  17  20
ENDBRANCH   1  12
BRANCH   2  22
ATOM     22  O   UNL     1     -17.747   4.259 -21.064  1.00  0.00    -0.502 OA
ATOM     23  H   UNL     1     -18.675   4.410 -20.689  1.00  0.00     0.293 HD
ENDBRANCH   2  22
BRANCH   6  24
ATOM     24  O   UNL     1     -17.317   9.563 -20.835  1.00  0.00    -0.507 OA
ATOM     25  H   UNL     1     -17.397  10.498 -21.207  1.00  0.00     0.293 HD
ENDBRANCH   6  24
BRANCH   8  26
ATOM     26  O   UNL     1     -12.662  10.012 -19.820  1.00  0.00    -0.508 OA
ATOM     27  H   UNL     1     -12.715  10.708 -19.084  1.00  0.00     0.293 HD
ENDBRANCH   8  26
TORSDOF 6
ENDMDL
MODEL 2
REMARK VINA RESULT:    -7.876      1.683      7.376
REMARK INTER + INTRA:          -9.808
REMARK INTER:                  -9.485
REMARK INTRA:                  -0.323
REMARK UNBOUND:                -0.321
REMARK SMILES O=c1c(O)c(-c2ccc(O)c(O)c2)oc2cc(O)cc(O)c12
REMARK SMILES IDX 5 1 3 2 2 3 1 4 22 5 20 6 19 7 17 8 16 9 15 10 14 11 6 12
REMARK SMILES IDX 7 13 8 14 9 15 13 16 11 17 10 18 12 20 4 22 21 24 18 26
REMARK H PARENT 10 19 12 21 4 23 21 25 18 27
REMARK Flexibility Score: inf
ROOT
ATOM      1  C   UNL     1     -14.862   3.349 -21.459  1.00  0.00     0.180 A 
ATOM      2  C   UNL     1     -14.741   2.989 -22.813  1.00  0.00     0.208 A 
ATOM      3  C   UNL     1     -14.607   1.632 -23.146  1.00  0.00     0.238 A 
ATOM      4  O   UNL     1     -14.446   1.320 -24.355  1.00  0.00    -0.285 OA
ATOM      5  C   UNL     1     -14.612   0.651 -22.126  1.00  0.00     0.111 A 
ATOM      6  C   UNL     1     -14.525  -0.755 -22.352  1.00  0.00     0.134 A 
ATOM      7  C   UNL     1     -14.407  -1.624 -21.260  1.00  0.00     0.093 A 
ATOM      8  C   UNL     1     -14.441  -1.145 -19.951  1.00  0.00     0.123 A 
ATOM      9  C   UNL     1     -14.586   0.222 -19.717  1.00  0.00     0.094 A 
ATOM     10  C   UNL     1     -14.670   1.118 -20.786  1.00  0.00     0.146 A 
ATOM     11  O   UNL     1     -14.797   2.412 -20.520  1.00  0.00    -0.452 OA
ENDROOT
BRANCH   1  12
ATOM     12  C   UNL     1     -15.031   4.757 -21.031  1.00  0.00     0.025 A 
ATOM     13  C   UNL     1     -13.925   5.582 -20.774  1.00  0.00     0.016 A 
ATOM     14  C   UNL     1     -14.109   6.913 -20.396  1.00  0.00     0.051 A 
ATOM     15  C   UNL     1     -15.396   7.451 -20.279  1.00  0.00     0.157 A 
ATOM     16  C   UNL     1     -16.321   5.300 -20.937  1.00  0.00     0.062 A 
ATOM     17  C   UNL     1     -16.517   6.634 -20.557  1.00  0.00     0.158 A 
BRANCH  15  18
ATOM     18  O   UNL     1     -15.511   8.788 -19.892  1.00  0.00    -0.504 OA
ATOM     19  H   UNL     1     -15.552   9.095 -18.932  1.00  0.00     0.293 HD
ENDBRANCH  15  18
BRANCH  17  20
ATOM     20  O   UNL     1     -17.830   7.102 -20.472  1.00  0.00    -0.504 OA
ATOM     21  H   UNL     1     -18.091   8.074 -20.568  1.00  0.00     0.293 HD
ENDBRANCH  17  20
ENDBRANCH   1  12
BRANCH   2  22
ATOM     22  O   UNL     1     -14.717   3.975 -23.803  1.00  0.00    -0.502 OA
ATOM     23  H   UNL     1     -14.622   4.960 -23.588  1.00  0.00     0.293 HD
ENDBRANCH   2  22
BRANCH   6  24
ATOM     24  O   UNL     1     -14.575  -1.346 -23.617  1.00  0.00    -0.507 OA
ATOM     25  H   UNL     1     -14.811  -0.861 -24.470  1.00  0.00     0.293 HD
ENDBRANCH   6  24
BRANCH   8  26
ATOM     26  O   UNL     1     -14.337  -2.041 -18.889  1.00  0.00    -0.508 OA
ATOM     27  H   UNL     1     -13.712  -2.839 -18.928  1.00  0.00     0.293 HD
ENDBRANCH   8  26
TORSDOF 6
ENDMDL
MODEL 3
REMARK VINA RESULT:    -7.655      1.476      6.935
REMARK INTER + INTRA:          -9.542
REMARK INTER:                  -9.326
REMARK INTRA:                  -0.215
REMARK UNBOUND:                -0.321
REMARK SMILES O=c1c(O)c(-c2ccc(O)c(O)c2)oc2cc(O)cc(O)c12
REMARK SMILES IDX 5 1 3 2 2 3 1 4 22 5 20 6 19 7 17 8 16 9 15 10 14 11 6 12
REMARK SMILES IDX 7 13 8 14 9 15 13 16 11 17 10 18 12 20 4 22 21 24 18 26
REMARK H PARENT 10 19 12 21 4 23 21 25 18 27
REMARK Flexibility Score: inf
ROOT
ATOM      1  C   UNL     1     -14.856   5.032 -21.494  1.00  0.00     0.180 A 
ATOM      2  C   UNL     1     -15.180   4.726 -22.827  1.00  0.00     0.208 A 
ATOM      3  C   UNL     1     -15.412   3.387 -23.181  1.00  0.00     0.238 A 
ATOM      4  O   UNL     1     -15.648   3.112 -24.386  1.00  0.00    -0.285 OA
ATOM      5  C   UNL     1     -15.333   2.373 -22.196  1.00  0.00     0.111 A 
ATOM      6  C   UNL     1     -15.589   0.990 -22.434  1.00  0.00     0.134 A 
ATOM      7  C   UNL     1     -15.354   0.059 -21.414  1.00  0.00     0.093 A 
ATOM      8  C   UNL     1     -14.937   0.467 -20.148  1.00  0.00     0.123 A 
ATOM      9  C   UNL     1     -14.741   1.824 -19.887  1.00  0.00     0.094 A 
ATOM     10  C   UNL     1     -14.933   2.773 -20.893  1.00  0.00     0.146 A 
ATOM     11  O   UNL     1     -14.726   4.052 -20.607  1.00  0.00    -0.452 OA
ENDROOT
BRANCH   1  12
ATOM     12  C   UNL     1     -14.623   6.422 -21.040  1.00  0.00     0.025 A 
ATOM     13  C   UNL     1     -13.336   6.879 -20.715  1.00  0.00     0.016 A 
ATOM     14  C   UNL     1     -13.137   8.201 -20.312  1.00  0.00     0.051 A 
ATOM     15  C   UNL     1     -14.211   9.095 -20.240  1.00  0.00     0.157 A 
ATOM     16  C   UNL     1     -15.698   7.323 -20.990  1.00  0.00     0.062 A 
ATOM     17  C   UNL     1     -15.509   8.650 -20.587  1.00  0.00     0.158 A 
BRANCH  15  18
ATOM     18  O   UNL     1     -13.945  10.402 -19.826  1.00  0.00    -0.504 OA
ATOM     19  H   UNL     1     -13.655  11.142 -20.448  1.00  0.00     0.293 HD
ENDBRANCH  15  18
BRANCH  17  20
ATOM     20  O   UNL     1     -16.627   9.486 -20.549  1.00  0.00    -0.504 OA
ATOM     21  H   UNL     1     -16.581  10.494 -20.593  1.00  0.00     0.293 HD
ENDBRANCH  17  20
ENDBRANCH   1  12
BRANCH   2  22
ATOM     22  O   UNL     1     -15.231   5.739 -23.789  1.00  0.00    -0.502 OA
ATOM     23  H   UNL     1     -15.897   5.730 -24.553  1.00  0.00     0.293 HD
ENDBRANCH   2  22
BRANCH   6  24
ATOM     24  O   UNL     1     -16.095   0.485 -23.634  1.00  0.00    -0.507 OA
ATOM     25  H   UNL     1     -16.052   0.962 -24.522  1.00  0.00     0.293 HD
ENDBRANCH   6  24
BRANCH   8  26
ATOM     26  O   UNL     1     -14.728  -0.485 -19.153  1.00  0.00    -0.508 OA
ATOM     27  H   UNL     1     -13.947  -1.132 -19.194  1.00  0.00     0.293 HD
ENDBRANCH   8  26
TORSDOF 6
ENDMDL
MODEL 4
REMARK VINA RESULT:    -7.619      1.946      7.013
REMARK INTER + INTRA:          -9.499
REMARK INTER:                  -9.356
REMARK INTRA:                  -0.143
REMARK UNBOUND:                -0.321
REMARK SMILES O=c1c(O)c(-c2ccc(O)c(O)c2)oc2cc(O)cc(O)c12
REMARK SMILES IDX 5 1 3 2 2 3 1 4 22 5 20 6 19 7 17 8 16 9 15 10 14 11 6 12
REMARK SMILES IDX 7 13 8 14 9 15 13 16 11 17 10 18 12 20 4 22 21 24 18 26
REMARK H PARENT 10 19 12 21 4 23 21 25 18 27
REMARK Flexibility Score: inf
ROOT
ATOM      1  C   UNL     1     -14.906   4.892 -21.094  1.00  0.00     0.180 A 
ATOM      2  C   UNL     1     -14.531   3.797 -20.297  1.00  0.00     0.208 A 
ATOM      3  C   UNL     1     -14.914   2.505 -20.692  1.00  0.00     0.238 A 
ATOM      4  O   UNL     1     -14.623   1.534 -19.947  1.00  0.00    -0.285 OA
ATOM      5  C   UNL     1     -15.653   2.322 -21.886  1.00  0.00     0.111 A 
ATOM      6  C   UNL     1     -16.058   1.056 -22.403  1.00  0.00     0.134 A 
ATOM      7  C   UNL     1     -16.897   1.004 -23.523  1.00  0.00     0.093 A 
ATOM      8  C   UNL     1     -17.290   2.167 -24.184  1.00  0.00     0.123 A 
ATOM      9  C   UNL     1     -16.851   3.408 -23.722  1.00  0.00     0.094 A 
ATOM     10  C   UNL     1     -16.042   3.495 -22.586  1.00  0.00     0.146 A 
ATOM     11  O   UNL     1     -15.654   4.695 -22.173  1.00  0.00    -0.452 OA
ENDROOT
BRANCH   1  12
ATOM     12  C   UNL     1     -14.518   6.281 -20.756  1.00  0.00     0.025 A 
ATOM     13  C   UNL     1     -13.170   6.660 -20.654  1.00  0.00     0.016 A 
ATOM     14  C   UNL     1     -12.829   7.981 -20.358  1.00  0.00     0.051 A 
ATOM     15  C   UNL     1     -13.820   8.951 -20.172  1.00  0.00     0.157 A 
ATOM     16  C   UNL     1     -15.514   7.256 -20.593  1.00  0.00     0.062 A 
ATOM     17  C   UNL     1     -15.181   8.584 -20.295  1.00  0.00     0.158 A 
BRANCH  15  18
ATOM     18  O   UNL     1     -13.412  10.252 -19.875  1.00  0.00    -0.504 OA
ATOM     19  H   UNL     1     -13.799  10.807 -19.126  1.00  0.00     0.293 HD
ENDBRANCH  15  18
BRANCH  17  20
ATOM     20  O   UNL     1     -16.225   9.497 -20.133  1.00  0.00    -0.504 OA
ATOM     21  H   UNL     1     -16.104  10.500 -20.136  1.00  0.00     0.293 HD
ENDBRANCH  17  20
ENDBRANCH   1  12
BRANCH   2  22
ATOM     22  O   UNL     1     -13.821   4.000 -19.111  1.00  0.00    -0.502 OA
ATOM     23  H   UNL     1     -13.372   3.244 -18.609  1.00  0.00     0.293 HD
ENDBRANCH   2  22
BRANCH   6  24
ATOM     24  O   UNL     1     -15.647  -0.171 -21.874  1.00  0.00    -0.507 OA
ATOM     25  H   UNL     1     -16.095  -0.642 -21.102  1.00  0.00     0.293 HD
ENDBRANCH   6  24
BRANCH   8  26
ATOM     26  O   UNL     1     -18.113   2.076 -25.304  1.00  0.00    -0.508 OA
ATOM     27  H   UNL     1     -17.886   2.557 -26.168  1.00  0.00     0.293 HD
ENDBRANCH   8  26
TORSDOF 6
ENDMDL
MODEL 5
REMARK VINA RESULT:    -7.570      1.224      2.950
REMARK INTER + INTRA:          -9.439
REMARK INTER:                  -9.105
REMARK INTRA:                  -0.335
REMARK UNBOUND:                -0.321
REMARK SMILES O=c1c(O)c(-c2ccc(O)c(O)c2)oc2cc(O)cc(O)c12
REMARK SMILES IDX 5 1 3 2 2 3 1 4 22 5 20 6 19 7 17 8 16 9 15 10 14 11 6 12
REMARK SMILES IDX 7 13 8 14 9 15 13 16 11 17 10 18 12 20 4 22 21 24 18 26
REMARK H PARENT 10 19 12 21 4 23 21 25 18 27
REMARK Flexibility Score: inf
ROOT
ATOM      1  C   UNL     1     -15.292   4.958 -20.849  1.00  0.00     0.180 A 
ATOM      2  C   UNL     1     -14.303   5.904 -20.528  1.00  0.00     0.208 A 
ATOM      3  C   UNL     1     -14.657   7.260 -20.458  1.00  0.00     0.238 A 
ATOM      4  O   UNL     1     -13.758   8.109 -20.224  1.00  0.00    -0.285 OA
ATOM      5  C   UNL     1     -15.997   7.653 -20.694  1.00  0.00     0.111 A 
ATOM      6  C   UNL     1     -16.476   8.994 -20.609  1.00  0.00     0.134 A 
ATOM      7  C   UNL     1     -17.793   9.283 -20.990  1.00  0.00     0.093 A 
ATOM      8  C   UNL     1     -18.665   8.271 -21.389  1.00  0.00     0.123 A 
ATOM      9  C   UNL     1     -18.225   6.948 -21.418  1.00  0.00     0.094 A 
ATOM     10  C   UNL     1     -16.907   6.633 -21.078  1.00  0.00     0.146 A 
ATOM     11  O   UNL     1     -16.525   5.363 -21.129  1.00  0.00    -0.452 OA
ENDROOT
BRANCH   1  12
ATOM     12  C   UNL     1     -15.000   3.507 -20.917  1.00  0.00     0.025 A 
ATOM     13  C   UNL     1     -15.098   2.687 -19.783  1.00  0.00     0.016 A 
ATOM     14  C   UNL     1     -14.842   1.318 -19.877  1.00  0.00     0.051 A 
ATOM     15  C   UNL     1     -14.497   0.738 -21.103  1.00  0.00     0.157 A 
ATOM     16  C   UNL     1     -14.677   2.924 -22.153  1.00  0.00     0.062 A 
ATOM     17  C   UNL     1     -14.417   1.552 -22.257  1.00  0.00     0.158 A 
BRANCH  15  18
ATOM     18  O   UNL     1     -14.250  -0.636 -21.128  1.00  0.00    -0.504 OA
ATOM     19  H   UNL     1     -13.765  -1.108 -21.877  1.00  0.00     0.293 HD
ENDBRANCH  15  18
BRANCH  17  20
ATOM     20  O   UNL     1     -14.089   1.044 -23.516  1.00  0.00    -0.504 OA
ATOM     21  H   UNL     1     -13.193   0.640 -23.746  1.00  0.00     0.293 HD
ENDBRANCH  17  20
ENDBRANCH   1  12
BRANCH   2  22
ATOM     22  O   UNL     1     -12.982   5.498 -20.320  1.00  0.00    -0.502 OA
ATOM     23  H   UNL     1     -12.192   6.000 -20.708  1.00  0.00     0.293 HD
ENDBRANCH   2  22
BRANCH   6  24
ATOM     24  O   UNL     1     -15.715  10.066 -20.136  1.00  0.00    -0.507 OA
ATOM     25  H   UNL     1     -14.708  10.117 -20.174  1.00  0.00     0.293 HD
ENDBRANCH   6  24
BRANCH   8  26
ATOM     26  O   UNL     1     -19.973   8.593 -21.746  1.00  0.00    -0.508 OA
ATOM     27  H   UNL     1     -20.533   7.973 -22.320  1.00  0.00     0.293 HD
ENDBRANCH   8  26
TORSDOF 6
ENDMDL
MODEL 6
REMARK VINA RESULT:    -7.530      1.648      2.242
REMARK INTER + INTRA:          -9.391
REMARK INTER:                  -9.205
REMARK INTRA:                  -0.186
REMARK UNBOUND:                -0.321
REMARK SMILES O=c1c(O)c(-c2ccc(O)c(O)c2)oc2cc(O)cc(O)c12
REMARK SMILES IDX 5 1 3 2 2 3 1 4 22 5 20 6 19 7 17 8 16 9 15 10 14 11 6 12
REMARK SMILES IDX 7 13 8 14 9 15 13 16 11 17 10 18 12 20 4 22 21 24 18 26
REMARK H PARENT 10 19 12 21 4 23 21 25 18 27
REMARK Flexibility Score: inf
ROOT
ATOM      1  C   UNL     1     -15.393   2.732 -21.228  1.00  0.00     0.180 A 
ATOM      2  C   UNL     1     -16.615   3.107 -21.812  1.00  0.00     0.208 A 
ATOM      3  C   UNL     1     -16.878   4.469 -22.025  1.00  0.00     0.238 A 
ATOM      4  O   UNL     1     -17.996   4.802 -22.498  1.00  0.00    -0.285 OA
ATOM      5  C   UNL     1     -15.910   5.439 -21.669  1.00  0.00     0.111 A 
ATOM      6  C   UNL     1     -16.053   6.842 -21.878  1.00  0.00     0.134 A 
ATOM      7  C   UNL     1     -15.087   7.719 -21.367  1.00  0.00     0.093 A 
ATOM      8  C   UNL     1     -13.952   7.239 -20.715  1.00  0.00     0.123 A 
ATOM      9  C   UNL     1     -13.773   5.865 -20.557  1.00  0.00     0.094 A 
ATOM     10  C   UNL     1     -14.736   4.967 -21.024  1.00  0.00     0.146 A 
ATOM     11  O   UNL     1     -14.532   3.668 -20.844  1.00  0.00    -0.452 OA
ENDROOT
BRANCH   1  12
ATOM     12  C   UNL     1     -15.034   1.314 -20.994  1.00  0.00     0.025 A 
ATOM     13  C   UNL     1     -14.948   0.786 -19.696  1.00  0.00     0.016 A 
ATOM     14  C   UNL     1     -14.631  -0.560 -19.502  1.00  0.00     0.051 A 
ATOM     15  C   UNL     1     -14.409  -1.407 -20.593  1.00  0.00     0.157 A 
ATOM     16  C   UNL     1     -14.833   0.462 -22.091  1.00  0.00     0.062 A 
ATOM     17  C   UNL     1     -14.515  -0.889 -21.906  1.00  0.00     0.158 A 
BRANCH  15  18
ATOM     18  O   UNL     1     -14.092  -2.741 -20.330  1.00  0.00    -0.504 OA
ATOM     19  H   UNL     1     -13.512  -3.311 -20.927  1.00  0.00     0.293 HD
ENDBRANCH  15  18
BRANCH  17  20
ATOM     20  O   UNL     1     -14.317  -1.674 -23.043  1.00  0.00    -0.504 OA
ATOM     21  H   UNL     1     -13.413  -2.002 -23.354  1.00  0.00     0.293 HD
ENDBRANCH  17  20
ENDBRANCH   1  12
BRANCH   2  22
ATOM     22  O   UNL     1     -17.567   2.136 -22.136  1.00  0.00    -0.502 OA
ATOM     23  H   UNL     1     -17.320   1.260 -22.582  1.00  0.00     0.293 HD
ENDBRANCH   2  22
BRANCH   6  24
ATOM     24  O   UNL     1     -17.102   7.421 -22.598  1.00  0.00    -0.507 OA
ATOM     25  H   UNL     1     -18.081   7.249 -22.425  1.00  0.00     0.293 HD
ENDBRANCH   6  24
BRANCH   8  26
ATOM     26  O   UNL     1     -13.005   8.140 -20.233  1.00  0.00    -0.508 OA
ATOM     27  H   UNL     1     -12.828   9.023 -20.699  1.00  0.00     0.293 HD
ENDBRANCH   8  26
TORSDOF 6
ENDMDL
MODEL 7
REMARK VINA RESULT:    -7.358      1.727      7.267
REMARK INTER + INTRA:          -9.184
REMARK INTER:                  -8.853
REMARK INTRA:                  -0.331
REMARK UNBOUND:                -0.321
REMARK SMILES O=c1c(O)c(-c2ccc(O)c(O)c2)oc2cc(O)cc(O)c12
REMARK SMILES IDX 5 1 3 2 2 3 1 4 22 5 20 6 19 7 17 8 16 9 15 10 14 11 6 12
REMARK SMILES IDX 7 13 8 14 9 15 13 16 11 17 10 18 12 20 4 22 21 24 18 26
REMARK H PARENT 10 19 12 21 4 23 21 25 18 27
REMARK Flexibility Score: inf
ROOT
ATOM      1  C   UNL     1     -14.874   3.653 -21.312  1.00  0.00     0.180 A 
ATOM      2  C   UNL     1     -14.859   2.637 -20.341  1.00  0.00     0.208 A 
ATOM      3  C   UNL     1     -14.752   1.301 -20.756  1.00  0.00     0.238 A 
ATOM      4  O   UNL     1     -14.794   0.392 -19.887  1.00  0.00    -0.285 OA
ATOM      5  C   UNL     1     -14.643   0.997 -22.135  1.00  0.00     0.111 A 
ATOM      6  C   UNL     1     -14.488  -0.318 -22.666  1.00  0.00     0.134 A 
ATOM      7  C   UNL     1     -14.523  -0.511 -24.053  1.00  0.00     0.093 A 
ATOM      8  C   UNL     1     -14.640   0.568 -24.928  1.00  0.00     0.123 A 
ATOM      9  C   UNL     1     -14.732   1.864 -24.421  1.00  0.00     0.094 A 
ATOM     10  C   UNL     1     -14.737   2.086 -23.042  1.00  0.00     0.146 A 
ATOM     11  O   UNL     1     -14.837   3.334 -22.600  1.00  0.00    -0.452 OA
ENDROOT
BRANCH   1  12
ATOM     12  C   UNL     1     -14.960   5.087 -20.950  1.00  0.00     0.025 A 
ATOM     13  C   UNL     1     -13.806   5.857 -20.732  1.00  0.00     0.016 A 
ATOM     14  C   UNL     1     -13.912   7.213 -20.415  1.00  0.00     0.051 A 
ATOM     15  C   UNL     1     -15.165   7.829 -20.323  1.00  0.00     0.157 A 
ATOM     16  C   UNL     1     -16.216   5.708 -20.880  1.00  0.00     0.062 A 
ATOM     17  C   UNL     1     -16.332   7.067 -20.562  1.00  0.00     0.158 A 
BRANCH  15  18
ATOM     18  O   UNL     1     -15.201   9.187 -19.998  1.00  0.00    -0.504 OA
ATOM     19  H   UNL     1     -14.615   9.615 -19.296  1.00  0.00     0.293 HD
ENDBRANCH  15  18
BRANCH  17  20
ATOM     20  O   UNL     1     -17.615   7.615 -20.498  1.00  0.00    -0.504 OA
ATOM     21  H   UNL     1     -18.296   7.379 -19.789  1.00  0.00     0.293 HD
ENDBRANCH  17  20
ENDBRANCH   1  12
BRANCH   2  22
ATOM     22  O   UNL     1     -14.989   2.957 -18.986  1.00  0.00    -0.502 OA
ATOM     23  H   UNL     1     -14.868   3.899 -18.636  1.00  0.00     0.293 HD
ENDBRANCH   2  22
BRANCH   6  24
ATOM     24  O   UNL     1     -14.273  -1.455 -21.883  1.00  0.00    -0.507 OA
ATOM     25  H   UNL     1     -13.464  -1.607 -21.300  1.00  0.00     0.293 HD
ENDBRANCH   6  24
BRANCH   8  26
ATOM     26  O   UNL     1     -14.655   0.339 -26.302  1.00  0.00    -0.508 OA
ATOM     27  H   UNL     1     -13.954   0.743 -26.914  1.00  0.00     0.293 HD
ENDBRANCH   8  26
TORSDOF 6
ENDMDL
MODEL 8
REMARK VINA RESULT:    -7.321      2.253      3.809
REMARK INTER + INTRA:          -9.140
REMARK INTER:                  -9.183
REMARK INTRA:                   0.043
REMARK UNBOUND:                -0.321
REMARK SMILES O=c1c(O)c(-c2ccc(O)c(O)c2)oc2cc(O)cc(O)c12
REMARK SMILES IDX 5 1 3 2 2 3 1 4 22 5 20 6 19 7 17 8 16 9 15 10 14 11 6 12
REMARK SMILES IDX 7 13 8 14 9 15 13 16 11 17 10 18 12 20 4 22 21 24 18 26
REMARK H PARENT 10 19 12 21 4 23 21 25 18 27
REMARK Flexibility Score: inf
ROOT
ATOM      1  C   UNL     1     -15.538   2.751 -21.033  1.00  0.00     0.180 A 
ATOM      2  C   UNL     1     -14.954   3.805 -20.309  1.00  0.00     0.208 A 
ATOM      3  C   UNL     1     -15.402   5.116 -20.534  1.00  0.00     0.238 A 
ATOM      4  O   UNL     1     -14.839   6.061 -19.924  1.00  0.00    -0.285 OA
ATOM      5  C   UNL     1     -16.439   5.356 -21.468  1.00  0.00     0.111 A 
ATOM      6  C   UNL     1     -16.999   6.638 -21.746  1.00  0.00     0.134 A 
ATOM      7  C   UNL     1     -17.931   6.775 -22.783  1.00  0.00     0.093 A 
ATOM      8  C   UNL     1     -18.371   5.668 -23.507  1.00  0.00     0.123 A 
ATOM      9  C   UNL     1     -17.874   4.400 -23.204  1.00  0.00     0.094 A 
ATOM     10  C   UNL     1     -16.917   4.236 -22.199  1.00  0.00     0.146 A 
ATOM     11  O   UNL     1     -16.463   3.015 -21.949  1.00  0.00    -0.452 OA
ENDROOT
BRANCH   1  12
ATOM     12  C   UNL     1     -15.135   1.340 -20.832  1.00  0.00     0.025 A 
ATOM     13  C   UNL     1     -14.967   0.803 -19.546  1.00  0.00     0.016 A 
ATOM     14  C   UNL     1     -14.611  -0.537 -19.381  1.00  0.00     0.051 A 
ATOM     15  C   UNL     1     -14.429  -1.369 -20.491  1.00  0.00     0.157 A 
ATOM     16  C   UNL     1     -14.976   0.501 -21.945  1.00  0.00     0.062 A 
ATOM     17  C   UNL     1     -14.618  -0.844 -21.791  1.00  0.00     0.158 A 
BRANCH  15  18
ATOM     18  O   UNL     1     -14.069  -2.698 -20.257  1.00  0.00    -0.504 OA
ATOM     19  H   UNL     1     -13.158  -3.081 -20.464  1.00  0.00     0.293 HD
ENDBRANCH  15  18
BRANCH  17  20
ATOM     20  O   UNL     1     -14.465  -1.615 -22.945  1.00  0.00    -0.504 OA
ATOM     21  H   UNL     1     -15.104  -2.345 -23.226  1.00  0.00     0.293 HD
ENDBRANCH  17  20
ENDBRANCH   1  12
BRANCH   2  22
ATOM     22  O   UNL     1     -13.917   3.549 -19.408  1.00  0.00    -0.502 OA
ATOM     23  H   UNL     1     -14.047   2.991 -18.573  1.00  0.00     0.293 HD
ENDBRANCH   2  22
BRANCH   6  24
ATOM     24  O   UNL     1     -16.698   7.795 -21.022  1.00  0.00    -0.507 OA
ATOM     25  H   UNL     1     -17.025   7.990 -20.088  1.00  0.00     0.293 HD
ENDBRANCH   6  24
BRANCH   8  26
ATOM     26  O   UNL     1     -19.310   5.839 -24.522  1.00  0.00    -0.508 OA
ATOM     27  H   UNL     1     -20.124   5.239 -24.598  1.00  0.00     0.293 HD
ENDBRANCH   8  26
TORSDOF 6
ENDMDL
MODEL 9
REMARK VINA RESULT:    -7.263      2.380      7.262
REMARK INTER + INTRA:          -9.070
REMARK INTER:                  -8.837
REMARK INTRA:                  -0.233
REMARK UNBOUND:                -0.321
REMARK SMILES O=c1c(O)c(-c2ccc(O)c(O)c2)oc2cc(O)cc(O)c12
REMARK SMILES IDX 5 1 3 2 2 3 1 4 22 5 20 6 19 7 17 8 16 9 15 10 14 11 6 12
REMARK SMILES IDX 7 13 8 14 9 15 13 16 11 17 10 18 12 20 4 22 21 24 18 26
REMARK H PARENT 10 19 12 21 4 23 21 25 18 27
REMARK Flexibility Score: inf
ROOT
ATOM      1  C   UNL     1     -16.287   5.644 -21.999  1.00  0.00     0.180 A 
ATOM      2  C   UNL     1     -15.593   5.183 -20.867  1.00  0.00     0.208 A 
ATOM      3  C   UNL     1     -14.931   3.947 -20.931  1.00  0.00     0.238 A 
ATOM      4  O   UNL     1     -14.356   3.514 -19.899  1.00  0.00    -0.285 OA
ATOM      5  C   UNL     1     -14.956   3.195 -22.131  1.00  0.00     0.111 A 
ATOM      6  C   UNL     1     -14.286   1.950 -22.322  1.00  0.00     0.134 A 
ATOM      7  C   UNL     1     -14.489   1.231 -23.507  1.00  0.00     0.093 A 
ATOM      8  C   UNL     1     -15.282   1.743 -24.533  1.00  0.00     0.123 A 
ATOM      9  C   UNL     1     -15.894   2.987 -24.381  1.00  0.00     0.094 A 
ATOM     10  C   UNL     1     -15.741   3.712 -23.196  1.00  0.00     0.146 A 
ATOM     11  O   UNL     1     -16.348   4.886 -23.087  1.00  0.00    -0.452 OA
ENDROOT
BRANCH   1  12
ATOM     12  C   UNL     1     -16.988   6.948 -22.015  1.00  0.00     0.025 A 
ATOM     13  C   UNL     1     -16.506   8.030 -22.769  1.00  0.00     0.016 A 
ATOM     14  C   UNL     1     -17.198   9.242 -22.787  1.00  0.00     0.051 A 
ATOM     15  C   UNL     1     -18.388   9.397 -22.068  1.00  0.00     0.157 A 
ATOM     16  C   UNL     1     -18.194   7.094 -21.311  1.00  0.00     0.062 A 
ATOM     17  C   UNL     1     -18.895   8.307 -21.322  1.00  0.00     0.158 A 
BRANCH  15  18
ATOM     18  O   UNL     1     -19.028  10.637 -22.126  1.00  0.00    -0.504 OA
ATOM     19  H   UNL     1     -19.646  10.917 -22.873  1.00  0.00     0.293 HD
ENDBRANCH  15  18
BRANCH  17  20
ATOM     20  O   UNL     1     -20.080   8.382 -20.589  1.00  0.00    -0.504 OA
ATOM     21  H   UNL     1     -20.871   7.770 -20.728  1.00  0.00     0.293 HD
ENDBRANCH  17  20
ENDBRANCH   1  12
BRANCH   2  22
ATOM     22  O   UNL     1     -15.598   5.931 -19.686  1.00  0.00    -0.502 OA
ATOM     23  H   UNL     1     -16.417   6.010 -19.096  1.00  0.00     0.293 HD
ENDBRANCH   2  22
BRANCH   6  24
ATOM     24  O   UNL     1     -13.398   1.392 -21.398  1.00  0.00    -0.507 OA
ATOM     25  H   UNL     1     -12.963   0.487 -21.494  1.00  0.00     0.293 HD
ENDBRANCH   6  24
BRANCH   8  26
ATOM     26  O   UNL     1     -15.449   1.007 -25.704  1.00  0.00    -0.508 OA
ATOM     27  H   UNL     1     -15.209   0.023 -25.750  1.00  0.00     0.293 HD
ENDBRANCH   8  26
TORSDOF 6
ENDMDL
