MODEL 1
REMARK VINA RESULT:    -3.362      0.000      0.000
REMARK INTER + INTRA:          -5.140
REMARK INTER:                  -4.737
REMARK INTRA:                  -0.403
REMARK UNBOUND:                -0.403
REMARK SMILES CCCCCCCCC(=O)[O-]
REMARK SMILES IDX 6 1 7 2 8 3 9 4 10 5 11 6 5 7 4 8 3 9 2 10 1 11
REMARK H PARENT
REMARK Flexibility Score: inf
ROOT
ATOM      1  C   UNL     1       3.565  69.547  20.522  1.00  0.00     0.000 C 
ENDROOT
BRANCH   1   2
ATOM      2  C   UNL     1       2.585  70.425  19.732  1.00  0.00     0.006 C 
BRANCH   2   3
ATOM      3  C   UNL     1       3.327  71.530  18.974  1.00  0.00     0.053 C 
BRANCH   3   4
ATOM      4  C   UNL     1       2.448  72.728  18.803  1.00  0.00     0.041 C 
ATOM      5  O   UNL     1       1.359  72.810  19.429  1.00  0.00    -0.550 OA
ATOM      6  O   UNL     1       2.856  73.779  17.991  1.00  0.00    -0.550 OA
ENDBRANCH   3   4
ENDBRANCH   2   3
ENDBRANCH   1   2
BRANCH   1   7
ATOM      7  C   UNL     1       2.917  68.878  21.747  1.00  0.00     0.000 C 
BRANCH   7   8
ATOM      8  C   UNL     1       3.902  68.632  22.910  1.00  0.00    -0.000 C 
BRANCH   8   9
ATOM      9  C   UNL     1       5.166  69.496  22.793  1.00  0.00    -0.000 C 
BRANCH   9  10
ATOM     10  C   UNL     1       6.432  68.638  22.908  1.00  0.00    -0.003 C 
ATOM     11  C   UNL     1       6.465  67.556  21.834  1.00  0.00     0.004 C 
ENDBRANCH   9  10
ENDBRANCH   8   9
ENDBRANCH   7   8
ENDBRANCH   1   7
TORSDOF 7
ENDMDL
MODEL 2
REMARK VINA RESULT:    -3.283      3.262      5.733
REMARK INTER + INTRA:          -5.029
REMARK INTER:                  -4.634
REMARK INTRA:                  -0.395
REMARK UNBOUND:                -0.403
REMARK SMILES CCCCCCCCC(=O)[O-]
REMARK SMILES IDX 6 1 7 2 8 3 9 4 10 5 11 6 5 7 4 8 3 9 2 10 1 11
REMARK H PARENT
REMARK Flexibility Score: inf
ROOT
ATOM      1  C   UNL     1       3.944  70.024  20.281  1.00  0.00     0.000 C 
ENDROOT
BRANCH   1   2
ATOM      2  C   UNL     1       4.052  69.190  21.565  1.00  0.00     0.006 C 
BRANCH   2   3
ATOM      3  C   UNL     1       5.504  68.782  21.834  1.00  0.00     0.053 C 
BRANCH   3   4
ATOM      4  C   UNL     1       5.965  69.325  23.149  1.00  0.00     0.041 C 
ATOM      5  O   UNL     1       7.187  69.307  23.450  1.00  0.00    -0.550 OA
ATOM      6  O   UNL     1       5.050  69.899  24.023  1.00  0.00    -0.550 OA
ENDBRANCH   3   4
ENDBRANCH   2   3
ENDBRANCH   1   2
BRANCH   1   7
ATOM      7  C   UNL     1       2.961  69.426  19.259  1.00  0.00     0.000 C 
BRANCH   7   8
ATOM      8  C   UNL     1       2.244  70.488  18.398  1.00  0.00    -0.000 C 
BRANCH   8   9
ATOM      9  C   UNL     1       1.375  71.432  19.244  1.00  0.00    -0.000 C 
BRANCH   9  10
ATOM     10  C   UNL     1       1.819  72.889  19.072  1.00  0.00    -0.003 C 
ATOM     11  C   UNL     1       3.068  72.987  18.202  1.00  0.00     0.004 C 
ENDBRANCH   9  10
ENDBRANCH   8   9
ENDBRANCH   7   8
ENDBRANCH   1   7
TORSDOF 7
ENDMDL
MODEL 3
REMARK VINA RESULT:    -3.230      1.307      1.713
REMARK INTER + INTRA:          -4.954
REMARK INTER:                  -4.792
REMARK INTRA:                  -0.162
REMARK UNBOUND:                -0.403
REMARK SMILES CCCCCCCCC(=O)[O-]
REMARK SMILES IDX 6 1 7 2 8 3 9 4 10 5 11 6 5 7 4 8 3 9 2 10 1 11
REMARK H PARENT
REMARK Flexibility Score: inf
ROOT
ATOM      1  C   UNL     1       4.423  69.651  20.784  1.00  0.00     0.000 C 
ENDROOT
BRANCH   1   2
ATOM      2  C   UNL     1       3.174  69.780  19.902  1.00  0.00     0.006 C 
BRANCH   2   3
ATOM      3  C   UNL     1       3.150  71.130  19.180  1.00  0.00     0.053 C 
BRANCH   3   4
ATOM      4  C   UNL     1       1.744  71.615  19.023  1.00  0.00     0.041 C 
ATOM      5  O   UNL     1       0.838  70.824  18.651  1.00  0.00    -0.550 OA
ATOM      6  O   UNL     1       1.423  72.930  19.336  1.00  0.00    -0.550 OA
ENDBRANCH   3   4
ENDBRANCH   2   3
ENDBRANCH   1   2
BRANCH   1   7
ATOM      7  C   UNL     1       4.109  69.122  22.194  1.00  0.00     0.000 C 
BRANCH   7   8
ATOM      8  C   UNL     1       5.186  69.477  23.242  1.00  0.00    -0.000 C 
BRANCH   8   9
ATOM      9  C   UNL     1       6.558  68.883  22.889  1.00  0.00    -0.000 C 
BRANCH   9  10
ATOM     10  C   UNL     1       7.565  69.113  24.021  1.00  0.00    -0.003 C 
ATOM     11  C   UNL     1       8.831  68.288  23.810  1.00  0.00     0.004 C 
ENDBRANCH   9  10
ENDBRANCH   8   9
ENDBRANCH   7   8
ENDBRANCH   1   7
TORSDOF 7
ENDMDL
MODEL 4
REMARK VINA RESULT:    -3.182     14.553     15.880
REMARK INTER + INTRA:          -4.886
REMARK INTER:                  -4.524
REMARK INTRA:                  -0.363
REMARK UNBOUND:                -0.403
REMARK SMILES CCCCCCCCC(=O)[O-]
REMARK SMILES IDX 6 1 7 2 8 3 9 4 10 5 11 6 5 7 4 8 3 9 2 10 1 11
REMARK H PARENT
REMARK Flexibility Score: inf
ROOT
ATOM      1  C   UNL     1       2.991  66.577   6.857  1.00  0.00     0.000 C 
ENDROOT
BRANCH   1   2
ATOM      2  C   UNL     1       2.216  65.471   7.587  1.00  0.00     0.006 C 
BRANCH   2   3
ATOM      3  C   UNL     1       3.108  64.252   7.841  1.00  0.00     0.053 C 
BRANCH   3   4
ATOM      4  C   UNL     1       2.279  63.069   8.228  1.00  0.00     0.041 C 
ATOM      5  O   UNL     1       1.151  62.884   7.700  1.00  0.00    -0.550 OA
ATOM      6  O   UNL     1       2.774  62.141   9.136  1.00  0.00    -0.550 OA
ENDBRANCH   3   4
ENDBRANCH   2   3
ENDBRANCH   1   2
BRANCH   1   7
ATOM      7  C   UNL     1       2.606  66.698   5.373  1.00  0.00     0.000 C 
BRANCH   7   8
ATOM      8  C   UNL     1       3.809  66.591   4.411  1.00  0.00    -0.000 C 
BRANCH   8   9
ATOM      9  C   UNL     1       5.149  66.552   5.160  1.00  0.00    -0.000 C 
BRANCH   9  10
ATOM     10  C   UNL     1       5.919  67.866   4.978  1.00  0.00    -0.003 C 
ATOM     11  C   UNL     1       7.198  67.650   4.176  1.00  0.00     0.004 C 
ENDBRANCH   9  10
ENDBRANCH   8   9
ENDBRANCH   7   8
ENDBRANCH   1   7
TORSDOF 7
ENDMDL
MODEL 5
REMARK VINA RESULT:    -3.153      3.289      5.539
REMARK INTER + INTRA:          -4.847
REMARK INTER:                  -4.492
REMARK INTRA:                  -0.355
REMARK UNBOUND:                -0.403
REMARK SMILES CCCCCCCCC(=O)[O-]
REMARK SMILES IDX 6 1 7 2 8 3 9 4 10 5 11 6 5 7 4 8 3 9 2 10 1 11
REMARK H PARENT
REMARK Flexibility Score: inf
ROOT
ATOM      1  C   UNL     1       2.410  68.777  21.549  1.00  0.00     0.000 C 
ENDROOT
BRANCH   1   2
ATOM      2  C   UNL     1       3.573  68.793  22.551  1.00  0.00     0.006 C 
BRANCH   2   3
ATOM      3  C   UNL     1       4.844  69.356  21.908  1.00  0.00     0.053 C 
BRANCH   3   4
ATOM      4  C   UNL     1       5.980  69.322  22.880  1.00  0.00     0.041 C 
ATOM      5  O   UNL     1       6.009  70.124  23.850  1.00  0.00    -0.550 OA
ATOM      6  O   UNL     1       6.984  68.371  22.742  1.00  0.00    -0.550 OA
ENDBRANCH   3   4
ENDBRANCH   2   3
ENDBRANCH   1   2
BRANCH   1   7
ATOM      7  C   UNL     1       2.693  69.616  20.290  1.00  0.00     0.000 C 
BRANCH   7   8
ATOM      8  C   UNL     1       1.416  70.140  19.598  1.00  0.00    -0.000 C 
BRANCH   8   9
ATOM      9  C   UNL     1       1.557  71.603  19.152  1.00  0.00    -0.000 C 
BRANCH   9  10
ATOM     10  C   UNL     1       3.023  71.955  18.875  1.00  0.00    -0.003 C 
ATOM     11  C   UNL     1       3.135  73.176  17.967  1.00  0.00     0.004 C 
ENDBRANCH   9  10
ENDBRANCH   8   9
ENDBRANCH   7   8
ENDBRANCH   1   7
TORSDOF 7
ENDMDL
MODEL 6
REMARK VINA RESULT:    -3.061     11.984     13.074
REMARK INTER + INTRA:          -4.716
REMARK INTER:                  -4.094
REMARK INTRA:                  -0.622
REMARK UNBOUND:                -0.403
REMARK SMILES CCCCCCCCC(=O)[O-]
REMARK SMILES IDX 6 1 7 2 8 3 9 4 10 5 11 6 5 7 4 8 3 9 2 10 1 11
REMARK H PARENT
REMARK Flexibility Score: inf
ROOT
ATOM      1  C   UNL     1       2.075  66.305   8.638  1.00  0.00     0.000 C 
ENDROOT
BRANCH   1   2
ATOM      2  C   UNL     1       2.210  65.251   7.531  1.00  0.00     0.006 C 
BRANCH   2   3
ATOM      3  C   UNL     1       3.078  64.077   7.995  1.00  0.00     0.053 C 
BRANCH   3   4
ATOM      4  C   UNL     1       2.230  62.875   8.267  1.00  0.00     0.041 C 
ATOM      5  O   UNL     1       1.118  62.740   7.692  1.00  0.00    -0.550 OA
ATOM      6  O   UNL     1       2.691  61.878   9.117  1.00  0.00    -0.550 OA
ENDBRANCH   3   4
ENDBRANCH   2   3
ENDBRANCH   1   2
BRANCH   1   7
ATOM      7  C   UNL     1       0.831  66.094   9.519  1.00  0.00     0.000 C 
BRANCH   7   8
ATOM      8  C   UNL     1       1.127  66.162  11.033  1.00  0.00    -0.000 C 
BRANCH   8   9
ATOM      9  C   UNL     1       2.406  65.400  11.409  1.00  0.00    -0.000 C 
BRANCH   9  10
ATOM     10  C   UNL     1       3.265  66.214  12.384  1.00  0.00    -0.003 C 
ATOM     11  C   UNL     1       3.786  67.488  11.727  1.00  0.00     0.004 C 
ENDBRANCH   9  10
ENDBRANCH   8   9
ENDBRANCH   7   8
ENDBRANCH   1   7
TORSDOF 7
ENDMDL
MODEL 7
REMARK VINA RESULT:    -3.040     13.451     14.921
REMARK INTER + INTRA:          -4.686
REMARK INTER:                  -4.138
REMARK INTRA:                  -0.549
REMARK UNBOUND:                -0.403
REMARK SMILES CCCCCCCCC(=O)[O-]
REMARK SMILES IDX 6 1 7 2 8 3 9 4 10 5 11 6 5 7 4 8 3 9 2 10 1 11
REMARK H PARENT
REMARK Flexibility Score: inf
ROOT
ATOM      1  C   UNL     1       1.404  65.873   6.900  1.00  0.00     0.000 C 
ENDROOT
BRANCH   1   2
ATOM      2  C   UNL     1       0.863  64.890   7.947  1.00  0.00     0.006 C 
BRANCH   2   3
ATOM      3  C   UNL     1       1.693  63.603   7.971  1.00  0.00     0.053 C 
BRANCH   3   4
ATOM      4  C   UNL     1       2.616  63.597   9.148  1.00  0.00     0.041 C 
ATOM      5  O   UNL     1       3.379  62.616   9.351  1.00  0.00    -0.550 OA
ATOM      6  O   UNL     1       2.671  64.698   9.994  1.00  0.00    -0.550 OA
ENDBRANCH   3   4
ENDBRANCH   2   3
ENDBRANCH   1   2
BRANCH   1   7
ATOM      7  C   UNL     1       2.133  67.075   7.526  1.00  0.00     0.000 C 
BRANCH   7   8
ATOM      8  C   UNL     1       3.574  67.262   7.007  1.00  0.00    -0.000 C 
BRANCH   8   9
ATOM      9  C   UNL     1       4.108  66.004   6.307  1.00  0.00    -0.000 C 
BRANCH   9  10
ATOM     10  C   UNL     1       4.808  66.362   4.990  1.00  0.00    -0.003 C 
ATOM     11  C   UNL     1       5.719  67.573   5.161  1.00  0.00     0.004 C 
ENDBRANCH   9  10
ENDBRANCH   8   9
ENDBRANCH   7   8
ENDBRANCH   1   7
TORSDOF 7
ENDMDL
MODEL 8
REMARK VINA RESULT:    -2.900      4.216      7.218
REMARK INTER + INTRA:          -4.490
REMARK INTER:                  -4.245
REMARK INTRA:                  -0.245
REMARK UNBOUND:                -0.403
REMARK SMILES CCCCCCCCC(=O)[O-]
REMARK SMILES IDX 6 1 7 2 8 3 9 4 10 5 11 6 5 7 4 8 3 9 2 10 1 11
REMARK H PARENT
REMARK Flexibility Score: inf
ROOT
ATOM      1  C   UNL     1       2.960  70.007  16.239  1.00  0.00     0.000 C 
ENDROOT
BRANCH   1   2
ATOM      2  C   UNL     1       2.119  70.346  17.477  1.00  0.00     0.006 C 
BRANCH   2   3
ATOM      3  C   UNL     1       2.950  71.114  18.510  1.00  0.00     0.053 C 
BRANCH   3   4
ATOM      4  C   UNL     1       2.575  72.562  18.511  1.00  0.00     0.041 C 
ATOM      5  O   UNL     1       3.216  73.384  17.804  1.00  0.00    -0.550 OA
ATOM      6  O   UNL     1       1.485  72.997  19.255  1.00  0.00    -0.550 OA
ENDBRANCH   3   4
ENDBRANCH   2   3
ENDBRANCH   1   2
BRANCH   1   7
ATOM      7  C   UNL     1       2.167  70.126  14.926  1.00  0.00     0.000 C 
BRANCH   7   8
ATOM      8  C   UNL     1       2.775  71.132  13.925  1.00  0.00    -0.000 C 
BRANCH   8   9
ATOM      9  C   UNL     1       1.891  71.325  12.685  1.00  0.00    -0.000 C 
BRANCH   9  10
ATOM     10  C   UNL     1       2.270  72.605  11.932  1.00  0.00    -0.003 C 
ATOM     11  C   UNL     1       3.754  72.919  12.090  1.00  0.00     0.004 C 
ENDBRANCH   9  10
ENDBRANCH   8   9
ENDBRANCH   7   8
ENDBRANCH   1   7
TORSDOF 7
ENDMDL
MODEL 9
REMARK VINA RESULT:    -2.865      8.230      9.652
REMARK INTER + INTRA:          -4.439
REMARK INTER:                  -3.707
REMARK INTRA:                  -0.733
REMARK UNBOUND:                -0.403
REMARK SMILES CCCCCCCCC(=O)[O-]
REMARK SMILES IDX 6 1 7 2 8 3 9 4 10 5 11 6 5 7 4 8 3 9 2 10 1 11
REMARK H PARENT
REMARK Flexibility Score: inf
ROOT
ATOM      1  C   UNL     1      -6.495  72.611  21.085  1.00  0.00     0.000 C 
ENDROOT
BRANCH   1   2
ATOM      2  C   UNL     1      -5.262  72.735  20.180  1.00  0.00     0.006 C 
BRANCH   2   3
ATOM      3  C   UNL     1      -4.559  71.383  20.021  1.00  0.00     0.053 C 
BRANCH   3   4
ATOM      4  C   UNL     1      -5.247  70.555  18.982  1.00  0.00     0.041 C 
ATOM      5  O   UNL     1      -5.502  69.342  19.204  1.00  0.00    -0.550 OA
ATOM      6  O   UNL     1      -5.652  71.137  17.787  1.00  0.00    -0.550 OA
ENDBRANCH   3   4
ENDBRANCH   2   3
ENDBRANCH   1   2
BRANCH   1   7
ATOM      7  C   UNL     1      -6.343  73.373  22.413  1.00  0.00     0.000 C 
BRANCH   7   8
ATOM      8  C   UNL     1      -5.286  74.497  22.363  1.00  0.00    -0.000 C 
BRANCH   8   9
ATOM      9  C   UNL     1      -4.195  74.317  23.429  1.00  0.00    -0.000 C 
BRANCH   9  10
ATOM     10  C   UNL     1      -4.173  72.877  23.956  1.00  0.00    -0.003 C 
ATOM     11  C   UNL     1      -2.998  72.095  23.378  1.00  0.00     0.004 C 
ENDBRANCH   9  10
ENDBRANCH   8   9
ENDBRANCH   7   8
ENDBRANCH   1   7
TORSDOF 7
ENDMDL
