MODEL 1
REMARK VINA RESULT:    -7.113      0.000      0.000
REMARK INTER + INTRA:          -8.651
REMARK INTER:                  -8.360
REMARK INTRA:                  -0.291
REMARK UNBOUND:                -0.291
REMARK SMILES O=c1c(O)c(-c2ccc(O)cc2)oc2cc(O)cc(O)c12
REMARK SMILES IDX 5 1 3 2 2 3 1 4 21 5 19 6 18 7 16 8 15 9 14 10 13 11 6 12
REMARK SMILES IDX 7 13 8 14 9 15 12 16 11 17 10 18 4 20 20 22 17 24
REMARK H PARENT 10 19 4 21 20 23 17 25
REMARK Flexibility Score: inf
ROOT
ATOM      1  C   UNL     1       9.404  11.591 -15.754  1.00  0.00     0.180 A 
ATOM      2  C   UNL     1      10.065  10.417 -16.162  1.00  0.00     0.208 A 
ATOM      3  C   UNL     1       9.740   9.202 -15.538  1.00  0.00     0.238 A 
ATOM      4  O   UNL     1      10.318   8.142 -15.904  1.00  0.00    -0.285 OA
ATOM      5  C   UNL     1       8.780   9.184 -14.506  1.00  0.00     0.111 A 
ATOM      6  C   UNL     1       8.398   8.003 -13.823  1.00  0.00     0.134 A 
ATOM      7  C   UNL     1       7.440   8.071 -12.801  1.00  0.00     0.093 A 
ATOM      8  C   UNL     1       6.859   9.293 -12.447  1.00  0.00     0.123 A 
ATOM      9  C   UNL     1       7.231  10.459 -13.118  1.00  0.00     0.094 A 
ATOM     10  C   UNL     1       8.183  10.414 -14.142  1.00  0.00     0.146 A 
ATOM     11  O   UNL     1       8.514  11.537 -14.766  1.00  0.00    -0.452 OA
ENDROOT
BRANCH   1  12
ATOM     12  C   UNL     1       9.678  12.906 -16.376  1.00  0.00     0.021 A 
ATOM     13  C   UNL     1      10.688  13.752 -15.885  1.00  0.00     0.016 A 
ATOM     14  C   UNL     1      10.945  14.980 -16.504  1.00  0.00     0.047 A 
ATOM     15  C   UNL     1      10.205  15.370 -17.628  1.00  0.00     0.115 A 
ATOM     16  C   UNL     1       8.956  13.296 -17.516  1.00  0.00     0.016 A 
ATOM     17  C   UNL     1       9.214  14.524 -18.132  1.00  0.00     0.047 A 
BRANCH  15  18
ATOM     18  O   UNL     1      10.451  16.591 -18.251  1.00  0.00    -0.508 OA
ATOM     19  H   UNL     1       9.787  17.354 -18.204  1.00  0.00     0.293 HD
ENDBRANCH  15  18
ENDBRANCH   1  12
BRANCH   2  20
ATOM     20  O   UNL     1      11.049  10.469 -17.153  1.00  0.00    -0.502 OA
ATOM     21  H   UNL     1      10.867  10.833 -18.080  1.00  0.00     0.293 HD
ENDBRANCH   2  20
BRANCH   6  22
ATOM     22  O   UNL     1       8.961   6.770 -14.152  1.00  0.00    -0.507 OA
ATOM     23  H   UNL     1       8.483   5.897 -13.962  1.00  0.00     0.293 HD
ENDBRANCH   6  22
BRANCH   8  24
ATOM     24  O   UNL     1       5.908   9.360 -11.431  1.00  0.00    -0.508 OA
ATOM     25  H   UNL     1       6.158   9.636 -10.489  1.00  0.00     0.293 HD
ENDBRANCH   8  24
TORSDOF 5
ENDMDL
MODEL 2
REMARK VINA RESULT:    -6.846      2.032      7.363
REMARK INTER + INTRA:          -8.338
REMARK INTER:                  -8.051
REMARK INTRA:                  -0.287
REMARK UNBOUND:                -0.291
REMARK SMILES O=c1c(O)c(-c2ccc(O)cc2)oc2cc(O)cc(O)c12
REMARK SMILES IDX 5 1 3 2 2 3 1 4 21 5 19 6 18 7 16 8 15 9 14 10 13 11 6 12
REMARK SMILES IDX 7 13 8 14 9 15 12 16 11 17 10 18 4 20 20 22 17 24
REMARK H PARENT 10 19 4 21 20 23 17 25
REMARK Flexibility Score: inf
ROOT
ATOM      1  C   UNL     1       9.504  12.396 -17.141  1.00  0.00     0.180 A 
ATOM      2  C   UNL     1      10.087  13.523 -16.531  1.00  0.00     0.208 A 
ATOM      3  C   UNL     1      10.056  14.753 -17.207  1.00  0.00     0.238 A 
ATOM      4  O   UNL     1      10.565  15.772 -16.665  1.00  0.00    -0.285 OA
ATOM      5  C   UNL     1       9.464  14.832 -18.484  1.00  0.00     0.111 A 
ATOM      6  C   UNL     1       9.395  16.032 -19.233  1.00  0.00     0.134 A 
ATOM      7  C   UNL     1       8.796  16.025 -20.501  1.00  0.00     0.093 A 
ATOM      8  C   UNL     1       8.268  14.845 -21.036  1.00  0.00     0.123 A 
ATOM      9  C   UNL     1       8.334  13.660 -20.300  1.00  0.00     0.094 A 
ATOM     10  C   UNL     1       8.924  13.645 -19.033  1.00  0.00     0.146 A 
ATOM     11  O   UNL     1       8.968  12.506 -18.354  1.00  0.00    -0.452 OA
ENDROOT
BRANCH   1  12
ATOM     12  C   UNL     1       9.480  11.069 -16.484  1.00  0.00     0.021 A 
ATOM     13  C   UNL     1      10.559  10.175 -16.602  1.00  0.00     0.016 A 
ATOM     14  C   UNL     1      10.524   8.936 -15.953  1.00  0.00     0.047 A 
ATOM     15  C   UNL     1       9.419   8.583 -15.169  1.00  0.00     0.115 A 
ATOM     16  C   UNL     1       8.386  10.715 -15.679  1.00  0.00     0.016 A 
ATOM     17  C   UNL     1       8.353   9.476 -15.032  1.00  0.00     0.047 A 
BRANCH  15  18
ATOM     18  O   UNL     1       9.373   7.352 -14.519  1.00  0.00    -0.508 OA
ATOM     19  H   UNL     1       9.818   6.530 -14.910  1.00  0.00     0.293 HD
ENDBRANCH  15  18
ENDBRANCH   1  12
BRANCH   2  20
ATOM     20  O   UNL     1      10.712  13.408 -15.286  1.00  0.00    -0.502 OA
ATOM     21  H   UNL     1      10.379  12.777 -14.568  1.00  0.00     0.293 HD
ENDBRANCH   2  20
BRANCH   6  22
ATOM     22  O   UNL     1       9.913  17.224 -18.728  1.00  0.00    -0.507 OA
ATOM     23  H   UNL     1       9.772  17.502 -17.764  1.00  0.00     0.293 HD
ENDBRANCH   6  22
BRANCH   8  24
ATOM     24  O   UNL     1       7.675  14.838 -22.296  1.00  0.00    -0.508 OA
ATOM     25  H   UNL     1       7.314  13.985 -22.707  1.00  0.00     0.293 HD
ENDBRANCH   8  24
TORSDOF 5
ENDMDL
MODEL 3
REMARK VINA RESULT:    -6.402      2.399      3.476
REMARK INTER + INTRA:          -7.816
REMARK INTER:                  -7.933
REMARK INTRA:                   0.117
REMARK UNBOUND:                -0.291
REMARK SMILES O=c1c(O)c(-c2ccc(O)cc2)oc2cc(O)cc(O)c12
REMARK SMILES IDX 5 1 3 2 2 3 1 4 21 5 19 6 18 7 16 8 15 9 14 10 13 11 6 12
REMARK SMILES IDX 7 13 8 14 9 15 12 16 11 17 10 18 4 20 20 22 17 24
REMARK H PARENT 10 19 4 21 20 23 17 25
REMARK Flexibility Score: inf
ROOT
ATOM      1  C   UNL     1       8.766  12.980 -18.342  1.00  0.00     0.180 A 
ATOM      2  C   UNL     1       9.192  11.656 -18.559  1.00  0.00     0.208 A 
ATOM      3  C   UNL     1       9.205  10.761 -17.477  1.00  0.00     0.238 A 
ATOM      4  O   UNL     1       9.573   9.569 -17.663  1.00  0.00    -0.285 OA
ATOM      5  C   UNL     1       8.815  11.208 -16.198  1.00  0.00     0.111 A 
ATOM      6  C   UNL     1       8.804  10.371 -15.056  1.00  0.00     0.134 A 
ATOM      7  C   UNL     1       8.410  10.895 -13.815  1.00  0.00     0.093 A 
ATOM      8  C   UNL     1       8.030  12.236 -13.695  1.00  0.00     0.123 A 
ATOM      9  C   UNL     1       8.039  13.064 -14.818  1.00  0.00     0.094 A 
ATOM     10  C   UNL     1       8.426  12.562 -16.065  1.00  0.00     0.146 A 
ATOM     11  O   UNL     1       8.420  13.370 -17.118  1.00  0.00    -0.452 OA
ENDROOT
BRANCH   1  12
ATOM     12  C   UNL     1       8.707  13.978 -19.435  1.00  0.00     0.021 A 
ATOM     13  C   UNL     1       8.219  13.639 -20.709  1.00  0.00     0.016 A 
ATOM     14  C   UNL     1       8.150  14.604 -21.719  1.00  0.00     0.047 A 
ATOM     15  C   UNL     1       8.553  15.921 -21.464  1.00  0.00     0.115 A 
ATOM     16  C   UNL     1       9.089  15.305 -19.181  1.00  0.00     0.016 A 
ATOM     17  C   UNL     1       9.019  16.268 -20.193  1.00  0.00     0.047 A 
BRANCH  15  18
ATOM     18  O   UNL     1       8.489  16.890 -22.462  1.00  0.00    -0.508 OA
ATOM     19  H   UNL     1       8.844  17.827 -22.315  1.00  0.00     0.293 HD
ENDBRANCH  15  18
ENDBRANCH   1  12
BRANCH   2  20
ATOM     20  O   UNL     1       9.621  11.251 -19.826  1.00  0.00    -0.502 OA
ATOM     21  H   UNL     1      10.601  11.161 -20.063  1.00  0.00     0.293 HD
ENDBRANCH   2  20
BRANCH   6  22
ATOM     22  O   UNL     1       9.178   9.031 -15.143  1.00  0.00    -0.507 OA
ATOM     23  H   UNL     1       8.582   8.337 -15.580  1.00  0.00     0.293 HD
ENDBRANCH   6  22
BRANCH   8  24
ATOM     24  O   UNL     1       7.640  12.756 -12.463  1.00  0.00    -0.508 OA
ATOM     25  H   UNL     1       8.306  13.198 -11.839  1.00  0.00     0.293 HD
ENDBRANCH   8  24
TORSDOF 5
ENDMDL
MODEL 4
REMARK VINA RESULT:    -6.344      2.445      7.207
REMARK INTER + INTRA:          -7.748
REMARK INTER:                  -7.473
REMARK INTRA:                  -0.274
REMARK UNBOUND:                -0.291
REMARK SMILES O=c1c(O)c(-c2ccc(O)cc2)oc2cc(O)cc(O)c12
REMARK SMILES IDX 5 1 3 2 2 3 1 4 21 5 19 6 18 7 16 8 15 9 14 10 13 11 6 12
REMARK SMILES IDX 7 13 8 14 9 15 12 16 11 17 10 18 4 20 20 22 17 24
REMARK H PARENT 10 19 4 21 20 23 17 25
REMARK Flexibility Score: inf
ROOT
ATOM      1  C   UNL     1       8.779  11.874 -17.653  1.00  0.00     0.180 A 
ATOM      2  C   UNL     1       8.033  11.589 -18.813  1.00  0.00     0.208 A 
ATOM      3  C   UNL     1       7.838  12.606 -19.761  1.00  0.00     0.238 A 
ATOM      4  O   UNL     1       7.181  12.358 -20.809  1.00  0.00    -0.285 OA
ATOM      5  C   UNL     1       8.372  13.889 -19.527  1.00  0.00     0.111 A 
ATOM      6  C   UNL     1       8.217  14.969 -20.430  1.00  0.00     0.134 A 
ATOM      7  C   UNL     1       8.771  16.219 -20.119  1.00  0.00     0.093 A 
ATOM      8  C   UNL     1       9.474  16.412 -18.925  1.00  0.00     0.123 A 
ATOM      9  C   UNL     1       9.630  15.350 -18.032  1.00  0.00     0.094 A 
ATOM     10  C   UNL     1       9.087  14.094 -18.324  1.00  0.00     0.146 A 
ATOM     11  O   UNL     1       9.254  13.101 -17.459  1.00  0.00    -0.452 OA
ENDROOT
BRANCH   1  12
ATOM     12  C   UNL     1       9.044  10.851 -16.616  1.00  0.00     0.021 A 
ATOM     13  C   UNL     1       8.234  10.742 -15.471  1.00  0.00     0.016 A 
ATOM     14  C   UNL     1       8.489   9.752 -14.517  1.00  0.00     0.047 A 
ATOM     15  C   UNL     1       9.546   8.852 -14.701  1.00  0.00     0.115 A 
ATOM     16  C   UNL     1      10.089   9.931 -16.802  1.00  0.00     0.016 A 
ATOM     17  C   UNL     1      10.342   8.943 -15.846  1.00  0.00     0.047 A 
BRANCH  15  18
ATOM     18  O   UNL     1       9.810   7.864 -13.756  1.00  0.00    -0.508 OA
ATOM     19  H   UNL     1       9.071   7.287 -13.372  1.00  0.00     0.293 HD
ENDBRANCH  15  18
ENDBRANCH   1  12
BRANCH   2  20
ATOM     20  O   UNL     1       7.473  10.323 -18.998  1.00  0.00    -0.502 OA
ATOM     21  H   UNL     1       6.493  10.190 -19.221  1.00  0.00     0.293 HD
ENDBRANCH   2  20
BRANCH   6  22
ATOM     22  O   UNL     1       7.521  14.809 -21.628  1.00  0.00    -0.507 OA
ATOM     23  H   UNL     1       7.991  14.830 -22.526  1.00  0.00     0.293 HD
ENDBRANCH   6  22
BRANCH   8  24
ATOM     24  O   UNL     1      10.024  17.654 -18.616  1.00  0.00    -0.508 OA
ATOM     25  H   UNL     1      10.920  17.735 -18.150  1.00  0.00     0.293 HD
ENDBRANCH   8  24
TORSDOF 5
ENDMDL
MODEL 5
REMARK VINA RESULT:    -6.289      2.897      7.344
REMARK INTER + INTRA:          -7.684
REMARK INTER:                  -7.603
REMARK INTRA:                  -0.080
REMARK UNBOUND:                -0.291
REMARK SMILES O=c1c(O)c(-c2ccc(O)cc2)oc2cc(O)cc(O)c12
REMARK SMILES IDX 5 1 3 2 2 3 1 4 21 5 19 6 18 7 16 8 15 9 14 10 13 11 6 12
REMARK SMILES IDX 7 13 8 14 9 15 12 16 11 17 10 18 4 20 20 22 17 24
REMARK H PARENT 10 19 4 21 20 23 17 25
REMARK Flexibility Score: inf
ROOT
ATOM      1  C   UNL     1       7.298   7.681 -14.811  1.00  0.00     0.180 A 
ATOM      2  C   UNL     1       6.892   8.052 -13.515  1.00  0.00     0.208 A 
ATOM      3  C   UNL     1       7.179   9.348 -13.059  1.00  0.00     0.238 A 
ATOM      4  O   UNL     1       6.809   9.694 -11.903  1.00  0.00    -0.285 OA
ATOM      5  C   UNL     1       7.882  10.241 -13.892  1.00  0.00     0.111 A 
ATOM      6  C   UNL     1       8.213  11.563 -13.506  1.00  0.00     0.134 A 
ATOM      7  C   UNL     1       8.923  12.387 -14.391  1.00  0.00     0.093 A 
ATOM      8  C   UNL     1       9.308  11.917 -15.652  1.00  0.00     0.123 A 
ATOM      9  C   UNL     1       8.983  10.615 -16.037  1.00  0.00     0.094 A 
ATOM     10  C   UNL     1       8.274   9.777 -15.170  1.00  0.00     0.146 A 
ATOM     11  O   UNL     1       7.973   8.546 -15.564  1.00  0.00    -0.452 OA
ENDROOT
BRANCH   1  12
ATOM     12  C   UNL     1       7.017   6.339 -15.372  1.00  0.00     0.021 A 
ATOM     13  C   UNL     1       6.265   6.181 -16.549  1.00  0.00     0.016 A 
ATOM     14  C   UNL     1       6.032   4.905 -17.073  1.00  0.00     0.047 A 
ATOM     15  C   UNL     1       6.560   3.775 -16.435  1.00  0.00     0.115 A 
ATOM     16  C   UNL     1       7.560   5.203 -14.751  1.00  0.00     0.016 A 
ATOM     17  C   UNL     1       7.326   3.928 -15.276  1.00  0.00     0.047 A 
BRANCH  15  18
ATOM     18  O   UNL     1       6.334   2.500 -16.948  1.00  0.00    -0.508 OA
ATOM     19  H   UNL     1       6.898   1.708 -16.665  1.00  0.00     0.293 HD
ENDBRANCH  15  18
ENDBRANCH   1  12
BRANCH   2  20
ATOM     20  O   UNL     1       6.241   7.132 -12.690  1.00  0.00    -0.502 OA
ATOM     21  H   UNL     1       5.340   7.324 -12.267  1.00  0.00     0.293 HD
ENDBRANCH   2  20
BRANCH   6  22
ATOM     22  O   UNL     1       7.845  12.060 -12.256  1.00  0.00    -0.507 OA
ATOM     23  H   UNL     1       8.064  13.008 -11.973  1.00  0.00     0.293 HD
ENDBRANCH   6  22
BRANCH   8  24
ATOM     24  O   UNL     1      10.014  12.736 -16.530  1.00  0.00    -0.508 OA
ATOM     25  H   UNL     1      10.808  12.389 -17.056  1.00  0.00     0.293 HD
ENDBRANCH   8  24
TORSDOF 5
ENDMDL
MODEL 6
REMARK VINA RESULT:    -6.199      2.486      7.754
REMARK INTER + INTRA:          -7.578
REMARK INTER:                  -7.288
REMARK INTRA:                  -0.289
REMARK UNBOUND:                -0.291
REMARK SMILES O=c1c(O)c(-c2ccc(O)cc2)oc2cc(O)cc(O)c12
REMARK SMILES IDX 5 1 3 2 2 3 1 4 21 5 19 6 18 7 16 8 15 9 14 10 13 11 6 12
REMARK SMILES IDX 7 13 8 14 9 15 12 16 11 17 10 18 4 20 20 22 17 24
REMARK H PARENT 10 19 4 21 20 23 17 25
REMARK Flexibility Score: inf
ROOT
ATOM      1  C   UNL     1       8.870  12.608 -17.851  1.00  0.00     0.180 A 
ATOM      2  C   UNL     1       9.408  13.693 -17.134  1.00  0.00     0.208 A 
ATOM      3  C   UNL     1       9.485  14.948 -17.758  1.00  0.00     0.238 A 
ATOM      4  O   UNL     1       9.955  15.930 -17.121  1.00  0.00    -0.285 OA
ATOM      5  C   UNL     1       9.045  15.092 -19.090  1.00  0.00     0.111 A 
ATOM      6  C   UNL     1       9.092  16.321 -19.793  1.00  0.00     0.134 A 
ATOM      7  C   UNL     1       8.642  16.380 -21.120  1.00  0.00     0.093 A 
ATOM      8  C   UNL     1       8.149  15.236 -21.758  1.00  0.00     0.123 A 
ATOM      9  C   UNL     1       8.100  14.023 -21.069  1.00  0.00     0.094 A 
ATOM     10  C   UNL     1       8.541  13.943 -19.744  1.00  0.00     0.146 A 
ATOM     11  O   UNL     1       8.479  12.778 -19.111  1.00  0.00    -0.452 OA
ENDROOT
BRANCH   1  12
ATOM     12  C   UNL     1       8.738  11.258 -17.256  1.00  0.00     0.021 A 
ATOM     13  C   UNL     1       7.539  10.838 -16.653  1.00  0.00     0.016 A 
ATOM     14  C   UNL     1       7.430   9.550 -16.119  1.00  0.00     0.047 A 
ATOM     15  C   UNL     1       8.512   8.663 -16.193  1.00  0.00     0.115 A 
ATOM     16  C   UNL     1       9.810  10.355 -17.344  1.00  0.00     0.016 A 
ATOM     17  C   UNL     1       9.699   9.068 -16.809  1.00  0.00     0.047 A 
BRANCH  15  18
ATOM     18  O   UNL     1       8.415   7.379 -15.663  1.00  0.00    -0.508 OA
ATOM     19  H   UNL     1       7.609   6.792 -15.840  1.00  0.00     0.293 HD
ENDBRANCH  15  18
ENDBRANCH   1  12
BRANCH   2  20
ATOM     20  O   UNL     1       9.884  13.513 -15.832  1.00  0.00    -0.502 OA
ATOM     21  H   UNL     1       9.970  14.279 -15.175  1.00  0.00     0.293 HD
ENDBRANCH   2  20
BRANCH   6  22
ATOM     22  O   UNL     1       9.580  17.478 -19.185  1.00  0.00    -0.507 OA
ATOM     23  H   UNL     1      10.435  17.924 -19.495  1.00  0.00     0.293 HD
ENDBRANCH   6  22
BRANCH   8  24
ATOM     24  O   UNL     1       7.703  15.295 -23.076  1.00  0.00    -0.508 OA
ATOM     25  H   UNL     1       7.059  14.607 -23.448  1.00  0.00     0.293 HD
ENDBRANCH   8  24
TORSDOF 5
ENDMDL
MODEL 7
REMARK VINA RESULT:    -6.156      1.195      3.143
REMARK INTER + INTRA:          -7.526
REMARK INTER:                  -7.254
REMARK INTRA:                  -0.273
REMARK UNBOUND:                -0.291
REMARK SMILES O=c1c(O)c(-c2ccc(O)cc2)oc2cc(O)cc(O)c12
REMARK SMILES IDX 5 1 3 2 2 3 1 4 21 5 19 6 18 7 16 8 15 9 14 10 13 11 6 12
REMARK SMILES IDX 7 13 8 14 9 15 12 16 11 17 10 18 4 20 20 22 17 24
REMARK H PARENT 10 19 4 21 20 23 17 25
REMARK Flexibility Score: inf
ROOT
ATOM      1  C   UNL     1       8.539  12.251 -15.407  1.00  0.00     0.180 A 
ATOM      2  C   UNL     1       7.613  12.608 -14.409  1.00  0.00     0.208 A 
ATOM      3  C   UNL     1       7.102  11.608 -13.567  1.00  0.00     0.238 A 
ATOM      4  O   UNL     1       6.280  11.919 -12.662  1.00  0.00    -0.285 OA
ATOM      5  C   UNL     1       7.508  10.270 -13.748  1.00  0.00     0.111 A 
ATOM      6  C   UNL     1       7.037   9.203 -12.945  1.00  0.00     0.134 A 
ATOM      7  C   UNL     1       7.483   7.897 -13.195  1.00  0.00     0.093 A 
ATOM      8  C   UNL     1       8.387   7.637 -14.231  1.00  0.00     0.123 A 
ATOM      9  C   UNL     1       8.854   8.686 -15.024  1.00  0.00     0.094 A 
ATOM     10  C   UNL     1       8.424   9.996 -14.791  1.00  0.00     0.146 A 
ATOM     11  O   UNL     1       8.887  10.975 -15.557  1.00  0.00    -0.452 OA
ENDROOT
BRANCH   1  12
ATOM     12  C   UNL     1       9.137  13.250 -16.322  1.00  0.00     0.021 A 
ATOM     13  C   UNL     1       8.601  13.484 -17.601  1.00  0.00     0.016 A 
ATOM     14  C   UNL     1       9.169  14.450 -18.438  1.00  0.00     0.047 A 
ATOM     15  C   UNL     1      10.267  15.202 -18.003  1.00  0.00     0.115 A 
ATOM     16  C   UNL     1      10.225  14.023 -15.886  1.00  0.00     0.016 A 
ATOM     17  C   UNL     1      10.790  14.988 -16.725  1.00  0.00     0.047 A 
BRANCH  15  18
ATOM     18  O   UNL     1      10.840  16.166 -18.829  1.00  0.00    -0.508 OA
ATOM     19  H   UNL     1      10.338  17.006 -19.090  1.00  0.00     0.293 HD
ENDBRANCH  15  18
ENDBRANCH   1  12
BRANCH   2  20
ATOM     20  O   UNL     1       7.188  13.934 -14.283  1.00  0.00    -0.502 OA
ATOM     21  H   UNL     1       6.331  14.186 -13.805  1.00  0.00     0.293 HD
ENDBRANCH   2  20
BRANCH   6  22
ATOM     22  O   UNL     1       6.135   9.429 -11.906  1.00  0.00    -0.507 OA
ATOM     23  H   UNL     1       5.154   9.613 -12.081  1.00  0.00     0.293 HD
ENDBRANCH   6  22
BRANCH   8  24
ATOM     24  O   UNL     1       8.830   6.340 -14.479  1.00  0.00    -0.508 OA
ATOM     25  H   UNL     1       8.637   5.874 -15.359  1.00  0.00     0.293 HD
ENDBRANCH   8  24
TORSDOF 5
ENDMDL
MODEL 8
REMARK VINA RESULT:    -6.126      2.619      7.417
REMARK INTER + INTRA:          -7.491
REMARK INTER:                  -7.200
REMARK INTRA:                  -0.291
REMARK UNBOUND:                -0.291
REMARK SMILES O=c1c(O)c(-c2ccc(O)cc2)oc2cc(O)cc(O)c12
REMARK SMILES IDX 5 1 3 2 2 3 1 4 21 5 19 6 18 7 16 8 15 9 14 10 13 11 6 12
REMARK SMILES IDX 7 13 8 14 9 15 12 16 11 17 10 18 4 20 20 22 17 24
REMARK H PARENT 10 19 4 21 20 23 17 25
REMARK Flexibility Score: inf
ROOT
ATOM      1  C   UNL     1       8.814  12.956 -18.165  1.00  0.00     0.180 A 
ATOM      2  C   UNL     1       8.789  12.873 -19.570  1.00  0.00     0.208 A 
ATOM      3  C   UNL     1       8.579  14.044 -20.316  1.00  0.00     0.238 A 
ATOM      4  O   UNL     1       8.567  13.983 -21.575  1.00  0.00    -0.285 OA
ATOM      5  C   UNL     1       8.377  15.268 -19.647  1.00  0.00     0.111 A 
ATOM      6  C   UNL     1       8.155  16.493 -20.325  1.00  0.00     0.134 A 
ATOM      7  C   UNL     1       7.954  17.668 -19.586  1.00  0.00     0.093 A 
ATOM      8  C   UNL     1       7.969  17.644 -18.187  1.00  0.00     0.123 A 
ATOM      9  C   UNL     1       8.188  16.440 -17.516  1.00  0.00     0.094 A 
ATOM     10  C   UNL     1       8.393  15.256 -18.233  1.00  0.00     0.146 A 
ATOM     11  O   UNL     1       8.604  14.127 -17.569  1.00  0.00    -0.452 OA
ENDROOT
BRANCH   1  12
ATOM     12  C   UNL     1       9.048  11.770 -17.310  1.00  0.00     0.021 A 
ATOM     13  C   UNL     1      10.336  11.444 -16.847  1.00  0.00     0.016 A 
ATOM     14  C   UNL     1      10.529  10.332 -16.020  1.00  0.00     0.047 A 
ATOM     15  C   UNL     1       9.438   9.543 -15.635  1.00  0.00     0.115 A 
ATOM     16  C   UNL     1       7.958  10.985 -16.902  1.00  0.00     0.016 A 
ATOM     17  C   UNL     1       8.153   9.874 -16.076  1.00  0.00     0.047 A 
BRANCH  15  18
ATOM     18  O   UNL     1       9.619   8.433 -14.814  1.00  0.00    -0.508 OA
ATOM     19  H   UNL     1       9.678   8.523 -13.807  1.00  0.00     0.293 HD
ENDBRANCH  15  18
ENDBRANCH   1  12
BRANCH   2  20
ATOM     20  O   UNL     1       8.942  11.639 -20.207  1.00  0.00    -0.502 OA
ATOM     21  H   UNL     1       9.069  10.775 -19.694  1.00  0.00     0.293 HD
ENDBRANCH   2  20
BRANCH   6  22
ATOM     22  O   UNL     1       8.133  16.549 -21.718  1.00  0.00    -0.507 OA
ATOM     23  H   UNL     1       8.887  16.972 -22.247  1.00  0.00     0.293 HD
ENDBRANCH   6  22
BRANCH   8  24
ATOM     24  O   UNL     1       7.768  18.811 -17.454  1.00  0.00    -0.508 OA
ATOM     25  H   UNL     1       8.510  19.489 -17.324  1.00  0.00     0.293 HD
ENDBRANCH   8  24
TORSDOF 5
ENDMDL
MODEL 9
REMARK VINA RESULT:    -5.898      2.379      4.296
REMARK INTER + INTRA:          -7.223
REMARK INTER:                  -7.034
REMARK INTRA:                  -0.189
REMARK UNBOUND:                -0.291
REMARK SMILES O=c1c(O)c(-c2ccc(O)cc2)oc2cc(O)cc(O)c12
REMARK SMILES IDX 5 1 3 2 2 3 1 4 21 5 19 6 18 7 16 8 15 9 14 10 13 11 6 12
REMARK SMILES IDX 7 13 8 14 9 15 12 16 11 17 10 18 4 20 20 22 17 24
REMARK H PARENT 10 19 4 21 20 23 17 25
REMARK Flexibility Score: inf
ROOT
ATOM      1  C   UNL     1       8.528  13.253 -18.024  1.00  0.00     0.180 A 
ATOM      2  C   UNL     1       7.682  13.442 -16.915  1.00  0.00     0.208 A 
ATOM      3  C   UNL     1       7.752  12.535 -15.845  1.00  0.00     0.238 A 
ATOM      4  O   UNL     1       7.007  12.702 -14.841  1.00  0.00    -0.285 OA
ATOM      5  C   UNL     1       8.648  11.448 -15.911  1.00  0.00     0.111 A 
ATOM      6  C   UNL     1       8.777  10.489 -14.877  1.00  0.00     0.134 A 
ATOM      7  C   UNL     1       9.686   9.430 -15.022  1.00  0.00     0.093 A 
ATOM      8  C   UNL     1      10.465   9.312 -16.178  1.00  0.00     0.123 A 
ATOM      9  C   UNL     1      10.342  10.256 -17.199  1.00  0.00     0.094 A 
ATOM     10  C   UNL     1       9.443  11.320 -17.073  1.00  0.00     0.146 A 
ATOM     11  O   UNL     1       9.349  12.207 -18.057  1.00  0.00    -0.452 OA
ENDROOT
BRANCH   1  12
ATOM     12  C   UNL     1       8.526  14.175 -19.183  1.00  0.00     0.021 A 
ATOM     13  C   UNL     1       8.981  15.500 -19.064  1.00  0.00     0.016 A 
ATOM     14  C   UNL     1       8.992  16.346 -20.178  1.00  0.00     0.047 A 
ATOM     15  C   UNL     1       8.563  15.874 -21.425  1.00  0.00     0.115 A 
ATOM     16  C   UNL     1       8.118  13.704 -20.441  1.00  0.00     0.016 A 
ATOM     17  C   UNL     1       8.130  14.552 -21.553  1.00  0.00     0.047 A 
BRANCH  15  18
ATOM     18  O   UNL     1       8.569  16.708 -22.540  1.00  0.00    -0.508 OA
ATOM     19  H   UNL     1       8.498  16.337 -23.480  1.00  0.00     0.293 HD
ENDBRANCH  15  18
ENDBRANCH   1  12
BRANCH   2  20
ATOM     20  O   UNL     1       6.767  14.498 -16.896  1.00  0.00    -0.502 OA
ATOM     21  H   UNL     1       6.301  14.797 -16.048  1.00  0.00     0.293 HD
ENDBRANCH   2  20
BRANCH   6  22
ATOM     22  O   UNL     1       8.013  10.578 -13.713  1.00  0.00    -0.507 OA
ATOM     23  H   UNL     1       7.969   9.819 -13.044  1.00  0.00     0.293 HD
ENDBRANCH   6  22
BRANCH   8  24
ATOM     24  O   UNL     1      11.368   8.260 -16.322  1.00  0.00    -0.508 OA
ATOM     25  H   UNL     1      11.224   7.530 -17.010  1.00  0.00     0.293 HD
ENDBRANCH   8  24
TORSDOF 5
ENDMDL
