MODEL 1
REMARK VINA RESULT:    -3.839      0.000      0.000
REMARK INTER + INTRA:          -8.744
REMARK INTER:                  -7.430
REMARK INTRA:                  -1.314
REMARK UNBOUND:                -1.314
REMARK SMILES CCCCCCCCCCCCCCCCCC(=O)[O-]
REMARK SMILES IDX 10 1 11 2 12 3 13 4 14 5 15 6 16 7 17 8 18 9 19 10 20 11
REMARK SMILES IDX 9 12 8 13 7 14 6 15 5 16 4 17 3 18 2 19 1 20
REMARK H PARENT
REMARK Flexibility Score: inf
ROOT
ATOM      1  C   UNL     1      68.910  50.383  55.845  1.00  0.00     0.000 C 
ENDROOT
BRANCH   1   2
ATOM      2  C   UNL     1      67.788  51.158  56.563  1.00  0.00     0.000 C 
BRANCH   2   3
ATOM      3  C   UNL     1      67.214  50.462  57.814  1.00  0.00     0.000 C 
BRANCH   3   4
ATOM      4  C   UNL     1      68.054  49.284  58.349  1.00  0.00     0.000 C 
BRANCH   4   5
ATOM      5  C   UNL     1      67.331  47.926  58.366  1.00  0.00     0.000 C 
BRANCH   5   6
ATOM      6  C   UNL     1      65.825  48.047  58.094  1.00  0.00     0.000 C 
BRANCH   6   7
ATOM      7  C   UNL     1      65.109  46.720  58.372  1.00  0.00     0.006 C 
BRANCH   7   8
ATOM      8  C   UNL     1      66.061  45.534  58.191  1.00  0.00     0.053 C 
BRANCH   8   9
ATOM      9  C   UNL     1      65.810  44.856  56.881  1.00  0.00     0.041 C 
ATOM     10  O   UNL     1      65.861  45.512  55.808  1.00  0.00    -0.550 OA
ATOM     11  O   UNL     1      65.470  43.509  56.849  1.00  0.00    -0.550 OA
ENDBRANCH   8   9
ENDBRANCH   7   8
ENDBRANCH   6   7
ENDBRANCH   5   6
ENDBRANCH   4   5
ENDBRANCH   3   4
ENDBRANCH   2   3
ENDBRANCH   1   2
BRANCH   1  12
ATOM     12  C   UNL     1      70.071  51.254  55.324  1.00  0.00     0.000 C 
BRANCH  12  13
ATOM     13  C   UNL     1      69.947  51.688  53.849  1.00  0.00    -0.000 C 
BRANCH  13  14
ATOM     14  C   UNL     1      71.164  51.349  52.965  1.00  0.00    -0.000 C 
BRANCH  14  15
ATOM     15  C   UNL     1      71.517  52.415  51.912  1.00  0.00    -0.000 C 
BRANCH  15  16
ATOM     16  C   UNL     1      70.397  53.453  51.717  1.00  0.00    -0.000 C 
BRANCH  16  17
ATOM     17  C   UNL     1      69.952  53.577  50.252  1.00  0.00    -0.000 C 
BRANCH  17  18
ATOM     18  C   UNL     1      69.716  52.207  49.592  1.00  0.00    -0.000 C 
BRANCH  18  19
ATOM     19  C   UNL     1      68.356  51.599  49.966  1.00  0.00    -0.003 C 
ATOM     20  C   UNL     1      68.484  50.333  50.813  1.00  0.00     0.004 C 
ENDBRANCH  18  19
ENDBRANCH  17  18
ENDBRANCH  16  17
ENDBRANCH  15  16
ENDBRANCH  14  15
ENDBRANCH  13  14
ENDBRANCH  12  13
ENDBRANCH   1  12
TORSDOF 16
ENDMDL
MODEL 2
REMARK VINA RESULT:    -3.838      3.217      9.063
REMARK INTER + INTRA:          -8.742
REMARK INTER:                  -7.832
REMARK INTRA:                  -0.910
REMARK UNBOUND:                -1.314
REMARK SMILES CCCCCCCCCCCCCCCCCC(=O)[O-]
REMARK SMILES IDX 10 1 11 2 12 3 13 4 14 5 15 6 16 7 17 8 18 9 19 10 20 11
REMARK SMILES IDX 9 12 8 13 7 14 6 15 5 16 4 17 3 18 2 19 1 20
REMARK H PARENT
REMARK Flexibility Score: inf
ROOT
ATOM      1  C   UNL     1      67.600  50.031  57.152  1.00  0.00     0.000 C 
ENDROOT
BRANCH   1   2
ATOM      2  C   UNL     1      68.628  49.788  56.029  1.00  0.00     0.000 C 
BRANCH   2   3
ATOM      3  C   UNL     1      70.100  49.763  56.489  1.00  0.00     0.000 C 
BRANCH   3   4
ATOM      4  C   UNL     1      70.912  51.031  56.154  1.00  0.00     0.000 C 
BRANCH   4   5
ATOM      5  C   UNL     1      70.289  51.934  55.074  1.00  0.00     0.000 C 
BRANCH   5   6
ATOM      6  C   UNL     1      70.962  51.778  53.703  1.00  0.00     0.000 C 
BRANCH   6   7
ATOM      7  C   UNL     1      69.993  51.168  52.682  1.00  0.00     0.006 C 
BRANCH   7   8
ATOM      8  C   UNL     1      70.354  51.601  51.258  1.00  0.00     0.053 C 
BRANCH   8   9
ATOM      9  C   UNL     1      69.220  51.318  50.322  1.00  0.00     0.041 C 
ATOM     10  O   UNL     1      68.370  50.434  50.605  1.00  0.00    -0.550 OA
ATOM     11  O   UNL     1      69.131  51.999  49.114  1.00  0.00    -0.550 OA
ENDBRANCH   8   9
ENDBRANCH   7   8
ENDBRANCH   6   7
ENDBRANCH   5   6
ENDBRANCH   4   5
ENDBRANCH   3   4
ENDBRANCH   2   3
ENDBRANCH   1   2
BRANCH   1  12
ATOM     12  C   UNL     1      67.414  48.853  58.129  1.00  0.00     0.000 C 
BRANCH  12  13
ATOM     13  C   UNL     1      66.714  47.616  57.530  1.00  0.00    -0.000 C 
BRANCH  13  14
ATOM     14  C   UNL     1      65.412  47.195  58.241  1.00  0.00    -0.000 C 
BRANCH  14  15
ATOM     15  C   UNL     1      65.055  45.703  58.109  1.00  0.00    -0.000 C 
BRANCH  15  16
ATOM     16  C   UNL     1      65.753  45.027  56.915  1.00  0.00    -0.000 C 
BRANCH  16  17
ATOM     17  C   UNL     1      65.508  43.511  56.867  1.00  0.00    -0.000 C 
BRANCH  17  18
ATOM     18  C   UNL     1      66.677  42.708  57.463  1.00  0.00    -0.000 C 
BRANCH  18  19
ATOM     19  C   UNL     1      66.236  41.338  58.001  1.00  0.00    -0.003 C 
ATOM     20  C   UNL     1      64.720  41.222  58.158  1.00  0.00     0.004 C 
ENDBRANCH  18  19
ENDBRANCH  17  18
ENDBRANCH  16  17
ENDBRANCH  15  16
ENDBRANCH  14  15
ENDBRANCH  13  14
ENDBRANCH  12  13
ENDBRANCH   1  12
TORSDOF 16
ENDMDL
MODEL 3
REMARK VINA RESULT:    -3.766     15.034     17.034
REMARK INTER + INTRA:          -8.602
REMARK INTER:                  -7.322
REMARK INTRA:                  -1.280
REMARK UNBOUND:                -1.314
REMARK SMILES CCCCCCCCCCCCCCCCCC(=O)[O-]
REMARK SMILES IDX 10 1 11 2 12 3 13 4 14 5 15 6 16 7 17 8 18 9 19 10 20 11
REMARK SMILES IDX 9 12 8 13 7 14 6 15 5 16 4 17 3 18 2 19 1 20
REMARK H PARENT
REMARK Flexibility Score: inf
ROOT
ATOM      1  C   UNL     1      58.620  35.999  49.916  1.00  0.00     0.000 C 
ENDROOT
BRANCH   1   2
ATOM      2  C   UNL     1      59.157  35.102  51.048  1.00  0.00     0.000 C 
BRANCH   2   3
ATOM      3  C   UNL     1      58.475  35.303  52.417  1.00  0.00     0.000 C 
BRANCH   3   4
ATOM      4  C   UNL     1      57.472  36.474  52.481  1.00  0.00     0.000 C 
BRANCH   4   5
ATOM      5  C   UNL     1      57.502  37.284  53.790  1.00  0.00     0.000 C 
BRANCH   5   6
ATOM      6  C   UNL     1      58.628  36.846  54.738  1.00  0.00     0.000 C 
BRANCH   6   7
ATOM      7  C   UNL     1      59.016  37.982  55.691  1.00  0.00     0.006 C 
BRANCH   7   8
ATOM      8  C   UNL     1      60.175  37.564  56.601  1.00  0.00     0.053 C 
BRANCH   8   9
ATOM      9  C   UNL     1      59.789  37.708  58.040  1.00  0.00     0.041 C 
ATOM     10  O   UNL     1      58.595  37.955  58.354  1.00  0.00    -0.550 OA
ATOM     11  O   UNL     1      60.758  37.619  59.031  1.00  0.00    -0.550 OA
ENDBRANCH   8   9
ENDBRANCH   7   8
ENDBRANCH   6   7
ENDBRANCH   5   6
ENDBRANCH   4   5
ENDBRANCH   3   4
ENDBRANCH   2   3
ENDBRANCH   1   2
BRANCH   1  12
ATOM     12  C   UNL     1      59.356  35.858  48.569  1.00  0.00     0.000 C 
BRANCH  12  13
ATOM     13  C   UNL     1      60.271  37.044  48.201  1.00  0.00    -0.000 C 
BRANCH  13  14
ATOM     14  C   UNL     1      61.573  36.661  47.468  1.00  0.00    -0.000 C 
BRANCH  14  15
ATOM     15  C   UNL     1      61.604  35.226  46.911  1.00  0.00    -0.000 C 
BRANCH  15  16
ATOM     16  C   UNL     1      61.372  35.172  45.391  1.00  0.00    -0.000 C 
BRANCH  16  17
ATOM     17  C   UNL     1      59.903  34.907  45.025  1.00  0.00    -0.000 C 
BRANCH  17  18
ATOM     18  C   UNL     1      59.461  35.683  43.771  1.00  0.00    -0.000 C 
BRANCH  18  19
ATOM     19  C   UNL     1      58.349  36.701  44.070  1.00  0.00    -0.003 C 
ATOM     20  C   UNL     1      57.576  36.376  45.348  1.00  0.00     0.004 C 
ENDBRANCH  18  19
ENDBRANCH  17  18
ENDBRANCH  16  17
ENDBRANCH  15  16
ENDBRANCH  14  15
ENDBRANCH  13  14
ENDBRANCH  12  13
ENDBRANCH   1  12
TORSDOF 16
ENDMDL
MODEL 4
REMARK VINA RESULT:    -3.684     15.574     18.803
REMARK INTER + INTRA:          -8.444
REMARK INTER:                  -7.389
REMARK INTRA:                  -1.055
REMARK UNBOUND:                -1.314
REMARK SMILES CCCCCCCCCCCCCCCCCC(=O)[O-]
REMARK SMILES IDX 10 1 11 2 12 3 13 4 14 5 15 6 16 7 17 8 18 9 19 10 20 11
REMARK SMILES IDX 9 12 8 13 7 14 6 15 5 16 4 17 3 18 2 19 1 20
REMARK H PARENT
REMARK Flexibility Score: inf
ROOT
ATOM      1  C   UNL     1      60.668  35.619  49.660  1.00  0.00     0.000 C 
ENDROOT
BRANCH   1   2
ATOM      2  C   UNL     1      60.822  35.994  48.174  1.00  0.00     0.000 C 
BRANCH   2   3
ATOM      3  C   UNL     1      60.472  37.457  47.832  1.00  0.00     0.000 C 
BRANCH   3   4
ATOM      4  C   UNL     1      59.149  37.650  47.062  1.00  0.00     0.000 C 
BRANCH   4   5
ATOM      5  C   UNL     1      58.388  36.351  46.743  1.00  0.00     0.000 C 
BRANCH   5   6
ATOM      6  C   UNL     1      58.550  35.907  45.281  1.00  0.00     0.000 C 
BRANCH   6   7
ATOM      7  C   UNL     1      59.186  37.019  44.438  1.00  0.00     0.006 C 
BRANCH   7   8
ATOM      8  C   UNL     1      60.235  36.447  43.479  1.00  0.00     0.053 C 
BRANCH   8   9
ATOM      9  C   UNL     1      60.192  37.167  42.168  1.00  0.00     0.041 C 
ATOM     10  O   UNL     1      61.042  36.911  41.276  1.00  0.00    -0.550 OA
ATOM     11  O   UNL     1      59.242  38.157  41.949  1.00  0.00    -0.550 OA
ENDBRANCH   8   9
ENDBRANCH   7   8
ENDBRANCH   6   7
ENDBRANCH   5   6
ENDBRANCH   4   5
ENDBRANCH   3   4
ENDBRANCH   2   3
ENDBRANCH   1   2
BRANCH   1  12
ATOM     12  C   UNL     1      59.307  34.999  50.037  1.00  0.00     0.000 C 
BRANCH  12  13
ATOM     13  C   UNL     1      58.963  35.051  51.540  1.00  0.00    -0.000 C 
BRANCH  13  14
ATOM     14  C   UNL     1      57.957  36.148  51.941  1.00  0.00    -0.000 C 
BRANCH  14  15
ATOM     15  C   UNL     1      57.482  36.088  53.404  1.00  0.00    -0.000 C 
BRANCH  15  16
ATOM     16  C   UNL     1      58.120  37.180  54.282  1.00  0.00    -0.000 C 
BRANCH  16  17
ATOM     17  C   UNL     1      59.406  36.706  54.976  1.00  0.00    -0.000 C 
BRANCH  17  18
ATOM     18  C   UNL     1      59.767  37.569  56.198  1.00  0.00    -0.000 C 
BRANCH  18  19
ATOM     19  C   UNL     1      58.639  38.536  56.589  1.00  0.00    -0.003 C 
ATOM     20  C   UNL     1      58.698  38.953  58.059  1.00  0.00     0.004 C 
ENDBRANCH  18  19
ENDBRANCH  17  18
ENDBRANCH  16  17
ENDBRANCH  15  16
ENDBRANCH  14  15
ENDBRANCH  13  14
ENDBRANCH  12  13
ENDBRANCH   1  12
TORSDOF 16
ENDMDL
MODEL 5
REMARK VINA RESULT:    -3.683      3.541      6.642
REMARK INTER + INTRA:          -8.441
REMARK INTER:                  -6.837
REMARK INTRA:                  -1.605
REMARK UNBOUND:                -1.314
REMARK SMILES CCCCCCCCCCCCCCCCCC(=O)[O-]
REMARK SMILES IDX 10 1 11 2 12 3 13 4 14 5 15 6 16 7 17 8 18 9 19 10 20 11
REMARK SMILES IDX 9 12 8 13 7 14 6 15 5 16 4 17 3 18 2 19 1 20
REMARK H PARENT
REMARK Flexibility Score: inf
ROOT
ATOM      1  C   UNL     1      68.402  51.909  49.744  1.00  0.00     0.000 C 
ENDROOT
BRANCH   1   2
ATOM      2  C   UNL     1      69.638  51.377  50.494  1.00  0.00     0.000 C 
BRANCH   2   3
ATOM      3  C   UNL     1      70.835  52.349  50.548  1.00  0.00     0.000 C 
BRANCH   3   4
ATOM      4  C   UNL     1      71.375  52.641  51.962  1.00  0.00     0.000 C 
BRANCH   4   5
ATOM      5  C   UNL     1      70.308  53.044  52.995  1.00  0.00     0.000 C 
BRANCH   5   6
ATOM      6  C   UNL     1      70.418  52.255  54.308  1.00  0.00     0.000 C 
BRANCH   6   7
ATOM      7  C   UNL     1      69.587  50.968  54.246  1.00  0.00     0.006 C 
BRANCH   7   8
ATOM      8  C   UNL     1      68.554  50.927  55.376  1.00  0.00     0.053 C 
BRANCH   8   9
ATOM      9  C   UNL     1      68.816  49.766  56.282  1.00  0.00     0.041 C 
ATOM     10  O   UNL     1      69.991  49.348  56.454  1.00  0.00    -0.550 OA
ATOM     11  O   UNL     1      67.755  49.113  56.899  1.00  0.00    -0.550 OA
ENDBRANCH   8   9
ENDBRANCH   7   8
ENDBRANCH   6   7
ENDBRANCH   5   6
ENDBRANCH   4   5
ENDBRANCH   3   4
ENDBRANCH   2   3
ENDBRANCH   1   2
BRANCH   1  12
ATOM     12  C   UNL     1      68.102  53.405  49.964  1.00  0.00     0.000 C 
BRANCH  12  13
ATOM     13  C   UNL     1      67.923  54.230  48.673  1.00  0.00    -0.000 C 
BRANCH  13  14
ATOM     14  C   UNL     1      69.233  54.728  48.030  1.00  0.00    -0.000 C 
BRANCH  14  15
ATOM     15  C   UNL     1      69.635  54.003  46.733  1.00  0.00    -0.000 C 
BRANCH  15  16
ATOM     16  C   UNL     1      69.061  54.676  45.473  1.00  0.00    -0.000 C 
BRANCH  16  17
ATOM     17  C   UNL     1      68.610  53.660  44.412  1.00  0.00    -0.000 C 
BRANCH  17  18
ATOM     18  C   UNL     1      67.098  53.732  44.134  1.00  0.00    -0.000 C 
BRANCH  18  19
ATOM     19  C   UNL     1      66.350  54.588  45.168  1.00  0.00    -0.003 C 
ATOM     20  C   UNL     1      65.043  53.946  45.635  1.00  0.00     0.004 C 
ENDBRANCH  18  19
ENDBRANCH  17  18
ENDBRANCH  16  17
ENDBRANCH  15  16
ENDBRANCH  14  15
ENDBRANCH  13  14
ENDBRANCH  12  13
ENDBRANCH   1  12
TORSDOF 16
ENDMDL
MODEL 6
REMARK VINA RESULT:    -3.675      4.329      9.226
REMARK INTER + INTRA:          -8.427
REMARK INTER:                  -7.551
REMARK INTRA:                  -0.876
REMARK UNBOUND:                -1.314
REMARK SMILES CCCCCCCCCCCCCCCCCC(=O)[O-]
REMARK SMILES IDX 10 1 11 2 12 3 13 4 14 5 15 6 16 7 17 8 18 9 19 10 20 11
REMARK SMILES IDX 9 12 8 13 7 14 6 15 5 16 4 17 3 18 2 19 1 20
REMARK H PARENT
REMARK Flexibility Score: inf
ROOT
ATOM      1  C   UNL     1      70.191  50.518  56.004  1.00  0.00     0.000 C 
ENDROOT
BRANCH   1   2
ATOM      2  C   UNL     1      69.628  51.457  54.919  1.00  0.00     0.000 C 
BRANCH   2   3
ATOM      3  C   UNL     1      70.664  51.961  53.894  1.00  0.00     0.000 C 
BRANCH   3   4
ATOM      4  C   UNL     1      70.295  51.715  52.417  1.00  0.00     0.000 C 
BRANCH   4   5
ATOM      5  C   UNL     1      69.144  50.719  52.192  1.00  0.00     0.000 C 
BRANCH   5   6
ATOM      6  C   UNL     1      68.599  50.749  50.756  1.00  0.00     0.000 C 
BRANCH   6   7
ATOM      7  C   UNL     1      69.388  51.738  49.890  1.00  0.00     0.006 C 
BRANCH   7   8
ATOM      8  C   UNL     1      68.494  52.889  49.419  1.00  0.00     0.053 C 
BRANCH   8   9
ATOM      9  C   UNL     1      69.290  53.880  48.630  1.00  0.00     0.041 C 
ATOM     10  O   UNL     1      69.743  54.915  49.184  1.00  0.00    -0.550 OA
ATOM     11  O   UNL     1      69.490  53.685  47.268  1.00  0.00    -0.550 OA
ENDBRANCH   8   9
ENDBRANCH   7   8
ENDBRANCH   6   7
ENDBRANCH   5   6
ENDBRANCH   4   5
ENDBRANCH   3   4
ENDBRANCH   2   3
ENDBRANCH   1   2
BRANCH   1  12
ATOM     12  C   UNL     1      69.211  49.438  56.501  1.00  0.00     0.000 C 
BRANCH  12  13
ATOM     13  C   UNL     1      67.814  49.959  56.896  1.00  0.00    -0.000 C 
BRANCH  13  14
ATOM     14  C   UNL     1      67.269  49.417  58.233  1.00  0.00    -0.000 C 
BRANCH  14  15
ATOM     15  C   UNL     1      67.255  47.882  58.353  1.00  0.00    -0.000 C 
BRANCH  15  16
ATOM     16  C   UNL     1      66.137  47.231  57.521  1.00  0.00    -0.000 C 
BRANCH  16  17
ATOM     17  C   UNL     1      65.044  46.593  58.392  1.00  0.00    -0.000 C 
BRANCH  17  18
ATOM     18  C   UNL     1      64.943  45.071  58.188  1.00  0.00    -0.000 C 
BRANCH  18  19
ATOM     19  C   UNL     1      65.733  44.588  56.961  1.00  0.00    -0.003 C 
ATOM     20  C   UNL     1      66.138  43.117  57.059  1.00  0.00     0.004 C 
ENDBRANCH  18  19
ENDBRANCH  17  18
ENDBRANCH  16  17
ENDBRANCH  15  16
ENDBRANCH  14  15
ENDBRANCH  13  14
ENDBRANCH  12  13
ENDBRANCH   1  12
TORSDOF 16
ENDMDL
MODEL 7
REMARK VINA RESULT:    -3.659      1.383      2.067
REMARK INTER + INTRA:          -8.396
REMARK INTER:                  -7.731
REMARK INTRA:                  -0.665
REMARK UNBOUND:                -1.314
REMARK SMILES CCCCCCCCCCCCCCCCCC(=O)[O-]
REMARK SMILES IDX 10 1 11 2 12 3 13 4 14 5 15 6 16 7 17 8 18 9 19 10 20 11
REMARK SMILES IDX 9 12 8 13 7 14 6 15 5 16 4 17 3 18 2 19 1 20
REMARK H PARENT
REMARK Flexibility Score: inf
ROOT
ATOM      1  C   UNL     1      68.114  50.405  56.282  1.00  0.00     0.000 C 
ENDROOT
BRANCH   1   2
ATOM      2  C   UNL     1      68.462  49.114  57.050  1.00  0.00     0.000 C 
BRANCH   2   3
ATOM      3  C   UNL     1      67.655  48.890  58.345  1.00  0.00     0.000 C 
BRANCH   3   4
ATOM      4  C   UNL     1      66.166  48.547  58.136  1.00  0.00     0.000 C 
BRANCH   4   5
ATOM      5  C   UNL     1      65.895  47.135  57.586  1.00  0.00     0.000 C 
BRANCH   5   6
ATOM      6  C   UNL     1      65.092  46.258  58.558  1.00  0.00     0.000 C 
BRANCH   6   7
ATOM      7  C   UNL     1      65.647  44.829  58.594  1.00  0.00     0.006 C 
BRANCH   7   8
ATOM      8  C   UNL     1      65.490  44.145  57.233  1.00  0.00     0.053 C 
BRANCH   8   9
ATOM      9  C   UNL     1      65.765  42.679  57.350  1.00  0.00     0.041 C 
ATOM     10  O   UNL     1      66.891  42.217  57.028  1.00  0.00    -0.550 OA
ATOM     11  O   UNL     1      64.760  41.815  57.768  1.00  0.00    -0.550 OA
ENDBRANCH   8   9
ENDBRANCH   7   8
ENDBRANCH   6   7
ENDBRANCH   5   6
ENDBRANCH   4   5
ENDBRANCH   3   4
ENDBRANCH   2   3
ENDBRANCH   1   2
BRANCH   1  12
ATOM     12  C   UNL     1      68.914  50.625  54.983  1.00  0.00     0.000 C 
BRANCH  12  13
ATOM     13  C   UNL     1      70.408  50.949  55.187  1.00  0.00    -0.000 C 
BRANCH  13  14
ATOM     14  C   UNL     1      71.013  51.917  54.151  1.00  0.00    -0.000 C 
BRANCH  14  15
ATOM     15  C   UNL     1      71.040  51.386  52.706  1.00  0.00    -0.000 C 
BRANCH  15  16
ATOM     16  C   UNL     1      70.189  52.234  51.744  1.00  0.00    -0.000 C 
BRANCH  16  17
ATOM     17  C   UNL     1      70.124  51.639  50.329  1.00  0.00    -0.000 C 
BRANCH  17  18
ATOM     18  C   UNL     1      68.718  51.744  49.712  1.00  0.00    -0.000 C 
BRANCH  18  19
ATOM     19  C   UNL     1      68.152  53.172  49.775  1.00  0.00    -0.003 C 
ATOM     20  C   UNL     1      68.403  53.966  48.493  1.00  0.00     0.004 C 
ENDBRANCH  18  19
ENDBRANCH  17  18
ENDBRANCH  16  17
ENDBRANCH  15  16
ENDBRANCH  14  15
ENDBRANCH  13  14
ENDBRANCH  12  13
ENDBRANCH   1  12
TORSDOF 16
ENDMDL
MODEL 8
REMARK VINA RESULT:    -3.654      3.699      7.268
REMARK INTER + INTRA:          -8.385
REMARK INTER:                  -5.617
REMARK INTRA:                  -2.768
REMARK UNBOUND:                -1.314
REMARK SMILES CCCCCCCCCCCCCCCCCC(=O)[O-]
REMARK SMILES IDX 10 1 11 2 12 3 13 4 14 5 15 6 16 7 17 8 18 9 19 10 20 11
REMARK SMILES IDX 9 12 8 13 7 14 6 15 5 16 4 17 3 18 2 19 1 20
REMARK H PARENT
REMARK Flexibility Score: inf
ROOT
ATOM      1  C   UNL     1      69.070  49.085  57.104  1.00  0.00     0.000 C 
ENDROOT
BRANCH   1   2
ATOM      2  C   UNL     1      68.002  50.188  56.966  1.00  0.00     0.000 C 
BRANCH   2   3
ATOM      3  C   UNL     1      68.087  51.017  55.668  1.00  0.00     0.000 C 
BRANCH   3   4
ATOM      4  C   UNL     1      69.262  50.655  54.737  1.00  0.00     0.000 C 
BRANCH   4   5
ATOM      5  C   UNL     1      69.947  51.855  54.059  1.00  0.00     0.000 C 
BRANCH   5   6
ATOM      6  C   UNL     1      71.227  51.465  53.305  1.00  0.00     0.000 C 
BRANCH   6   7
ATOM      7  C   UNL     1      71.030  51.587  51.790  1.00  0.00     0.006 C 
BRANCH   7   8
ATOM      8  C   UNL     1      69.685  52.241  51.462  1.00  0.00     0.053 C 
BRANCH   8   9
ATOM      9  C   UNL     1      69.100  51.643  50.222  1.00  0.00     0.041 C 
ATOM     10  O   UNL     1      68.374  50.617  50.294  1.00  0.00    -0.550 OA
ATOM     11  O   UNL     1      69.398  52.190  48.980  1.00  0.00    -0.550 OA
ENDBRANCH   8   9
ENDBRANCH   7   8
ENDBRANCH   6   7
ENDBRANCH   5   6
ENDBRANCH   4   5
ENDBRANCH   3   4
ENDBRANCH   2   3
ENDBRANCH   1   2
BRANCH   1  12
ATOM     12  C   UNL     1      69.842  49.090  58.439  1.00  0.00     0.000 C 
BRANCH  12  13
ATOM     13  C   UNL     1      71.340  48.741  58.325  1.00  0.00    -0.000 C 
BRANCH  13  14
ATOM     14  C   UNL     1      71.855  48.540  56.886  1.00  0.00    -0.000 C 
BRANCH  14  15
ATOM     15  C   UNL     1      72.577  49.757  56.279  1.00  0.00    -0.000 C 
BRANCH  15  16
ATOM     16  C   UNL     1      73.623  50.364  57.231  1.00  0.00    -0.000 C 
BRANCH  16  17
ATOM     17  C   UNL     1      73.300  51.815  57.621  1.00  0.00    -0.000 C 
BRANCH  17  18
ATOM     18  C   UNL     1      72.021  52.335  56.941  1.00  0.00    -0.000 C 
BRANCH  18  19
ATOM     19  C   UNL     1      70.887  52.600  57.944  1.00  0.00    -0.003 C 
ATOM     20  C   UNL     1      69.919  53.684  57.471  1.00  0.00     0.004 C 
ENDBRANCH  18  19
ENDBRANCH  17  18
ENDBRANCH  16  17
ENDBRANCH  15  16
ENDBRANCH  14  15
ENDBRANCH  13  14
ENDBRANCH  12  13
ENDBRANCH   1  12
TORSDOF 16
ENDMDL
MODEL 9
REMARK VINA RESULT:    -3.582      3.198      8.046
REMARK INTER + INTRA:          -8.246
REMARK INTER:                  -6.558
REMARK INTRA:                  -1.688
REMARK UNBOUND:                -1.314
REMARK SMILES CCCCCCCCCCCCCCCCCC(=O)[O-]
REMARK SMILES IDX 10 1 11 2 12 3 13 4 14 5 15 6 16 7 17 8 18 9 19 10 20 11
REMARK SMILES IDX 9 12 8 13 7 14 6 15 5 16 4 17 3 18 2 19 1 20
REMARK H PARENT
REMARK Flexibility Score: inf
ROOT
ATOM      1  C   UNL     1      70.500  49.237  56.723  1.00  0.00     0.000 C 
ENDROOT
BRANCH   1   2
ATOM      2  C   UNL     1      70.899  50.112  57.927  1.00  0.00     0.000 C 
BRANCH   2   3
ATOM      3  C   UNL     1      71.676  51.395  57.570  1.00  0.00     0.000 C 
BRANCH   3   4
ATOM      4  C   UNL     1      71.722  51.734  56.066  1.00  0.00     0.000 C 
BRANCH   4   5
ATOM      5  C   UNL     1      70.873  52.946  55.646  1.00  0.00     0.000 C 
BRANCH   5   6
ATOM      6  C   UNL     1      69.881  52.621  54.520  1.00  0.00     0.000 C 
BRANCH   6   7
ATOM      7  C   UNL     1      70.540  51.749  53.444  1.00  0.00     0.006 C 
BRANCH   7   8
ATOM      8  C   UNL     1      69.497  50.902  52.709  1.00  0.00     0.053 C 
BRANCH   8   9
ATOM      9  C   UNL     1      69.580  51.132  51.233  1.00  0.00     0.041 C 
ATOM     10  O   UNL     1      68.623  50.803  50.485  1.00  0.00    -0.550 OA
ATOM     11  O   UNL     1      70.736  51.667  50.678  1.00  0.00    -0.550 OA
ENDBRANCH   8   9
ENDBRANCH   7   8
ENDBRANCH   6   7
ENDBRANCH   5   6
ENDBRANCH   4   5
ENDBRANCH   3   4
ENDBRANCH   2   3
ENDBRANCH   1   2
BRANCH   1  12
ATOM     12  C   UNL     1      68.982  49.080  56.507  1.00  0.00     0.000 C 
BRANCH  12  13
ATOM     13  C   UNL     1      68.150  50.348  56.789  1.00  0.00    -0.000 C 
BRANCH  13  14
ATOM     14  C   UNL     1      66.883  50.122  57.639  1.00  0.00    -0.000 C 
BRANCH  14  15
ATOM     15  C   UNL     1      66.875  48.816  58.454  1.00  0.00    -0.000 C 
BRANCH  15  16
ATOM     16  C   UNL     1      65.742  47.862  58.036  1.00  0.00    -0.000 C 
BRANCH  16  17
ATOM     17  C   UNL     1      65.917  46.447  58.611  1.00  0.00    -0.000 C 
BRANCH  17  18
ATOM     18  C   UNL     1      65.015  45.414  57.913  1.00  0.00    -0.000 C 
BRANCH  18  19
ATOM     19  C   UNL     1      65.737  44.675  56.776  1.00  0.00    -0.003 C 
ATOM     20  C   UNL     1      65.671  43.154  56.920  1.00  0.00     0.004 C 
ENDBRANCH  18  19
ENDBRANCH  17  18
ENDBRANCH  16  17
ENDBRANCH  15  16
ENDBRANCH  14  15
ENDBRANCH  13  14
ENDBRANCH  12  13
ENDBRANCH   1  12
TORSDOF 16
ENDMDL
