MODEL 1
REMARK VINA RESULT:    -4.647      0.000      0.000
REMARK INTER + INTRA:          -7.959
REMARK INTER:                  -7.364
REMARK INTRA:                  -0.595
REMARK UNBOUND:                -0.595
REMARK SMILES CCCCCCCCCCCC(=O)[O-]
REMARK SMILES IDX 7 1 8 2 9 3 10 4 11 5 12 6 13 7 14 8 6 9 5 10 4 11 3 12 2 13
REMARK SMILES IDX 1 14
REMARK H PARENT
REMARK Flexibility Score: inf
ROOT
ATOM      1  C   UNL     1     -19.063  -5.789  22.472  1.00  0.00     0.000 C 
ENDROOT
BRANCH   1   2
ATOM      2  C   UNL     1     -18.337  -4.442  22.629  1.00  0.00     0.000 C 
BRANCH   2   3
ATOM      3  C   UNL     1     -16.809  -4.565  22.484  1.00  0.00     0.000 C 
BRANCH   3   4
ATOM      4  C   UNL     1     -16.291  -5.992  22.231  1.00  0.00     0.006 C 
BRANCH   4   5
ATOM      5  C   UNL     1     -15.215  -6.054  21.139  1.00  0.00     0.053 C 
BRANCH   5   6
ATOM      6  C   UNL     1     -15.814  -6.489  19.839  1.00  0.00     0.041 C 
ATOM      7  O   UNL     1     -15.072  -6.852  18.889  1.00  0.00    -0.550 OA
ATOM      8  O   UNL     1     -17.194  -6.542  19.692  1.00  0.00    -0.550 OA
ENDBRANCH   5   6
ENDBRANCH   4   5
ENDBRANCH   3   4
ENDBRANCH   2   3
ENDBRANCH   1   2
BRANCH   1   9
ATOM      9  C   UNL     1     -20.407  -5.823  23.219  1.00  0.00     0.000 C 
BRANCH   9  10
ATOM     10  C   UNL     1     -20.678  -4.527  24.005  1.00  0.00    -0.000 C 
BRANCH  10  11
ATOM     11  C   UNL     1     -21.869  -4.658  24.967  1.00  0.00    -0.000 C 
BRANCH  11  12
ATOM     12  C   UNL     1     -22.599  -6.002  24.829  1.00  0.00    -0.000 C 
BRANCH  12  13
ATOM     13  C   UNL     1     -22.319  -6.904  26.038  1.00  0.00    -0.003 C 
ATOM     14  C   UNL     1     -22.787  -6.251  27.335  1.00  0.00     0.004 C 
ENDBRANCH  12  13
ENDBRANCH  11  12
ENDBRANCH  10  11
ENDBRANCH   9  10
ENDBRANCH   1   9
TORSDOF 10
ENDMDL
MODEL 2
REMARK VINA RESULT:    -4.553      4.059      7.498
REMARK INTER + INTRA:          -7.809
REMARK INTER:                  -7.113
REMARK INTRA:                  -0.696
REMARK UNBOUND:                -0.595
REMARK SMILES CCCCCCCCCCCC(=O)[O-]
REMARK SMILES IDX 7 1 8 2 9 3 10 4 11 5 12 6 13 7 14 8 6 9 5 10 4 11 3 12 2 13
REMARK SMILES IDX 1 14
REMARK H PARENT
REMARK Flexibility Score: inf
ROOT
ATOM      1  C   UNL     1     -18.942  -5.574  22.034  1.00  0.00     0.000 C 
ENDROOT
BRANCH   1   2
ATOM      2  C   UNL     1     -20.008  -6.010  23.054  1.00  0.00     0.000 C 
BRANCH   2   3
ATOM      3  C   UNL     1     -20.614  -4.827  23.831  1.00  0.00     0.000 C 
BRANCH   3   4
ATOM      4  C   UNL     1     -22.056  -5.041  24.324  1.00  0.00     0.006 C 
BRANCH   4   5
ATOM      5  C   UNL     1     -22.212  -6.294  25.194  1.00  0.00     0.053 C 
BRANCH   5   6
ATOM      6  C   UNL     1     -23.065  -6.000  26.387  1.00  0.00     0.041 C 
ATOM      7  O   UNL     1     -24.265  -5.648  26.238  1.00  0.00    -0.550 OA
ATOM      8  O   UNL     1     -22.551  -6.163  27.667  1.00  0.00    -0.550 OA
ENDBRANCH   5   6
ENDBRANCH   4   5
ENDBRANCH   3   4
ENDBRANCH   2   3
ENDBRANCH   1   2
BRANCH   1   9
ATOM      9  C   UNL     1     -18.137  -4.353  22.509  1.00  0.00     0.000 C 
BRANCH   9  10
ATOM     10  C   UNL     1     -16.617  -4.584  22.432  1.00  0.00    -0.000 C 
BRANCH  10  11
ATOM     11  C   UNL     1     -16.240  -6.072  22.521  1.00  0.00    -0.000 C 
BRANCH  11  12
ATOM     12  C   UNL     1     -15.135  -6.465  21.531  1.00  0.00    -0.000 C 
BRANCH  12  13
ATOM     13  C   UNL     1     -15.209  -5.613  20.258  1.00  0.00    -0.003 C 
ATOM     14  C   UNL     1     -15.941  -6.351  19.141  1.00  0.00     0.004 C 
ENDBRANCH  12  13
ENDBRANCH  11  12
ENDBRANCH  10  11
ENDBRANCH   9  10
ENDBRANCH   1   9
TORSDOF 10
ENDMDL
MODEL 3
REMARK VINA RESULT:    -4.546      1.025      1.888
REMARK INTER + INTRA:          -7.798
REMARK INTER:                  -7.240
REMARK INTRA:                  -0.558
REMARK UNBOUND:                -0.595
REMARK SMILES CCCCCCCCCCCC(=O)[O-]
REMARK SMILES IDX 7 1 8 2 9 3 10 4 11 5 12 6 13 7 14 8 6 9 5 10 4 11 3 12 2 13
REMARK SMILES IDX 1 14
REMARK H PARENT
REMARK Flexibility Score: inf
ROOT
ATOM      1  C   UNL     1     -20.471  -4.761  23.617  1.00  0.00     0.000 C 
ENDROOT
BRANCH   1   2
ATOM      2  C   UNL     1     -19.221  -5.113  22.794  1.00  0.00     0.000 C 
BRANCH   2   3
ATOM      3  C   UNL     1     -18.220  -3.947  22.694  1.00  0.00     0.000 C 
BRANCH   3   4
ATOM      4  C   UNL     1     -16.748  -4.364  22.524  1.00  0.00     0.006 C 
BRANCH   4   5
ATOM      5  C   UNL     1     -16.304  -4.412  21.057  1.00  0.00     0.053 C 
BRANCH   5   6
ATOM      6  C   UNL     1     -16.030  -5.822  20.640  1.00  0.00     0.041 C 
ATOM      7  O   UNL     1     -16.980  -6.634  20.487  1.00  0.00    -0.550 OA
ATOM      8  O   UNL     1     -14.730  -6.227  20.369  1.00  0.00    -0.550 OA
ENDBRANCH   5   6
ENDBRANCH   4   5
ENDBRANCH   3   4
ENDBRANCH   2   3
ENDBRANCH   1   2
BRANCH   1   9
ATOM      9  C   UNL     1     -21.296  -6.002  23.995  1.00  0.00     0.000 C 
BRANCH   9  10
ATOM     10  C   UNL     1     -22.813  -5.743  23.933  1.00  0.00    -0.000 C 
BRANCH  10  11
ATOM     11  C   UNL     1     -23.558  -6.297  25.157  1.00  0.00    -0.000 C 
BRANCH  11  12
ATOM     12  C   UNL     1     -22.614  -6.935  26.187  1.00  0.00    -0.000 C 
BRANCH  12  13
ATOM     13  C   UNL     1     -22.709  -6.215  27.538  1.00  0.00    -0.003 C 
ATOM     14  C   UNL     1     -22.662  -4.700  27.361  1.00  0.00     0.004 C 
ENDBRANCH  12  13
ENDBRANCH  11  12
ENDBRANCH  10  11
ENDBRANCH   9  10
ENDBRANCH   1   9
TORSDOF 10
ENDMDL
MODEL 4
REMARK VINA RESULT:    -4.506     16.812     17.851
REMARK INTER + INTRA:          -7.736
REMARK INTER:                  -6.330
REMARK INTRA:                  -1.406
REMARK UNBOUND:                -0.595
REMARK SMILES CCCCCCCCCCCC(=O)[O-]
REMARK SMILES IDX 7 1 8 2 9 3 10 4 11 5 12 6 13 7 14 8 6 9 5 10 4 11 3 12 2 13
REMARK SMILES IDX 1 14
REMARK H PARENT
REMARK Flexibility Score: inf
ROOT
ATOM      1  C   UNL     1     -14.458   7.324  29.082  1.00  0.00     0.000 C 
ENDROOT
BRANCH   1   2
ATOM      2  C   UNL     1     -13.102   7.899  28.640  1.00  0.00     0.000 C 
BRANCH   2   3
ATOM      3  C   UNL     1     -13.218   9.312  28.038  1.00  0.00     0.000 C 
BRANCH   3   4
ATOM      4  C   UNL     1     -14.539  10.042  28.339  1.00  0.00     0.006 C 
BRANCH   4   5
ATOM      5  C   UNL     1     -14.347  11.299  29.196  1.00  0.00     0.053 C 
BRANCH   5   6
ATOM      6  C   UNL     1     -14.564  12.531  28.375  1.00  0.00     0.041 C 
ATOM      7  O   UNL     1     -15.704  13.062  28.318  1.00  0.00    -0.550 OA
ATOM      8  O   UNL     1     -13.496  13.123  27.713  1.00  0.00    -0.550 OA
ENDBRANCH   5   6
ENDBRANCH   4   5
ENDBRANCH   3   4
ENDBRANCH   2   3
ENDBRANCH   1   2
BRANCH   1   9
ATOM      9  C   UNL     1     -14.485   6.962  30.576  1.00  0.00     0.000 C 
BRANCH   9  10
ATOM     10  C   UNL     1     -13.928   8.089  31.465  1.00  0.00    -0.000 C 
BRANCH  10  11
ATOM     11  C   UNL     1     -14.915   8.519  32.562  1.00  0.00    -0.000 C 
BRANCH  11  12
ATOM     12  C   UNL     1     -15.884   9.614  32.092  1.00  0.00    -0.000 C 
BRANCH  12  13
ATOM     13  C   UNL     1     -17.265   9.027  31.780  1.00  0.00    -0.003 C 
ATOM     14  C   UNL     1     -17.619   9.199  30.306  1.00  0.00     0.004 C 
ENDBRANCH  12  13
ENDBRANCH  11  12
ENDBRANCH  10  11
ENDBRANCH   9  10
ENDBRANCH   1   9
TORSDOF 10
ENDMDL
MODEL 5
REMARK VINA RESULT:    -4.474     15.862     17.061
REMARK INTER + INTRA:          -7.685
REMARK INTER:                  -6.561
REMARK INTRA:                  -1.124
REMARK UNBOUND:                -0.595
REMARK SMILES CCCCCCCCCCCC(=O)[O-]
REMARK SMILES IDX 7 1 8 2 9 3 10 4 11 5 12 6 13 7 14 8 6 9 5 10 4 11 3 12 2 13
REMARK SMILES IDX 1 14
REMARK H PARENT
REMARK Flexibility Score: inf
ROOT
ATOM      1  C   UNL     1     -15.736   9.818  31.845  1.00  0.00     0.000 C 
ENDROOT
BRANCH   1   2
ATOM      2  C   UNL     1     -14.870  10.805  31.045  1.00  0.00     0.000 C 
BRANCH   2   3
ATOM      3  C   UNL     1     -15.225  10.836  29.546  1.00  0.00     0.000 C 
BRANCH   3   4
ATOM      4  C   UNL     1     -14.074  11.253  28.613  1.00  0.00     0.006 C 
BRANCH   4   5
ATOM      5  C   UNL     1     -13.271  10.059  28.083  1.00  0.00     0.053 C 
BRANCH   5   6
ATOM      6  C   UNL     1     -13.734   9.684  26.710  1.00  0.00     0.041 C 
ATOM      7  O   UNL     1     -14.836   9.096  26.552  1.00  0.00    -0.550 OA
ATOM      8  O   UNL     1     -12.974  10.030  25.601  1.00  0.00    -0.550 OA
ENDBRANCH   5   6
ENDBRANCH   4   5
ENDBRANCH   3   4
ENDBRANCH   2   3
ENDBRANCH   1   2
BRANCH   1   9
ATOM      9  C   UNL     1     -14.900   8.736  32.548  1.00  0.00     0.000 C 
BRANCH   9  10
ATOM     10  C   UNL     1     -13.982   7.975  31.573  1.00  0.00    -0.000 C 
BRANCH  10  11
ATOM     11  C   UNL     1     -14.677   6.762  30.934  1.00  0.00    -0.000 C 
BRANCH  11  12
ATOM     12  C   UNL     1     -14.922   6.944  29.429  1.00  0.00    -0.000 C 
BRANCH  12  13
ATOM     13  C   UNL     1     -13.716   6.460  28.614  1.00  0.00    -0.003 C 
ATOM     14  C   UNL     1     -13.861   4.991  28.231  1.00  0.00     0.004 C 
ENDBRANCH  12  13
ENDBRANCH  11  12
ENDBRANCH  10  11
ENDBRANCH   9  10
ENDBRANCH   1   9
TORSDOF 10
ENDMDL
MODEL 6
REMARK VINA RESULT:    -4.443     14.368     15.362
REMARK INTER + INTRA:          -7.635
REMARK INTER:                  -6.730
REMARK INTRA:                  -0.906
REMARK UNBOUND:                -0.595
REMARK SMILES CCCCCCCCCCCC(=O)[O-]
REMARK SMILES IDX 7 1 8 2 9 3 10 4 11 5 12 6 13 7 14 8 6 9 5 10 4 11 3 12 2 13
REMARK SMILES IDX 1 14
REMARK H PARENT
REMARK Flexibility Score: inf
ROOT
ATOM      1  C   UNL     1     -14.005   8.619  30.033  1.00  0.00     0.000 C 
ENDROOT
BRANCH   1   2
ATOM      2  C   UNL     1     -13.595   7.696  28.873  1.00  0.00     0.000 C 
BRANCH   2   3
ATOM      3  C   UNL     1     -14.316   6.336  28.906  1.00  0.00     0.000 C 
BRANCH   3   4
ATOM      4  C   UNL     1     -13.789   5.294  27.904  1.00  0.00     0.006 C 
BRANCH   4   5
ATOM      5  C   UNL     1     -13.601   3.905  28.527  1.00  0.00     0.053 C 
BRANCH   5   6
ATOM      6  C   UNL     1     -14.927   3.299  28.863  1.00  0.00     0.041 C 
ATOM      7  O   UNL     1     -15.783   3.103  27.960  1.00  0.00    -0.550 OA
ATOM      8  O   UNL     1     -15.201   2.904  30.166  1.00  0.00    -0.550 OA
ENDBRANCH   5   6
ENDBRANCH   4   5
ENDBRANCH   3   4
ENDBRANCH   2   3
ENDBRANCH   1   2
BRANCH   1   9
ATOM      9  C   UNL     1     -13.983   7.902  31.393  1.00  0.00     0.000 C 
BRANCH   9  10
ATOM     10  C   UNL     1     -14.267   8.857  32.567  1.00  0.00    -0.000 C 
BRANCH  10  11
ATOM     11  C   UNL     1     -15.372   9.875  32.245  1.00  0.00    -0.000 C 
BRANCH  11  12
ATOM     12  C   UNL     1     -16.782   9.318  32.491  1.00  0.00    -0.000 C 
BRANCH  12  13
ATOM     13  C   UNL     1     -17.473   8.967  31.168  1.00  0.00    -0.003 C 
ATOM     14  C   UNL     1     -17.628   7.457  31.010  1.00  0.00     0.004 C 
ENDBRANCH  12  13
ENDBRANCH  11  12
ENDBRANCH  10  11
ENDBRANCH   9  10
ENDBRANCH   1   9
TORSDOF 10
ENDMDL
MODEL 7
REMARK VINA RESULT:    -4.415     16.665     17.832
REMARK INTER + INTRA:          -7.591
REMARK INTER:                  -6.135
REMARK INTRA:                  -1.457
REMARK UNBOUND:                -0.595
REMARK SMILES CCCCCCCCCCCC(=O)[O-]
REMARK SMILES IDX 7 1 8 2 9 3 10 4 11 5 12 6 13 7 14 8 6 9 5 10 4 11 3 12 2 13
REMARK SMILES IDX 1 14
REMARK H PARENT
REMARK Flexibility Score: inf
ROOT
ATOM      1  C   UNL     1     -14.021   9.414  28.026  1.00  0.00     0.000 C 
ENDROOT
BRANCH   1   2
ATOM      2  C   UNL     1     -13.665  10.836  28.490  1.00  0.00     0.000 C 
BRANCH   2   3
ATOM      3  C   UNL     1     -14.695  11.420  29.476  1.00  0.00     0.000 C 
BRANCH   3   4
ATOM      4  C   UNL     1     -16.158  11.038  29.192  1.00  0.00     0.006 C 
BRANCH   4   5
ATOM      5  C   UNL     1     -16.861  12.019  28.245  1.00  0.00     0.053 C 
BRANCH   5   6
ATOM      6  C   UNL     1     -17.063  11.395  26.901  1.00  0.00     0.041 C 
ATOM      7  O   UNL     1     -16.184  11.516  26.007  1.00  0.00    -0.550 OA
ATOM      8  O   UNL     1     -18.198  10.635  26.649  1.00  0.00    -0.550 OA
ENDBRANCH   5   6
ENDBRANCH   4   5
ENDBRANCH   3   4
ENDBRANCH   2   3
ENDBRANCH   1   2
BRANCH   1   9
ATOM      9  C   UNL     1     -13.238   8.332  28.788  1.00  0.00     0.000 C 
BRANCH   9  10
ATOM     10  C   UNL     1     -14.160   7.278  29.427  1.00  0.00    -0.000 C 
BRANCH  10  11
ATOM     11  C   UNL     1     -14.934   7.826  30.636  1.00  0.00    -0.000 C 
BRANCH  11  12
ATOM     12  C   UNL     1     -14.011   8.274  31.779  1.00  0.00    -0.000 C 
BRANCH  12  13
ATOM     13  C   UNL     1     -14.603   9.476  32.524  1.00  0.00    -0.003 C 
ATOM     14  C   UNL     1     -16.127   9.400  32.571  1.00  0.00     0.004 C 
ENDBRANCH  12  13
ENDBRANCH  11  12
ENDBRANCH  10  11
ENDBRANCH   9  10
ENDBRANCH   1   9
TORSDOF 10
ENDMDL
MODEL 8
REMARK VINA RESULT:    -4.405     16.507     17.590
REMARK INTER + INTRA:          -7.575
REMARK INTER:                  -6.532
REMARK INTRA:                  -1.043
REMARK UNBOUND:                -0.595
REMARK SMILES CCCCCCCCCCCC(=O)[O-]
REMARK SMILES IDX 7 1 8 2 9 3 10 4 11 5 12 6 13 7 14 8 6 9 5 10 4 11 3 12 2 13
REMARK SMILES IDX 1 14
REMARK H PARENT
REMARK Flexibility Score: inf
ROOT
ATOM      1  C   UNL     1     -15.702   9.755  31.289  1.00  0.00     0.000 C 
ENDROOT
BRANCH   1   2
ATOM      2  C   UNL     1     -15.046   8.694  32.188  1.00  0.00     0.000 C 
BRANCH   2   3
ATOM      3  C   UNL     1     -14.003   7.840  31.444  1.00  0.00     0.000 C 
BRANCH   3   4
ATOM      4  C   UNL     1     -14.368   7.485  29.992  1.00  0.00     0.006 C 
BRANCH   4   5
ATOM      5  C   UNL     1     -13.295   7.912  28.983  1.00  0.00     0.053 C 
BRANCH   5   6
ATOM      6  C   UNL     1     -13.929   8.376  27.710  1.00  0.00     0.041 C 
ATOM      7  O   UNL     1     -13.240   8.966  26.836  1.00  0.00    -0.550 OA
ATOM      8  O   UNL     1     -15.270   8.113  27.464  1.00  0.00    -0.550 OA
ENDBRANCH   5   6
ENDBRANCH   4   5
ENDBRANCH   3   4
ENDBRANCH   2   3
ENDBRANCH   1   2
BRANCH   1   9
ATOM      9  C   UNL     1     -14.816  10.998  31.100  1.00  0.00     0.000 C 
BRANCH   9  10
ATOM     10  C   UNL     1     -14.799  11.493  29.642  1.00  0.00    -0.000 C 
BRANCH  10  11
ATOM     11  C   UNL     1     -16.130  11.236  28.917  1.00  0.00    -0.000 C 
BRANCH  11  12
ATOM     12  C   UNL     1     -16.563  12.417  28.036  1.00  0.00    -0.000 C 
BRANCH  12  13
ATOM     13  C   UNL     1     -18.079  12.402  27.804  1.00  0.00    -0.003 C 
ATOM     14  C   UNL     1     -18.671  11.028  28.108  1.00  0.00     0.004 C 
ENDBRANCH  12  13
ENDBRANCH  11  12
ENDBRANCH  10  11
ENDBRANCH   9  10
ENDBRANCH   1   9
TORSDOF 10
ENDMDL
MODEL 9
REMARK VINA RESULT:    -4.382     15.604     16.689
REMARK INTER + INTRA:          -7.539
REMARK INTER:                  -6.497
REMARK INTRA:                  -1.042
REMARK UNBOUND:                -0.595
REMARK SMILES CCCCCCCCCCCC(=O)[O-]
REMARK SMILES IDX 7 1 8 2 9 3 10 4 11 5 12 6 13 7 14 8 6 9 5 10 4 11 3 12 2 13
REMARK SMILES IDX 1 14
REMARK H PARENT
REMARK Flexibility Score: inf
ROOT
ATOM      1  C   UNL     1     -13.191  10.282  28.131  1.00  0.00     0.000 C 
ENDROOT
BRANCH   1   2
ATOM      2  C   UNL     1     -13.440   8.902  27.498  1.00  0.00     0.000 C 
BRANCH   2   3
ATOM      3  C   UNL     1     -12.880   7.744  28.345  1.00  0.00     0.000 C 
BRANCH   3   4
ATOM      4  C   UNL     1     -13.618   6.403  28.184  1.00  0.00     0.006 C 
BRANCH   4   5
ATOM      5  C   UNL     1     -14.987   6.386  28.875  1.00  0.00     0.053 C 
BRANCH   5   6
ATOM      6  C   UNL     1     -14.984   5.421  30.019  1.00  0.00     0.041 C 
ATOM      7  O   UNL     1     -14.973   5.844  31.205  1.00  0.00    -0.550 OA
ATOM      8  O   UNL     1     -15.044   4.055  29.776  1.00  0.00    -0.550 OA
ENDBRANCH   5   6
ENDBRANCH   4   5
ENDBRANCH   3   4
ENDBRANCH   2   3
ENDBRANCH   1   2
BRANCH   1   9
ATOM      9  C   UNL     1     -14.496  11.037  28.430  1.00  0.00     0.000 C 
BRANCH   9  10
ATOM     10  C   UNL     1     -14.752  11.196  29.940  1.00  0.00    -0.000 C 
BRANCH  10  11
ATOM     11  C   UNL     1     -15.337   9.925  30.577  1.00  0.00    -0.000 C 
BRANCH  11  12
ATOM     12  C   UNL     1     -14.402   9.302  31.625  1.00  0.00    -0.000 C 
BRANCH  12  13
ATOM     13  C   UNL     1     -15.174   8.931  32.897  1.00  0.00    -0.003 C 
ATOM     14  C   UNL     1     -16.631   9.375  32.808  1.00  0.00     0.004 C 
ENDBRANCH  12  13
ENDBRANCH  11  12
ENDBRANCH  10  11
ENDBRANCH   9  10
ENDBRANCH   1   9
TORSDOF 10
ENDMDL
