MODEL 1
REMARK VINA RESULT:     1.072      0.000      0.000
REMARK INTER + INTRA:           1.110
REMARK INTER:                   1.448
REMARK INTRA:                  -0.337
REMARK UNBOUND:                -0.337
REMARK SMILES CC(=O)CCC=C(C)CCC=C(C)C
REMARK SMILES IDX 7 1 6 2 8 3 9 4 10 5 11 6 13 7 12 8 14 9 5 10 4 11 2 12 3 13
REMARK SMILES IDX 1 14
REMARK H PARENT
REMARK Flexibility Score: inf
ROOT
ATOM      1  C   UNL     1      10.973  16.709   1.687  1.00  0.00    -0.077 C 
ATOM      2  C   UNL     1      11.009  15.430   2.120  1.00  0.00    -0.028 C 
ATOM      3  C   UNL     1      12.116  17.312   0.907  1.00  0.00     0.039 C 
ENDROOT
BRANCH   1   4
ATOM      4  C   UNL     1       9.795  17.585   2.059  1.00  0.00     0.034 C 
BRANCH   4   5
ATOM      5  C   UNL     1       8.564  17.303   1.182  1.00  0.00     0.032 C 
BRANCH   5   6
ATOM      6  C   UNL     1       7.607  16.302   1.792  1.00  0.00    -0.028 C 
ATOM      7  C   UNL     1       8.236  14.443   0.231  1.00  0.00     0.039 C 
ATOM      8  C   UNL     1       7.449  15.025   1.381  1.00  0.00    -0.080 C 
ATOM      9  C   UNL     1       6.433  14.167   2.090  1.00  0.00     0.039 C 
ENDBRANCH   5   6
ENDBRANCH   4   5
ENDBRANCH   1   4
BRANCH   2  10
ATOM     10  C   UNL     1      12.175  14.504   1.863  1.00  0.00     0.035 C 
BRANCH  10  11
ATOM     11  C   UNL     1      11.743  13.229   1.126  1.00  0.00     0.079 C 
BRANCH  11  12
ATOM     12  C   UNL     1      11.819  13.394  -0.372  1.00  0.00     0.130 C 
ATOM     13  O   UNL     1      12.862  13.139  -0.955  1.00  0.00    -0.300 OA
ATOM     14  C   UNL     1      10.639  13.876  -1.164  1.00  0.00     0.087 C 
ENDBRANCH  11  12
ENDBRANCH  10  11
ENDBRANCH   2  10
TORSDOF 6
ENDMDL
MODEL 2
REMARK VINA RESULT:     3.680      2.750      5.331
REMARK INTER + INTRA:           4.634
REMARK INTER:                   4.937
REMARK INTRA:                  -0.304
REMARK UNBOUND:                -0.337
REMARK SMILES CC(=O)CCC=C(C)CCC=C(C)C
REMARK SMILES IDX 7 1 6 2 8 3 9 4 10 5 11 6 13 7 12 8 14 9 5 10 4 11 2 12 3 13
REMARK SMILES IDX 1 14
REMARK H PARENT
REMARK Flexibility Score: inf
ROOT
ATOM      1  C   UNL     1      11.327  13.682   0.595  1.00  0.00    -0.077 C 
ATOM      2  C   UNL     1      10.143  14.310   0.767  1.00  0.00    -0.028 C 
ATOM      3  C   UNL     1      12.141  13.196   1.770  1.00  0.00     0.039 C 
ENDROOT
BRANCH   1   4
ATOM      4  C   UNL     1      11.890  13.528  -0.802  1.00  0.00     0.034 C 
BRANCH   4   5
ATOM      5  C   UNL     1      10.786  13.316  -1.852  1.00  0.00     0.032 C 
BRANCH   5   6
ATOM      6  C   UNL     1      10.723  14.414  -2.891  1.00  0.00    -0.028 C 
ATOM      7  C   UNL     1      11.104  12.876  -4.834  1.00  0.00     0.039 C 
ATOM      8  C   UNL     1      10.862  14.235  -4.222  1.00  0.00    -0.080 C 
ATOM      9  C   UNL     1      10.792  15.447  -5.117  1.00  0.00     0.039 C 
ENDBRANCH   5   6
ENDBRANCH   4   5
ENDBRANCH   1   4
BRANCH   2  10
ATOM     10  C   UNL     1       9.538  14.576   2.125  1.00  0.00     0.035 C 
BRANCH  10  11
ATOM     11  C   UNL     1       8.523  15.726   2.086  1.00  0.00     0.079 C 
BRANCH  11  12
ATOM     12  C   UNL     1       9.189  17.053   1.817  1.00  0.00     0.130 C 
ATOM     13  O   UNL     1       8.506  18.021   1.518  1.00  0.00    -0.300 OA
ATOM     14  C   UNL     1      10.679  17.210   1.900  1.00  0.00     0.087 C 
ENDBRANCH  11  12
ENDBRANCH  10  11
ENDBRANCH   2  10
TORSDOF 6
ENDMDL
