MODEL 1
REMARK VINA RESULT:    -4.226      0.000      0.000
REMARK INTER + INTRA:          -5.598
REMARK INTER:                  -5.091
REMARK INTRA:                  -0.507
REMARK UNBOUND:                -0.507
REMARK SMILES NC(=O)C[C@@H]([NH3+])C(=O)[O-]
REMARK SMILES IDX 4 1 5 2 6 3 7 7 8 8 9 9 2 10 3 11 1 12
REMARK H PARENT 6 4 6 5 6 6 1 13 1 14
REMARK Flexibility Score: inf
ROOT
ATOM      1  C   UNL     1     -22.240 -15.426 -12.916  1.00  0.00     0.171 C 
ENDROOT
BRANCH   1   2
ATOM      2  C   UNL     1     -22.621 -14.589 -14.153  1.00  0.00     0.237 C 
BRANCH   2   3
ATOM      3  N   UNL     1     -21.627 -14.763 -15.218  1.00  0.00    -0.350 N 
ATOM      4  H   UNL     1     -21.892 -15.557 -15.846  1.00  0.00     0.345 HD
ATOM      5  H   UNL     1     -21.555 -13.886 -15.784  1.00  0.00     0.345 HD
ATOM      6  H   UNL     1     -20.688 -14.957 -14.797  1.00  0.00     0.345 HD
ENDBRANCH   2   3
BRANCH   2   7
ATOM      7  C   UNL     1     -23.991 -14.967 -14.658  1.00  0.00     0.100 C 
ATOM      8  O   UNL     1     -24.965 -14.188 -14.492  1.00  0.00    -0.544 OA
ATOM      9  O   UNL     1     -24.189 -16.185 -15.299  1.00  0.00    -0.544 OA
ENDBRANCH   2   7
ENDBRANCH   1   2
BRANCH   1  10
ATOM     10  C   UNL     1     -21.426 -16.631 -13.292  1.00  0.00     0.223 C 
ATOM     11  O   UNL     1     -20.170 -16.587 -13.212  1.00  0.00    -0.275 OA
ATOM     12  N   UNL     1     -22.067 -17.840 -13.701  1.00  0.00    -0.369 N 
ATOM     13  H   UNL     1     -23.107 -17.900 -13.754  1.00  0.00     0.159 HD
ATOM     14  H   UNL     1     -21.498 -18.680 -13.946  1.00  0.00     0.159 HD
ENDBRANCH   1  10
TORSDOF 4
ENDMDL
MODEL 2
REMARK VINA RESULT:    -4.203      2.288      2.692
REMARK INTER + INTRA:          -5.570
REMARK INTER:                  -5.092
REMARK INTRA:                  -0.477
REMARK UNBOUND:                -0.507
REMARK SMILES NC(=O)C[C@@H]([NH3+])C(=O)[O-]
REMARK SMILES IDX 4 1 5 2 6 3 7 7 8 8 9 9 2 10 3 11 1 12
REMARK H PARENT 6 4 6 5 6 6 1 13 1 14
REMARK Flexibility Score: inf
ROOT
ATOM      1  C   UNL     1     -22.957 -15.738 -13.076  1.00  0.00     0.171 C 
ENDROOT
BRANCH   1   2
ATOM      2  C   UNL     1     -23.939 -16.354 -14.093  1.00  0.00     0.237 C 
BRANCH   2   3
ATOM      3  N   UNL     1     -23.521 -16.042 -15.464  1.00  0.00    -0.350 N 
ATOM      4  H   UNL     1     -23.235 -16.911 -15.971  1.00  0.00     0.345 HD
ATOM      5  H   UNL     1     -24.309 -15.586 -15.981  1.00  0.00     0.345 HD
ATOM      6  H   UNL     1     -22.714 -15.375 -15.446  1.00  0.00     0.345 HD
ENDBRANCH   2   3
BRANCH   2   7
ATOM      7  C   UNL     1     -24.037 -17.847 -13.910  1.00  0.00     0.100 C 
ATOM      8  O   UNL     1     -23.048 -18.582 -14.165  1.00  0.00    -0.544 OA
ATOM      9  O   UNL     1     -25.223 -18.423 -13.472  1.00  0.00    -0.544 OA
ENDBRANCH   2   7
ENDBRANCH   1   2
BRANCH   1  10
ATOM     10  C   UNL     1     -21.620 -15.455 -13.699  1.00  0.00     0.223 C 
ATOM     11  O   UNL     1     -21.371 -14.304 -14.148  1.00  0.00    -0.275 OA
ATOM     12  N   UNL     1     -20.615 -16.467 -13.749  1.00  0.00    -0.369 N 
ATOM     13  H   UNL     1     -20.797 -17.420 -13.364  1.00  0.00     0.159 HD
ATOM     14  H   UNL     1     -19.681 -16.261 -14.168  1.00  0.00     0.159 HD
ENDBRANCH   1  10
TORSDOF 4
ENDMDL
MODEL 3
REMARK VINA RESULT:    -4.190      2.015      2.232
REMARK INTER + INTRA:          -5.554
REMARK INTER:                  -5.303
REMARK INTRA:                  -0.251
REMARK UNBOUND:                -0.507
REMARK SMILES NC(=O)C[C@@H]([NH3+])C(=O)[O-]
REMARK SMILES IDX 4 1 5 2 6 3 7 7 8 8 9 9 2 10 3 11 1 12
REMARK H PARENT 6 4 6 5 6 6 1 13 1 14
REMARK Flexibility Score: inf
ROOT
ATOM      1  C   UNL     1     -20.836 -16.786 -13.297  1.00  0.00     0.171 C 
ENDROOT
BRANCH   1   2
ATOM      2  C   UNL     1     -22.024 -15.877 -13.668  1.00  0.00     0.237 C 
BRANCH   2   3
ATOM      3  N   UNL     1     -21.667 -14.995 -14.785  1.00  0.00    -0.350 N 
ATOM      4  H   UNL     1     -20.786 -15.319 -15.247  1.00  0.00     0.345 HD
ATOM      5  H   UNL     1     -22.441 -14.982 -15.489  1.00  0.00     0.345 HD
ATOM      6  H   UNL     1     -21.530 -14.018 -14.434  1.00  0.00     0.345 HD
ENDBRANCH   2   3
BRANCH   2   7
ATOM      7  C   UNL     1     -23.238 -16.697 -14.026  1.00  0.00     0.100 C 
ATOM      8  O   UNL     1     -24.339 -16.132 -14.252  1.00  0.00    -0.544 OA
ATOM      9  O   UNL     1     -23.152 -18.082 -14.096  1.00  0.00    -0.544 OA
ENDBRANCH   2   7
ENDBRANCH   1   2
BRANCH   1  10
ATOM     10  C   UNL     1     -19.647 -15.987 -12.847  1.00  0.00     0.223 C 
ATOM     11  O   UNL     1     -19.817 -14.950 -12.152  1.00  0.00    -0.275 OA
ATOM     12  N   UNL     1     -18.322 -16.414 -13.168  1.00  0.00    -0.369 N 
ATOM     13  H   UNL     1     -18.162 -17.281 -13.726  1.00  0.00     0.159 HD
ATOM     14  H   UNL     1     -17.498 -15.864 -12.840  1.00  0.00     0.159 HD
ENDBRANCH   1  10
TORSDOF 4
ENDMDL
MODEL 4
REMARK VINA RESULT:    -3.997      2.552      3.048
REMARK INTER + INTRA:          -5.322
REMARK INTER:                  -5.081
REMARK INTRA:                  -0.240
REMARK UNBOUND:                -0.507
REMARK SMILES NC(=O)C[C@@H]([NH3+])C(=O)[O-]
REMARK SMILES IDX 4 1 5 2 6 3 7 7 8 8 9 9 2 10 3 11 1 12
REMARK H PARENT 6 4 6 5 6 6 1 13 1 14
REMARK Flexibility Score: inf
ROOT
ATOM      1  C   UNL     1     -24.526 -16.927 -14.215  1.00  0.00     0.171 C 
ENDROOT
BRANCH   1   2
ATOM      2  C   UNL     1     -23.338 -16.281 -13.475  1.00  0.00     0.237 C 
BRANCH   2   3
ATOM      3  N   UNL     1     -22.083 -16.947 -13.838  1.00  0.00    -0.350 N 
ATOM      4  H   UNL     1     -21.672 -17.440 -13.012  1.00  0.00     0.345 HD
ATOM      5  H   UNL     1     -22.257 -17.642 -14.601  1.00  0.00     0.345 HD
ATOM      6  H   UNL     1     -21.396 -16.241 -14.192  1.00  0.00     0.345 HD
ENDBRANCH   2   3
BRANCH   2   7
ATOM      7  C   UNL     1     -23.249 -14.808 -13.783  1.00  0.00     0.100 C 
ATOM      8  O   UNL     1     -24.180 -14.033 -13.443  1.00  0.00    -0.544 OA
ATOM      9  O   UNL     1     -22.145 -14.298 -14.456  1.00  0.00    -0.544 OA
ENDBRANCH   2   7
ENDBRANCH   1   2
BRANCH   1  10
ATOM     10  C   UNL     1     -24.791 -18.322 -13.727  1.00  0.00     0.223 C 
ATOM     11  O   UNL     1     -23.889 -19.198 -13.817  1.00  0.00    -0.275 OA
ATOM     12  N   UNL     1     -26.042 -18.655 -13.125  1.00  0.00    -0.369 N 
ATOM     13  H   UNL     1     -26.793 -17.937 -13.025  1.00  0.00     0.159 HD
ATOM     14  H   UNL     1     -26.216 -19.622 -12.773  1.00  0.00     0.159 HD
ENDBRANCH   1  10
TORSDOF 4
ENDMDL
MODEL 5
REMARK VINA RESULT:    -3.937      1.278      3.845
REMARK INTER + INTRA:          -5.250
REMARK INTER:                  -4.974
REMARK INTRA:                  -0.276
REMARK UNBOUND:                -0.507
REMARK SMILES NC(=O)C[C@@H]([NH3+])C(=O)[O-]
REMARK SMILES IDX 4 1 5 2 6 3 7 7 8 8 9 9 2 10 3 11 1 12
REMARK H PARENT 6 4 6 5 6 6 1 13 1 14
REMARK Flexibility Score: inf
ROOT
ATOM      1  C   UNL     1     -23.690 -15.230 -14.150  1.00  0.00     0.171 C 
ENDROOT
BRANCH   1   2
ATOM      2  C   UNL     1     -23.033 -16.444 -13.463  1.00  0.00     0.237 C 
BRANCH   2   3
ATOM      3  N   UNL     1     -23.082 -17.619 -14.339  1.00  0.00    -0.350 N 
ATOM      4  H   UNL     1     -22.929 -17.345 -15.337  1.00  0.00     0.345 HD
ATOM      5  H   UNL     1     -22.346 -18.306 -14.054  1.00  0.00     0.345 HD
ATOM      6  H   UNL     1     -24.015 -18.087 -14.252  1.00  0.00     0.345 HD
ENDBRANCH   2   3
BRANCH   2   7
ATOM      7  C   UNL     1     -21.605 -16.141 -13.085  1.00  0.00     0.100 C 
ATOM      8  O   UNL     1     -20.676 -16.902 -13.461  1.00  0.00    -0.544 OA
ATOM      9  O   UNL     1     -21.306 -15.028 -12.308  1.00  0.00    -0.544 OA
ENDBRANCH   2   7
ENDBRANCH   1   2
BRANCH   1  10
ATOM     10  C   UNL     1     -23.784 -15.419 -15.637  1.00  0.00     0.223 C 
ATOM     11  O   UNL     1     -24.859 -15.834 -16.148  1.00  0.00    -0.275 OA
ATOM     12  N   UNL     1     -22.679 -15.096 -16.481  1.00  0.00    -0.369 N 
ATOM     13  H   UNL     1     -21.788 -14.733 -16.077  1.00  0.00     0.159 HD
ATOM     14  H   UNL     1     -22.754 -15.214 -17.515  1.00  0.00     0.159 HD
ENDBRANCH   1  10
TORSDOF 4
ENDMDL
MODEL 6
REMARK VINA RESULT:    -3.910      1.628      3.785
REMARK INTER + INTRA:          -5.217
REMARK INTER:                  -4.939
REMARK INTRA:                  -0.278
REMARK UNBOUND:                -0.507
REMARK SMILES NC(=O)C[C@@H]([NH3+])C(=O)[O-]
REMARK SMILES IDX 4 1 5 2 6 3 7 7 8 8 9 9 2 10 3 11 1 12
REMARK H PARENT 6 4 6 5 6 6 1 13 1 14
REMARK Flexibility Score: inf
ROOT
ATOM      1  C   UNL     1     -22.989 -15.601 -12.927  1.00  0.00     0.171 C 
ENDROOT
BRANCH   1   2
ATOM      2  C   UNL     1     -21.621 -15.866 -13.587  1.00  0.00     0.237 C 
BRANCH   2   3
ATOM      3  N   UNL     1     -21.514 -15.140 -14.857  1.00  0.00    -0.350 N 
ATOM      4  H   UNL     1     -21.441 -15.807 -15.661  1.00  0.00     0.345 HD
ATOM      5  H   UNL     1     -22.355 -14.532 -14.991  1.00  0.00     0.345 HD
ATOM      6  H   UNL     1     -20.667 -14.526 -14.844  1.00  0.00     0.345 HD
ENDBRANCH   2   3
BRANCH   2   7
ATOM      7  C   UNL     1     -20.494 -15.469 -12.668  1.00  0.00     0.100 C 
ATOM      8  O   UNL     1     -20.645 -14.520 -11.855  1.00  0.00    -0.544 OA
ATOM      9  O   UNL     1     -19.277 -16.137 -12.722  1.00  0.00    -0.544 OA
ENDBRANCH   2   7
ENDBRANCH   1   2
BRANCH   1  10
ATOM     10  C   UNL     1     -24.024 -15.198 -13.938  1.00  0.00     0.223 C 
ATOM     11  O   UNL     1     -24.430 -16.038 -14.786  1.00  0.00    -0.275 OA
ATOM     12  N   UNL     1     -24.580 -13.883 -13.923  1.00  0.00    -0.369 N 
ATOM     13  H   UNL     1     -24.269 -13.181 -13.216  1.00  0.00     0.159 HD
ATOM     14  H   UNL     1     -25.310 -13.612 -14.618  1.00  0.00     0.159 HD
ENDBRANCH   1  10
TORSDOF 4
ENDMDL
MODEL 7
REMARK VINA RESULT:    -3.891      2.129      3.793
REMARK INTER + INTRA:          -5.194
REMARK INTER:                  -4.952
REMARK INTRA:                  -0.242
REMARK UNBOUND:                -0.507
REMARK SMILES NC(=O)C[C@@H]([NH3+])C(=O)[O-]
REMARK SMILES IDX 4 1 5 2 6 3 7 7 8 8 9 9 2 10 3 11 1 12
REMARK H PARENT 6 4 6 5 6 6 1 13 1 14
REMARK Flexibility Score: inf
ROOT
ATOM      1  C   UNL     1     -24.196 -14.533 -14.455  1.00  0.00     0.171 C 
ENDROOT
BRANCH   1   2
ATOM      2  C   UNL     1     -22.874 -15.306 -14.276  1.00  0.00     0.237 C 
BRANCH   2   3
ATOM      3  N   UNL     1     -21.893 -14.886 -15.283  1.00  0.00    -0.350 N 
ATOM      4  H   UNL     1     -21.461 -13.970 -15.020  1.00  0.00     0.345 HD
ATOM      5  H   UNL     1     -21.141 -15.609 -15.370  1.00  0.00     0.345 HD
ATOM      6  H   UNL     1     -22.361 -14.790 -16.214  1.00  0.00     0.345 HD
ENDBRANCH   2   3
BRANCH   2   7
ATOM      7  C   UNL     1     -22.313 -15.101 -12.892  1.00  0.00     0.100 C 
ATOM      8  O   UNL     1     -21.176 -15.553 -12.596  1.00  0.00    -0.544 OA
ATOM      9  O   UNL     1     -23.052 -14.424 -11.929  1.00  0.00    -0.544 OA
ENDBRANCH   2   7
ENDBRANCH   1   2
BRANCH   1  10
ATOM     10  C   UNL     1     -24.918 -14.952 -15.702  1.00  0.00     0.223 C 
ATOM     11  O   UNL     1     -24.679 -14.364 -16.791  1.00  0.00    -0.275 OA
ATOM     12  N   UNL     1     -25.846 -16.038 -15.674  1.00  0.00    -0.369 N 
ATOM     13  H   UNL     1     -26.041 -16.548 -14.785  1.00  0.00     0.159 HD
ATOM     14  H   UNL     1     -26.334 -16.336 -16.547  1.00  0.00     0.159 HD
ENDBRANCH   1  10
TORSDOF 4
ENDMDL
MODEL 8
REMARK VINA RESULT:    -3.796      1.642      2.310
REMARK INTER + INTRA:          -5.080
REMARK INTER:                  -4.850
REMARK INTRA:                  -0.229
REMARK UNBOUND:                -0.507
REMARK SMILES NC(=O)C[C@@H]([NH3+])C(=O)[O-]
REMARK SMILES IDX 4 1 5 2 6 3 7 7 8 8 9 9 2 10 3 11 1 12
REMARK H PARENT 6 4 6 5 6 6 1 13 1 14
REMARK Flexibility Score: inf
ROOT
ATOM      1  C   UNL     1     -23.350 -15.696 -13.137  1.00  0.00     0.171 C 
ENDROOT
BRANCH   1   2
ATOM      2  C   UNL     1     -23.806 -16.635 -14.272  1.00  0.00     0.237 C 
BRANCH   2   3
ATOM      3  N   UNL     1     -24.714 -17.663 -13.754  1.00  0.00    -0.350 N 
ATOM      4  H   UNL     1     -24.206 -18.320 -13.117  1.00  0.00     0.345 HD
ATOM      5  H   UNL     1     -25.499 -17.213 -13.228  1.00  0.00     0.345 HD
ATOM      6  H   UNL     1     -25.125 -18.206 -14.549  1.00  0.00     0.345 HD
ENDBRANCH   2   3
BRANCH   2   7
ATOM      7  C   UNL     1     -24.480 -15.858 -15.375  1.00  0.00     0.100 C 
ATOM      8  O   UNL     1     -25.733 -15.738 -15.389  1.00  0.00    -0.544 OA
ATOM      9  O   UNL     1     -23.725 -15.281 -16.389  1.00  0.00    -0.544 OA
ENDBRANCH   2   7
ENDBRANCH   1   2
BRANCH   1  10
ATOM     10  C   UNL     1     -21.889 -15.365 -13.245  1.00  0.00     0.223 C 
ATOM     11  O   UNL     1     -21.240 -15.053 -12.210  1.00  0.00    -0.275 OA
ATOM     12  N   UNL     1     -21.219 -15.440 -14.504  1.00  0.00    -0.369 N 
ATOM     13  H   UNL     1     -21.736 -15.716 -15.367  1.00  0.00     0.159 HD
ATOM     14  H   UNL     1     -20.200 -15.225 -14.571  1.00  0.00     0.159 HD
ENDBRANCH   1  10
TORSDOF 4
ENDMDL
