MODEL 1
REMARK VINA RESULT:   -10.931      0.000      0.000
REMARK INTER + INTRA:         -15.651
REMARK INTER:                 -15.085
REMARK INTRA:                  -0.566
REMARK UNBOUND:                -0.566
REMARK SMILES CC[C@H](CC[C@H](C)[C@H]1CC[C@@H]2[C@@H]3CC=C4C[C@H](O)CC[C@@]4(C)[C@@H]3CC[C@@]21C)C(C)C
REMARK SMILES IDX 5 1 4 2 3 3 2 4 1 5 28 6 29 7 30 8 6 9 7 10 8 11 9 12 26 13
REMARK SMILES IDX 10 14 11 15 25 16 27 17 12 18 24 19 23 20 13 21 21 22 14 23
REMARK SMILES IDX 15 24 20 25 22 26 16 27 19 28 17 29 18 30
REMARK H PARENT 18 31
REMARK Flexibility Score: inf
ROOT
ATOM      1  C   UNL     1     -21.834 -44.289  23.614  1.00  0.00     0.004 C 
ENDROOT
BRANCH   1   2
ATOM      2  C   UNL     1     -22.632 -45.372  24.390  1.00  0.00     0.004 C 
BRANCH   2   3
ATOM      3  C   UNL     1     -22.384 -46.847  23.952  1.00  0.00    -0.009 C 
BRANCH   3   4
ATOM      4  C   UNL     1     -22.360 -46.998  22.405  1.00  0.00     0.000 C 
ATOM      5  C   UNL     1     -23.709 -47.302  21.751  1.00  0.00     0.004 C 
ENDBRANCH   3   4
BRANCH   3   6
ATOM      6  C   UNL     1     -21.210 -47.562  24.708  1.00  0.00    -0.014 C 
ATOM      7  C   UNL     1     -20.346 -46.567  25.505  1.00  0.00     0.007 C 
ATOM      8  C   UNL     1     -20.301 -48.330  23.732  1.00  0.00     0.007 C 
ENDBRANCH   3   6
ENDBRANCH   2   3
ENDBRANCH   1   2
BRANCH   1   9
ATOM      9  C   UNL     1     -22.152 -42.827  24.051  1.00  0.00    -0.011 C 
ATOM     10  C   UNL     1     -22.637 -41.987  22.856  1.00  0.00     0.008 C 
BRANCH   9  11
ATOM     11  C   UNL     1     -21.076 -42.064  24.908  1.00  0.00    -0.002 C 
ATOM     12  C   UNL     1     -20.518 -42.862  26.078  1.00  0.00     0.005 C 
ATOM     13  C   UNL     1     -19.828 -41.348  24.271  1.00  0.00    -0.026 C 
ATOM     14  C   UNL     1     -19.482 -41.936  26.680  1.00  0.00     0.005 C 
ATOM     15  C   UNL     1     -18.810 -41.274  25.467  1.00  0.00    -0.001 C 
ATOM     16  C   UNL     1     -20.206 -39.936  23.737  1.00  0.00     0.007 C 
ATOM     17  C   UNL     1     -19.189 -42.162  23.118  1.00  0.00     0.012 C 
ATOM     18  C   UNL     1     -18.144 -39.891  25.741  1.00  0.00     0.000 C 
ATOM     19  C   UNL     1     -19.024 -38.961  23.538  1.00  0.00     0.005 C 
ATOM     20  C   UNL     1     -17.754 -39.232  24.401  1.00  0.00     0.003 C 
ATOM     21  C   UNL     1     -18.943 -38.897  26.610  1.00  0.00     0.031 C 
ATOM     22  C   UNL     1     -16.855 -37.950  24.624  1.00  0.00    -0.008 C 
ATOM     23  C   UNL     1     -18.282 -37.544  26.678  1.00  0.00    -0.027 C 
ATOM     24  C   UNL     1     -17.374 -37.092  25.782  1.00  0.00    -0.065 C 
ATOM     25  C   UNL     1     -15.392 -38.372  24.988  1.00  0.00     0.014 C 
ATOM     26  C   UNL     1     -16.802 -37.112  23.312  1.00  0.00     0.016 C 
ATOM     27  C   UNL     1     -16.556 -35.873  26.141  1.00  0.00     0.063 C 
ATOM     28  C   UNL     1     -14.489 -37.194  25.425  1.00  0.00     0.033 C 
ATOM     29  C   UNL     1     -15.140 -36.334  26.531  1.00  0.00     0.118 C 
BRANCH  29  30
ATOM     30  O   UNL     1     -14.327 -35.232  26.844  1.00  0.00    -0.393 OA
ATOM     31  H   UNL     1     -14.110 -35.284  27.812  1.00  0.00     0.210 HD
ENDBRANCH  29  30
ENDBRANCH   9  11
ENDBRANCH   1   9
TORSDOF 7
ENDMDL
MODEL 2
REMARK VINA RESULT:   -10.853      0.988      1.772
REMARK INTER + INTRA:         -15.543
REMARK INTER:                 -14.672
REMARK INTRA:                  -0.871
REMARK UNBOUND:                -0.566
REMARK SMILES CC[C@H](CC[C@H](C)[C@H]1CC[C@@H]2[C@@H]3CC=C4C[C@H](O)CC[C@@]4(C)[C@@H]3CC[C@@]21C)C(C)C
REMARK SMILES IDX 5 1 4 2 3 3 2 4 1 5 28 6 29 7 30 8 6 9 7 10 8 11 9 12 26 13
REMARK SMILES IDX 10 14 11 15 25 16 27 17 12 18 24 19 23 20 13 21 21 22 14 23
REMARK SMILES IDX 15 24 20 25 22 26 16 27 19 28 17 29 18 30
REMARK H PARENT 18 31
REMARK Flexibility Score: inf
ROOT
ATOM      1  C   UNL     1     -22.358 -43.277  24.219  1.00  0.00     0.004 C 
ENDROOT
BRANCH   1   2
ATOM      2  C   UNL     1     -22.130 -44.320  23.091  1.00  0.00     0.004 C 
BRANCH   2   3
ATOM      3  C   UNL     1     -21.119 -45.462  23.412  1.00  0.00    -0.009 C 
BRANCH   3   4
ATOM      4  C   UNL     1     -19.948 -44.967  24.308  1.00  0.00     0.000 C 
ATOM      5  C   UNL     1     -19.909 -45.549  25.722  1.00  0.00     0.004 C 
ENDBRANCH   3   4
BRANCH   3   6
ATOM      6  C   UNL     1     -21.781 -46.809  23.868  1.00  0.00    -0.014 C 
ATOM      7  C   UNL     1     -21.078 -48.034  23.254  1.00  0.00     0.007 C 
ATOM      8  C   UNL     1     -23.272 -46.858  23.489  1.00  0.00     0.007 C 
ENDBRANCH   3   6
ENDBRANCH   2   3
ENDBRANCH   1   2
BRANCH   1   9
ATOM      9  C   UNL     1     -21.918 -41.828  23.847  1.00  0.00    -0.011 C 
ATOM     10  C   UNL     1     -21.503 -41.741  22.367  1.00  0.00     0.008 C 
BRANCH   9  11
ATOM     11  C   UNL     1     -20.887 -41.107  24.790  1.00  0.00    -0.002 C 
ATOM     12  C   UNL     1     -20.658 -41.802  26.125  1.00  0.00     0.005 C 
ATOM     13  C   UNL     1     -19.455 -40.663  24.310  1.00  0.00    -0.026 C 
ATOM     14  C   UNL     1     -19.599 -40.951  26.793  1.00  0.00     0.005 C 
ATOM     15  C   UNL     1     -18.645 -40.562  25.654  1.00  0.00    -0.001 C 
ATOM     16  C   UNL     1     -19.515 -39.302  23.560  1.00  0.00     0.007 C 
ATOM     17  C   UNL     1     -18.776 -41.710  23.391  1.00  0.00     0.012 C 
ATOM     18  C   UNL     1     -17.822 -39.258  25.882  1.00  0.00     0.000 C 
ATOM     19  C   UNL     1     -18.178 -38.534  23.466  1.00  0.00     0.005 C 
ATOM     20  C   UNL     1     -17.122 -38.851  24.569  1.00  0.00     0.003 C 
ATOM     21  C   UNL     1     -18.583 -38.053  26.476  1.00  0.00     0.031 C 
ATOM     22  C   UNL     1     -16.079 -37.685  24.802  1.00  0.00    -0.008 C 
ATOM     23  C   UNL     1     -17.736 -36.807  26.506  1.00  0.00    -0.027 C 
ATOM     24  C   UNL     1     -16.636 -36.611  25.742  1.00  0.00    -0.065 C 
ATOM     25  C   UNL     1     -14.779 -38.247  25.468  1.00  0.00     0.014 C 
ATOM     26  C   UNL     1     -15.685 -37.053  23.434  1.00  0.00     0.016 C 
ATOM     27  C   UNL     1     -15.705 -35.476  26.101  1.00  0.00     0.063 C 
ATOM     28  C   UNL     1     -13.784 -37.153  25.923  1.00  0.00     0.033 C 
ATOM     29  C   UNL     1     -14.460 -36.067  26.789  1.00  0.00     0.118 C 
BRANCH  29  30
ATOM     30  O   UNL     1     -13.545 -35.053  27.115  1.00  0.00    -0.393 OA
ATOM     31  H   UNL     1     -12.894 -34.984  26.367  1.00  0.00     0.210 HD
ENDBRANCH  29  30
ENDBRANCH   9  11
ENDBRANCH   1   9
TORSDOF 7
ENDMDL
MODEL 3
REMARK VINA RESULT:    -9.475      3.169      9.300
REMARK INTER + INTRA:         -13.642
REMARK INTER:                 -13.351
REMARK INTRA:                  -0.291
REMARK UNBOUND:                -0.566
REMARK SMILES CC[C@H](CC[C@H](C)[C@H]1CC[C@@H]2[C@@H]3CC=C4C[C@H](O)CC[C@@]4(C)[C@@H]3CC[C@@]21C)C(C)C
REMARK SMILES IDX 5 1 4 2 3 3 2 4 1 5 28 6 29 7 30 8 6 9 7 10 8 11 9 12 26 13
REMARK SMILES IDX 10 14 11 15 25 16 27 17 12 18 24 19 23 20 13 21 21 22 14 23
REMARK SMILES IDX 15 24 20 25 22 26 16 27 19 28 17 29 18 30
REMARK H PARENT 18 31
REMARK Flexibility Score: inf
ROOT
ATOM      1  C   UNL     1     -17.270 -37.300  25.187  1.00  0.00     0.004 C 
ENDROOT
BRANCH   1   2
ATOM      2  C   UNL     1     -15.940 -38.088  25.322  1.00  0.00     0.004 C 
BRANCH   2   3
ATOM      3  C   UNL     1     -14.635 -37.270  25.084  1.00  0.00    -0.009 C 
BRANCH   3   4
ATOM      4  C   UNL     1     -14.870 -36.065  24.129  1.00  0.00     0.000 C 
ATOM      5  C   UNL     1     -15.129 -36.424  22.666  1.00  0.00     0.004 C 
ENDBRANCH   3   4
BRANCH   3   6
ATOM      6  C   UNL     1     -13.827 -36.937  26.387  1.00  0.00    -0.014 C 
ATOM      7  C   UNL     1     -14.582 -35.951  27.297  1.00  0.00     0.007 C 
ATOM      8  C   UNL     1     -12.447 -36.341  26.055  1.00  0.00     0.007 C 
ENDBRANCH   3   6
ENDBRANCH   2   3
ENDBRANCH   1   2
BRANCH   1   9
ATOM      9  C   UNL     1     -18.531 -38.094  25.648  1.00  0.00    -0.011 C 
ATOM     10  C   UNL     1     -18.351 -38.632  27.078  1.00  0.00     0.008 C 
BRANCH   9  11
ATOM     11  C   UNL     1     -19.109 -39.187  24.676  1.00  0.00    -0.002 C 
ATOM     12  C   UNL     1     -18.642 -39.060  23.233  1.00  0.00     0.005 C 
ATOM     13  C   UNL     1     -19.047 -40.728  24.991  1.00  0.00    -0.026 C 
ATOM     14  C   UNL     1     -19.282 -40.247  22.545  1.00  0.00     0.005 C 
ATOM     15  C   UNL     1     -19.174 -41.387  23.569  1.00  0.00    -0.001 C 
ATOM     16  C   UNL     1     -20.207 -41.151  25.938  1.00  0.00     0.007 C 
ATOM     17  C   UNL     1     -17.701 -41.160  25.626  1.00  0.00     0.012 C 
ATOM     18  C   UNL     1     -20.224 -42.530  23.415  1.00  0.00     0.000 C 
ATOM     19  C   UNL     1     -20.549 -42.658  25.938  1.00  0.00     0.005 C 
ATOM     20  C   UNL     1     -20.170 -43.452  24.651  1.00  0.00     0.003 C 
ATOM     21  C   UNL     1     -21.680 -42.100  23.134  1.00  0.00     0.031 C 
ATOM     22  C   UNL     1     -21.030 -44.761  24.438  1.00  0.00    -0.008 C 
ATOM     23  C   UNL     1     -22.631 -43.269  23.161  1.00  0.00    -0.027 C 
ATOM     24  C   UNL     1     -22.372 -44.451  23.767  1.00  0.00    -0.065 C 
ATOM     25  C   UNL     1     -20.271 -45.761  23.502  1.00  0.00     0.014 C 
ATOM     26  C   UNL     1     -21.261 -45.466  25.808  1.00  0.00     0.016 C 
ATOM     27  C   UNL     1     -23.257 -45.633  23.444  1.00  0.00     0.063 C 
ATOM     28  C   UNL     1     -21.118 -46.981  23.069  1.00  0.00     0.033 C 
ATOM     29  C   UNL     1     -22.490 -46.569  22.491  1.00  0.00     0.118 C 
BRANCH  29  30
ATOM     30  O   UNL     1     -23.258 -47.704  22.184  1.00  0.00    -0.393 OA
ATOM     31  H   UNL     1     -24.061 -47.691  22.770  1.00  0.00     0.210 HD
ENDBRANCH  29  30
ENDBRANCH   9  11
ENDBRANCH   1   9
TORSDOF 7
ENDMDL
MODEL 4
REMARK VINA RESULT:    -9.110      1.168      2.783
REMARK INTER + INTRA:         -13.139
REMARK INTER:                 -12.142
REMARK INTRA:                  -0.997
REMARK UNBOUND:                -0.566
REMARK SMILES CC[C@H](CC[C@H](C)[C@H]1CC[C@@H]2[C@@H]3CC=C4C[C@H](O)CC[C@@]4(C)[C@@H]3CC[C@@]21C)C(C)C
REMARK SMILES IDX 5 1 4 2 3 3 2 4 1 5 28 6 29 7 30 8 6 9 7 10 8 11 9 12 26 13
REMARK SMILES IDX 10 14 11 15 25 16 27 17 12 18 24 19 23 20 13 21 21 22 14 23
REMARK SMILES IDX 15 24 20 25 22 26 16 27 19 28 17 29 18 30
REMARK H PARENT 18 31
REMARK Flexibility Score: inf
ROOT
ATOM      1  C   UNL     1     -20.814 -44.728  23.872  1.00  0.00     0.004 C 
ENDROOT
BRANCH   1   2
ATOM      2  C   UNL     1     -21.328 -45.605  22.699  1.00  0.00     0.004 C 
BRANCH   2   3
ATOM      3  C   UNL     1     -21.574 -47.109  23.027  1.00  0.00    -0.009 C 
BRANCH   3   4
ATOM      4  C   UNL     1     -20.900 -47.530  24.363  1.00  0.00     0.000 C 
ATOM      5  C   UNL     1     -19.976 -48.746  24.281  1.00  0.00     0.004 C 
ENDBRANCH   3   4
BRANCH   3   6
ATOM      6  C   UNL     1     -23.062 -47.578  22.856  1.00  0.00    -0.014 C 
ATOM      7  C   UNL     1     -23.605 -47.273  21.448  1.00  0.00     0.007 C 
ATOM      8  C   UNL     1     -23.982 -46.911  23.894  1.00  0.00     0.007 C 
ENDBRANCH   3   6
ENDBRANCH   2   3
ENDBRANCH   1   2
BRANCH   1   9
ATOM      9  C   UNL     1     -21.783 -43.576  24.279  1.00  0.00    -0.011 C 
ATOM     10  C   UNL     1     -23.171 -43.772  23.643  1.00  0.00     0.008 C 
BRANCH   9  11
ATOM     11  C   UNL     1     -21.272 -42.097  24.130  1.00  0.00    -0.002 C 
ATOM     12  C   UNL     1     -22.372 -41.066  23.919  1.00  0.00     0.005 C 
ATOM     13  C   UNL     1     -20.279 -41.429  25.153  1.00  0.00    -0.026 C 
ATOM     14  C   UNL     1     -21.624 -39.750  23.872  1.00  0.00     0.005 C 
ATOM     15  C   UNL     1     -20.533 -39.892  24.945  1.00  0.00    -0.001 C 
ATOM     16  C   UNL     1     -18.807 -41.826  24.841  1.00  0.00     0.007 C 
ATOM     17  C   UNL     1     -20.593 -41.796  26.626  1.00  0.00     0.012 C 
ATOM     18  C   UNL     1     -19.276 -38.991  24.747  1.00  0.00     0.000 C 
ATOM     19  C   UNL     1     -17.726 -40.893  25.434  1.00  0.00     0.005 C 
ATOM     20  C   UNL     1     -18.168 -39.427  25.729  1.00  0.00     0.003 C 
ATOM     21  C   UNL     1     -18.710 -38.895  23.314  1.00  0.00     0.031 C 
ATOM     22  C   UNL     1     -16.969 -38.396  25.748  1.00  0.00    -0.008 C 
ATOM     23  C   UNL     1     -17.412 -38.132  23.267  1.00  0.00    -0.027 C 
ATOM     24  C   UNL     1     -16.606 -37.929  24.335  1.00  0.00    -0.065 C 
ATOM     25  C   UNL     1     -17.365 -37.121  26.564  1.00  0.00     0.014 C 
ATOM     26  C   UNL     1     -15.731 -39.043  26.437  1.00  0.00     0.016 C 
ATOM     27  C   UNL     1     -15.518 -36.884  24.225  1.00  0.00     0.063 C 
ATOM     28  C   UNL     1     -16.336 -35.969  26.467  1.00  0.00     0.033 C 
ATOM     29  C   UNL     1     -15.965 -35.634  25.006  1.00  0.00     0.118 C 
BRANCH  29  30
ATOM     30  O   UNL     1     -14.972 -34.641  24.963  1.00  0.00    -0.393 OA
ATOM     31  H   UNL     1     -14.126 -35.048  25.288  1.00  0.00     0.210 HD
ENDBRANCH  29  30
ENDBRANCH   9  11
ENDBRANCH   1   9
TORSDOF 7
ENDMDL
MODEL 5
REMARK VINA RESULT:    -9.077      3.350      9.319
REMARK INTER + INTRA:         -13.093
REMARK INTER:                 -12.323
REMARK INTRA:                  -0.769
REMARK UNBOUND:                -0.566
REMARK SMILES CC[C@H](CC[C@H](C)[C@H]1CC[C@@H]2[C@@H]3CC=C4C[C@H](O)CC[C@@]4(C)[C@@H]3CC[C@@]21C)C(C)C
REMARK SMILES IDX 5 1 4 2 3 3 2 4 1 5 28 6 29 7 30 8 6 9 7 10 8 11 9 12 26 13
REMARK SMILES IDX 10 14 11 15 25 16 27 17 12 18 24 19 23 20 13 21 21 22 14 23
REMARK SMILES IDX 15 24 20 25 22 26 16 27 19 28 17 29 18 30
REMARK H PARENT 18 31
REMARK Flexibility Score: inf
ROOT
ATOM      1  C   UNL     1     -17.843 -37.812  26.117  1.00  0.00     0.004 C 
ENDROOT
BRANCH   1   2
ATOM      2  C   UNL     1     -16.972 -36.541  25.925  1.00  0.00     0.004 C 
BRANCH   2   3
ATOM      3  C   UNL     1     -15.499 -36.784  25.480  1.00  0.00    -0.009 C 
BRANCH   3   4
ATOM      4  C   UNL     1     -15.066 -35.811  24.345  1.00  0.00     0.000 C 
ATOM      5  C   UNL     1     -15.088 -36.396  22.933  1.00  0.00     0.004 C 
ENDBRANCH   3   4
BRANCH   3   6
ATOM      6  C   UNL     1     -14.475 -36.922  26.661  1.00  0.00    -0.014 C 
ATOM      7  C   UNL     1     -13.584 -35.675  26.802  1.00  0.00     0.007 C 
ATOM      8  C   UNL     1     -13.570 -38.154  26.477  1.00  0.00     0.007 C 
ENDBRANCH   3   6
ENDBRANCH   2   3
ENDBRANCH   1   2
BRANCH   1   9
ATOM      9  C   UNL     1     -17.718 -38.851  24.960  1.00  0.00    -0.011 C 
ATOM     10  C   UNL     1     -18.096 -38.219  23.609  1.00  0.00     0.008 C 
BRANCH   9  11
ATOM     11  C   UNL     1     -18.387 -40.259  25.160  1.00  0.00    -0.002 C 
ATOM     12  C   UNL     1     -18.061 -40.932  26.487  1.00  0.00     0.005 C 
ATOM     13  C   UNL     1     -19.925 -40.513  24.942  1.00  0.00    -0.026 C 
ATOM     14  C   UNL     1     -18.867 -42.213  26.445  1.00  0.00     0.005 C 
ATOM     15  C   UNL     1     -20.197 -41.807  25.792  1.00  0.00    -0.001 C 
ATOM     16  C   UNL     1     -20.249 -40.724  23.435  1.00  0.00     0.007 C 
ATOM     17  C   UNL     1     -20.809 -39.361  25.485  1.00  0.00     0.012 C 
ATOM     18  C   UNL     1     -20.979 -42.959  25.089  1.00  0.00     0.000 C 
ATOM     19  C   UNL     1     -21.584 -41.441  23.135  1.00  0.00     0.005 C 
ATOM     20  C   UNL     1     -22.138 -42.366  24.261  1.00  0.00     0.003 C 
ATOM     21  C   UNL     1     -20.151 -43.933  24.226  1.00  0.00     0.031 C 
ATOM     22  C   UNL     1     -23.111 -43.494  23.732  1.00  0.00    -0.008 C 
ATOM     23  C   UNL     1     -21.022 -44.904  23.471  1.00  0.00    -0.027 C 
ATOM     24  C   UNL     1     -22.336 -44.709  23.212  1.00  0.00    -0.065 C 
ATOM     25  C   UNL     1     -24.032 -44.002  24.892  1.00  0.00     0.014 C 
ATOM     26  C   UNL     1     -24.025 -42.916  22.610  1.00  0.00     0.016 C 
ATOM     27  C   UNL     1     -23.158 -45.888  22.744  1.00  0.00     0.063 C 
ATOM     28  C   UNL     1     -24.876 -45.246  24.525  1.00  0.00     0.033 C 
ATOM     29  C   UNL     1     -24.017 -46.381  23.924  1.00  0.00     0.118 C 
BRANCH  29  30
ATOM     30  O   UNL     1     -24.827 -47.459  23.531  1.00  0.00    -0.393 OA
ATOM     31  H   UNL     1     -25.774 -47.177  23.635  1.00  0.00     0.210 HD
ENDBRANCH  29  30
ENDBRANCH   9  11
ENDBRANCH   1   9
TORSDOF 7
ENDMDL
MODEL 6
REMARK VINA RESULT:    -8.627      1.300      2.059
REMARK INTER + INTRA:         -12.471
REMARK INTER:                 -12.490
REMARK INTRA:                   0.019
REMARK UNBOUND:                -0.566
REMARK SMILES CC[C@H](CC[C@H](C)[C@H]1CC[C@@H]2[C@@H]3CC=C4C[C@H](O)CC[C@@]4(C)[C@@H]3CC[C@@]21C)C(C)C
REMARK SMILES IDX 5 1 4 2 3 3 2 4 1 5 28 6 29 7 30 8 6 9 7 10 8 11 9 12 26 13
REMARK SMILES IDX 10 14 11 15 25 16 27 17 12 18 24 19 23 20 13 21 21 22 14 23
REMARK SMILES IDX 15 24 20 25 22 26 16 27 19 28 17 29 18 30
REMARK H PARENT 18 31
REMARK Flexibility Score: inf
ROOT
ATOM      1  C   UNL     1     -22.974 -44.118  24.584  1.00  0.00     0.004 C 
ENDROOT
BRANCH   1   2
ATOM      2  C   UNL     1     -23.980 -44.800  23.617  1.00  0.00     0.004 C 
BRANCH   2   3
ATOM      3  C   UNL     1     -24.278 -46.305  23.892  1.00  0.00    -0.009 C 
BRANCH   3   4
ATOM      4  C   UNL     1     -22.976 -47.155  23.948  1.00  0.00     0.000 C 
ATOM      5  C   UNL     1     -22.451 -47.645  22.598  1.00  0.00     0.004 C 
ENDBRANCH   3   4
BRANCH   3   6
ATOM      6  C   UNL     1     -25.291 -46.566  25.061  1.00  0.00    -0.014 C 
ATOM      7  C   UNL     1     -26.515 -47.375  24.593  1.00  0.00     0.007 C 
ATOM      8  C   UNL     1     -25.783 -45.246  25.682  1.00  0.00     0.007 C 
ENDBRANCH   3   6
ENDBRANCH   2   3
ENDBRANCH   1   2
BRANCH   1   9
ATOM      9  C   UNL     1     -21.772 -43.428  23.870  1.00  0.00    -0.011 C 
ATOM     10  C   UNL     1     -21.021 -44.424  22.968  1.00  0.00     0.008 C 
BRANCH   9  11
ATOM     11  C   UNL     1     -20.788 -42.572  24.748  1.00  0.00    -0.002 C 
ATOM     12  C   UNL     1     -20.128 -43.337  25.887  1.00  0.00     0.005 C 
ATOM     13  C   UNL     1     -19.639 -41.691  24.130  1.00  0.00    -0.026 C 
ATOM     14  C   UNL     1     -19.205 -42.315  26.516  1.00  0.00     0.005 C 
ATOM     15  C   UNL     1     -18.627 -41.537  25.324  1.00  0.00    -0.001 C 
ATOM     16  C   UNL     1     -20.187 -40.317  23.647  1.00  0.00     0.007 C 
ATOM     17  C   UNL     1     -18.917 -42.384  22.946  1.00  0.00     0.012 C 
ATOM     18  C   UNL     1     -18.128 -40.094  25.642  1.00  0.00     0.000 C 
ATOM     19  C   UNL     1     -19.132 -39.202  23.476  1.00  0.00     0.005 C 
ATOM     20  C   UNL     1     -17.831 -39.348  24.324  1.00  0.00     0.003 C 
ATOM     21  C   UNL     1     -19.032 -39.233  26.549  1.00  0.00     0.031 C 
ATOM     22  C   UNL     1     -17.089 -37.977  24.587  1.00  0.00    -0.008 C 
ATOM     23  C   UNL     1     -18.537 -37.814  26.661  1.00  0.00    -0.027 C 
ATOM     24  C   UNL     1     -17.697 -37.227  25.777  1.00  0.00    -0.065 C 
ATOM     25  C   UNL     1     -15.583 -38.233  24.930  1.00  0.00     0.014 C 
ATOM     26  C   UNL     1     -17.148 -37.094  23.305  1.00  0.00     0.016 C 
ATOM     27  C   UNL     1     -17.027 -35.931  26.174  1.00  0.00     0.063 C 
ATOM     28  C   UNL     1     -14.823 -36.971  25.403  1.00  0.00     0.033 C 
ATOM     29  C   UNL     1     -15.562 -36.234  26.542  1.00  0.00     0.118 C 
BRANCH  29  30
ATOM     30  O   UNL     1     -14.884 -35.054  26.889  1.00  0.00    -0.393 OA
ATOM     31  H   UNL     1     -14.316 -35.255  27.679  1.00  0.00     0.210 HD
ENDBRANCH  29  30
ENDBRANCH   9  11
ENDBRANCH   1   9
TORSDOF 7
ENDMDL
