MODEL 1
REMARK VINA RESULT:    -6.415      0.000      0.000
REMARK INTER + INTRA:          -8.235
REMARK INTER:                  -7.915
REMARK INTRA:                  -0.320
REMARK UNBOUND:                -0.320
REMARK SMILES COc1cc(-c2oc3cc(O)cc(O)c3c(=O)c2O)ccc1O
REMARK SMILES IDX 6 1 18 2 16 3 17 4 15 5 13 6 12 7 10 8 9 9 8 10 7 11 5 12
REMARK SMILES IDX 3 13 22 14 4 15 21 16 20 17 2 18 1 19 23 20 19 22 14 24
REMARK SMILES IDX 11 26
REMARK H PARENT 23 21 19 23 14 25 11 27
REMARK Flexibility Score: inf
ROOT
ATOM      1  C   UNL     1      18.375  -1.050 -16.517  1.00  0.00     0.180 A 
ATOM      2  C   UNL     1      17.642  -0.241 -15.628  1.00  0.00     0.208 A 
ATOM      3  C   UNL     1      16.897  -0.856 -14.609  1.00  0.00     0.238 A 
ATOM      4  O   UNL     1      16.246  -0.141 -13.799  1.00  0.00    -0.285 OA
ATOM      5  C   UNL     1      16.881  -2.262 -14.509  1.00  0.00     0.111 A 
ATOM      6  C   UNL     1      16.153  -2.960 -13.515  1.00  0.00     0.134 A 
ATOM      7  C   UNL     1      16.180  -4.362 -13.488  1.00  0.00     0.093 A 
ATOM      8  C   UNL     1      16.918  -5.078 -14.433  1.00  0.00     0.123 A 
ATOM      9  C   UNL     1      17.639  -4.395 -15.417  1.00  0.00     0.094 A 
ATOM     10  C   UNL     1      17.626  -2.998 -15.460  1.00  0.00     0.146 A 
ATOM     11  O   UNL     1      18.324  -2.374 -16.403  1.00  0.00    -0.452 OA
ENDROOT
BRANCH   1  12
ATOM     12  C   UNL     1      19.199  -0.476 -17.604  1.00  0.00     0.025 A 
ATOM     13  C   UNL     1      21.195   0.706 -18.382  1.00  0.00     0.161 A 
ATOM     14  C   UNL     1      20.761   0.552 -19.706  1.00  0.00     0.157 A 
ATOM     15  C   UNL     1      20.413   0.183 -17.333  1.00  0.00     0.062 A 
ATOM     16  C   UNL     1      19.565  -0.123 -19.979  1.00  0.00     0.051 A 
ATOM     17  C   UNL     1      18.793  -0.638 -18.937  1.00  0.00     0.016 A 
BRANCH  13  18
ATOM     18  O   UNL     1      22.406   1.378 -18.149  1.00  0.00    -0.493 OA
ATOM     19  C   UNL     1      22.896   1.733 -16.861  1.00  0.00     0.278 C 
ENDBRANCH  13  18
BRANCH  14  20
ATOM     20  O   UNL     1      21.529   1.070 -20.748  1.00  0.00    -0.504 OA
ATOM     21  H   UNL     1      21.346   0.826 -21.714  1.00  0.00     0.293 HD
ENDBRANCH  14  20
ENDBRANCH   1  12
BRANCH   2  22
ATOM     22  O   UNL     1      17.636   1.148 -15.778  1.00  0.00    -0.502 OA
ATOM     23  H   UNL     1      17.363   1.599 -16.643  1.00  0.00     0.293 HD
ENDBRANCH   2  22
BRANCH   6  24
ATOM     24  O   UNL     1      15.406  -2.273 -12.557  1.00  0.00    -0.507 OA
ATOM     25  H   UNL     1      15.614  -2.343 -11.568  1.00  0.00     0.293 HD
ENDBRANCH   6  24
BRANCH   8  26
ATOM     26  O   UNL     1      16.926  -6.471 -14.384  1.00  0.00    -0.508 OA
ATOM     27  H   UNL     1      17.170  -6.970 -13.536  1.00  0.00     0.293 HD
ENDBRANCH   8  26
TORSDOF 6
ENDMDL
MODEL 2
REMARK VINA RESULT:    -6.122      0.762      1.863
REMARK INTER + INTRA:          -7.874
REMARK INTER:                  -7.651
REMARK INTRA:                  -0.223
REMARK UNBOUND:                -0.320
REMARK SMILES COc1cc(-c2oc3cc(O)cc(O)c3c(=O)c2O)ccc1O
REMARK SMILES IDX 6 1 18 2 16 3 17 4 15 5 13 6 12 7 10 8 9 9 8 10 7 11 5 12
REMARK SMILES IDX 3 13 22 14 4 15 21 16 20 17 2 18 1 19 23 20 19 22 14 24
REMARK SMILES IDX 11 26
REMARK H PARENT 23 21 19 23 14 25 11 27
REMARK Flexibility Score: inf
ROOT
ATOM      1  C   UNL     1      18.440  -0.861 -16.255  1.00  0.00     0.180 A 
ATOM      2  C   UNL     1      17.578  -0.061 -15.481  1.00  0.00     0.208 A 
ATOM      3  C   UNL     1      16.708  -0.684 -14.573  1.00  0.00     0.238 A 
ATOM      4  O   UNL     1      15.940   0.022 -13.866  1.00  0.00    -0.285 OA
ATOM      5  C   UNL     1      16.699  -2.090 -14.469  1.00  0.00     0.111 A 
ATOM      6  C   UNL     1      15.851  -2.796 -13.582  1.00  0.00     0.134 A 
ATOM      7  C   UNL     1      15.896  -4.198 -13.544  1.00  0.00     0.093 A 
ATOM      8  C   UNL     1      16.769  -4.905 -14.373  1.00  0.00     0.123 A 
ATOM      9  C   UNL     1      17.609  -4.214 -15.251  1.00  0.00     0.094 A 
ATOM     10  C   UNL     1      17.581  -2.817 -15.303  1.00  0.00     0.146 A 
ATOM     11  O   UNL     1      18.394  -2.185 -16.142  1.00  0.00    -0.452 OA
ENDROOT
BRANCH   1  12
ATOM     12  C   UNL     1      19.399  -0.277 -17.220  1.00  0.00     0.025 A 
ATOM     13  C   UNL     1      20.108   0.196 -19.514  1.00  0.00     0.161 A 
ATOM     14  C   UNL     1      21.219   0.893 -19.019  1.00  0.00     0.157 A 
ATOM     15  C   UNL     1      19.196  -0.382 -18.608  1.00  0.00     0.062 A 
ATOM     16  C   UNL     1      21.411   1.018 -17.637  1.00  0.00     0.051 A 
ATOM     17  C   UNL     1      20.505   0.443 -16.745  1.00  0.00     0.016 A 
BRANCH  13  18
ATOM     18  O   UNL     1      19.943   0.103 -20.905  1.00  0.00    -0.493 OA
ATOM     19  C   UNL     1      20.589  -0.859 -21.731  1.00  0.00     0.278 C 
ENDBRANCH  13  18
BRANCH  14  20
ATOM     20  O   UNL     1      22.127   1.465 -19.908  1.00  0.00    -0.504 OA
ATOM     21  H   UNL     1      22.170   2.466 -20.053  1.00  0.00     0.293 HD
ENDBRANCH  14  20
ENDBRANCH   1  12
BRANCH   2  22
ATOM     22  O   UNL     1      17.572   1.327 -15.638  1.00  0.00    -0.502 OA
ATOM     23  H   UNL     1      17.412   1.961 -14.864  1.00  0.00     0.293 HD
ENDBRANCH   2  22
BRANCH   6  24
ATOM     24  O   UNL     1      14.967  -2.118 -12.742  1.00  0.00    -0.507 OA
ATOM     25  H   UNL     1      15.053  -2.160 -11.733  1.00  0.00     0.293 HD
ENDBRANCH   6  24
BRANCH   8  26
ATOM     26  O   UNL     1      16.792  -6.298 -14.316  1.00  0.00    -0.508 OA
ATOM     27  H   UNL     1      16.086  -6.819 -13.809  1.00  0.00     0.293 HD
ENDBRANCH   8  26
TORSDOF 6
ENDMDL
MODEL 3
REMARK VINA RESULT:    -6.040      1.673      7.032
REMARK INTER + INTRA:          -7.773
REMARK INTER:                  -7.375
REMARK INTRA:                  -0.397
REMARK UNBOUND:                -0.320
REMARK SMILES COc1cc(-c2oc3cc(O)cc(O)c3c(=O)c2O)ccc1O
REMARK SMILES IDX 6 1 18 2 16 3 17 4 15 5 13 6 12 7 10 8 9 9 8 10 7 11 5 12
REMARK SMILES IDX 3 13 22 14 4 15 21 16 20 17 2 18 1 19 23 20 19 22 14 24
REMARK SMILES IDX 11 26
REMARK H PARENT 23 21 19 23 14 25 11 27
REMARK Flexibility Score: inf
ROOT
ATOM      1  C   UNL     1      18.336  -0.188 -15.899  1.00  0.00     0.180 A 
ATOM      2  C   UNL     1      19.435   0.549 -15.418  1.00  0.00     0.208 A 
ATOM      3  C   UNL     1      20.460   0.899 -16.311  1.00  0.00     0.238 A 
ATOM      4  O   UNL     1      21.444   1.570 -15.895  1.00  0.00    -0.285 OA
ATOM      5  C   UNL     1      20.381   0.491 -17.658  1.00  0.00     0.111 A 
ATOM      6  C   UNL     1      21.372   0.798 -18.621  1.00  0.00     0.134 A 
ATOM      7  C   UNL     1      21.224   0.346 -19.940  1.00  0.00     0.093 A 
ATOM      8  C   UNL     1      20.108  -0.404 -20.316  1.00  0.00     0.123 A 
ATOM      9  C   UNL     1      19.125  -0.711 -19.369  1.00  0.00     0.094 A 
ATOM     10  C   UNL     1      19.253  -0.269 -18.049  1.00  0.00     0.146 A 
ATOM     11  O   UNL     1      18.302  -0.570 -17.172  1.00  0.00    -0.452 OA
ENDROOT
BRANCH   1  12
ATOM     12  C   UNL     1      17.208  -0.578 -15.024  1.00  0.00     0.025 A 
ATOM     13  C   UNL     1      16.125  -2.159 -13.503  1.00  0.00     0.161 A 
ATOM     14  C   UNL     1      15.068  -1.256 -13.329  1.00  0.00     0.157 A 
ATOM     15  C   UNL     1      17.198  -1.812 -14.348  1.00  0.00     0.062 A 
ATOM     16  C   UNL     1      15.086  -0.018 -13.983  1.00  0.00     0.051 A 
ATOM     17  C   UNL     1      16.151   0.321 -14.819  1.00  0.00     0.016 A 
BRANCH  13  18
ATOM     18  O   UNL     1      16.077  -3.385 -12.820  1.00  0.00    -0.493 OA
ATOM     19  C   UNL     1      15.656  -4.615 -13.400  1.00  0.00     0.278 C 
ENDBRANCH  13  18
BRANCH  14  20
ATOM     20  O   UNL     1      14.001  -1.595 -12.497  1.00  0.00    -0.504 OA
ATOM     21  H   UNL     1      13.411  -2.395 -12.690  1.00  0.00     0.293 HD
ENDBRANCH  14  20
ENDBRANCH   1  12
BRANCH   2  22
ATOM     22  O   UNL     1      19.514   0.900 -14.068  1.00  0.00    -0.502 OA
ATOM     23  H   UNL     1      20.344   1.318 -13.662  1.00  0.00     0.293 HD
ENDBRANCH   2  22
BRANCH   6  24
ATOM     24  O   UNL     1      22.499   1.545 -18.277  1.00  0.00    -0.507 OA
ATOM     25  H   UNL     1      23.438   1.208 -18.459  1.00  0.00     0.293 HD
ENDBRANCH   6  24
BRANCH   8  26
ATOM     26  O   UNL     1      19.986  -0.842 -21.633  1.00  0.00    -0.508 OA
ATOM     27  H   UNL     1      20.579  -0.476 -22.370  1.00  0.00     0.293 HD
ENDBRANCH   8  26
TORSDOF 6
ENDMDL
MODEL 4
REMARK VINA RESULT:    -5.992      3.763      5.110
REMARK INTER + INTRA:          -7.713
REMARK INTER:                  -7.451
REMARK INTRA:                  -0.262
REMARK UNBOUND:                -0.320
REMARK SMILES COc1cc(-c2oc3cc(O)cc(O)c3c(=O)c2O)ccc1O
REMARK SMILES IDX 6 1 18 2 16 3 17 4 15 5 13 6 12 7 10 8 9 9 8 10 7 11 5 12
REMARK SMILES IDX 3 13 22 14 4 15 21 16 20 17 2 18 1 19 23 20 19 22 14 24
REMARK SMILES IDX 11 26
REMARK H PARENT 23 21 19 23 14 25 11 27
REMARK Flexibility Score: inf
ROOT
ATOM      1  C   UNL     1      20.855   0.828 -17.300  1.00  0.00     0.180 A 
ATOM      2  C   UNL     1      22.031   1.103 -16.576  1.00  0.00     0.208 A 
ATOM      3  C   UNL     1      21.926   1.477 -15.228  1.00  0.00     0.238 A 
ATOM      4  O   UNL     1      22.973   1.714 -14.566  1.00  0.00    -0.285 OA
ATOM      5  C   UNL     1      20.652   1.590 -14.632  1.00  0.00     0.111 A 
ATOM      6  C   UNL     1      20.459   1.965 -13.281  1.00  0.00     0.134 A 
ATOM      7  C   UNL     1      19.159   2.064 -12.766  1.00  0.00     0.093 A 
ATOM      8  C   UNL     1      18.050   1.796 -13.572  1.00  0.00     0.123 A 
ATOM      9  C   UNL     1      18.235   1.425 -14.908  1.00  0.00     0.094 A 
ATOM     10  C   UNL     1      19.523   1.320 -15.440  1.00  0.00     0.146 A 
ATOM     11  O   UNL     1      19.669   0.960 -16.710  1.00  0.00    -0.452 OA
ENDROOT
BRANCH   1  12
ATOM     12  C   UNL     1      20.884   0.409 -18.719  1.00  0.00     0.025 A 
ATOM     13  C   UNL     1      21.329   0.874 -21.080  1.00  0.00     0.161 A 
ATOM     14  C   UNL     1      20.976  -0.444 -21.398  1.00  0.00     0.157 A 
ATOM     15  C   UNL     1      21.287   1.295 -19.735  1.00  0.00     0.062 A 
ATOM     16  C   UNL     1      20.596  -1.334 -20.385  1.00  0.00     0.051 A 
ATOM     17  C   UNL     1      20.556  -0.912 -19.056  1.00  0.00     0.016 A 
BRANCH  13  18
ATOM     18  O   UNL     1      21.717   1.733 -22.121  1.00  0.00    -0.493 OA
ATOM     19  C   UNL     1      22.077   3.099 -21.947  1.00  0.00     0.278 C 
ENDBRANCH  13  18
BRANCH  14  20
ATOM     20  O   UNL     1      21.012  -0.866 -22.727  1.00  0.00    -0.504 OA
ATOM     21  H   UNL     1      20.580  -1.734 -23.020  1.00  0.00     0.293 HD
ENDBRANCH  14  20
ENDBRANCH   1  12
BRANCH   2  22
ATOM     22  O   UNL     1      23.278   1.031 -17.203  1.00  0.00    -0.502 OA
ATOM     23  H   UNL     1      23.525   0.278 -17.835  1.00  0.00     0.293 HD
ENDBRANCH   2  22
BRANCH   6  24
ATOM     24  O   UNL     1      21.546   2.240 -12.450  1.00  0.00    -0.507 OA
ATOM     25  H   UNL     1      22.282   1.560 -12.293  1.00  0.00     0.293 HD
ENDBRANCH   6  24
BRANCH   8  26
ATOM     26  O   UNL     1      16.769   1.904 -13.035  1.00  0.00    -0.508 OA
ATOM     27  H   UNL     1      16.005   2.309 -13.564  1.00  0.00     0.293 HD
ENDBRANCH   8  26
TORSDOF 6
ENDMDL
MODEL 5
REMARK VINA RESULT:    -5.948      1.991      7.027
REMARK INTER + INTRA:          -7.659
REMARK INTER:                  -7.261
REMARK INTRA:                  -0.399
REMARK UNBOUND:                -0.320
REMARK SMILES COc1cc(-c2oc3cc(O)cc(O)c3c(=O)c2O)ccc1O
REMARK SMILES IDX 6 1 18 2 16 3 17 4 15 5 13 6 12 7 10 8 9 9 8 10 7 11 5 12
REMARK SMILES IDX 3 13 22 14 4 15 21 16 20 17 2 18 1 19 23 20 19 22 14 24
REMARK SMILES IDX 11 26
REMARK H PARENT 23 21 19 23 14 25 11 27
REMARK Flexibility Score: inf
ROOT
ATOM      1  C   UNL     1      18.404  -0.175 -15.848  1.00  0.00     0.180 A 
ATOM      2  C   UNL     1      19.504   0.577 -15.393  1.00  0.00     0.208 A 
ATOM      3  C   UNL     1      20.510   0.930 -16.306  1.00  0.00     0.238 A 
ATOM      4  O   UNL     1      21.493   1.613 -15.912  1.00  0.00    -0.285 OA
ATOM      5  C   UNL     1      20.411   0.509 -17.648  1.00  0.00     0.111 A 
ATOM      6  C   UNL     1      21.382   0.817 -18.631  1.00  0.00     0.134 A 
ATOM      7  C   UNL     1      21.216   0.353 -19.943  1.00  0.00     0.093 A 
ATOM      8  C   UNL     1      20.102  -0.412 -20.293  1.00  0.00     0.123 A 
ATOM      9  C   UNL     1      19.138  -0.720 -19.328  1.00  0.00     0.094 A 
ATOM     10  C   UNL     1      19.285  -0.266 -18.014  1.00  0.00     0.146 A 
ATOM     11  O   UNL     1      18.352  -0.568 -17.118  1.00  0.00    -0.452 OA
ENDROOT
BRANCH   1  12
ATOM     12  C   UNL     1      17.295  -0.569 -14.950  1.00  0.00     0.025 A 
ATOM     13  C   UNL     1      15.187  -0.078 -13.809  1.00  0.00     0.161 A 
ATOM     14  C   UNL     1      15.178  -1.377 -13.283  1.00  0.00     0.157 A 
ATOM     15  C   UNL     1      16.246   0.320 -14.650  1.00  0.00     0.062 A 
ATOM     16  C   UNL     1      16.210  -2.271 -13.600  1.00  0.00     0.051 A 
ATOM     17  C   UNL     1      17.256  -1.871 -14.432  1.00  0.00     0.016 A 
BRANCH  13  18
ATOM     18  O   UNL     1      14.129   0.785 -13.479  1.00  0.00    -0.493 OA
ATOM     19  C   UNL     1      13.166   1.271 -14.408  1.00  0.00     0.278 C 
ENDBRANCH  13  18
BRANCH  14  20
ATOM     20  O   UNL     1      14.135  -1.776 -12.449  1.00  0.00    -0.504 OA
ATOM     21  H   UNL     1      14.296  -2.025 -11.480  1.00  0.00     0.293 HD
ENDBRANCH  14  20
ENDBRANCH   1  12
BRANCH   2  22
ATOM     22  O   UNL     1      19.602   0.940 -14.047  1.00  0.00    -0.502 OA
ATOM     23  H   UNL     1      20.264   1.634 -13.718  1.00  0.00     0.293 HD
ENDBRANCH   2  22
BRANCH   6  24
ATOM     24  O   UNL     1      22.508   1.579 -18.312  1.00  0.00    -0.507 OA
ATOM     25  H   UNL     1      23.157   1.293 -17.588  1.00  0.00     0.293 HD
ENDBRANCH   6  24
BRANCH   8  26
ATOM     26  O   UNL     1      19.962  -0.861 -21.605  1.00  0.00    -0.508 OA
ATOM     27  H   UNL     1      19.677  -0.238 -22.351  1.00  0.00     0.293 HD
ENDBRANCH   8  26
TORSDOF 6
ENDMDL
MODEL 6
REMARK VINA RESULT:    -5.910      3.674      5.405
REMARK INTER + INTRA:          -7.613
REMARK INTER:                  -8.155
REMARK INTRA:                   0.542
REMARK UNBOUND:                -0.320
REMARK SMILES COc1cc(-c2oc3cc(O)cc(O)c3c(=O)c2O)ccc1O
REMARK SMILES IDX 6 1 18 2 16 3 17 4 15 5 13 6 12 7 10 8 9 9 8 10 7 11 5 12
REMARK SMILES IDX 3 13 22 14 4 15 21 16 20 17 2 18 1 19 23 20 19 22 14 24
REMARK SMILES IDX 11 26
REMARK H PARENT 23 21 19 23 14 25 11 27
REMARK Flexibility Score: inf
ROOT
ATOM      1  C   UNL     1      20.696   0.675 -17.226  1.00  0.00     0.180 A 
ATOM      2  C   UNL     1      19.493   0.622 -16.498  1.00  0.00     0.208 A 
ATOM      3  C   UNL     1      19.500   1.002 -15.147  1.00  0.00     0.238 A 
ATOM      4  O   UNL     1      18.426   0.969 -14.487  1.00  0.00    -0.285 OA
ATOM      5  C   UNL     1      20.709   1.406 -14.543  1.00  0.00     0.111 A 
ATOM      6  C   UNL     1      20.803   1.800 -13.187  1.00  0.00     0.134 A 
ATOM      7  C   UNL     1      22.045   2.181 -12.658  1.00  0.00     0.093 A 
ATOM      8  C   UNL     1      23.191   2.175 -13.455  1.00  0.00     0.123 A 
ATOM      9  C   UNL     1      23.104   1.787 -14.796  1.00  0.00     0.094 A 
ATOM     10  C   UNL     1      21.876   1.405 -15.342  1.00  0.00     0.146 A 
ATOM     11  O   UNL     1      21.821   1.046 -16.620  1.00  0.00    -0.452 OA
ENDROOT
BRANCH   1  12
ATOM     12  C   UNL     1      20.766   0.309 -18.659  1.00  0.00     0.025 A 
ATOM     13  C   UNL     1      21.261   0.865 -20.989  1.00  0.00     0.161 A 
ATOM     14  C   UNL     1      20.935  -0.445 -21.364  1.00  0.00     0.157 A 
ATOM     15  C   UNL     1      21.181   1.236 -19.632  1.00  0.00     0.062 A 
ATOM     16  C   UNL     1      20.543  -1.376 -20.394  1.00  0.00     0.051 A 
ATOM     17  C   UNL     1      20.465  -1.004 -19.051  1.00  0.00     0.016 A 
BRANCH  13  18
ATOM     18  O   UNL     1      21.662   1.766 -21.989  1.00  0.00    -0.493 OA
ATOM     19  C   UNL     1      22.444   1.414 -23.125  1.00  0.00     0.278 C 
ENDBRANCH  13  18
BRANCH  14  20
ATOM     20  O   UNL     1      21.009  -0.818 -22.705  1.00  0.00    -0.504 OA
ATOM     21  H   UNL     1      21.687  -0.406 -23.334  1.00  0.00     0.293 HD
ENDBRANCH  14  20
ENDBRANCH   1  12
BRANCH   2  22
ATOM     22  O   UNL     1      18.319   0.171 -17.107  1.00  0.00    -0.502 OA
ATOM     23  H   UNL     1      17.449   0.689 -17.060  1.00  0.00     0.293 HD
ENDBRANCH   2  22
BRANCH   6  24
ATOM     24  O   UNL     1      19.676   1.816 -12.364  1.00  0.00    -0.507 OA
ATOM     25  H   UNL     1      18.829   2.306 -12.629  1.00  0.00     0.293 HD
ENDBRANCH   6  24
BRANCH   8  26
ATOM     26  O   UNL     1      24.413   2.556 -12.904  1.00  0.00    -0.508 OA
ATOM     27  H   UNL     1      24.563   3.493 -12.545  1.00  0.00     0.293 HD
ENDBRANCH   8  26
TORSDOF 6
ENDMDL
MODEL 7
REMARK VINA RESULT:    -5.765      2.452      4.274
REMARK INTER + INTRA:          -7.433
REMARK INTER:                  -7.051
REMARK INTRA:                  -0.382
REMARK UNBOUND:                -0.320
REMARK SMILES COc1cc(-c2oc3cc(O)cc(O)c3c(=O)c2O)ccc1O
REMARK SMILES IDX 6 1 18 2 16 3 17 4 15 5 13 6 12 7 10 8 9 9 8 10 7 11 5 12
REMARK SMILES IDX 3 13 22 14 4 15 21 16 20 17 2 18 1 19 23 20 19 22 14 24
REMARK SMILES IDX 11 26
REMARK H PARENT 23 21 19 23 14 25 11 27
REMARK Flexibility Score: inf
ROOT
ATOM      1  C   UNL     1      17.209  -0.276 -15.166  1.00  0.00     0.180 A 
ATOM      2  C   UNL     1      17.125  -1.315 -14.220  1.00  0.00     0.208 A 
ATOM      3  C   UNL     1      15.928  -1.490 -13.508  1.00  0.00     0.238 A 
ATOM      4  O   UNL     1      15.837  -2.425 -12.668  1.00  0.00    -0.285 OA
ATOM      5  C   UNL     1      14.847  -0.613 -13.736  1.00  0.00     0.111 A 
ATOM      6  C   UNL     1      13.609  -0.717 -13.059  1.00  0.00     0.134 A 
ATOM      7  C   UNL     1      12.585   0.201 -13.335  1.00  0.00     0.093 A 
ATOM      8  C   UNL     1      12.774   1.218 -14.273  1.00  0.00     0.123 A 
ATOM      9  C   UNL     1      13.995   1.325 -14.947  1.00  0.00     0.094 A 
ATOM     10  C   UNL     1      15.028   0.420 -14.686  1.00  0.00     0.146 A 
ATOM     11  O   UNL     1      16.175   0.542 -15.344  1.00  0.00    -0.452 OA
ENDROOT
BRANCH   1  12
ATOM     12  C   UNL     1      18.430  -0.040 -15.970  1.00  0.00     0.025 A 
ATOM     13  C   UNL     1      19.746  -0.357 -18.008  1.00  0.00     0.161 A 
ATOM     14  C   UNL     1      20.742   0.478 -17.485  1.00  0.00     0.157 A 
ATOM     15  C   UNL     1      18.586  -0.608 -17.247  1.00  0.00     0.062 A 
ATOM     16  C   UNL     1      20.579   1.063 -16.223  1.00  0.00     0.051 A 
ATOM     17  C   UNL     1      19.429   0.810 -15.474  1.00  0.00     0.016 A 
BRANCH  13  18
ATOM     18  O   UNL     1      19.940  -0.915 -19.282  1.00  0.00    -0.493 OA
ATOM     19  C   UNL     1      19.512  -0.313 -20.498  1.00  0.00     0.278 C 
ENDBRANCH  13  18
BRANCH  14  20
ATOM     20  O   UNL     1      21.894   0.727 -18.230  1.00  0.00    -0.504 OA
ATOM     21  H   UNL     1      22.404   1.598 -18.144  1.00  0.00     0.293 HD
ENDBRANCH  14  20
ENDBRANCH   1  12
BRANCH   2  22
ATOM     22  O   UNL     1      18.227  -2.140 -13.978  1.00  0.00    -0.502 OA
ATOM     23  H   UNL     1      18.681  -2.188 -13.074  1.00  0.00     0.293 HD
ENDBRANCH   2  22
BRANCH   6  24
ATOM     24  O   UNL     1      13.389  -1.722 -12.115  1.00  0.00    -0.507 OA
ATOM     25  H   UNL     1      13.841  -1.709 -11.208  1.00  0.00     0.293 HD
ENDBRANCH   6  24
BRANCH   8  26
ATOM     26  O   UNL     1      11.741   2.117 -14.528  1.00  0.00    -0.508 OA
ATOM     27  H   UNL     1      11.771   2.748 -15.321  1.00  0.00     0.293 HD
ENDBRANCH   8  26
TORSDOF 6
ENDMDL
MODEL 8
REMARK VINA RESULT:    -5.715      7.054      9.755
REMARK INTER + INTRA:          -7.372
REMARK INTER:                  -6.982
REMARK INTRA:                  -0.390
REMARK UNBOUND:                -0.320
REMARK SMILES COc1cc(-c2oc3cc(O)cc(O)c3c(=O)c2O)ccc1O
REMARK SMILES IDX 6 1 18 2 16 3 17 4 15 5 13 6 12 7 10 8 9 9 8 10 7 11 5 12
REMARK SMILES IDX 3 13 22 14 4 15 21 16 20 17 2 18 1 19 23 20 19 22 14 24
REMARK SMILES IDX 11 26
REMARK H PARENT 23 21 19 23 14 25 11 27
REMARK Flexibility Score: inf
ROOT
ATOM      1  C   UNL     1      19.218  -2.285  -8.333  1.00  0.00     0.180 A 
ATOM      2  C   UNL     1      19.133  -2.706  -6.993  1.00  0.00     0.208 A 
ATOM      3  C   UNL     1      20.307  -3.089  -6.325  1.00  0.00     0.238 A 
ATOM      4  O   UNL     1      20.244  -3.456  -5.121  1.00  0.00    -0.285 OA
ATOM      5  C   UNL     1      21.538  -3.064  -7.012  1.00  0.00     0.111 A 
ATOM      6  C   UNL     1      22.766  -3.438  -6.415  1.00  0.00     0.134 A 
ATOM      7  C   UNL     1      23.948  -3.395  -7.168  1.00  0.00     0.093 A 
ATOM      8  C   UNL     1      23.927  -2.987  -8.504  1.00  0.00     0.123 A 
ATOM      9  C   UNL     1      22.717  -2.617  -9.100  1.00  0.00     0.094 A 
ATOM     10  C   UNL     1      21.529  -2.652  -8.365  1.00  0.00     0.146 A 
ATOM     11  O   UNL     1      20.394  -2.289  -8.954  1.00  0.00    -0.452 OA
ENDROOT
BRANCH   1  12
ATOM     12  C   UNL     1      18.028  -1.848  -9.098  1.00  0.00     0.025 A 
ATOM     13  C   UNL     1      16.129  -2.331 -10.563  1.00  0.00     0.161 A 
ATOM     14  C   UNL     1      15.743  -0.986 -10.493  1.00  0.00     0.157 A 
ATOM     15  C   UNL     1      17.271  -2.760  -9.857  1.00  0.00     0.062 A 
ATOM     16  C   UNL     1      16.482  -0.082  -9.720  1.00  0.00     0.051 A 
ATOM     17  C   UNL     1      17.612  -0.511  -9.023  1.00  0.00     0.016 A 
BRANCH  13  18
ATOM     18  O   UNL     1      15.355  -3.210 -11.338  1.00  0.00    -0.493 OA
ATOM     19  C   UNL     1      14.995  -4.529 -10.943  1.00  0.00     0.278 C 
ENDBRANCH  13  18
BRANCH  14  20
ATOM     20  O   UNL     1      14.616  -0.555 -11.192  1.00  0.00    -0.504 OA
ATOM     21  H   UNL     1      14.269  -1.056 -12.001  1.00  0.00     0.293 HD
ENDBRANCH  14  20
ENDBRANCH   1  12
BRANCH   2  22
ATOM     22  O   UNL     1      17.893  -2.768  -6.350  1.00  0.00    -0.502 OA
ATOM     23  H   UNL     1      17.444  -1.948  -5.958  1.00  0.00     0.293 HD
ENDBRANCH   2  22
BRANCH   6  24
ATOM     24  O   UNL     1      22.820  -3.850  -5.082  1.00  0.00    -0.507 OA
ATOM     25  H   UNL     1      23.083  -4.795  -4.827  1.00  0.00     0.293 HD
ENDBRANCH   6  24
BRANCH   8  26
ATOM     26  O   UNL     1      25.116  -2.955  -9.230  1.00  0.00    -0.508 OA
ATOM     27  H   UNL     1      25.131  -2.698 -10.211  1.00  0.00     0.293 HD
ENDBRANCH   8  26
TORSDOF 6
ENDMDL
MODEL 9
REMARK VINA RESULT:    -5.661      4.985      7.752
REMARK INTER + INTRA:          -7.305
REMARK INTER:                  -7.006
REMARK INTRA:                  -0.299
REMARK UNBOUND:                -0.320
REMARK SMILES COc1cc(-c2oc3cc(O)cc(O)c3c(=O)c2O)ccc1O
REMARK SMILES IDX 6 1 18 2 16 3 17 4 15 5 13 6 12 7 10 8 9 9 8 10 7 11 5 12
REMARK SMILES IDX 3 13 22 14 4 15 21 16 20 17 2 18 1 19 23 20 19 22 14 24
REMARK SMILES IDX 11 26
REMARK H PARENT 23 21 19 23 14 25 11 27
REMARK Flexibility Score: inf
ROOT
ATOM      1  C   UNL     1      16.375  -3.710 -11.610  1.00  0.00     0.180 A 
ATOM      2  C   UNL     1      15.370  -4.678 -11.428  1.00  0.00     0.208 A 
ATOM      3  C   UNL     1      15.150  -5.627 -12.438  1.00  0.00     0.238 A 
ATOM      4  O   UNL     1      14.260  -6.507 -12.281  1.00  0.00    -0.285 OA
ATOM      5  C   UNL     1      15.920  -5.579 -13.619  1.00  0.00     0.111 A 
ATOM      6  C   UNL     1      15.759  -6.494 -14.687  1.00  0.00     0.134 A 
ATOM      7  C   UNL     1      16.559  -6.374 -15.833  1.00  0.00     0.093 A 
ATOM      8  C   UNL     1      17.513  -5.360 -15.932  1.00  0.00     0.123 A 
ATOM      9  C   UNL     1      17.678  -4.453 -14.880  1.00  0.00     0.094 A 
ATOM     10  C   UNL     1      16.891  -4.557 -13.730  1.00  0.00     0.146 A 
ATOM     11  O   UNL     1      17.072  -3.685 -12.744  1.00  0.00    -0.452 OA
ENDROOT
BRANCH   1  12
ATOM     12  C   UNL     1      16.680  -2.689 -10.583  1.00  0.00     0.025 A 
ATOM     13  C   UNL     1      17.564  -2.054  -8.392  1.00  0.00     0.161 A 
ATOM     14  C   UNL     1      17.292  -0.709  -8.680  1.00  0.00     0.157 A 
ATOM     15  C   UNL     1      17.261  -3.041  -9.351  1.00  0.00     0.062 A 
ATOM     16  C   UNL     1      16.734  -0.354  -9.915  1.00  0.00     0.051 A 
ATOM     17  C   UNL     1      16.436  -1.336 -10.861  1.00  0.00     0.016 A 
BRANCH  13  18
ATOM     18  O   UNL     1      18.135  -2.368  -7.148  1.00  0.00    -0.493 OA
ATOM     19  C   UNL     1      19.512  -2.665  -6.946  1.00  0.00     0.278 C 
ENDBRANCH  13  18
BRANCH  14  20
ATOM     20  O   UNL     1      17.585   0.272  -7.735  1.00  0.00    -0.504 OA
ATOM     21  H   UNL     1      17.533   0.084  -6.740  1.00  0.00     0.293 HD
ENDBRANCH  14  20
ENDBRANCH   1  12
BRANCH   2  22
ATOM     22  O   UNL     1      14.588  -4.674 -10.270  1.00  0.00    -0.502 OA
ATOM     23  H   UNL     1      13.695  -5.151 -10.216  1.00  0.00     0.293 HD
ENDBRANCH   2  22
BRANCH   6  24
ATOM     24  O   UNL     1      14.813  -7.518 -14.618  1.00  0.00    -0.507 OA
ATOM     25  H   UNL     1      13.945  -7.409 -14.106  1.00  0.00     0.293 HD
ENDBRANCH   6  24
BRANCH   8  26
ATOM     26  O   UNL     1      18.294  -5.263 -17.083  1.00  0.00    -0.508 OA
ATOM     27  H   UNL     1      19.213  -5.687 -17.137  1.00  0.00     0.293 HD
ENDBRANCH   8  26
TORSDOF 6
ENDMDL
