MODEL 1
REMARK VINA RESULT:    -4.193      0.000      0.000
REMARK INTER + INTRA:          -6.599
REMARK INTER:                  -6.155
REMARK INTRA:                  -0.444
REMARK UNBOUND:                -0.444
REMARK SMILES O=C([O-])CCCCCCCC(=O)[O-]
REMARK SMILES IDX 7 1 6 2 5 3 4 4 2 5 1 6 3 7 8 8 9 9 10 10 11 11 12 12 13 13
REMARK H PARENT
REMARK Flexibility Score: inf
ROOT
ATOM      1  C   UNL     1      -5.346  -3.006   6.810  1.00  0.00     0.000 C 
ENDROOT
BRANCH   1   2
ATOM      2  C   UNL     1      -5.489  -3.827   5.514  1.00  0.00     0.000 C 
BRANCH   2   3
ATOM      3  C   UNL     1      -6.468  -3.253   4.472  1.00  0.00     0.006 C 
BRANCH   3   4
ATOM      4  C   UNL     1      -6.607  -1.719   4.522  1.00  0.00     0.053 C 
BRANCH   4   5
ATOM      5  C   UNL     1      -7.095  -1.142   3.228  1.00  0.00     0.041 C 
ATOM      6  O   UNL     1      -6.808   0.043   2.913  1.00  0.00    -0.550 OA
ATOM      7  O   UNL     1      -7.836  -1.925   2.352  1.00  0.00    -0.550 OA
ENDBRANCH   4   5
ENDBRANCH   3   4
ENDBRANCH   2   3
ENDBRANCH   1   2
BRANCH   1   8
ATOM      8  C   UNL     1      -3.935  -2.457   7.088  1.00  0.00     0.000 C 
BRANCH   8   9
ATOM      9  C   UNL     1      -3.953  -1.126   7.859  1.00  0.00     0.006 C 
BRANCH   9  10
ATOM     10  C   UNL     1      -4.154   0.079   6.929  1.00  0.00     0.053 C 
BRANCH  10  11
ATOM     11  C   UNL     1      -3.357   1.265   7.377  1.00  0.00     0.041 C 
ATOM     12  O   UNL     1      -2.312   1.107   8.062  1.00  0.00    -0.550 OA
ATOM     13  O   UNL     1      -3.754   2.546   7.014  1.00  0.00    -0.550 OA
ENDBRANCH  10  11
ENDBRANCH   9  10
ENDBRANCH   8   9
ENDBRANCH   1   8
TORSDOF 8
ENDMDL
MODEL 2
REMARK VINA RESULT:    -4.113      0.244      5.460
REMARK INTER + INTRA:          -6.481
REMARK INTER:                  -6.071
REMARK INTRA:                  -0.409
REMARK UNBOUND:                -0.444
REMARK SMILES O=C([O-])CCCCCCCC(=O)[O-]
REMARK SMILES IDX 7 1 6 2 5 3 4 4 2 5 1 6 3 7 8 8 9 9 10 10 11 11 12 12 13 13
REMARK H PARENT
REMARK Flexibility Score: inf
ROOT
ATOM      1  C   UNL     1      -5.358  -2.575   6.781  1.00  0.00     0.000 C 
ENDROOT
BRANCH   1   2
ATOM      2  C   UNL     1      -3.958  -2.438   7.411  1.00  0.00     0.000 C 
BRANCH   2   3
ATOM      3  C   UNL     1      -3.622  -1.045   7.979  1.00  0.00     0.006 C 
BRANCH   3   4
ATOM      4  C   UNL     1      -3.950   0.117   7.022  1.00  0.00     0.053 C 
BRANCH   4   5
ATOM      5  C   UNL     1      -3.269   1.394   7.412  1.00  0.00     0.041 C 
ATOM      6  O   UNL     1      -3.749   2.503   7.057  1.00  0.00    -0.550 OA
ATOM      7  O   UNL     1      -2.125   1.361   8.199  1.00  0.00    -0.550 OA
ENDBRANCH   4   5
ENDBRANCH   3   4
ENDBRANCH   2   3
ENDBRANCH   1   2
BRANCH   1   8
ATOM      8  C   UNL     1      -5.460  -3.581   5.621  1.00  0.00     0.000 C 
BRANCH   8   9
ATOM      9  C   UNL     1      -6.438  -3.129   4.522  1.00  0.00     0.006 C 
BRANCH   9  10
ATOM     10  C   UNL     1      -6.592  -1.602   4.478  1.00  0.00     0.053 C 
BRANCH  10  11
ATOM     11  C   UNL     1      -7.108  -1.134   3.152  1.00  0.00     0.041 C 
ATOM     12  O   UNL     1      -6.864   0.035   2.752  1.00  0.00    -0.550 OA
ATOM     13  O   UNL     1      -7.836  -1.999   2.345  1.00  0.00    -0.550 OA
ENDBRANCH  10  11
ENDBRANCH   9  10
ENDBRANCH   8   9
ENDBRANCH   1   8
TORSDOF 8
ENDMDL
MODEL 3
REMARK VINA RESULT:    -3.964      2.068      2.830
REMARK INTER + INTRA:          -6.262
REMARK INTER:                  -5.736
REMARK INTRA:                  -0.526
REMARK UNBOUND:                -0.444
REMARK SMILES O=C([O-])CCCCCCCC(=O)[O-]
REMARK SMILES IDX 7 1 6 2 5 3 4 4 2 5 1 6 3 7 8 8 9 9 10 10 11 11 12 12 13 13
REMARK H PARENT
REMARK Flexibility Score: inf
ROOT
ATOM      1  C   UNL     1      -3.740  -1.934   8.333  1.00  0.00     0.000 C 
ENDROOT
BRANCH   1   2
ATOM      2  C   UNL     1      -3.953  -2.414   6.884  1.00  0.00     0.000 C 
BRANCH   2   3
ATOM      3  C   UNL     1      -5.373  -2.911   6.554  1.00  0.00     0.006 C 
BRANCH   3   4
ATOM      4  C   UNL     1      -5.426  -3.941   5.410  1.00  0.00     0.053 C 
BRANCH   4   5
ATOM      5  C   UNL     1      -6.720  -3.899   4.654  1.00  0.00     0.041 C 
ATOM      6  O   UNL     1      -6.944  -2.973   3.831  1.00  0.00    -0.550 OA
ATOM      7  O   UNL     1      -7.663  -4.904   4.832  1.00  0.00    -0.550 OA
ENDBRANCH   4   5
ENDBRANCH   3   4
ENDBRANCH   2   3
ENDBRANCH   1   2
BRANCH   1   8
ATOM      8  C   UNL     1      -3.662  -0.408   8.515  1.00  0.00     0.000 C 
BRANCH   8   9
ATOM      9  C   UNL     1      -3.221   0.325   7.237  1.00  0.00     0.006 C 
BRANCH   9  10
ATOM     10  C   UNL     1      -4.015   1.619   7.010  1.00  0.00     0.053 C 
BRANCH  10  11
ATOM     11  C   UNL     1      -5.456   1.342   6.712  1.00  0.00     0.041 C 
ATOM     12  O   UNL     1      -6.362   1.892   7.393  1.00  0.00    -0.550 OA
ATOM     13  O   UNL     1      -5.799   0.497   5.664  1.00  0.00    -0.550 OA
ENDBRANCH  10  11
ENDBRANCH   9  10
ENDBRANCH   8   9
ENDBRANCH   1   8
TORSDOF 8
ENDMDL
MODEL 4
REMARK VINA RESULT:    -3.904      1.431      2.331
REMARK INTER + INTRA:          -6.174
REMARK INTER:                  -5.853
REMARK INTRA:                  -0.321
REMARK UNBOUND:                -0.444
REMARK SMILES O=C([O-])CCCCCCCC(=O)[O-]
REMARK SMILES IDX 7 1 6 2 5 3 4 4 2 5 1 6 3 7 8 8 9 9 10 10 11 11 12 12 13 13
REMARK H PARENT
REMARK Flexibility Score: inf
ROOT
ATOM      1  C   UNL     1      -3.652  -2.349   8.266  1.00  0.00     0.000 C 
ENDROOT
BRANCH   1   2
ATOM      2  C   UNL     1      -4.074  -2.668   6.819  1.00  0.00     0.000 C 
BRANCH   2   3
ATOM      3  C   UNL     1      -5.547  -3.084   6.636  1.00  0.00     0.006 C 
BRANCH   3   4
ATOM      4  C   UNL     1      -5.849  -3.738   5.274  1.00  0.00     0.053 C 
BRANCH   4   5
ATOM      5  C   UNL     1      -6.662  -2.854   4.378  1.00  0.00     0.041 C 
ATOM      6  O   UNL     1      -7.537  -3.351   3.620  1.00  0.00    -0.550 OA
ATOM      7  O   UNL     1      -6.481  -1.477   4.406  1.00  0.00    -0.550 OA
ENDBRANCH   4   5
ENDBRANCH   3   4
ENDBRANCH   2   3
ENDBRANCH   1   2
BRANCH   1   8
ATOM      8  C   UNL     1      -3.663  -0.856   8.640  1.00  0.00     0.000 C 
BRANCH   8   9
ATOM      9  C   UNL     1      -3.308   0.059   7.456  1.00  0.00     0.006 C 
BRANCH   9  10
ATOM     10  C   UNL     1      -2.603   1.345   7.910  1.00  0.00     0.053 C 
BRANCH  10  11
ATOM     11  C   UNL     1      -3.572   2.470   8.108  1.00  0.00     0.041 C 
ATOM     12  O   UNL     1      -4.778   2.337   7.769  1.00  0.00    -0.550 OA
ATOM     13  O   UNL     1      -3.149   3.657   8.692  1.00  0.00    -0.550 OA
ENDBRANCH  10  11
ENDBRANCH   9  10
ENDBRANCH   8   9
ENDBRANCH   1   8
TORSDOF 8
ENDMDL
MODEL 5
REMARK VINA RESULT:    -3.822      2.433      6.408
REMARK INTER + INTRA:          -6.053
REMARK INTER:                  -5.783
REMARK INTRA:                  -0.271
REMARK UNBOUND:                -0.444
REMARK SMILES O=C([O-])CCCCCCCC(=O)[O-]
REMARK SMILES IDX 7 1 6 2 5 3 4 4 2 5 1 6 3 7 8 8 9 9 10 10 11 11 12 12 13 13
REMARK H PARENT
REMARK Flexibility Score: inf
ROOT
ATOM      1  C   UNL     1      -3.796  -0.976   8.095  1.00  0.00     0.000 C 
ENDROOT
BRANCH   1   2
ATOM      2  C   UNL     1      -3.405   0.155   7.125  1.00  0.00     0.000 C 
BRANCH   2   3
ATOM      3  C   UNL     1      -2.484   1.241   7.713  1.00  0.00     0.006 C 
BRANCH   3   4
ATOM      4  C   UNL     1      -2.869   1.686   9.137  1.00  0.00     0.053 C 
BRANCH   4   5
ATOM      5  C   UNL     1      -3.709   2.927   9.146  1.00  0.00     0.041 C 
ATOM      6  O   UNL     1      -3.211   4.034   8.808  1.00  0.00    -0.550 OA
ATOM      7  O   UNL     1      -5.053   2.856   9.492  1.00  0.00    -0.550 OA
ENDBRANCH   4   5
ENDBRANCH   3   4
ENDBRANCH   2   3
ENDBRANCH   1   2
BRANCH   1   8
ATOM      8  C   UNL     1      -4.005  -2.356   7.445  1.00  0.00     0.000 C 
BRANCH   8   9
ATOM      9  C   UNL     1      -5.226  -2.398   6.511  1.00  0.00     0.006 C 
BRANCH   9  10
ATOM     10  C   UNL     1      -5.236  -3.654   5.629  1.00  0.00     0.053 C 
BRANCH  10  11
ATOM     11  C   UNL     1      -6.551  -4.369   5.696  1.00  0.00     0.041 C 
ATOM     12  O   UNL     1      -7.342  -4.337   4.716  1.00  0.00    -0.550 OA
ATOM     13  O   UNL     1      -6.891  -5.094   6.831  1.00  0.00    -0.550 OA
ENDBRANCH  10  11
ENDBRANCH   9  10
ENDBRANCH   8   9
ENDBRANCH   1   8
TORSDOF 8
ENDMDL
MODEL 6
REMARK VINA RESULT:    -3.797     16.795     18.411
REMARK INTER + INTRA:          -6.017
REMARK INTER:                  -5.381
REMARK INTRA:                  -0.637
REMARK UNBOUND:                -0.444
REMARK SMILES O=C([O-])CCCCCCCC(=O)[O-]
REMARK SMILES IDX 7 1 6 2 5 3 4 4 2 5 1 6 3 7 8 8 9 9 10 10 11 11 12 12 13 13
REMARK H PARENT
REMARK Flexibility Score: inf
ROOT
ATOM      1  C   UNL     1       2.021  -9.791  -6.006  1.00  0.00     0.000 C 
ENDROOT
BRANCH   1   2
ATOM      2  C   UNL     1       3.143 -10.588  -5.313  1.00  0.00     0.000 C 
BRANCH   2   3
ATOM      3  C   UNL     1       3.891 -11.593  -6.210  1.00  0.00     0.006 C 
BRANCH   3   4
ATOM      4  C   UNL     1       4.998 -10.959  -7.074  1.00  0.00     0.053 C 
BRANCH   4   5
ATOM      5  C   UNL     1       6.307 -10.858  -6.352  1.00  0.00     0.041 C 
ATOM      6  O   UNL     1       6.625 -11.719  -5.490  1.00  0.00    -0.550 OA
ATOM      7  O   UNL     1       7.193  -9.833  -6.658  1.00  0.00    -0.550 OA
ENDBRANCH   4   5
ENDBRANCH   3   4
ENDBRANCH   2   3
ENDBRANCH   1   2
BRANCH   1   8
ATOM      8  C   UNL     1       1.224 -10.567  -7.070  1.00  0.00     0.000 C 
BRANCH   8   9
ATOM      9  C   UNL     1       1.291  -9.913  -8.461  1.00  0.00     0.006 C 
BRANCH   9  10
ATOM     10  C   UNL     1       2.280  -8.741  -8.502  1.00  0.00     0.053 C 
BRANCH  10  11
ATOM     11  C   UNL     1       1.614  -7.465  -8.918  1.00  0.00     0.041 C 
ATOM     12  O   UNL     1       0.898  -7.430  -9.954  1.00  0.00    -0.550 OA
ATOM     13  O   UNL     1       1.761  -6.321  -8.145  1.00  0.00    -0.550 OA
ENDBRANCH  10  11
ENDBRANCH   9  10
ENDBRANCH   8   9
ENDBRANCH   1   8
TORSDOF 8
ENDMDL
MODEL 7
REMARK VINA RESULT:    -3.781     16.937     18.071
REMARK INTER + INTRA:          -5.993
REMARK INTER:                  -5.489
REMARK INTRA:                  -0.505
REMARK UNBOUND:                -0.444
REMARK SMILES O=C([O-])CCCCCCCC(=O)[O-]
REMARK SMILES IDX 7 1 6 2 5 3 4 4 2 5 1 6 3 7 8 8 9 9 10 10 11 11 12 12 13 13
REMARK H PARENT
REMARK Flexibility Score: inf
ROOT
ATOM      1  C   UNL     1       2.931 -10.203  -5.566  1.00  0.00     0.000 C 
ENDROOT
BRANCH   1   2
ATOM      2  C   UNL     1       1.616 -10.058  -6.356  1.00  0.00     0.000 C 
BRANCH   2   3
ATOM      3  C   UNL     1       1.765 -10.030  -7.890  1.00  0.00     0.006 C 
BRANCH   3   4
ATOM      4  C   UNL     1       2.543  -8.811  -8.421  1.00  0.00     0.053 C 
BRANCH   4   5
ATOM      5  C   UNL     1       1.642  -7.702  -8.873  1.00  0.00     0.041 C 
ATOM      6  O   UNL     1       0.770  -7.913  -9.757  1.00  0.00    -0.550 OA
ATOM      7  O   UNL     1       1.738  -6.445  -8.290  1.00  0.00    -0.550 OA
ENDBRANCH   4   5
ENDBRANCH   3   4
ENDBRANCH   2   3
ENDBRANCH   1   2
BRANCH   1   8
ATOM      8  C   UNL     1       3.353 -11.650  -5.253  1.00  0.00     0.000 C 
BRANCH   8   9
ATOM      9  C   UNL     1       4.852 -11.900  -5.486  1.00  0.00     0.006 C 
BRANCH   9  10
ATOM     10  C   UNL     1       5.449 -10.922  -6.507  1.00  0.00     0.053 C 
BRANCH  10  11
ATOM     11  C   UNL     1       6.913 -10.702  -6.276  1.00  0.00     0.041 C 
ATOM     12  O   UNL     1       7.586 -11.544  -5.624  1.00  0.00    -0.550 OA
ATOM     13  O   UNL     1       7.539  -9.581  -6.804  1.00  0.00    -0.550 OA
ENDBRANCH  10  11
ENDBRANCH   9  10
ENDBRANCH   8   9
ENDBRANCH   1   8
TORSDOF 8
ENDMDL
MODEL 8
REMARK VINA RESULT:    -3.695     11.608     13.203
REMARK INTER + INTRA:          -5.867
REMARK INTER:                  -5.117
REMARK INTRA:                  -0.750
REMARK UNBOUND:                -0.444
REMARK SMILES O=C([O-])CCCCCCCC(=O)[O-]
REMARK SMILES IDX 7 1 6 2 5 3 4 4 2 5 1 6 3 7 8 8 9 9 10 10 11 11 12 12 13 13
REMARK H PARENT
REMARK Flexibility Score: inf
ROOT
ATOM      1  C   UNL     1      -4.850   0.192  -4.668  1.00  0.00     0.000 C 
ENDROOT
BRANCH   1   2
ATOM      2  C   UNL     1      -4.949  -1.236  -5.239  1.00  0.00     0.000 C 
BRANCH   2   3
ATOM      3  C   UNL     1      -4.212  -1.468  -6.573  1.00  0.00     0.006 C 
BRANCH   3   4
ATOM      4  C   UNL     1      -3.555  -0.201  -7.153  1.00  0.00     0.053 C 
BRANCH   4   5
ATOM      5  C   UNL     1      -2.225  -0.478  -7.785  1.00  0.00     0.041 C 
ATOM      6  O   UNL     1      -1.979  -1.612  -8.275  1.00  0.00    -0.550 OA
ATOM      7  O   UNL     1      -1.270   0.527  -7.867  1.00  0.00    -0.550 OA
ENDBRANCH   4   5
ENDBRANCH   3   4
ENDBRANCH   2   3
ENDBRANCH   1   2
BRANCH   1   8
ATOM      8  C   UNL     1      -6.171   0.780  -4.138  1.00  0.00     0.000 C 
BRANCH   8   9
ATOM      9  C   UNL     1      -7.338   0.615  -5.126  1.00  0.00     0.006 C 
BRANCH   9  10
ATOM     10  C   UNL     1      -7.321   1.686  -6.225  1.00  0.00     0.053 C 
BRANCH  10  11
ATOM     11  C   UNL     1      -6.964   1.107  -7.559  1.00  0.00     0.041 C 
ATOM     12  O   UNL     1      -7.238  -0.093  -7.825  1.00  0.00    -0.550 OA
ATOM     13  O   UNL     1      -6.352   1.902  -8.520  1.00  0.00    -0.550 OA
ENDBRANCH  10  11
ENDBRANCH   9  10
ENDBRANCH   8   9
ENDBRANCH   1   8
TORSDOF 8
ENDMDL
MODEL 9
REMARK VINA RESULT:    -3.621      2.435      5.042
REMARK INTER + INTRA:          -5.758
REMARK INTER:                  -5.147
REMARK INTRA:                  -0.611
REMARK UNBOUND:                -0.444
REMARK SMILES O=C([O-])CCCCCCCC(=O)[O-]
REMARK SMILES IDX 7 1 6 2 5 3 4 4 2 5 1 6 3 7 8 8 9 9 10 10 11 11 12 12 13 13
REMARK H PARENT
REMARK Flexibility Score: inf
ROOT
ATOM      1  C   UNL     1      -4.297   1.472   7.027  1.00  0.00     0.000 C 
ENDROOT
BRANCH   1   2
ATOM      2  C   UNL     1      -3.351   0.258   7.099  1.00  0.00     0.000 C 
BRANCH   2   3
ATOM      3  C   UNL     1      -3.775  -0.854   8.077  1.00  0.00     0.006 C 
BRANCH   3   4
ATOM      4  C   UNL     1      -3.711  -2.273   7.479  1.00  0.00     0.053 C 
BRANCH   4   5
ATOM      5  C   UNL     1      -5.040  -2.746   6.972  1.00  0.00     0.041 C 
ATOM      6  O   UNL     1      -6.090  -2.503   7.623  1.00  0.00    -0.550 OA
ATOM      7  O   UNL     1      -5.123  -3.422   5.762  1.00  0.00    -0.550 OA
ENDBRANCH   4   5
ENDBRANCH   3   4
ENDBRANCH   2   3
ENDBRANCH   1   2
BRANCH   1   8
ATOM      8  C   UNL     1      -5.787   1.133   6.841  1.00  0.00     0.000 C 
BRANCH   8   9
ATOM      9  C   UNL     1      -6.205   1.069   5.362  1.00  0.00     0.006 C 
BRANCH   9  10
ATOM     10  C   UNL     1      -6.833  -0.284   4.997  1.00  0.00     0.053 C 
BRANCH  10  11
ATOM     11  C   UNL     1      -7.028  -0.425   3.519  1.00  0.00     0.041 C 
ATOM     12  O   UNL     1      -6.823   0.555   2.754  1.00  0.00    -0.550 OA
ATOM     13  O   UNL     1      -7.410  -1.648   2.982  1.00  0.00    -0.550 OA
ENDBRANCH  10  11
ENDBRANCH   9  10
ENDBRANCH   8   9
ENDBRANCH   1   8
TORSDOF 8
ENDMDL
