MODEL 1
REMARK VINA RESULT:    -6.747      0.000      0.000
REMARK INTER + INTRA:         -10.429
REMARK INTER:                  -9.508
REMARK INTRA:                  -0.921
REMARK UNBOUND:                -0.921
REMARK SMILES OC[C@@H]1O[C@@H](O[C@@H]2OC=C[C@H]3[C@@H](O)[C@H]4O[C@@]4(CO)[C@@H]23)[C@@H](O)[C@@H](O)[C@H]1O
REMARK SMILES IDX 6 1 7 2 10 3 9 4 11 5 8 6 19 7 12 8 16 9 14 10 15 11 13 12
REMARK SMILES IDX 17 14 18 15 5 17 20 18 4 19 22 20 3 21 24 22 21 23 23 25
REMARK SMILES IDX 2 27 1 28 25 30
REMARK H PARENT 13 13 18 16 21 24 23 26 1 29 25 31
REMARK Flexibility Score: inf
ROOT
ATOM      1  O   UNL     1     -13.315 -29.154 -10.497  1.00  0.00    -0.310 OA
ENDROOT
BRANCH   1   2
ATOM      2  C   UNL     1     -12.864 -29.616  -9.237  1.00  0.00     0.315 C 
ATOM      3  C   UNL     1     -11.522 -27.203  -8.535  1.00  0.00     0.018 C 
ATOM      4  C   UNL     1     -12.732 -27.471  -8.039  1.00  0.00     0.186 C 
ATOM      5  C   UNL     1     -10.673 -28.255  -9.228  1.00  0.00     0.059 C 
ATOM      6  O   UNL     1     -13.313 -28.726  -8.217  1.00  0.00    -0.472 OA
ATOM      7  C   UNL     1     -11.326 -29.658  -9.254  1.00  0.00     0.105 C 
ATOM      8  C   UNL     1      -9.331 -28.492  -8.497  1.00  0.00     0.154 C 
ATOM      9  C   UNL     1     -10.739 -30.416  -8.059  1.00  0.00     0.130 C 
ATOM     10  C   UNL     1      -9.515 -29.730  -7.618  1.00  0.00     0.183 C 
ATOM     11  O   UNL     1     -10.698 -29.706  -6.842  1.00  0.00    -0.360 OA
BRANCH   8  12
ATOM     12  O   UNL     1      -8.875 -27.377  -7.769  1.00  0.00    -0.390 OA
ATOM     13  H   UNL     1      -8.299 -26.829  -8.365  1.00  0.00     0.211 HD
ENDBRANCH   8  12
BRANCH   9  14
ATOM     14  C   UNL     1     -10.769 -31.942  -7.925  1.00  0.00     0.195 C 
BRANCH  14  15
ATOM     15  O   UNL     1     -11.139 -32.530  -9.142  1.00  0.00    -0.393 OA
ATOM     16  H   UNL     1     -12.114 -32.381  -9.249  1.00  0.00     0.210 HD
ENDBRANCH  14  15
ENDBRANCH   9  14
ENDBRANCH   1   2
BRANCH   1  17
ATOM     17  C   UNL     1     -14.733 -29.122 -10.545  1.00  0.00     0.286 C 
ATOM     18  C   UNL     1     -15.222 -27.753 -11.061  1.00  0.00     0.202 C 
ATOM     19  O   UNL     1     -15.252 -30.177 -11.343  1.00  0.00    -0.341 OA
ATOM     20  C   UNL     1     -14.875 -27.568 -12.547  1.00  0.00     0.179 C 
ATOM     21  C   UNL     1     -14.800 -30.089 -12.686  1.00  0.00     0.178 C 
ATOM     22  C   UNL     1     -15.332 -28.801 -13.351  1.00  0.00     0.177 C 
BRANCH  18  23
ATOM     23  O   UNL     1     -14.653 -26.711 -10.310  1.00  0.00    -0.385 OA
ATOM     24  H   UNL     1     -15.405 -26.183  -9.937  1.00  0.00     0.211 HD
ENDBRANCH  18  23
BRANCH  20  25
ATOM     25  O   UNL     1     -13.489 -27.376 -12.694  1.00  0.00    -0.387 OA
ATOM     26  H   UNL     1     -13.336 -27.065 -13.624  1.00  0.00     0.211 HD
ENDBRANCH  20  25
BRANCH  21  27
ATOM     27  C   UNL     1     -15.289 -31.335 -13.441  1.00  0.00     0.191 C 
BRANCH  27  28
ATOM     28  O   UNL     1     -14.504 -31.553 -14.581  1.00  0.00    -0.394 OA
ATOM     29  H   UNL     1     -14.130 -32.470 -14.496  1.00  0.00     0.210 HD
ENDBRANCH  27  28
ENDBRANCH  21  27
BRANCH  22  30
ATOM     30  O   UNL     1     -14.867 -28.714 -14.674  1.00  0.00    -0.387 OA
ATOM     31  H   UNL     1     -14.627 -27.762 -14.830  1.00  0.00     0.211 HD
ENDBRANCH  22  30
ENDBRANCH   1  17
TORSDOF 10
ENDMDL
MODEL 2
REMARK VINA RESULT:    -6.177      1.835      3.484
REMARK INTER + INTRA:          -9.626
REMARK INTER:                  -8.720
REMARK INTRA:                  -0.906
REMARK UNBOUND:                -0.921
REMARK SMILES OC[C@@H]1O[C@@H](O[C@@H]2OC=C[C@H]3[C@@H](O)[C@H]4O[C@@]4(CO)[C@@H]23)[C@@H](O)[C@@H](O)[C@H]1O
REMARK SMILES IDX 6 1 7 2 10 3 9 4 11 5 8 6 19 7 12 8 16 9 14 10 15 11 13 12
REMARK SMILES IDX 17 14 18 15 5 17 20 18 4 19 22 20 3 21 24 22 21 23 23 25
REMARK SMILES IDX 2 27 1 28 25 30
REMARK H PARENT 13 13 18 16 21 24 23 26 1 29 25 31
REMARK Flexibility Score: inf
ROOT
ATOM      1  O   UNL     1     -11.746 -29.466  -9.615  1.00  0.00    -0.310 OA
ENDROOT
BRANCH   1   2
ATOM      2  C   UNL     1     -10.698 -29.807  -8.726  1.00  0.00     0.315 C 
ATOM      3  C   UNL     1     -10.086 -32.292  -9.977  1.00  0.00     0.018 C 
ATOM      4  C   UNL     1      -9.338 -31.214 -10.217  1.00  0.00     0.186 C 
ATOM      5  C   UNL     1     -11.083 -32.356  -8.831  1.00  0.00     0.059 C 
ATOM      6  O   UNL     1      -9.505 -30.050  -9.468  1.00  0.00    -0.472 OA
ATOM      7  C   UNL     1     -11.102 -31.078  -7.959  1.00  0.00     0.105 C 
ATOM      8  C   UNL     1     -10.741 -33.478  -7.826  1.00  0.00     0.154 C 
ATOM      9  C   UNL     1     -10.184 -31.370  -6.767  1.00  0.00     0.130 C 
ATOM     10  C   UNL     1      -9.988 -32.824  -6.666  1.00  0.00     0.183 C 
ATOM     11  O   UNL     1      -8.944 -31.963  -7.079  1.00  0.00    -0.360 OA
BRANCH   8  12
ATOM     12  O   UNL     1     -10.029 -34.553  -8.392  1.00  0.00    -0.390 OA
ATOM     13  H   UNL     1      -9.338 -34.847  -7.741  1.00  0.00     0.211 HD
ENDBRANCH   8  12
BRANCH   9  14
ATOM     14  C   UNL     1     -10.218 -30.579  -5.455  1.00  0.00     0.195 C 
BRANCH  14  15
ATOM     15  O   UNL     1      -9.192 -29.624  -5.436  1.00  0.00    -0.393 OA
ATOM     16  H   UNL     1      -9.248 -29.159  -4.562  1.00  0.00     0.210 HD
ENDBRANCH  14  15
ENDBRANCH   9  14
ENDBRANCH   1   2
BRANCH   1  17
ATOM     17  C   UNL     1     -12.966 -29.289  -8.912  1.00  0.00     0.286 C 
ATOM     18  C   UNL     1     -13.445 -27.828  -9.026  1.00  0.00     0.202 C 
ATOM     19  O   UNL     1     -13.968 -30.186  -9.373  1.00  0.00    -0.341 OA
ATOM     20  C   UNL     1     -13.884 -27.502 -10.463  1.00  0.00     0.179 C 
ATOM     21  C   UNL     1     -14.260 -29.984 -10.747  1.00  0.00     0.178 C 
ATOM     22  C   UNL     1     -14.863 -28.580 -10.970  1.00  0.00     0.177 C 
BRANCH  18  23
ATOM     23  O   UNL     1     -12.427 -26.944  -8.632  1.00  0.00    -0.385 OA
ATOM     24  H   UNL     1     -11.987 -26.625  -9.462  1.00  0.00     0.211 HD
ENDBRANCH  18  23
BRANCH  20  25
ATOM     25  O   UNL     1     -12.758 -27.431 -11.303  1.00  0.00    -0.387 OA
ATOM     26  H   UNL     1     -12.844 -26.597 -11.834  1.00  0.00     0.211 HD
ENDBRANCH  20  25
BRANCH  21  27
ATOM     27  C   UNL     1     -15.241 -31.077 -11.197  1.00  0.00     0.191 C 
BRANCH  27  28
ATOM     28  O   UNL     1     -15.142 -31.283 -12.580  1.00  0.00    -0.394 OA
ATOM     29  H   UNL     1     -15.959 -31.780 -12.851  1.00  0.00     0.210 HD
ENDBRANCH  27  28
ENDBRANCH  21  27
BRANCH  22  30
ATOM     30  O   UNL     1     -15.133 -28.382 -12.335  1.00  0.00    -0.387 OA
ATOM     31  H   UNL     1     -14.503 -28.964 -12.837  1.00  0.00     0.211 HD
ENDBRANCH  22  30
ENDBRANCH   1  17
TORSDOF 10
ENDMDL
MODEL 3
REMARK VINA RESULT:    -5.971      1.928      6.388
REMARK INTER + INTRA:          -9.335
REMARK INTER:                  -8.581
REMARK INTRA:                  -0.754
REMARK UNBOUND:                -0.921
REMARK SMILES OC[C@@H]1O[C@@H](O[C@@H]2OC=C[C@H]3[C@@H](O)[C@H]4O[C@@]4(CO)[C@@H]23)[C@@H](O)[C@@H](O)[C@H]1O
REMARK SMILES IDX 6 1 7 2 10 3 9 4 11 5 8 6 19 7 12 8 16 9 14 10 15 11 13 12
REMARK SMILES IDX 17 14 18 15 5 17 20 18 4 19 22 20 3 21 24 22 21 23 23 25
REMARK SMILES IDX 2 27 1 28 25 30
REMARK H PARENT 13 13 18 16 21 24 23 26 1 29 25 31
REMARK Flexibility Score: inf
ROOT
ATOM      1  O   UNL     1     -11.050 -29.966  -7.916  1.00  0.00    -0.310 OA
ENDROOT
BRANCH   1   2
ATOM      2  C   UNL     1     -11.620 -29.807  -9.202  1.00  0.00     0.315 C 
ATOM      3  C   UNL     1     -12.450 -27.113  -8.792  1.00  0.00     0.018 C 
ATOM      4  C   UNL     1     -11.336 -27.379  -9.477  1.00  0.00     0.186 C 
ATOM      5  C   UNL     1     -13.481 -28.181  -8.464  1.00  0.00     0.059 C 
ATOM      6  O   UNL     1     -11.023 -28.685  -9.850  1.00  0.00    -0.472 OA
ATOM      7  C   UNL     1     -13.132 -29.574  -9.040  1.00  0.00     0.105 C 
ATOM      8  C   UNL     1     -14.861 -27.866  -9.085  1.00  0.00     0.154 C 
ATOM      9  C   UNL     1     -13.894 -29.684 -10.365  1.00  0.00     0.130 C 
ATOM     10  C   UNL     1     -14.961 -28.670 -10.382  1.00  0.00     0.183 C 
ATOM     11  O   UNL     1     -13.820 -28.558 -11.211  1.00  0.00    -0.360 OA
BRANCH   8  12
ATOM     12  O   UNL     1     -15.096 -26.492  -9.284  1.00  0.00    -0.390 OA
ATOM     13  H   UNL     1     -15.208 -26.333 -10.259  1.00  0.00     0.211 HD
ENDBRANCH   8  12
BRANCH   9  14
ATOM     14  C   UNL     1     -14.185 -31.012 -11.070  1.00  0.00     0.195 C 
BRANCH  14  15
ATOM     15  O   UNL     1     -13.163 -31.935 -10.808  1.00  0.00    -0.393 OA
ATOM     16  H   UNL     1     -12.891 -32.319 -11.681  1.00  0.00     0.210 HD
ENDBRANCH  14  15
ENDBRANCH   9  14
ENDBRANCH   1   2
BRANCH   1  17
ATOM     17  C   UNL     1      -9.680 -30.323  -8.012  1.00  0.00     0.286 C 
ATOM     18  C   UNL     1      -8.943 -29.989  -6.698  1.00  0.00     0.202 C 
ATOM     19  O   UNL     1      -9.520 -31.696  -8.343  1.00  0.00    -0.341 OA
ATOM     20  C   UNL     1      -9.407 -30.908  -5.557  1.00  0.00     0.179 C 
ATOM     21  C   UNL     1     -10.090 -32.543  -7.357  1.00  0.00     0.178 C 
ATOM     22  C   UNL     1      -9.349 -32.379  -6.012  1.00  0.00     0.177 C 
BRANCH  18  23
ATOM     23  O   UNL     1      -9.160 -28.647  -6.341  1.00  0.00    -0.385 OA
ATOM     24  H   UNL     1      -8.318 -28.159  -6.537  1.00  0.00     0.211 HD
ENDBRANCH  18  23
BRANCH  20  25
ATOM     25  O   UNL     1     -10.715 -30.568  -5.169  1.00  0.00    -0.387 OA
ATOM     26  H   UNL     1     -10.752 -29.577  -5.110  1.00  0.00     0.211 HD
ENDBRANCH  20  25
BRANCH  21  27
ATOM     27  C   UNL     1     -10.000 -33.992  -7.857  1.00  0.00     0.191 C 
BRANCH  27  28
ATOM     28  O   UNL     1     -10.981 -34.783  -7.243  1.00  0.00    -0.394 OA
ATOM     29  H   UNL     1     -10.522 -35.305  -6.534  1.00  0.00     0.210 HD
ENDBRANCH  27  28
ENDBRANCH  21  27
BRANCH  22  30
ATOM     30  O   UNL     1      -9.930 -33.209  -5.038  1.00  0.00    -0.387 OA
ATOM     31  H   UNL     1     -10.049 -32.652  -4.223  1.00  0.00     0.211 HD
ENDBRANCH  22  30
ENDBRANCH   1  17
TORSDOF 10
ENDMDL
MODEL 4
REMARK VINA RESULT:    -5.727      1.706      6.285
REMARK INTER + INTRA:          -8.992
REMARK INTER:                  -8.280
REMARK INTRA:                  -0.712
REMARK UNBOUND:                -0.921
REMARK SMILES OC[C@@H]1O[C@@H](O[C@@H]2OC=C[C@H]3[C@@H](O)[C@H]4O[C@@]4(CO)[C@@H]23)[C@@H](O)[C@@H](O)[C@H]1O
REMARK SMILES IDX 6 1 7 2 10 3 9 4 11 5 8 6 19 7 12 8 16 9 14 10 15 11 13 12
REMARK SMILES IDX 17 14 18 15 5 17 20 18 4 19 22 20 3 21 24 22 21 23 23 25
REMARK SMILES IDX 2 27 1 28 25 30
REMARK H PARENT 13 13 18 16 21 24 23 26 1 29 25 31
REMARK Flexibility Score: inf
ROOT
ATOM      1  O   UNL     1     -12.004 -28.084  -8.877  1.00  0.00    -0.310 OA
ENDROOT
BRANCH   1   2
ATOM      2  C   UNL     1     -13.034 -27.597  -9.718  1.00  0.00     0.315 C 
ATOM      3  C   UNL     1     -14.872 -29.692  -9.127  1.00  0.00     0.018 C 
ATOM      4  C   UNL     1     -14.991 -28.503  -8.533  1.00  0.00     0.186 C 
ATOM      5  C   UNL     1     -13.983 -29.913 -10.340  1.00  0.00     0.059 C 
ATOM      6  O   UNL     1     -14.225 -27.416  -8.954  1.00  0.00    -0.472 OA
ATOM      7  C   UNL     1     -13.281 -28.626 -10.834  1.00  0.00     0.105 C 
ATOM      8  C   UNL     1     -14.788 -30.385 -11.572  1.00  0.00     0.154 C 
ATOM      9  C   UNL     1     -14.159 -28.077 -11.964  1.00  0.00     0.130 C 
ATOM     10  C   UNL     1     -15.051 -29.148 -12.433  1.00  0.00     0.183 C 
ATOM     11  O   UNL     1     -15.544 -28.041 -11.703  1.00  0.00    -0.360 OA
BRANCH   8  12
ATOM     12  O   UNL     1     -15.971 -31.077 -11.248  1.00  0.00    -0.390 OA
ATOM     13  H   UNL     1     -16.738 -30.590 -11.652  1.00  0.00     0.211 HD
ENDBRANCH   8  12
BRANCH   9  14
ATOM     14  C   UNL     1     -13.665 -27.074 -13.012  1.00  0.00     0.195 C 
BRANCH  14  15
ATOM     15  O   UNL     1     -14.452 -25.914 -12.983  1.00  0.00    -0.393 OA
ATOM     16  H   UNL     1     -15.292 -26.149 -12.510  1.00  0.00     0.210 HD
ENDBRANCH  14  15
ENDBRANCH   9  14
ENDBRANCH   1   2
BRANCH   1  17
ATOM     17  C   UNL     1     -10.883 -28.498  -9.642  1.00  0.00     0.286 C 
ATOM     18  C   UNL     1      -9.619 -27.729  -9.203  1.00  0.00     0.202 C 
ATOM     19  O   UNL     1     -10.677 -29.901  -9.548  1.00  0.00    -0.341 OA
ATOM     20  C   UNL     1      -9.181 -28.147  -7.791  1.00  0.00     0.179 C 
ATOM     21  C   UNL     1     -10.426 -30.305  -8.210  1.00  0.00     0.178 C 
ATOM     22  C   UNL     1      -9.108 -29.684  -7.697  1.00  0.00     0.177 C 
BRANCH  18  23
ATOM     23  O   UNL     1      -9.851 -26.344  -9.235  1.00  0.00    -0.385 OA
ATOM     24  H   UNL     1     -10.738 -26.192  -8.817  1.00  0.00     0.211 HD
ENDBRANCH  18  23
BRANCH  20  25
ATOM     25  O   UNL     1     -10.087 -27.643  -6.840  1.00  0.00    -0.387 OA
ATOM     26  H   UNL     1     -10.509 -28.425  -6.398  1.00  0.00     0.211 HD
ENDBRANCH  20  25
BRANCH  21  27
ATOM     27  C   UNL     1     -10.355 -31.839  -8.176  1.00  0.00     0.191 C 
BRANCH  27  28
ATOM     28  O   UNL     1     -10.636 -32.312  -6.887  1.00  0.00    -0.394 OA
ATOM     29  H   UNL     1      -9.986 -31.875  -6.277  1.00  0.00     0.210 HD
ENDBRANCH  27  28
ENDBRANCH  21  27
BRANCH  22  30
ATOM     30  O   UNL     1      -8.876 -30.076  -6.368  1.00  0.00    -0.387 OA
ATOM     31  H   UNL     1      -7.914 -30.320  -6.307  1.00  0.00     0.211 HD
ENDBRANCH  22  30
ENDBRANCH   1  17
TORSDOF 10
ENDMDL
MODEL 5
REMARK VINA RESULT:    -5.369      1.598      2.129
REMARK INTER + INTRA:          -8.488
REMARK INTER:                  -7.641
REMARK INTRA:                  -0.847
REMARK UNBOUND:                -0.921
REMARK SMILES OC[C@@H]1O[C@@H](O[C@@H]2OC=C[C@H]3[C@@H](O)[C@H]4O[C@@]4(CO)[C@@H]23)[C@@H](O)[C@@H](O)[C@H]1O
REMARK SMILES IDX 6 1 7 2 10 3 9 4 11 5 8 6 19 7 12 8 16 9 14 10 15 11 13 12
REMARK SMILES IDX 17 14 18 15 5 17 20 18 4 19 22 20 3 21 24 22 21 23 23 25
REMARK SMILES IDX 2 27 1 28 25 30
REMARK H PARENT 13 13 18 16 21 24 23 26 1 29 25 31
REMARK Flexibility Score: inf
ROOT
ATOM      1  O   UNL     1     -13.885 -30.115 -11.169  1.00  0.00    -0.310 OA
ENDROOT
BRANCH   1   2
ATOM      2  C   UNL     1     -13.433 -30.193  -9.829  1.00  0.00     0.315 C 
ATOM      3  C   UNL     1     -13.488 -27.383  -9.367  1.00  0.00     0.018 C 
ATOM      4  C   UNL     1     -14.480 -28.158  -8.925  1.00  0.00     0.186 C 
ATOM      5  C   UNL     1     -12.163 -27.948  -9.850  1.00  0.00     0.059 C 
ATOM      6  O   UNL     1     -14.373 -29.548  -8.972  1.00  0.00    -0.472 OA
ATOM      7  C   UNL     1     -12.069 -29.488  -9.733  1.00  0.00     0.105 C 
ATOM      8  C   UNL     1     -10.973 -27.445  -9.002  1.00  0.00     0.154 C 
ATOM      9  C   UNL     1     -11.350 -29.765  -8.409  1.00  0.00     0.130 C 
ATOM     10  C   UNL     1     -10.660 -28.538  -7.979  1.00  0.00     0.183 C 
ATOM     11  O   UNL     1     -11.802 -29.023  -7.298  1.00  0.00    -0.360 OA
BRANCH   8  12
ATOM     12  O   UNL     1     -11.192 -26.192  -8.401  1.00  0.00    -0.390 OA
ATOM     13  H   UNL     1     -11.354 -25.524  -9.119  1.00  0.00     0.211 HD
ENDBRANCH   8  12
BRANCH   9  14
ATOM     14  C   UNL     1     -10.674 -31.098  -8.072  1.00  0.00     0.195 C 
BRANCH  14  15
ATOM     15  O   UNL     1     -10.103 -31.658  -9.224  1.00  0.00    -0.393 OA
ATOM     16  H   UNL     1     -10.094 -32.641  -9.091  1.00  0.00     0.210 HD
ENDBRANCH  14  15
ENDBRANCH   9  14
ENDBRANCH   1   2
BRANCH   1  17
ATOM     17  C   UNL     1     -15.291 -30.298 -11.238  1.00  0.00     0.286 C 
ATOM     18  C   UNL     1     -15.878 -29.510 -12.428  1.00  0.00     0.202 C 
ATOM     19  O   UNL     1     -15.634 -31.674 -11.327  1.00  0.00    -0.341 OA
ATOM     20  C   UNL     1     -15.436 -30.123 -13.766  1.00  0.00     0.179 C 
ATOM     21  C   UNL     1     -15.089 -32.276 -12.492  1.00  0.00     0.178 C 
ATOM     22  C   UNL     1     -15.698 -31.642 -13.761  1.00  0.00     0.177 C 
BRANCH  18  23
ATOM     23  O   UNL     1     -15.480 -28.164 -12.370  1.00  0.00    -0.385 OA
ATOM     24  H   UNL     1     -15.921 -27.702 -13.130  1.00  0.00     0.211 HD
ENDBRANCH  18  23
BRANCH  20  25
ATOM     25  O   UNL     1     -14.070 -29.864 -13.984  1.00  0.00    -0.387 OA
ATOM     26  H   UNL     1     -13.957 -29.699 -14.956  1.00  0.00     0.211 HD
ENDBRANCH  20  25
BRANCH  21  27
ATOM     27  C   UNL     1     -15.385 -33.782 -12.439  1.00  0.00     0.191 C 
BRANCH  27  28
ATOM     28  O   UNL     1     -14.582 -34.470 -13.359  1.00  0.00    -0.394 OA
ATOM     29  H   UNL     1     -14.712 -35.439 -13.179  1.00  0.00     0.210 HD
ENDBRANCH  27  28
ENDBRANCH  21  27
BRANCH  22  30
ATOM     30  O   UNL     1     -15.142 -32.232 -14.909  1.00  0.00    -0.387 OA
ATOM     31  H   UNL     1     -15.534 -33.143 -14.979  1.00  0.00     0.211 HD
ENDBRANCH  22  30
ENDBRANCH   1  17
TORSDOF 10
ENDMDL
MODEL 6
REMARK VINA RESULT:    -5.233      2.101      6.000
REMARK INTER + INTRA:          -8.296
REMARK INTER:                  -8.211
REMARK INTRA:                  -0.085
REMARK UNBOUND:                -0.921
REMARK SMILES OC[C@@H]1O[C@@H](O[C@@H]2OC=C[C@H]3[C@@H](O)[C@H]4O[C@@]4(CO)[C@@H]23)[C@@H](O)[C@@H](O)[C@H]1O
REMARK SMILES IDX 6 1 7 2 10 3 9 4 11 5 8 6 19 7 12 8 16 9 14 10 15 11 13 12
REMARK SMILES IDX 17 14 18 15 5 17 20 18 4 19 22 20 3 21 24 22 21 23 23 25
REMARK SMILES IDX 2 27 1 28 25 30
REMARK H PARENT 13 13 18 16 21 24 23 26 1 29 25 31
REMARK Flexibility Score: inf
ROOT
ATOM      1  O   UNL     1     -10.878 -29.691  -7.663  1.00  0.00    -0.310 OA
ENDROOT
BRANCH   1   2
ATOM      2  C   UNL     1     -11.434 -29.616  -8.963  1.00  0.00     0.315 C 
ATOM      3  C   UNL     1     -12.553 -27.019  -8.625  1.00  0.00     0.018 C 
ATOM      4  C   UNL     1     -11.403 -27.177  -9.281  1.00  0.00     0.186 C 
ATOM      5  C   UNL     1     -13.472 -28.184  -8.296  1.00  0.00     0.059 C 
ATOM      6  O   UNL     1     -10.946 -28.450  -9.622  1.00  0.00    -0.472 OA
ATOM      7  C   UNL     1     -12.965 -29.542  -8.836  1.00  0.00     0.105 C 
ATOM      8  C   UNL     1     -14.864 -28.028  -8.950  1.00  0.00     0.154 C 
ATOM      9  C   UNL     1     -13.683 -29.756 -10.173  1.00  0.00     0.130 C 
ATOM     10  C   UNL     1     -14.850 -28.862 -10.232  1.00  0.00     0.183 C 
ATOM     11  O   UNL     1     -13.709 -28.644 -11.040  1.00  0.00    -0.360 OA
BRANCH   8  12
ATOM     12  O   UNL     1     -15.238 -26.691  -9.181  1.00  0.00    -0.390 OA
ATOM     13  H   UNL     1     -16.227 -26.656  -9.277  1.00  0.00     0.211 HD
ENDBRANCH   8  12
BRANCH   9  14
ATOM     14  C   UNL     1     -13.816 -31.121 -10.857  1.00  0.00     0.195 C 
BRANCH  14  15
ATOM     15  O   UNL     1     -12.682 -31.904 -10.602  1.00  0.00    -0.393 OA
ATOM     16  H   UNL     1     -12.242 -31.521  -9.799  1.00  0.00     0.210 HD
ENDBRANCH  14  15
ENDBRANCH   9  14
ENDBRANCH   1   2
BRANCH   1  17
ATOM     17  C   UNL     1      -9.465 -29.799  -7.724  1.00  0.00     0.286 C 
ATOM     18  C   UNL     1      -8.930 -30.554  -6.489  1.00  0.00     0.202 C 
ATOM     19  O   UNL     1      -9.041 -30.432  -8.924  1.00  0.00    -0.341 OA
ATOM     20  C   UNL     1      -9.339 -32.035  -6.528  1.00  0.00     0.179 C 
ATOM     21  C   UNL     1      -9.553 -31.752  -9.029  1.00  0.00     0.178 C 
ATOM     22  C   UNL     1      -8.987 -32.641  -7.900  1.00  0.00     0.177 C 
BRANCH  18  23
ATOM     23  O   UNL     1      -9.406 -29.963  -5.307  1.00  0.00    -0.385 OA
ATOM     24  H   UNL     1      -9.058 -30.507  -4.554  1.00  0.00     0.211 HD
ENDBRANCH  18  23
BRANCH  20  25
ATOM     25  O   UNL     1     -10.718 -32.157  -6.280  1.00  0.00    -0.387 OA
ATOM     26  H   UNL     1     -11.112 -32.637  -7.055  1.00  0.00     0.211 HD
ENDBRANCH  20  25
BRANCH  21  27
ATOM     27  C   UNL     1      -9.168 -32.309 -10.408  1.00  0.00     0.191 C 
BRANCH  27  28
ATOM     28  O   UNL     1     -10.025 -33.359 -10.767  1.00  0.00    -0.394 OA
ATOM     29  H   UNL     1     -10.211 -33.253 -11.737  1.00  0.00     0.210 HD
ENDBRANCH  27  28
ENDBRANCH  21  27
BRANCH  22  30
ATOM     30  O   UNL     1      -9.511 -33.942  -8.002  1.00  0.00    -0.387 OA
ATOM     31  H   UNL     1      -8.754 -34.535  -8.254  1.00  0.00     0.211 HD
ENDBRANCH  22  30
ENDBRANCH   1  17
TORSDOF 10
ENDMDL
MODEL 7
REMARK VINA RESULT:    -4.828      1.713      6.503
REMARK INTER + INTRA:          -7.725
REMARK INTER:                  -6.690
REMARK INTRA:                  -1.035
REMARK UNBOUND:                -0.921
REMARK SMILES OC[C@@H]1O[C@@H](O[C@@H]2OC=C[C@H]3[C@@H](O)[C@H]4O[C@@]4(CO)[C@@H]23)[C@@H](O)[C@@H](O)[C@H]1O
REMARK SMILES IDX 6 1 7 2 10 3 9 4 11 5 8 6 19 7 12 8 16 9 14 10 15 11 13 12
REMARK SMILES IDX 17 14 18 15 5 17 20 18 4 19 22 20 3 21 24 22 21 23 23 25
REMARK SMILES IDX 2 27 1 28 25 30
REMARK H PARENT 13 13 18 16 21 24 23 26 1 29 25 31
REMARK Flexibility Score: inf
ROOT
ATOM      1  O   UNL     1     -12.268 -28.147 -10.331  1.00  0.00    -0.310 OA
ENDROOT
BRANCH   1   2
ATOM      2  C   UNL     1     -12.876 -27.253 -11.245  1.00  0.00     0.315 C 
ATOM      3  C   UNL     1     -15.383 -28.604 -11.311  1.00  0.00     0.018 C 
ATOM      4  C   UNL     1     -15.227 -27.509 -10.566  1.00  0.00     0.186 C 
ATOM      5  C   UNL     1     -14.380 -29.017 -12.376  1.00  0.00     0.059 C 
ATOM      6  O   UNL     1     -14.074 -26.731 -10.674  1.00  0.00    -0.472 OA
ATOM      7  C   UNL     1     -13.205 -28.023 -12.536  1.00  0.00     0.105 C 
ATOM      8  C   UNL     1     -15.014 -29.060 -13.785  1.00  0.00     0.154 C 
ATOM      9  C   UNL     1     -13.590 -27.100 -13.696  1.00  0.00     0.130 C 
ATOM     10  C   UNL     1     -14.665 -27.739 -14.472  1.00  0.00     0.183 C 
ATOM     11  O   UNL     1     -14.908 -26.598 -13.670  1.00  0.00    -0.360 OA
BRANCH   8  12
ATOM     12  O   UNL     1     -16.399 -29.313 -13.779  1.00  0.00    -0.390 OA
ATOM     13  H   UNL     1     -16.861 -28.515 -13.408  1.00  0.00     0.211 HD
ENDBRANCH   8  12
BRANCH   9  14
ATOM     14  C   UNL     1     -12.582 -26.248 -14.474  1.00  0.00     0.195 C 
BRANCH  14  15
ATOM     15  O   UNL     1     -12.817 -24.885 -14.243  1.00  0.00    -0.393 OA
ATOM     16  H   UNL     1     -13.798 -24.777 -14.136  1.00  0.00     0.210 HD
ENDBRANCH  14  15
ENDBRANCH   9  14
ENDBRANCH   1   2
BRANCH   1  17
ATOM     17  C   UNL     1     -11.214 -27.510  -9.627  1.00  0.00     0.286 C 
ATOM     18  C   UNL     1     -11.637 -27.222  -8.171  1.00  0.00     0.202 C 
ATOM     19  O   UNL     1     -10.022 -28.282  -9.662  1.00  0.00    -0.341 OA
ATOM     20  C   UNL     1     -11.779 -28.525  -7.370  1.00  0.00     0.179 C 
ATOM     21  C   UNL     1     -10.203 -29.553  -9.055  1.00  0.00     0.178 C 
ATOM     22  C   UNL     1     -10.518 -29.394  -7.552  1.00  0.00     0.177 C 
BRANCH  18  23
ATOM     23  O   UNL     1     -12.851 -26.515  -8.143  1.00  0.00    -0.385 OA
ATOM     24  H   UNL     1     -12.704 -25.716  -7.573  1.00  0.00     0.211 HD
ENDBRANCH  18  23
BRANCH  20  25
ATOM     25  O   UNL     1     -12.921 -29.228  -7.796  1.00  0.00    -0.387 OA
ATOM     26  H   UNL     1     -13.193 -29.821  -7.048  1.00  0.00     0.211 HD
ENDBRANCH  20  25
BRANCH  21  27
ATOM     27  C   UNL     1      -8.918 -30.371  -9.260  1.00  0.00     0.191 C 
BRANCH  27  28
ATOM     28  O   UNL     1      -9.213 -31.740  -9.303  1.00  0.00    -0.394 OA
ATOM     29  H   UNL     1      -9.014 -32.102  -8.400  1.00  0.00     0.210 HD
ENDBRANCH  27  28
ENDBRANCH  21  27
BRANCH  22  30
ATOM     30  O   UNL     1     -10.711 -30.655  -6.964  1.00  0.00    -0.387 OA
ATOM     31  H   UNL     1     -11.693 -30.814  -6.946  1.00  0.00     0.211 HD
ENDBRANCH  22  30
ENDBRANCH   1  17
TORSDOF 10
ENDMDL
MODEL 8
REMARK VINA RESULT:    -4.721      1.386      2.550
REMARK INTER + INTRA:          -7.574
REMARK INTER:                  -7.110
REMARK INTRA:                  -0.464
REMARK UNBOUND:                -0.921
REMARK SMILES OC[C@@H]1O[C@@H](O[C@@H]2OC=C[C@H]3[C@@H](O)[C@H]4O[C@@]4(CO)[C@@H]23)[C@@H](O)[C@@H](O)[C@H]1O
REMARK SMILES IDX 6 1 7 2 10 3 9 4 11 5 8 6 19 7 12 8 16 9 14 10 15 11 13 12
REMARK SMILES IDX 17 14 18 15 5 17 20 18 4 19 22 20 3 21 24 22 21 23 23 25
REMARK SMILES IDX 2 27 1 28 25 30
REMARK H PARENT 13 13 18 16 21 24 23 26 1 29 25 31
REMARK Flexibility Score: inf
ROOT
ATOM      1  O   UNL     1     -14.528 -29.362 -10.449  1.00  0.00    -0.310 OA
ENDROOT
BRANCH   1   2
ATOM      2  C   UNL     1     -13.736 -29.762  -9.346  1.00  0.00     0.315 C 
ATOM      3  C   UNL     1     -12.734 -27.155  -8.782  1.00  0.00     0.018 C 
ATOM      4  C   UNL     1     -13.735 -27.664  -8.062  1.00  0.00     0.186 C 
ATOM      5  C   UNL     1     -11.880 -28.007  -9.707  1.00  0.00     0.059 C 
ATOM      6  O   UNL     1     -14.103 -29.002  -8.197  1.00  0.00    -0.472 OA
ATOM      7  C   UNL     1     -12.258 -29.508  -9.690  1.00  0.00     0.105 C 
ATOM      8  C   UNL     1     -10.391 -28.001  -9.293  1.00  0.00     0.154 C 
ATOM      9  C   UNL     1     -11.295 -30.171  -8.699  1.00  0.00     0.130 C 
ATOM     10  C   UNL     1     -10.150 -29.274  -8.480  1.00  0.00     0.183 C 
ATOM     11  O   UNL     1     -11.118 -29.498  -7.472  1.00  0.00    -0.360 OA
BRANCH   8  12
ATOM     12  O   UNL     1      -9.996 -26.839  -8.604  1.00  0.00    -0.390 OA
ATOM     13  H   UNL     1      -9.770 -26.141  -9.274  1.00  0.00     0.211 HD
ENDBRANCH   8  12
BRANCH   9  14
ATOM     14  C   UNL     1     -11.018 -31.677  -8.664  1.00  0.00     0.195 C 
BRANCH  14  15
ATOM     15  O   UNL     1     -11.481 -32.284  -9.839  1.00  0.00    -0.393 OA
ATOM     16  H   UNL     1     -10.862 -33.033 -10.039  1.00  0.00     0.210 HD
ENDBRANCH  14  15
ENDBRANCH   9  14
ENDBRANCH   1   2
BRANCH   1  17
ATOM     17  C   UNL     1     -13.816 -29.519 -11.666  1.00  0.00     0.286 C 
ATOM     18  C   UNL     1     -14.226 -30.832 -12.365  1.00  0.00     0.202 C 
ATOM     19  O   UNL     1     -14.008 -28.407 -12.530  1.00  0.00    -0.341 OA
ATOM     20  C   UNL     1     -15.672 -30.753 -12.880  1.00  0.00     0.179 C 
ATOM     21  C   UNL     1     -15.374 -28.245 -12.880  1.00  0.00     0.178 C 
ATOM     22  C   UNL     1     -15.870 -29.459 -13.694  1.00  0.00     0.177 C 
BRANCH  18  23
ATOM     23  O   UNL     1     -14.097 -31.919 -11.484  1.00  0.00    -0.385 OA
ATOM     24  H   UNL     1     -13.832 -32.702 -12.033  1.00  0.00     0.211 HD
ENDBRANCH  18  23
BRANCH  20  25
ATOM     25  O   UNL     1     -16.569 -30.790 -11.797  1.00  0.00    -0.387 OA
ATOM     26  H   UNL     1     -16.137 -31.325 -11.081  1.00  0.00     0.211 HD
ENDBRANCH  20  25
BRANCH  21  27
ATOM     27  C   UNL     1     -15.512 -26.949 -13.693  1.00  0.00     0.191 C 
BRANCH  27  28
ATOM     28  O   UNL     1     -14.677 -25.952 -13.169  1.00  0.00    -0.394 OA
ATOM     29  H   UNL     1     -15.269 -25.202 -12.897  1.00  0.00     0.210 HD
ENDBRANCH  27  28
ENDBRANCH  21  27
BRANCH  22  30
ATOM     30  O   UNL     1     -17.227 -29.298 -14.022  1.00  0.00    -0.387 OA
ATOM     31  H   UNL     1     -17.274 -28.557 -14.683  1.00  0.00     0.211 HD
ENDBRANCH  22  30
ENDBRANCH   1  17
TORSDOF 10
ENDMDL
MODEL 9
REMARK VINA RESULT:    -4.626      1.643      6.430
REMARK INTER + INTRA:          -7.440
REMARK INTER:                  -6.743
REMARK INTRA:                  -0.697
REMARK UNBOUND:                -0.921
REMARK SMILES OC[C@@H]1O[C@@H](O[C@@H]2OC=C[C@H]3[C@@H](O)[C@H]4O[C@@]4(CO)[C@@H]23)[C@@H](O)[C@@H](O)[C@H]1O
REMARK SMILES IDX 6 1 7 2 10 3 9 4 11 5 8 6 19 7 12 8 16 9 14 10 15 11 13 12
REMARK SMILES IDX 17 14 18 15 5 17 20 18 4 19 22 20 3 21 24 22 21 23 23 25
REMARK SMILES IDX 2 27 1 28 25 30
REMARK H PARENT 13 13 18 16 21 24 23 26 1 29 25 31
REMARK Flexibility Score: inf
ROOT
ATOM      1  O   UNL     1     -13.331 -30.405  -9.367  1.00  0.00    -0.310 OA
ENDROOT
BRANCH   1   2
ATOM      2  C   UNL     1     -14.333 -29.745 -10.119  1.00  0.00     0.315 C 
ATOM      3  C   UNL     1     -15.459 -32.126 -11.205  1.00  0.00     0.018 C 
ATOM      4  C   UNL     1     -16.039 -31.517 -10.169  1.00  0.00     0.186 C 
ATOM      5  C   UNL     1     -14.383 -31.459 -12.046  1.00  0.00     0.059 C 
ATOM      6  O   UNL     1     -15.614 -30.255  -9.755  1.00  0.00    -0.472 OA
ATOM      7  C   UNL     1     -14.072 -30.007 -11.613  1.00  0.00     0.105 C 
ATOM      8  C   UNL     1     -14.809 -31.315 -13.525  1.00  0.00     0.154 C 
ATOM      9  C   UNL     1     -14.910 -29.107 -12.528  1.00  0.00     0.130 C 
ATOM     10  C   UNL     1     -15.333 -29.888 -13.701  1.00  0.00     0.183 C 
ATOM     11  O   UNL     1     -16.255 -29.493 -12.703  1.00  0.00    -0.360 OA
BRANCH   8  12
ATOM     12  O   UNL     1     -15.738 -32.285 -13.947  1.00  0.00    -0.390 OA
ATOM     13  H   UNL     1     -15.256 -32.962 -14.492  1.00  0.00     0.211 HD
ENDBRANCH   8  12
BRANCH   9  14
ATOM     14  C   UNL     1     -14.624 -27.619 -12.749  1.00  0.00     0.195 C 
BRANCH  14  15
ATOM     15  O   UNL     1     -13.347 -27.293 -12.270  1.00  0.00    -0.393 OA
ATOM     16  H   UNL     1     -13.223 -26.320 -12.422  1.00  0.00     0.210 HD
ENDBRANCH  14  15
ENDBRANCH   9  14
ENDBRANCH   1   2
BRANCH   1  17
ATOM     17  C   UNL     1     -12.076 -30.333 -10.025  1.00  0.00     0.286 C 
ATOM     18  C   UNL     1     -11.256 -29.140  -9.492  1.00  0.00     0.202 C 
ATOM     19  O   UNL     1     -11.347 -31.546  -9.891  1.00  0.00    -0.341 OA
ATOM     20  C   UNL     1     -10.812 -29.381  -8.041  1.00  0.00     0.179 C 
ATOM     21  C   UNL     1     -11.074 -31.845  -8.531  1.00  0.00     0.178 C 
ATOM     22  C   UNL     1     -10.153 -30.769  -7.916  1.00  0.00     0.177 C 
BRANCH  18  23
ATOM     23  O   UNL     1     -12.007 -27.955  -9.566  1.00  0.00    -0.385 OA
ATOM     24  H   UNL     1     -11.428 -27.277 -10.002  1.00  0.00     0.211 HD
ENDBRANCH  18  23
BRANCH  20  25
ATOM     25  O   UNL     1     -11.920 -29.288  -7.180  1.00  0.00    -0.387 OA
ATOM     26  H   UNL     1     -11.884 -28.392  -6.754  1.00  0.00     0.211 HD
ENDBRANCH  20  25
BRANCH  21  27
ATOM     27  C   UNL     1     -10.413 -33.230  -8.466  1.00  0.00     0.191 C 
BRANCH  27  28
ATOM     28  O   UNL     1     -10.899 -33.952  -7.367  1.00  0.00    -0.394 OA
ATOM     29  H   UNL     1     -10.457 -33.573  -6.561  1.00  0.00     0.210 HD
ENDBRANCH  27  28
ENDBRANCH  21  27
BRANCH  22  30
ATOM     30  O   UNL     1      -9.900 -31.064  -6.565  1.00  0.00    -0.387 OA
ATOM     31  H   UNL     1     -10.298 -30.325  -6.033  1.00  0.00     0.211 HD
ENDBRANCH  22  30
ENDBRANCH   1  17
TORSDOF 10
ENDMDL
