MODEL 1
REMARK VINA RESULT:    -5.326      0.000      0.000
REMARK INTER + INTRA:          -5.326
REMARK INTER:                  -5.326
REMARK INTRA:                   0.000
REMARK UNBOUND:                 0.000
REMARK SMILES O=c1ccc2ccccc2o1
REMARK SMILES IDX 7 1 8 2 9 3 10 4 5 5 6 6 4 7 3 8 2 9 1 10 11 11
REMARK H PARENT
REMARK Flexibility Score: inf
ROOT
ATOM      1  C   UNL     1     -20.550  -4.243  19.011  1.00  0.00     0.001 A 
ATOM      2  C   UNL     1     -20.599  -2.986  18.399  1.00  0.00     0.004 A 
ATOM      3  C   UNL     1     -21.007  -1.863  19.128  1.00  0.00     0.048 A 
ATOM      4  C   UNL     1     -21.369  -1.996  20.473  1.00  0.00     0.138 A 
ATOM      5  C   UNL     1     -21.321  -3.266  21.091  1.00  0.00     0.018 A 
ATOM      6  C   UNL     1     -20.911  -4.386  20.355  1.00  0.00     0.012 A 
ATOM      7  C   UNL     1     -21.687  -3.366  22.436  1.00  0.00     0.019 A 
ATOM      8  C   UNL     1     -22.088  -2.220  23.124  1.00  0.00     0.094 A 
ATOM      9  C   UNL     1     -22.111  -0.996  22.446  1.00  0.00     0.336 A 
ATOM     10  O   UNL     1     -22.471   0.048  23.051  1.00  0.00    -0.246 OA
ATOM     11  O   UNL     1     -21.757  -0.928  21.166  1.00  0.00    -0.423 OA
ENDROOT
TORSDOF 0
ENDMDL
MODEL 2
REMARK VINA RESULT:    -5.093      1.975      4.328
REMARK INTER + INTRA:          -5.093
REMARK INTER:                  -5.093
REMARK INTRA:                   0.000
REMARK UNBOUND:                 0.000
REMARK SMILES O=c1ccc2ccccc2o1
REMARK SMILES IDX 7 1 8 2 9 3 10 4 5 5 6 6 4 7 3 8 2 9 1 10 11 11
REMARK H PARENT
REMARK Flexibility Score: inf
ROOT
ATOM      1  C   UNL     1     -22.131  -0.388  22.223  1.00  0.00     0.001 A 
ATOM      2  C   UNL     1     -22.134  -1.457  23.125  1.00  0.00     0.004 A 
ATOM      3  C   UNL     1     -21.755  -2.736  22.701  1.00  0.00     0.048 A 
ATOM      4  C   UNL     1     -21.372  -2.948  21.372  1.00  0.00     0.138 A 
ATOM      5  C   UNL     1     -21.370  -1.867  20.461  1.00  0.00     0.018 A 
ATOM      6  C   UNL     1     -21.751  -0.589  20.892  1.00  0.00     0.012 A 
ATOM      7  C   UNL     1     -20.982  -2.110  19.141  1.00  0.00     0.019 A 
ATOM      8  C   UNL     1     -20.611  -3.401  18.762  1.00  0.00     0.094 A 
ATOM      9  C   UNL     1     -20.638  -4.422  19.719  1.00  0.00     0.336 A 
ATOM     10  O   UNL     1     -20.308  -5.593  19.395  1.00  0.00    -0.246 OA
ATOM     11  O   UNL     1     -21.010  -4.164  20.969  1.00  0.00    -0.423 OA
ENDROOT
TORSDOF 0
ENDMDL
MODEL 3
REMARK VINA RESULT:    -5.017      1.716      2.672
REMARK INTER + INTRA:          -5.017
REMARK INTER:                  -5.017
REMARK INTRA:                   0.000
REMARK UNBOUND:                 0.000
REMARK SMILES O=c1ccc2ccccc2o1
REMARK SMILES IDX 7 1 8 2 9 3 10 4 5 5 6 6 4 7 3 8 2 9 1 10 11 11
REMARK H PARENT
REMARK Flexibility Score: inf
ROOT
ATOM      1  C   UNL     1     -19.800  -3.104  17.116  1.00  0.00     0.001 A 
ATOM      2  C   UNL     1     -19.272  -4.245  17.729  1.00  0.00     0.004 A 
ATOM      3  C   UNL     1     -19.541  -4.509  19.077  1.00  0.00     0.048 A 
ATOM      4  C   UNL     1     -20.340  -3.629  19.816  1.00  0.00     0.138 A 
ATOM      5  C   UNL     1     -20.873  -2.476  19.197  1.00  0.00     0.018 A 
ATOM      6  C   UNL     1     -20.600  -2.218  17.846  1.00  0.00     0.012 A 
ATOM      7  C   UNL     1     -21.668  -1.617  19.960  1.00  0.00     0.019 A 
ATOM      8  C   UNL     1     -21.911  -1.919  21.301  1.00  0.00     0.094 A 
ATOM      9  C   UNL     1     -21.349  -3.079  21.846  1.00  0.00     0.336 A 
ATOM     10  O   UNL     1     -21.556  -3.368  23.054  1.00  0.00    -0.246 OA
ATOM     11  O   UNL     1     -20.597  -3.880  21.097  1.00  0.00    -0.423 OA
ENDROOT
TORSDOF 0
ENDMDL
MODEL 4
REMARK VINA RESULT:    -4.897      1.625      2.755
REMARK INTER + INTRA:          -4.897
REMARK INTER:                  -4.897
REMARK INTRA:                   0.000
REMARK UNBOUND:                 0.000
REMARK SMILES O=c1ccc2ccccc2o1
REMARK SMILES IDX 7 1 8 2 9 3 10 4 5 5 6 6 4 7 3 8 2 9 1 10 11 11
REMARK H PARENT
REMARK Flexibility Score: inf
ROOT
ATOM      1  C   UNL     1     -21.193  -1.896  16.368  1.00  0.00     0.001 A 
ATOM      2  C   UNL     1     -22.325  -1.231  16.849  1.00  0.00     0.004 A 
ATOM      3  C   UNL     1     -22.631  -1.259  18.214  1.00  0.00     0.048 A 
ATOM      4  C   UNL     1     -21.802  -1.954  19.103  1.00  0.00     0.138 A 
ATOM      5  C   UNL     1     -20.659  -2.626  18.616  1.00  0.00     0.018 A 
ATOM      6  C   UNL     1     -20.358  -2.595  17.247  1.00  0.00     0.012 A 
ATOM      7  C   UNL     1     -19.851  -3.311  19.528  1.00  0.00     0.019 A 
ATOM      8  C   UNL     1     -20.193  -3.312  20.881  1.00  0.00     0.094 A 
ATOM      9  C   UNL     1     -21.341  -2.624  21.290  1.00  0.00     0.336 A 
ATOM     10  O   UNL     1     -21.666  -2.614  22.506  1.00  0.00    -0.246 OA
ATOM     11  O   UNL     1     -22.093  -1.979  20.402  1.00  0.00    -0.423 OA
ENDROOT
TORSDOF 0
ENDMDL
MODEL 5
REMARK VINA RESULT:    -4.855      3.157      3.998
REMARK INTER + INTRA:          -4.855
REMARK INTER:                  -4.855
REMARK INTRA:                   0.000
REMARK UNBOUND:                 0.000
REMARK SMILES O=c1ccc2ccccc2o1
REMARK SMILES IDX 7 1 8 2 9 3 10 4 5 5 6 6 4 7 3 8 2 9 1 10 11 11
REMARK H PARENT
REMARK Flexibility Score: inf
ROOT
ATOM      1  C   UNL     1     -19.063  -3.461  19.914  1.00  0.00     0.001 A 
ATOM      2  C   UNL     1     -18.743  -3.835  18.604  1.00  0.00     0.004 A 
ATOM      3  C   UNL     1     -19.549  -3.422  17.538  1.00  0.00     0.048 A 
ATOM      4  C   UNL     1     -20.679  -2.632  17.779  1.00  0.00     0.138 A 
ATOM      5  C   UNL     1     -21.001  -2.254  19.102  1.00  0.00     0.018 A 
ATOM      6  C   UNL     1     -20.190  -2.672  20.166  1.00  0.00     0.012 A 
ATOM      7  C   UNL     1     -22.135  -1.464  19.312  1.00  0.00     0.019 A 
ATOM      8  C   UNL     1     -22.910  -1.075  18.219  1.00  0.00     0.094 A 
ATOM      9  C   UNL     1     -22.529  -1.487  16.937  1.00  0.00     0.336 A 
ATOM     10  O   UNL     1     -23.216  -1.145  15.939  1.00  0.00    -0.246 OA
ATOM     11  O   UNL     1     -21.445  -2.237  16.765  1.00  0.00    -0.423 OA
ENDROOT
TORSDOF 0
ENDMDL
MODEL 6
REMARK VINA RESULT:    -4.844      2.999      4.205
REMARK INTER + INTRA:          -4.844
REMARK INTER:                  -4.844
REMARK INTRA:                   0.000
REMARK UNBOUND:                 0.000
REMARK SMILES O=c1ccc2ccccc2o1
REMARK SMILES IDX 7 1 8 2 9 3 10 4 5 5 6 6 4 7 3 8 2 9 1 10 11 11
REMARK H PARENT
REMARK Flexibility Score: inf
ROOT
ATOM      1  C   UNL     1     -22.945  -0.550  18.469  1.00  0.00     0.001 A 
ATOM      2  C   UNL     1     -22.914  -1.206  17.234  1.00  0.00     0.004 A 
ATOM      3  C   UNL     1     -22.060  -2.297  17.037  1.00  0.00     0.048 A 
ATOM      4  C   UNL     1     -21.233  -2.734  18.078  1.00  0.00     0.138 A 
ATOM      5  C   UNL     1     -21.264  -2.071  19.325  1.00  0.00     0.018 A 
ATOM      6  C   UNL     1     -22.122  -0.979  19.516  1.00  0.00     0.012 A 
ATOM      7  C   UNL     1     -20.427  -2.532  20.345  1.00  0.00     0.019 A 
ATOM      8  C   UNL     1     -19.592  -3.623  20.105  1.00  0.00     0.094 A 
ATOM      9  C   UNL     1     -19.615  -4.230  18.844  1.00  0.00     0.336 A 
ATOM     10  O   UNL     1     -18.867  -5.216  18.609  1.00  0.00    -0.246 OA
ATOM     11  O   UNL     1     -20.421  -3.772  17.891  1.00  0.00    -0.423 OA
ENDROOT
TORSDOF 0
ENDMDL
MODEL 7
REMARK VINA RESULT:    -3.403      1.870      3.931
REMARK INTER + INTRA:          -3.403
REMARK INTER:                  -3.403
REMARK INTRA:                   0.000
REMARK UNBOUND:                 0.000
REMARK SMILES O=c1ccc2ccccc2o1
REMARK SMILES IDX 7 1 8 2 9 3 10 4 5 5 6 6 4 7 3 8 2 9 1 10 11 11
REMARK H PARENT
REMARK Flexibility Score: inf
ROOT
ATOM      1  C   UNL     1     -22.825   1.451  22.428  1.00  0.00     0.001 A 
ATOM      2  C   UNL     1     -22.495   1.536  21.071  1.00  0.00     0.004 A 
ATOM      3  C   UNL     1     -21.978   0.422  20.401  1.00  0.00     0.048 A 
ATOM      4  C   UNL     1     -21.789  -0.782  21.089  1.00  0.00     0.138 A 
ATOM      5  C   UNL     1     -22.121  -0.868  22.459  1.00  0.00     0.018 A 
ATOM      6  C   UNL     1     -22.639   0.252  23.125  1.00  0.00     0.012 A 
ATOM      7  C   UNL     1     -21.921  -2.084  23.119  1.00  0.00     0.019 A 
ATOM      8  C   UNL     1     -21.403  -3.170  22.411  1.00  0.00     0.094 A 
ATOM      9  C   UNL     1     -21.097  -3.010  21.055  1.00  0.00     0.336 A 
ATOM     10  O   UNL     1     -20.628  -3.978  20.400  1.00  0.00    -0.246 OA
ATOM     11  O   UNL     1     -21.298  -1.842  20.451  1.00  0.00    -0.423 OA
ENDROOT
TORSDOF 0
ENDMDL
