MODEL 1
REMARK VINA RESULT:    -3.828      0.000      0.000
REMARK INTER + INTRA:          -4.176
REMARK INTER:                  -4.164
REMARK INTRA:                  -0.013
REMARK UNBOUND:                -0.013
REMARK SMILES OCc1ccco1
REMARK SMILES IDX 2 1 3 2 5 3 6 4 4 5 7 6 1 7
REMARK H PARENT 1 8
REMARK Flexibility Score: inf
ROOT
ATOM      1  C   UNL     1       0.642  -6.613 -33.384  1.00  0.00     0.231 C 
ENDROOT
BRANCH   1   2
ATOM      2  C   UNL     1      -0.038  -6.515 -32.056  1.00  0.00     0.129 A 
ATOM      3  C   UNL     1      -1.554  -6.264 -30.486  1.00  0.00     0.042 A 
ATOM      4  C   UNL     1      -0.328  -6.598 -29.945  1.00  0.00     0.195 A 
ATOM      5  C   UNL     1      -1.368  -6.213 -31.851  1.00  0.00     0.048 A 
ATOM      6  O   UNL     1       0.555  -6.744 -30.908  1.00  0.00    -0.467 OA
ENDBRANCH   1   2
BRANCH   1   7
ATOM      7  O   UNL     1       0.778  -5.339 -33.948  1.00  0.00    -0.388 OA
ATOM      8  H   UNL     1      -0.114  -5.090 -34.308  1.00  0.00     0.211 HD
ENDBRANCH   1   7
TORSDOF 2
ENDMDL
MODEL 2
REMARK VINA RESULT:    -3.756     13.666     14.680
REMARK INTER + INTRA:          -4.098
REMARK INTER:                  -4.079
REMARK INTRA:                  -0.019
REMARK UNBOUND:                -0.013
REMARK SMILES OCc1ccco1
REMARK SMILES IDX 2 1 3 2 5 3 6 4 4 5 7 6 1 7
REMARK H PARENT 1 8
REMARK Flexibility Score: inf
ROOT
ATOM      1  C   UNL     1      -1.704   4.283 -40.336  1.00  0.00     0.231 C 
ENDROOT
BRANCH   1   2
ATOM      2  C   UNL     1      -0.607   5.290 -40.205  1.00  0.00     0.129 A 
ATOM      3  C   UNL     1       0.773   6.955 -40.593  1.00  0.00     0.042 A 
ATOM      4  C   UNL     1       0.987   6.412 -39.341  1.00  0.00     0.195 A 
ATOM      5  C   UNL     1      -0.259   6.233 -41.151  1.00  0.00     0.048 A 
ATOM      6  O   UNL     1       0.146   5.423 -39.138  1.00  0.00    -0.467 OA
ENDBRANCH   1   2
BRANCH   1   7
ATOM      7  O   UNL     1      -2.469   4.251 -39.163  1.00  0.00    -0.388 OA
ATOM      8  H   UNL     1      -3.395   4.502 -39.421  1.00  0.00     0.211 HD
ENDBRANCH   1   7
TORSDOF 2
ENDMDL
MODEL 3
REMARK VINA RESULT:    -3.745      2.896      5.049
REMARK INTER + INTRA:          -4.085
REMARK INTER:                  -4.065
REMARK INTRA:                  -0.021
REMARK UNBOUND:                -0.013
REMARK SMILES OCc1ccco1
REMARK SMILES IDX 2 1 3 2 5 3 6 4 4 5 7 6 1 7
REMARK H PARENT 1 8
REMARK Flexibility Score: inf
ROOT
ATOM      1  C   UNL     1       1.059  -6.548 -33.724  1.00  0.00     0.231 C 
ENDROOT
BRANCH   1   2
ATOM      2  C   UNL     1       2.229  -6.824 -34.614  1.00  0.00     0.129 A 
ATOM      3  C   UNL     1       3.711  -7.836 -35.880  1.00  0.00     0.042 A 
ATOM      4  C   UNL     1       3.926  -6.472 -35.855  1.00  0.00     0.195 A 
ATOM      5  C   UNL     1       2.613  -8.065 -35.080  1.00  0.00     0.048 A 
ATOM      6  O   UNL     1       3.023  -5.897 -35.094  1.00  0.00    -0.467 OA
ENDBRANCH   1   2
BRANCH   1   7
ATOM      7  O   UNL     1       0.618  -5.232 -33.907  1.00  0.00    -0.388 OA
ATOM      8  H   UNL     1       0.113  -5.217 -34.762  1.00  0.00     0.211 HD
ENDBRANCH   1   7
TORSDOF 2
ENDMDL
MODEL 4
REMARK VINA RESULT:    -3.713     12.342     13.298
REMARK INTER + INTRA:          -4.051
REMARK INTER:                  -4.035
REMARK INTRA:                  -0.016
REMARK UNBOUND:                -0.013
REMARK SMILES OCc1ccco1
REMARK SMILES IDX 2 1 3 2 5 3 6 4 4 5 7 6 1 7
REMARK H PARENT 1 8
REMARK Flexibility Score: inf
ROOT
ATOM      1  C   UNL     1     -10.678   2.012 -35.392  1.00  0.00     0.231 C 
ENDROOT
BRANCH   1   2
ATOM      2  C   UNL     1     -10.193   1.040 -36.420  1.00  0.00     0.129 A 
ATOM      3  C   UNL     1     -10.120  -0.414 -38.065  1.00  0.00     0.042 A 
ATOM      4  C   UNL     1      -8.850  -0.094 -37.626  1.00  0.00     0.195 A 
ATOM      5  C   UNL     1     -10.990   0.320 -37.288  1.00  0.00     0.048 A 
ATOM      6  O   UNL     1      -8.928   0.778 -36.647  1.00  0.00    -0.467 OA
ENDBRANCH   1   2
BRANCH   1   7
ATOM      7  O   UNL     1     -10.150   1.685 -34.137  1.00  0.00    -0.388 OA
ATOM      8  H   UNL     1     -10.708   2.156 -33.463  1.00  0.00     0.211 HD
ENDBRANCH   1   7
TORSDOF 2
ENDMDL
MODEL 5
REMARK VINA RESULT:    -3.670     13.616     14.541
REMARK INTER + INTRA:          -4.004
REMARK INTER:                  -3.986
REMARK INTRA:                  -0.018
REMARK UNBOUND:                -0.013
REMARK SMILES OCc1ccco1
REMARK SMILES IDX 2 1 3 2 5 3 6 4 4 5 7 6 1 7
REMARK H PARENT 1 8
REMARK Flexibility Score: inf
ROOT
ATOM      1  C   UNL     1       0.883   6.414 -39.214  1.00  0.00     0.231 C 
ENDROOT
BRANCH   1   2
ATOM      2  C   UNL     1      -0.173   5.630 -39.925  1.00  0.00     0.129 A 
ATOM      3  C   UNL     1      -1.517   4.840 -41.473  1.00  0.00     0.042 A 
ATOM      4  C   UNL     1      -1.685   4.170 -40.277  1.00  0.00     0.195 A 
ATOM      5  C   UNL     1      -0.538   5.783 -41.248  1.00  0.00     0.048 A 
ATOM      6  O   UNL     1      -0.867   4.662 -39.375  1.00  0.00    -0.467 OA
ENDBRANCH   1   2
BRANCH   1   7
ATOM      7  O   UNL     1       0.454   6.732 -37.919  1.00  0.00    -0.388 OA
ATOM      8  H   UNL     1       1.267   6.975 -37.402  1.00  0.00     0.211 HD
ENDBRANCH   1   7
TORSDOF 2
ENDMDL
MODEL 6
REMARK VINA RESULT:    -3.666      1.595      2.238
REMARK INTER + INTRA:          -4.000
REMARK INTER:                  -3.985
REMARK INTRA:                  -0.015
REMARK UNBOUND:                -0.013
REMARK SMILES OCc1ccco1
REMARK SMILES IDX 2 1 3 2 5 3 6 4 4 5 7 6 1 7
REMARK H PARENT 1 8
REMARK Flexibility Score: inf
ROOT
ATOM      1  C   UNL     1       0.746  -6.677 -33.551  1.00  0.00     0.231 C 
ENDROOT
BRANCH   1   2
ATOM      2  C   UNL     1       1.163  -6.823 -32.122  1.00  0.00     0.129 A 
ATOM      3  C   UNL     1       2.358  -7.134 -30.305  1.00  0.00     0.042 A 
ATOM      4  C   UNL     1       1.052  -6.813 -29.994  1.00  0.00     0.195 A 
ATOM      5  C   UNL     1       2.433  -7.138 -31.681  1.00  0.00     0.048 A 
ATOM      6  O   UNL     1       0.365  -6.630 -31.099  1.00  0.00    -0.467 OA
ENDBRANCH   1   2
BRANCH   1   7
ATOM      7  O   UNL     1       0.739  -5.324 -33.912  1.00  0.00    -0.388 OA
ATOM      8  H   UNL     1       1.689  -5.044 -33.987  1.00  0.00     0.211 HD
ENDBRANCH   1   7
TORSDOF 2
ENDMDL
MODEL 7
REMARK VINA RESULT:    -3.608      9.131     10.074
REMARK INTER + INTRA:          -3.937
REMARK INTER:                  -3.919
REMARK INTRA:                  -0.018
REMARK UNBOUND:                -0.013
REMARK SMILES OCc1ccco1
REMARK SMILES IDX 2 1 3 2 5 3 6 4 4 5 7 6 1 7
REMARK H PARENT 1 8
REMARK Flexibility Score: inf
ROOT
ATOM      1  C   UNL     1      -7.677  -3.026 -39.527  1.00  0.00     0.231 C 
ENDROOT
BRANCH   1   2
ATOM      2  C   UNL     1      -6.402  -3.780 -39.330  1.00  0.00     0.129 A 
ATOM      3  C   UNL     1      -4.398  -4.632 -39.627  1.00  0.00     0.042 A 
ATOM      4  C   UNL     1      -4.898  -4.955 -38.381  1.00  0.00     0.195 A 
ATOM      5  C   UNL     1      -5.369  -3.869 -40.241  1.00  0.00     0.048 A 
ATOM      6  O   UNL     1      -6.093  -4.430 -38.233  1.00  0.00    -0.467 OA
ENDBRANCH   1   2
BRANCH   1   7
ATOM      7  O   UNL     1      -7.925  -2.205 -38.420  1.00  0.00    -0.388 OA
ATOM      8  H   UNL     1      -7.715  -1.276 -38.702  1.00  0.00     0.211 HD
ENDBRANCH   1   7
TORSDOF 2
ENDMDL
MODEL 8
REMARK VINA RESULT:    -3.572      9.209     10.028
REMARK INTER + INTRA:          -3.898
REMARK INTER:                  -3.879
REMARK INTRA:                  -0.018
REMARK UNBOUND:                -0.013
REMARK SMILES OCc1ccco1
REMARK SMILES IDX 2 1 3 2 5 3 6 4 4 5 7 6 1 7
REMARK H PARENT 1 8
REMARK Flexibility Score: inf
ROOT
ATOM      1  C   UNL     1       3.010  -0.131 -39.469  1.00  0.00     0.231 C 
ENDROOT
BRANCH   1   2
ATOM      2  C   UNL     1       3.923  -1.303 -39.301  1.00  0.00     0.129 A 
ATOM      3  C   UNL     1       5.715  -2.565 -39.150  1.00  0.00     0.042 A 
ATOM      4  C   UNL     1       4.570  -3.293 -38.895  1.00  0.00     0.195 A 
ATOM      5  C   UNL     1       5.298  -1.277 -39.410  1.00  0.00     0.048 A 
ATOM      6  O   UNL     1       3.518  -2.512 -38.990  1.00  0.00    -0.467 OA
ENDBRANCH   1   2
BRANCH   1   7
ATOM      7  O   UNL     1       2.123  -0.055 -38.388  1.00  0.00    -0.388 OA
ATOM      8  H   UNL     1       2.379  -0.780 -37.759  1.00  0.00     0.211 HD
ENDBRANCH   1   7
TORSDOF 2
ENDMDL
MODEL 9
REMARK VINA RESULT:    -3.553     11.830     12.575
REMARK INTER + INTRA:          -3.877
REMARK INTER:                  -3.859
REMARK INTRA:                  -0.018
REMARK UNBOUND:                -0.013
REMARK SMILES OCc1ccco1
REMARK SMILES IDX 2 1 3 2 5 3 6 4 4 5 7 6 1 7
REMARK H PARENT 1 8
REMARK Flexibility Score: inf
ROOT
ATOM      1  C   UNL     1      -9.690   0.433 -37.227  1.00  0.00     0.231 C 
ENDROOT
BRANCH   1   2
ATOM      2  C   UNL     1      -9.277  -0.628 -38.196  1.00  0.00     0.129 A 
ATOM      3  C   UNL     1      -9.312  -2.192 -39.739  1.00  0.00     0.042 A 
ATOM      4  C   UNL     1      -8.018  -1.903 -39.351  1.00  0.00     0.195 A 
ATOM      5  C   UNL     1     -10.127  -1.366 -38.995  1.00  0.00     0.048 A 
ATOM      6  O   UNL     1      -8.031  -0.964 -38.432  1.00  0.00    -0.467 OA
ENDBRANCH   1   2
BRANCH   1   7
ATOM      7  O   UNL     1      -8.960   0.307 -36.038  1.00  0.00    -0.388 OA
ATOM      8  H   UNL     1      -8.158   0.884 -36.135  1.00  0.00     0.211 HD
ENDBRANCH   1   7
TORSDOF 2
ENDMDL
