MODEL 1
REMARK VINA RESULT:    -2.880      0.000      0.000
REMARK INTER + INTRA:          -3.069
REMARK INTER:                  -3.049
REMARK INTRA:                  -0.020
REMARK UNBOUND:                -0.020
REMARK SMILES O=C([O-])c1cccnc1
REMARK SMILES IDX 4 1 5 2 9 3 6 4 8 5 7 6 2 7 1 8 3 9
REMARK H PARENT
REMARK Flexibility Score: inf
ROOT
ATOM      1  C   UNL     1     -33.413  44.390  37.251  1.00  0.00     0.016 A 
ATOM      2  C   UNL     1     -32.848  43.357  38.016  1.00  0.00     0.013 A 
ATOM      3  C   UNL     1     -32.982  44.550  35.922  1.00  0.00     0.120 A 
ATOM      4  C   UNL     1     -31.882  42.518  37.458  1.00  0.00     0.021 A 
ATOM      5  N   UNL     1     -32.040  43.718  35.402  1.00  0.00    -0.264 NA
ATOM      6  C   UNL     1     -31.487  42.715  36.134  1.00  0.00     0.111 A 
ENDROOT
BRANCH   1   7
ATOM      7  C   UNL     1     -34.436  45.286  37.832  1.00  0.00     0.073 C 
ATOM      8  O   UNL     1     -35.388  44.817  38.509  1.00  0.00    -0.545 OA
ATOM      9  O   UNL     1     -34.359  46.661  37.638  1.00  0.00    -0.545 OA
ENDBRANCH   1   7
TORSDOF 1
ENDMDL
MODEL 2
REMARK VINA RESULT:    -2.868     20.422     20.767
REMARK INTER + INTRA:          -3.056
REMARK INTER:                  -3.039
REMARK INTRA:                  -0.017
REMARK UNBOUND:                -0.020
REMARK SMILES O=C([O-])c1cccnc1
REMARK SMILES IDX 4 1 5 2 9 3 6 4 8 5 7 6 2 7 1 8 3 9
REMARK H PARENT
REMARK Flexibility Score: inf
ROOT
ATOM      1  C   UNL     1     -18.924  58.912  34.368  1.00  0.00     0.016 A 
ATOM      2  C   UNL     1     -18.318  57.884  33.629  1.00  0.00     0.013 A 
ATOM      3  C   UNL     1     -18.608  59.030  35.733  1.00  0.00     0.120 A 
ATOM      4  C   UNL     1     -17.425  57.007  34.249  1.00  0.00     0.021 A 
ATOM      5  N   UNL     1     -17.735  58.163  36.312  1.00  0.00    -0.264 NA
ATOM      6  C   UNL     1     -17.143  57.165  35.606  1.00  0.00     0.111 A 
ENDROOT
BRANCH   1   7
ATOM      7  C   UNL     1     -19.872  59.846  33.724  1.00  0.00     0.073 C 
ATOM      8  O   UNL     1     -20.991  59.441  33.312  1.00  0.00    -0.545 OA
ATOM      9  O   UNL     1     -19.539  61.188  33.563  1.00  0.00    -0.545 OA
ENDBRANCH   1   7
TORSDOF 1
ENDMDL
MODEL 3
REMARK VINA RESULT:    -2.865     20.426     20.748
REMARK INTER + INTRA:          -3.052
REMARK INTER:                  -3.029
REMARK INTRA:                  -0.023
REMARK UNBOUND:                -0.020
REMARK SMILES O=C([O-])c1cccnc1
REMARK SMILES IDX 4 1 5 2 9 3 6 4 8 5 7 6 2 7 1 8 3 9
REMARK H PARENT
REMARK Flexibility Score: inf
ROOT
ATOM      1  C   UNL     1     -17.350  56.946  35.353  1.00  0.00     0.016 A 
ATOM      2  C   UNL     1     -17.702  56.949  33.993  1.00  0.00     0.013 A 
ATOM      3  C   UNL     1     -17.798  58.006  36.161  1.00  0.00     0.120 A 
ATOM      4  C   UNL     1     -18.479  57.985  33.472  1.00  0.00     0.021 A 
ATOM      5  N   UNL     1     -18.553  59.002  35.628  1.00  0.00    -0.264 NA
ATOM      6  C   UNL     1     -18.900  59.014  34.315  1.00  0.00     0.111 A 
ENDROOT
BRANCH   1   7
ATOM      7  C   UNL     1     -16.527  55.854  35.917  1.00  0.00     0.073 C 
ATOM      8  O   UNL     1     -16.404  54.762  35.302  1.00  0.00    -0.545 OA
ATOM      9  O   UNL     1     -15.876  56.020  37.135  1.00  0.00    -0.545 OA
ENDBRANCH   1   7
TORSDOF 1
ENDMDL
MODEL 4
REMARK VINA RESULT:    -2.855     20.257     20.667
REMARK INTER + INTRA:          -3.042
REMARK INTER:                  -3.020
REMARK INTRA:                  -0.022
REMARK UNBOUND:                -0.020
REMARK SMILES O=C([O-])c1cccnc1
REMARK SMILES IDX 4 1 5 2 9 3 6 4 8 5 7 6 2 7 1 8 3 9
REMARK H PARENT
REMARK Flexibility Score: inf
ROOT
ATOM      1  C   UNL     1     -17.402  56.926  35.367  1.00  0.00     0.016 A 
ATOM      2  C   UNL     1     -17.809  57.999  36.177  1.00  0.00     0.013 A 
ATOM      3  C   UNL     1     -17.757  56.942  34.007  1.00  0.00     0.120 A 
ATOM      4  C   UNL     1     -18.549  59.049  35.630  1.00  0.00     0.021 A 
ATOM      5  N   UNL     1     -18.478  57.978  33.500  1.00  0.00    -0.264 NA
ATOM      6  C   UNL     1     -18.877  59.020  34.274  1.00  0.00     0.111 A 
ENDROOT
BRANCH   1   7
ATOM      7  C   UNL     1     -16.618  55.808  35.935  1.00  0.00     0.073 C 
ATOM      8  O   UNL     1     -16.612  54.680  35.375  1.00  0.00    -0.545 OA
ATOM      9  O   UNL     1     -15.875  55.988  37.098  1.00  0.00    -0.545 OA
ENDBRANCH   1   7
TORSDOF 1
ENDMDL
MODEL 5
REMARK VINA RESULT:    -2.824     20.336     20.651
REMARK INTER + INTRA:          -3.009
REMARK INTER:                  -2.992
REMARK INTRA:                  -0.017
REMARK UNBOUND:                -0.020
REMARK SMILES O=C([O-])c1cccnc1
REMARK SMILES IDX 4 1 5 2 9 3 6 4 8 5 7 6 2 7 1 8 3 9
REMARK H PARENT
REMARK Flexibility Score: inf
ROOT
ATOM      1  C   UNL     1     -18.918  58.767  34.339  1.00  0.00     0.016 A 
ATOM      2  C   UNL     1     -18.603  58.876  35.703  1.00  0.00     0.013 A 
ATOM      3  C   UNL     1     -18.265  57.782  33.579  1.00  0.00     0.120 A 
ATOM      4  C   UNL     1     -17.661  58.019  36.276  1.00  0.00     0.021 A 
ATOM      5  N   UNL     1     -17.352  56.959  34.162  1.00  0.00    -0.264 NA
ATOM      6  C   UNL     1     -17.040  57.056  35.480  1.00  0.00     0.111 A 
ENDROOT
BRANCH   1   7
ATOM      7  C   UNL     1     -19.913  59.670  33.721  1.00  0.00     0.073 C 
ATOM      8  O   UNL     1     -21.055  59.244  33.403  1.00  0.00    -0.545 OA
ATOM      9  O   UNL     1     -19.601  61.005  33.482  1.00  0.00    -0.545 OA
ENDBRANCH   1   7
TORSDOF 1
ENDMDL
MODEL 6
REMARK VINA RESULT:    -2.663     20.492     20.832
REMARK INTER + INTRA:          -2.838
REMARK INTER:                  -2.817
REMARK INTRA:                  -0.021
REMARK UNBOUND:                -0.020
REMARK SMILES O=C([O-])c1cccnc1
REMARK SMILES IDX 4 1 5 2 9 3 6 4 8 5 7 6 2 7 1 8 3 9
REMARK H PARENT
REMARK Flexibility Score: inf
ROOT
ATOM      1  C   UNL     1     -17.754  57.742  35.516  1.00  0.00     0.016 A 
ATOM      2  C   UNL     1     -16.645  56.883  35.594  1.00  0.00     0.013 A 
ATOM      3  C   UNL     1     -18.207  58.357  36.697  1.00  0.00     0.120 A 
ATOM      4  C   UNL     1     -16.019  56.655  36.820  1.00  0.00     0.021 A 
ATOM      5  N   UNL     1     -17.578  58.118  37.879  1.00  0.00    -0.264 NA
ATOM      6  C   UNL     1     -16.505  57.289  37.964  1.00  0.00     0.111 A 
ENDROOT
BRANCH   1   7
ATOM      7  C   UNL     1     -18.426  57.990  34.223  1.00  0.00     0.073 C 
ATOM      8  O   UNL     1     -18.925  59.118  33.966  1.00  0.00    -0.545 OA
ATOM      9  O   UNL     1     -18.516  56.981  33.270  1.00  0.00    -0.545 OA
ENDBRANCH   1   7
TORSDOF 1
ENDMDL
MODEL 7
REMARK VINA RESULT:    -2.647     20.594     20.814
REMARK INTER + INTRA:          -2.822
REMARK INTER:                  -2.799
REMARK INTRA:                  -0.023
REMARK UNBOUND:                -0.020
REMARK SMILES O=C([O-])c1cccnc1
REMARK SMILES IDX 4 1 5 2 9 3 6 4 8 5 7 6 2 7 1 8 3 9
REMARK H PARENT
REMARK Flexibility Score: inf
ROOT
ATOM      1  C   UNL     1     -18.086  58.431  36.170  1.00  0.00     0.016 A 
ATOM      2  C   UNL     1     -17.346  57.320  35.735  1.00  0.00     0.013 A 
ATOM      3  C   UNL     1     -18.858  59.131  35.227  1.00  0.00     0.120 A 
ATOM      4  C   UNL     1     -17.386  56.933  34.394  1.00  0.00     0.021 A 
ATOM      5  N   UNL     1     -18.879  58.732  33.927  1.00  0.00    -0.264 NA
ATOM      6  C   UNL     1     -18.167  57.659  33.495  1.00  0.00     0.111 A 
ENDROOT
BRANCH   1   7
ATOM      7  C   UNL     1     -18.051  58.852  37.587  1.00  0.00     0.073 C 
ATOM      8  O   UNL     1     -17.742  58.031  38.492  1.00  0.00    -0.545 OA
ATOM      9  O   UNL     1     -18.359  60.161  37.941  1.00  0.00    -0.545 OA
ENDBRANCH   1   7
TORSDOF 1
ENDMDL
MODEL 8
REMARK VINA RESULT:    -2.543      2.912      3.942
REMARK INTER + INTRA:          -2.711
REMARK INTER:                  -2.690
REMARK INTRA:                  -0.022
REMARK UNBOUND:                -0.020
REMARK SMILES O=C([O-])c1cccnc1
REMARK SMILES IDX 4 1 5 2 9 3 6 4 8 5 7 6 2 7 1 8 3 9
REMARK H PARENT
REMARK Flexibility Score: inf
ROOT
ATOM      1  C   UNL     1     -32.586  43.695  37.080  1.00  0.00     0.016 A 
ATOM      2  C   UNL     1     -33.640  44.607  36.910  1.00  0.00     0.013 A 
ATOM      3  C   UNL     1     -32.416  43.099  38.342  1.00  0.00     0.120 A 
ATOM      4  C   UNL     1     -34.489  44.905  37.977  1.00  0.00     0.021 A 
ATOM      5  N   UNL     1     -33.258  43.406  39.364  1.00  0.00    -0.264 NA
ATOM      6  C   UNL     1     -34.281  44.287  39.210  1.00  0.00     0.111 A 
ENDROOT
BRANCH   1   7
ATOM      7  C   UNL     1     -31.679  43.372  35.958  1.00  0.00     0.073 C 
ATOM      8  O   UNL     1     -31.412  44.236  35.081  1.00  0.00    -0.545 OA
ATOM      9  O   UNL     1     -31.106  42.108  35.856  1.00  0.00    -0.545 OA
ENDBRANCH   1   7
TORSDOF 1
ENDMDL
MODEL 9
REMARK VINA RESULT:    -2.540      1.585      2.096
REMARK INTER + INTRA:          -2.708
REMARK INTER:                  -2.688
REMARK INTRA:                  -0.020
REMARK UNBOUND:                -0.020
REMARK SMILES O=C([O-])c1cccnc1
REMARK SMILES IDX 4 1 5 2 9 3 6 4 8 5 7 6 2 7 1 8 3 9
REMARK H PARENT
REMARK Flexibility Score: inf
ROOT
ATOM      1  C   UNL     1     -33.083  45.255  37.211  1.00  0.00     0.016 A 
ATOM      2  C   UNL     1     -33.130  44.434  36.073  1.00  0.00     0.013 A 
ATOM      3  C   UNL     1     -31.831  45.729  37.642  1.00  0.00     0.120 A 
ATOM      4  C   UNL     1     -31.954  44.106  35.396  1.00  0.00     0.021 A 
ATOM      5  N   UNL     1     -30.701  45.395  36.964  1.00  0.00    -0.264 NA
ATOM      6  C   UNL     1     -30.736  44.602  35.861  1.00  0.00     0.111 A 
ENDROOT
BRANCH   1   7
ATOM      7  C   UNL     1     -34.321  45.609  37.937  1.00  0.00     0.073 C 
ATOM      8  O   UNL     1     -34.494  46.776  38.379  1.00  0.00    -0.545 OA
ATOM      9  O   UNL     1     -35.315  44.656  38.142  1.00  0.00    -0.545 OA
ENDBRANCH   1   7
TORSDOF 1
ENDMDL
