MODEL 1
REMARK VINA RESULT:    -5.919      0.000      0.000
REMARK INTER + INTRA:         -19.564
REMARK INTER:                 -14.051
REMARK INTRA:                  -5.513
REMARK UNBOUND:                -5.513
REMARK SMILES O=C(OC[C@H]1O[C@H](OC(=O)c2cc(O)c(O)c(O)c2)[C@H](OC(=O)c2cc(O)c(O)c(O)c2)[C@@H](OC(=O)c2cc(O)c(O)c(O)c2)[C@H]1OC(=O)c1cc(O)c(O)c(O)c1)c1cc(O)c(O)c(O)c1
REMARK SMILES IDX 5 1 46 2 33 3 20 4 7 5 6 6 4 7 3 8 2 9 1 10 59 11 60 12
REMARK SMILES IDX 61 13 67 14 63 15 65 16 62 17 64 19 66 21 47 23 48 24 49 25
REMARK SMILES IDX 50 26 58 27 51 28 56 29 52 30 54 31 57 32 53 34 55 36 34 38
REMARK SMILES IDX 35 39 36 40 37 41 45 42 38 43 43 44 39 45 41 46 44 47 40 49
REMARK SMILES IDX 42 51 8 53 9 54 10 55 11 56 19 57 12 58 17 59 13 60 15 61
REMARK SMILES IDX 18 62 14 64 16 66 21 68 22 69 23 70 24 71 32 72 25 73 30 74
REMARK SMILES IDX 26 75 28 76 31 77 27 79 29 81
REMARK H PARENT 62 18 64 20 66 22 57 33 53 35 55 37 44 48 40 50 42 52 18 63
REMARK H PARENT 14 65 16 67 31 78 27 80 29 82
REMARK Flexibility Score: inf
ROOT
ATOM      1  C   UNL     1       2.260   4.063   6.941  1.00  0.00     0.205 C 
ATOM      2  C   UNL     1       1.484   5.366   6.676  1.00  0.00     0.254 C 
ATOM      3  C   UNL     1       0.009   5.094   6.991  1.00  0.00     0.267 C 
ATOM      4  C   UNL     1      -0.128   4.606   8.445  1.00  0.00     0.290 C 
ATOM      5  C   UNL     1       0.823   3.411   8.683  1.00  0.00     0.357 C 
ATOM      6  O   UNL     1       2.165   3.708   8.314  1.00  0.00    -0.329 OA
ENDROOT
BRANCH   1   7
ATOM      7  C   UNL     1       3.745   4.176   6.550  1.00  0.00     0.269 C 
BRANCH   7   8
ATOM      8  O   UNL     1       4.544   4.216   7.728  1.00  0.00    -0.459 OA
BRANCH   8   9
ATOM      9  C   UNL     1       5.864   3.745   7.756  1.00  0.00     0.338 C 
ATOM     10  O   UNL     1       6.795   4.452   7.275  1.00  0.00    -0.246 OA
BRANCH   9  11
ATOM     11  C   UNL     1       6.160   2.410   8.316  1.00  0.00     0.067 A 
ATOM     12  C   UNL     1       5.120   1.587   8.768  1.00  0.00     0.066 A 
ATOM     13  C   UNL     1       5.387   0.344   9.347  1.00  0.00     0.162 A 
ATOM     14  C   UNL     1       7.493   1.968   8.443  1.00  0.00     0.066 A 
ATOM     15  C   UNL     1       6.727  -0.082   9.507  1.00  0.00     0.200 A 
ATOM     16  C   UNL     1       7.773   0.737   9.045  1.00  0.00     0.162 A 
BRANCH  13  17
ATOM     17  O   UNL     1       4.297  -0.435   9.737  1.00  0.00    -0.504 OA
ATOM     18  H   UNL     1       3.449  -0.055  10.120  1.00  0.00     0.293 HD
ENDBRANCH  13  17
BRANCH  15  19
ATOM     19  O   UNL     1       7.050  -1.297  10.120  1.00  0.00    -0.502 OA
ATOM     20  H   UNL     1       7.253  -1.405  11.102  1.00  0.00     0.293 HD
ENDBRANCH  15  19
BRANCH  16  21
ATOM     21  O   UNL     1       9.106   0.346   9.177  1.00  0.00    -0.504 OA
ATOM     22  H   UNL     1       9.369  -0.617   9.349  1.00  0.00     0.293 HD
ENDBRANCH  16  21
ENDBRANCH   9  11
ENDBRANCH   8   9
ENDBRANCH   7   8
ENDBRANCH   1   7
BRANCH   2  23
ATOM     23  O   UNL     1       1.957   6.407   7.533  1.00  0.00    -0.452 OA
BRANCH  23  24
ATOM     24  C   UNL     1       2.485   7.623   7.077  1.00  0.00     0.338 C 
ATOM     25  O   UNL     1       1.873   8.697   7.311  1.00  0.00    -0.246 OA
BRANCH  24  26
ATOM     26  C   UNL     1       3.768   7.631   6.341  1.00  0.00     0.067 A 
ATOM     27  C   UNL     1       3.792   7.631   4.934  1.00  0.00     0.066 A 
ATOM     28  C   UNL     1       4.983   7.582   7.044  1.00  0.00     0.066 A 
ATOM     29  C   UNL     1       5.013   7.569   4.241  1.00  0.00     0.162 A 
ATOM     30  C   UNL     1       6.200   7.530   6.358  1.00  0.00     0.162 A 
ATOM     31  C   UNL     1       6.221   7.521   4.956  1.00  0.00     0.200 A 
BRANCH  29  32
ATOM     32  O   UNL     1       5.028   7.547   2.849  1.00  0.00    -0.504 OA
ATOM     33  H   UNL     1       5.273   8.369   2.309  1.00  0.00     0.293 HD
ENDBRANCH  29  32
BRANCH  30  34
ATOM     34  O   UNL     1       7.384   7.481   7.092  1.00  0.00    -0.504 OA
ATOM     35  H   UNL     1       7.825   6.602   7.346  1.00  0.00     0.293 HD
ENDBRANCH  30  34
BRANCH  31  36
ATOM     36  O   UNL     1       7.445   7.457   4.293  1.00  0.00    -0.502 OA
ATOM     37  H   UNL     1       7.705   8.117   3.571  1.00  0.00     0.293 HD
ENDBRANCH  31  36
ENDBRANCH  24  26
ENDBRANCH  23  24
ENDBRANCH   2  23
BRANCH   3  38
ATOM     38  O   UNL     1      -0.772   6.267   6.763  1.00  0.00    -0.450 OA
BRANCH  38  39
ATOM     39  C   UNL     1      -0.992   6.791   5.481  1.00  0.00     0.338 C 
ATOM     40  O   UNL     1      -0.038   7.310   4.840  1.00  0.00    -0.246 OA
BRANCH  39  41
ATOM     41  C   UNL     1      -2.336   6.718   4.868  1.00  0.00     0.067 A 
ATOM     42  C   UNL     1      -2.481   6.388   3.510  1.00  0.00     0.066 A 
ATOM     43  C   UNL     1      -3.483   6.974   5.638  1.00  0.00     0.066 A 
ATOM     44  C   UNL     1      -3.749   6.320   2.926  1.00  0.00     0.162 A 
ATOM     45  C   UNL     1      -4.757   6.913   5.065  1.00  0.00     0.162 A 
ATOM     46  C   UNL     1      -4.895   6.592   3.690  1.00  0.00     0.200 A 
BRANCH  44  47
ATOM     47  O   UNL     1      -3.873   5.977   1.578  1.00  0.00    -0.504 OA
ATOM     48  H   UNL     1      -3.687   5.033   1.248  1.00  0.00     0.293 HD
ENDBRANCH  44  47
BRANCH  45  49
ATOM     49  O   UNL     1      -5.849   7.180   5.891  1.00  0.00    -0.504 OA
ATOM     50  H   UNL     1      -5.813   7.783   6.700  1.00  0.00     0.293 HD
ENDBRANCH  45  49
BRANCH  46  51
ATOM     51  O   UNL     1      -6.135   6.535   3.046  1.00  0.00    -0.502 OA
ATOM     52  H   UNL     1      -6.688   7.354   2.820  1.00  0.00     0.293 HD
ENDBRANCH  46  51
ENDBRANCH  39  41
ENDBRANCH  38  39
ENDBRANCH   3  38
BRANCH   5  53
ATOM     53  O   UNL     1       0.351   2.253   7.997  1.00  0.00    -0.428 OA
BRANCH  53  54
ATOM     54  C   UNL     1       0.529   0.950   8.475  1.00  0.00     0.340 C 
ATOM     55  O   UNL     1       1.680   0.509   8.721  1.00  0.00    -0.246 OA
BRANCH  54  56
ATOM     56  C   UNL     1      -0.649   0.096   8.696  1.00  0.00     0.067 A 
ATOM     57  C   UNL     1      -0.515  -1.181   9.255  1.00  0.00     0.066 A 
ATOM     58  C   UNL     1      -1.924   0.566   8.360  1.00  0.00     0.066 A 
ATOM     59  C   UNL     1      -1.637  -1.979   9.510  1.00  0.00     0.162 A 
ATOM     60  C   UNL     1      -3.054  -0.223   8.578  1.00  0.00     0.162 A 
ATOM     61  C   UNL     1      -2.928  -1.497   9.171  1.00  0.00     0.200 A 
BRANCH  59  62
ATOM     62  O   UNL     1      -1.421  -3.227  10.101  1.00  0.00    -0.504 OA
ATOM     63  H   UNL     1      -1.886  -3.543  10.945  1.00  0.00     0.293 HD
ENDBRANCH  59  62
BRANCH  60  64
ATOM     64  O   UNL     1      -4.298   0.276   8.192  1.00  0.00    -0.504 OA
ATOM     65  H   UNL     1      -5.164  -0.198   8.430  1.00  0.00     0.293 HD
ENDBRANCH  60  64
BRANCH  61  66
ATOM     66  O   UNL     1      -4.090  -2.245   9.409  1.00  0.00    -0.502 OA
ATOM     67  H   UNL     1      -4.548  -2.311  10.309  1.00  0.00     0.293 HD
ENDBRANCH  61  66
ENDBRANCH  54  56
ENDBRANCH  53  54
ENDBRANCH   5  53
BRANCH   4  68
ATOM     68  O   UNL     1      -1.463   4.168   8.692  1.00  0.00    -0.448 OA
BRANCH  68  69
ATOM     69  C   UNL     1      -2.448   4.950   9.302  1.00  0.00     0.339 C 
ATOM     70  O   UNL     1      -2.133   6.017   9.900  1.00  0.00    -0.246 OA
BRANCH  69  71
ATOM     71  C   UNL     1      -3.858   4.512   9.255  1.00  0.00     0.067 A 
ATOM     72  C   UNL     1      -4.836   5.297   8.631  1.00  0.00     0.066 A 
ATOM     73  C   UNL     1      -4.237   3.289   9.832  1.00  0.00     0.066 A 
ATOM     74  C   UNL     1      -6.170   4.867   8.569  1.00  0.00     0.162 A 
ATOM     75  C   UNL     1      -5.563   2.849   9.773  1.00  0.00     0.162 A 
ATOM     76  C   UNL     1      -6.536   3.637   9.140  1.00  0.00     0.200 A 
BRANCH  74  77
ATOM     77  O   UNL     1      -7.132   5.653   7.934  1.00  0.00    -0.504 OA
ATOM     78  H   UNL     1      -7.055   6.664   7.902  1.00  0.00     0.293 HD
ENDBRANCH  74  77
BRANCH  75  79
ATOM     79  O   UNL     1      -5.896   1.622  10.348  1.00  0.00    -0.504 OA
ATOM     80  H   UNL     1      -5.797   1.444  11.338  1.00  0.00     0.293 HD
ENDBRANCH  75  79
BRANCH  76  81
ATOM     81  O   UNL     1      -7.858   3.190   9.084  1.00  0.00    -0.502 OA
ATOM     82  H   UNL     1      -8.289   2.874   8.229  1.00  0.00     0.293 HD
ENDBRANCH  76  81
ENDBRANCH  69  71
ENDBRANCH  68  69
ENDBRANCH   4  68
TORSDOF 31
ENDMDL
MODEL 2
REMARK VINA RESULT:    -5.739      1.796     11.313
REMARK INTER + INTRA:         -19.135
REMARK INTER:                 -13.917
REMARK INTRA:                  -5.218
REMARK UNBOUND:                -5.513
REMARK SMILES O=C(OC[C@H]1O[C@H](OC(=O)c2cc(O)c(O)c(O)c2)[C@H](OC(=O)c2cc(O)c(O)c(O)c2)[C@@H](OC(=O)c2cc(O)c(O)c(O)c2)[C@H]1OC(=O)c1cc(O)c(O)c(O)c1)c1cc(O)c(O)c(O)c1
REMARK SMILES IDX 5 1 46 2 33 3 20 4 7 5 6 6 4 7 3 8 2 9 1 10 59 11 60 12
REMARK SMILES IDX 61 13 67 14 63 15 65 16 62 17 64 19 66 21 47 23 48 24 49 25
REMARK SMILES IDX 50 26 58 27 51 28 56 29 52 30 54 31 57 32 53 34 55 36 34 38
REMARK SMILES IDX 35 39 36 40 37 41 45 42 38 43 43 44 39 45 41 46 44 47 40 49
REMARK SMILES IDX 42 51 8 53 9 54 10 55 11 56 19 57 12 58 17 59 13 60 15 61
REMARK SMILES IDX 18 62 14 64 16 66 21 68 22 69 23 70 24 71 32 72 25 73 30 74
REMARK SMILES IDX 26 75 28 76 31 77 27 79 29 81
REMARK H PARENT 62 18 64 20 66 22 57 33 53 35 55 37 44 48 40 50 42 52 18 63
REMARK H PARENT 14 65 16 67 31 78 27 80 29 82
REMARK Flexibility Score: inf
ROOT
ATOM      1  C   UNL     1      -0.771   5.009   8.410  1.00  0.00     0.205 C 
ATOM      2  C   UNL     1      -0.855   3.567   8.942  1.00  0.00     0.254 C 
ATOM      3  C   UNL     1       0.488   2.890   8.650  1.00  0.00     0.267 C 
ATOM      4  C   UNL     1       1.626   3.697   9.302  1.00  0.00     0.290 C 
ATOM      5  C   UNL     1       1.529   5.176   8.864  1.00  0.00     0.357 C 
ATOM      6  O   UNL     1       0.240   5.727   9.106  1.00  0.00    -0.329 OA
ENDROOT
BRANCH   1   7
ATOM      7  C   UNL     1      -2.108   5.761   8.543  1.00  0.00     0.269 C 
BRANCH   7   8
ATOM      8  O   UNL     1      -2.444   6.355   7.294  1.00  0.00    -0.459 OA
BRANCH   8   9
ATOM      9  C   UNL     1      -3.572   7.172   7.131  1.00  0.00     0.338 C 
ATOM     10  O   UNL     1      -3.617   8.304   7.694  1.00  0.00    -0.246 OA
BRANCH   9  11
ATOM     11  C   UNL     1      -4.719   6.696   6.330  1.00  0.00     0.067 A 
ATOM     12  C   UNL     1      -5.755   5.974   6.939  1.00  0.00     0.066 A 
ATOM     13  C   UNL     1      -6.819   5.473   6.187  1.00  0.00     0.162 A 
ATOM     14  C   UNL     1      -4.763   6.924   4.940  1.00  0.00     0.066 A 
ATOM     15  C   UNL     1      -6.843   5.670   4.786  1.00  0.00     0.200 A 
ATOM     16  C   UNL     1      -5.812   6.404   4.173  1.00  0.00     0.162 A 
BRANCH  13  17
ATOM     17  O   UNL     1      -7.832   4.798   6.870  1.00  0.00    -0.504 OA
ATOM     18  H   UNL     1      -8.676   5.239   7.193  1.00  0.00     0.293 HD
ENDBRANCH  13  17
BRANCH  15  19
ATOM     19  O   UNL     1      -7.863   5.152   3.982  1.00  0.00    -0.502 OA
ATOM     20  H   UNL     1      -7.713   4.551   3.186  1.00  0.00     0.293 HD
ENDBRANCH  15  19
BRANCH  16  21
ATOM     21  O   UNL     1      -5.806   6.627   2.796  1.00  0.00    -0.504 OA
ATOM     22  H   UNL     1      -5.077   6.261   2.195  1.00  0.00     0.293 HD
ENDBRANCH  16  21
ENDBRANCH   9  11
ENDBRANCH   8   9
ENDBRANCH   7   8
ENDBRANCH   1   7
BRANCH   2  23
ATOM     23  O   UNL     1      -1.076   3.571  10.353  1.00  0.00    -0.452 OA
BRANCH  23  24
ATOM     24  C   UNL     1      -2.150   2.928  10.984  1.00  0.00     0.338 C 
ATOM     25  O   UNL     1      -2.849   3.553  11.822  1.00  0.00    -0.246 OA
BRANCH  24  26
ATOM     26  C   UNL     1      -2.460   1.522  10.643  1.00  0.00     0.067 A 
ATOM     27  C   UNL     1      -1.873   0.460  11.355  1.00  0.00     0.066 A 
ATOM     28  C   UNL     1      -3.307   1.232   9.560  1.00  0.00     0.066 A 
ATOM     29  C   UNL     1      -2.118  -0.872  10.982  1.00  0.00     0.162 A 
ATOM     30  C   UNL     1      -3.562  -0.093   9.192  1.00  0.00     0.162 A 
ATOM     31  C   UNL     1      -2.968  -1.150   9.898  1.00  0.00     0.200 A 
BRANCH  29  32
ATOM     32  O   UNL     1      -1.516  -1.917  11.678  1.00  0.00    -0.504 OA
ATOM     33  H   UNL     1      -1.886  -2.247  12.562  1.00  0.00     0.293 HD
ENDBRANCH  29  32
BRANCH  30  34
ATOM     34  O   UNL     1      -4.406  -0.340   8.111  1.00  0.00    -0.504 OA
ATOM     35  H   UNL     1      -4.056  -0.422   7.161  1.00  0.00     0.293 HD
ENDBRANCH  30  34
BRANCH  31  36
ATOM     36  O   UNL     1      -3.226  -2.462   9.506  1.00  0.00    -0.502 OA
ATOM     37  H   UNL     1      -2.854  -2.854   8.651  1.00  0.00     0.293 HD
ENDBRANCH  31  36
ENDBRANCH  24  26
ENDBRANCH  23  24
ENDBRANCH   2  23
BRANCH   3  38
ATOM     38  O   UNL     1       0.478   1.541   9.116  1.00  0.00    -0.450 OA
BRANCH  38  39
ATOM     39  C   UNL     1       0.198   0.454   8.277  1.00  0.00     0.338 C 
ATOM     40  O   UNL     1      -0.550   0.607   7.273  1.00  0.00    -0.246 OA
BRANCH  39  41
ATOM     41  C   UNL     1       0.795  -0.872   8.554  1.00  0.00     0.067 A 
ATOM     42  C   UNL     1       0.107  -2.047   8.203  1.00  0.00     0.066 A 
ATOM     43  C   UNL     1       2.055  -0.970   9.165  1.00  0.00     0.066 A 
ATOM     44  C   UNL     1       0.666  -3.301   8.464  1.00  0.00     0.162 A 
ATOM     45  C   UNL     1       2.624  -2.219   9.434  1.00  0.00     0.162 A 
ATOM     46  C   UNL     1       1.919  -3.402   9.090  1.00  0.00     0.200 A 
BRANCH  44  47
ATOM     47  O   UNL     1      -0.026  -4.457   8.096  1.00  0.00    -0.504 OA
ATOM     48  H   UNL     1      -0.931  -4.413   7.634  1.00  0.00     0.293 HD
ENDBRANCH  44  47
BRANCH  45  49
ATOM     49  O   UNL     1       3.878  -2.239  10.043  1.00  0.00    -0.504 OA
ATOM     50  H   UNL     1       4.737  -1.978   9.580  1.00  0.00     0.293 HD
ENDBRANCH  45  49
BRANCH  46  51
ATOM     51  O   UNL     1       2.416  -4.682   9.350  1.00  0.00    -0.502 OA
ATOM     52  H   UNL     1       3.235  -4.861   9.921  1.00  0.00     0.293 HD
ENDBRANCH  46  51
ENDBRANCH  39  41
ENDBRANCH  38  39
ENDBRANCH   3  38
BRANCH   5  53
ATOM     53  O   UNL     1       1.894   5.316   7.492  1.00  0.00    -0.428 OA
BRANCH  53  54
ATOM     54  C   UNL     1       2.335   6.520   6.932  1.00  0.00     0.340 C 
ATOM     55  O   UNL     1       1.526   7.456   6.704  1.00  0.00    -0.246 OA
BRANCH  54  56
ATOM     56  C   UNL     1       3.762   6.687   6.616  1.00  0.00     0.067 A 
ATOM     57  C   UNL     1       4.737   6.568   7.614  1.00  0.00     0.066 A 
ATOM     58  C   UNL     1       4.158   6.955   5.300  1.00  0.00     0.066 A 
ATOM     59  C   UNL     1       6.100   6.680   7.308  1.00  0.00     0.162 A 
ATOM     60  C   UNL     1       5.508   7.100   4.978  1.00  0.00     0.162 A 
ATOM     61  C   UNL     1       6.496   6.948   5.973  1.00  0.00     0.200 A 
BRANCH  59  62
ATOM     62  O   UNL     1       7.012   6.514   8.355  1.00  0.00    -0.504 OA
ATOM     63  H   UNL     1       6.951   5.776   9.048  1.00  0.00     0.293 HD
ENDBRANCH  59  62
BRANCH  60  64
ATOM     64  O   UNL     1       5.848   7.402   3.659  1.00  0.00    -0.504 OA
ATOM     65  H   UNL     1       5.311   8.061   3.104  1.00  0.00     0.293 HD
ENDBRANCH  60  64
BRANCH  61  66
ATOM     66  O   UNL     1       7.844   7.063   5.603  1.00  0.00    -0.502 OA
ATOM     67  H   UNL     1       8.541   6.351   5.771  1.00  0.00     0.293 HD
ENDBRANCH  61  66
ENDBRANCH  54  56
ENDBRANCH  53  54
ENDBRANCH   5  53
BRANCH   4  68
ATOM     68  O   UNL     1       2.891   3.191   8.880  1.00  0.00    -0.448 OA
BRANCH  68  69
ATOM     69  C   UNL     1       3.726   2.400   9.675  1.00  0.00     0.339 C 
ATOM     70  O   UNL     1       3.296   1.904  10.753  1.00  0.00    -0.246 OA
BRANCH  69  71
ATOM     71  C   UNL     1       5.122   2.161   9.251  1.00  0.00     0.067 A 
ATOM     72  C   UNL     1       5.811   1.010   9.654  1.00  0.00     0.066 A 
ATOM     73  C   UNL     1       5.777   3.089   8.425  1.00  0.00     0.066 A 
ATOM     74  C   UNL     1       7.127   0.776   9.231  1.00  0.00     0.162 A 
ATOM     75  C   UNL     1       7.088   2.864   7.995  1.00  0.00     0.162 A 
ATOM     76  C   UNL     1       7.770   1.705   8.396  1.00  0.00     0.200 A 
BRANCH  74  77
ATOM     77  O   UNL     1       7.797  -0.381   9.629  1.00  0.00    -0.504 OA
ATOM     78  H   UNL     1       8.497  -0.363  10.364  1.00  0.00     0.293 HD
ENDBRANCH  74  77
BRANCH  75  79
ATOM     79  O   UNL     1       7.700   3.805   7.165  1.00  0.00    -0.504 OA
ATOM     80  H   UNL     1       8.178   3.545   6.313  1.00  0.00     0.293 HD
ENDBRANCH  75  79
BRANCH  76  81
ATOM     81  O   UNL     1       9.079   1.488   7.962  1.00  0.00    -0.502 OA
ATOM     82  H   UNL     1       9.796   1.115   8.565  1.00  0.00     0.293 HD
ENDBRANCH  76  81
ENDBRANCH  69  71
ENDBRANCH  68  69
ENDBRANCH   4  68
TORSDOF 31
ENDMDL
MODEL 3
REMARK VINA RESULT:    -5.723      2.217      9.074
REMARK INTER + INTRA:         -19.098
REMARK INTER:                 -13.183
REMARK INTRA:                  -5.916
REMARK UNBOUND:                -5.513
REMARK SMILES O=C(OC[C@H]1O[C@H](OC(=O)c2cc(O)c(O)c(O)c2)[C@H](OC(=O)c2cc(O)c(O)c(O)c2)[C@@H](OC(=O)c2cc(O)c(O)c(O)c2)[C@H]1OC(=O)c1cc(O)c(O)c(O)c1)c1cc(O)c(O)c(O)c1
REMARK SMILES IDX 5 1 46 2 33 3 20 4 7 5 6 6 4 7 3 8 2 9 1 10 59 11 60 12
REMARK SMILES IDX 61 13 67 14 63 15 65 16 62 17 64 19 66 21 47 23 48 24 49 25
REMARK SMILES IDX 50 26 58 27 51 28 56 29 52 30 54 31 57 32 53 34 55 36 34 38
REMARK SMILES IDX 35 39 36 40 37 41 45 42 38 43 43 44 39 45 41 46 44 47 40 49
REMARK SMILES IDX 42 51 8 53 9 54 10 55 11 56 19 57 12 58 17 59 13 60 15 61
REMARK SMILES IDX 18 62 14 64 16 66 21 68 22 69 23 70 24 71 32 72 25 73 30 74
REMARK SMILES IDX 26 75 28 76 31 77 27 79 29 81
REMARK H PARENT 62 18 64 20 66 22 57 33 53 35 55 37 44 48 40 50 42 52 18 63
REMARK H PARENT 14 65 16 67 31 78 27 80 29 82
REMARK Flexibility Score: inf
ROOT
ATOM      1  C   UNL     1      -0.665   5.350   9.320  1.00  0.00     0.205 C 
ATOM      2  C   UNL     1       0.529   5.344   8.349  1.00  0.00     0.254 C 
ATOM      3  C   UNL     1       1.188   3.963   8.439  1.00  0.00     0.267 C 
ATOM      4  C   UNL     1       0.152   2.873   8.111  1.00  0.00     0.290 C 
ATOM      5  C   UNL     1      -1.099   3.062   9.001  1.00  0.00     0.357 C 
ATOM      6  O   UNL     1      -1.625   4.381   8.918  1.00  0.00    -0.329 OA
ENDROOT
BRANCH   1   7
ATOM      7  C   UNL     1      -1.345   6.729   9.404  1.00  0.00     0.269 C 
BRANCH   7   8
ATOM      8  O   UNL     1      -2.473   6.756   8.536  1.00  0.00    -0.459 OA
BRANCH   8   9
ATOM      9  C   UNL     1      -3.786   6.610   9.007  1.00  0.00     0.338 C 
ATOM     10  O   UNL     1      -4.036   6.775  10.236  1.00  0.00    -0.246 OA
BRANCH   9  11
ATOM     11  C   UNL     1      -4.867   6.230   8.074  1.00  0.00     0.067 A 
ATOM     12  C   UNL     1      -5.040   6.928   6.871  1.00  0.00     0.066 A 
ATOM     13  C   UNL     1      -6.089   6.615   6.004  1.00  0.00     0.162 A 
ATOM     14  C   UNL     1      -5.762   5.192   8.403  1.00  0.00     0.066 A 
ATOM     15  C   UNL     1      -7.008   5.598   6.353  1.00  0.00     0.200 A 
ATOM     16  C   UNL     1      -6.831   4.887   7.554  1.00  0.00     0.162 A 
BRANCH  13  17
ATOM     17  O   UNL     1      -6.173   7.328   4.807  1.00  0.00    -0.504 OA
ATOM     18  H   UNL     1      -5.908   8.293   4.714  1.00  0.00     0.293 HD
ENDBRANCH  13  17
BRANCH  15  19
ATOM     19  O   UNL     1      -8.100   5.275   5.541  1.00  0.00    -0.502 OA
ATOM     20  H   UNL     1      -8.661   5.950   5.044  1.00  0.00     0.293 HD
ENDBRANCH  15  19
BRANCH  16  21
ATOM     21  O   UNL     1      -7.712   3.872   7.928  1.00  0.00    -0.504 OA
ATOM     22  H   UNL     1      -8.712   3.949   7.786  1.00  0.00     0.293 HD
ENDBRANCH  16  21
ENDBRANCH   9  11
ENDBRANCH   8   9
ENDBRANCH   7   8
ENDBRANCH   1   7
BRANCH   2  23
ATOM     23  O   UNL     1       0.081   5.557   7.009  1.00  0.00    -0.452 OA
BRANCH  23  24
ATOM     24  C   UNL     1       0.482   6.633   6.206  1.00  0.00     0.338 C 
ATOM     25  O   UNL     1       1.568   7.221   6.444  1.00  0.00    -0.246 OA
BRANCH  24  26
ATOM     26  C   UNL     1      -0.371   7.053   5.072  1.00  0.00     0.067 A 
ATOM     27  C   UNL     1       0.030   8.096   4.216  1.00  0.00     0.066 A 
ATOM     28  C   UNL     1      -1.622   6.448   4.870  1.00  0.00     0.066 A 
ATOM     29  C   UNL     1      -0.814   8.537   3.183  1.00  0.00     0.162 A 
ATOM     30  C   UNL     1      -2.461   6.876   3.836  1.00  0.00     0.162 A 
ATOM     31  C   UNL     1      -2.063   7.922   2.991  1.00  0.00     0.200 A 
BRANCH  29  32
ATOM     32  O   UNL     1      -0.420   9.584   2.355  1.00  0.00    -0.504 OA
ATOM     33  H   UNL     1      -0.212  10.504   2.726  1.00  0.00     0.293 HD
ENDBRANCH  29  32
BRANCH  30  34
ATOM     34  O   UNL     1      -3.695   6.252   3.670  1.00  0.00    -0.504 OA
ATOM     35  H   UNL     1      -3.774   5.263   3.454  1.00  0.00     0.293 HD
ENDBRANCH  30  34
BRANCH  31  36
ATOM     36  O   UNL     1      -2.920   8.341   1.975  1.00  0.00    -0.502 OA
ATOM     37  H   UNL     1      -3.187   9.310   1.857  1.00  0.00     0.293 HD
ENDBRANCH  31  36
ENDBRANCH  24  26
ENDBRANCH  23  24
ENDBRANCH   2  23
BRANCH   3  38
ATOM     38  O   UNL     1       2.312   3.889   7.562  1.00  0.00    -0.450 OA
BRANCH  38  39
ATOM     39  C   UNL     1       3.597   4.297   7.945  1.00  0.00     0.338 C 
ATOM     40  O   UNL     1       3.838   5.519   8.147  1.00  0.00    -0.246 OA
BRANCH  39  41
ATOM     41  C   UNL     1       4.670   3.295   8.134  1.00  0.00     0.067 A 
ATOM     42  C   UNL     1       4.424   2.121   8.866  1.00  0.00     0.066 A 
ATOM     43  C   UNL     1       5.943   3.505   7.580  1.00  0.00     0.066 A 
ATOM     44  C   UNL     1       5.434   1.172   9.048  1.00  0.00     0.162 A 
ATOM     45  C   UNL     1       6.964   2.566   7.758  1.00  0.00     0.162 A 
ATOM     46  C   UNL     1       6.712   1.388   8.509  1.00  0.00     0.200 A 
BRANCH  44  47
ATOM     47  O   UNL     1       5.166   0.006   9.767  1.00  0.00    -0.504 OA
ATOM     48  H   UNL     1       4.905   0.033  10.749  1.00  0.00     0.293 HD
ENDBRANCH  44  47
BRANCH  45  49
ATOM     49  O   UNL     1       8.203   2.842   7.180  1.00  0.00    -0.504 OA
ATOM     50  H   UNL     1       8.591   3.769   7.089  1.00  0.00     0.293 HD
ENDBRANCH  45  49
BRANCH  46  51
ATOM     51  O   UNL     1       7.691   0.419   8.746  1.00  0.00    -0.502 OA
ATOM     52  H   UNL     1       7.517  -0.443   9.252  1.00  0.00     0.293 HD
ENDBRANCH  46  51
ENDBRANCH  39  41
ENDBRANCH  38  39
ENDBRANCH   3  38
BRANCH   5  53
ATOM     53  O   UNL     1      -0.806   2.714  10.353  1.00  0.00    -0.428 OA
BRANCH  53  54
ATOM     54  C   UNL     1      -1.695   2.013  11.176  1.00  0.00     0.340 C 
ATOM     55  O   UNL     1      -2.348   2.611  12.070  1.00  0.00    -0.246 OA
BRANCH  54  56
ATOM     56  C   UNL     1      -1.867   0.565  10.984  1.00  0.00     0.067 A 
ATOM     57  C   UNL     1      -2.886   0.066  10.163  1.00  0.00     0.066 A 
ATOM     58  C   UNL     1      -0.996  -0.331  11.615  1.00  0.00     0.066 A 
ATOM     59  C   UNL     1      -3.024  -1.310   9.939  1.00  0.00     0.162 A 
ATOM     60  C   UNL     1      -1.132  -1.707  11.430  1.00  0.00     0.162 A 
ATOM     61  C   UNL     1      -2.136  -2.213  10.578  1.00  0.00     0.200 A 
BRANCH  59  62
ATOM     62  O   UNL     1      -4.045  -1.725   9.079  1.00  0.00    -0.504 OA
ATOM     63  H   UNL     1      -4.013  -2.577   8.531  1.00  0.00     0.293 HD
ENDBRANCH  59  62
BRANCH  60  64
ATOM     64  O   UNL     1      -0.262  -2.559  12.110  1.00  0.00    -0.504 OA
ATOM     65  H   UNL     1       0.681  -2.739  11.779  1.00  0.00     0.293 HD
ENDBRANCH  60  64
BRANCH  61  66
ATOM     66  O   UNL     1      -2.219  -3.601  10.387  1.00  0.00    -0.502 OA
ATOM     67  H   UNL     1      -1.463  -4.245  10.578  1.00  0.00     0.293 HD
ENDBRANCH  61  66
ENDBRANCH  54  56
ENDBRANCH  53  54
ENDBRANCH   5  53
BRANCH   4  68
ATOM     68  O   UNL     1       0.695   1.582   8.378  1.00  0.00    -0.448 OA
BRANCH  68  69
ATOM     69  C   UNL     1       0.107   0.381   7.970  1.00  0.00     0.339 C 
ATOM     70  O   UNL     1      -0.941   0.393   7.265  1.00  0.00    -0.246 OA
BRANCH  69  71
ATOM     71  C   UNL     1       0.713  -0.903   8.381  1.00  0.00     0.067 A 
ATOM     72  C   UNL     1       1.898  -0.935   9.126  1.00  0.00     0.066 A 
ATOM     73  C   UNL     1       0.098  -2.117   8.033  1.00  0.00     0.066 A 
ATOM     74  C   UNL     1       2.458  -2.155   9.534  1.00  0.00     0.162 A 
ATOM     75  C   UNL     1       0.645  -3.338   8.437  1.00  0.00     0.162 A 
ATOM     76  C   UNL     1       1.828  -3.363   9.191  1.00  0.00     0.200 A 
BRANCH  74  77
ATOM     77  O   UNL     1       3.632  -2.172  10.287  1.00  0.00    -0.504 OA
ATOM     78  H   UNL     1       3.614  -2.095  11.299  1.00  0.00     0.293 HD
ENDBRANCH  74  77
BRANCH  75  79
ATOM     79  O   UNL     1      -0.004  -4.522   8.082  1.00  0.00    -0.504 OA
ATOM     80  H   UNL     1       0.428  -5.220   7.492  1.00  0.00     0.293 HD
ENDBRANCH  75  79
BRANCH  76  81
ATOM     81  O   UNL     1       2.368  -4.587   9.590  1.00  0.00    -0.502 OA
ATOM     82  H   UNL     1       2.220  -5.440   9.072  1.00  0.00     0.293 HD
ENDBRANCH  76  81
ENDBRANCH  69  71
ENDBRANCH  68  69
ENDBRANCH   4  68
TORSDOF 31
ENDMDL
MODEL 4
REMARK VINA RESULT:    -5.594      1.415      2.616
REMARK INTER + INTRA:         -18.791
REMARK INTER:                 -13.112
REMARK INTRA:                  -5.679
REMARK UNBOUND:                -5.513
REMARK SMILES O=C(OC[C@H]1O[C@H](OC(=O)c2cc(O)c(O)c(O)c2)[C@H](OC(=O)c2cc(O)c(O)c(O)c2)[C@@H](OC(=O)c2cc(O)c(O)c(O)c2)[C@H]1OC(=O)c1cc(O)c(O)c(O)c1)c1cc(O)c(O)c(O)c1
REMARK SMILES IDX 5 1 46 2 33 3 20 4 7 5 6 6 4 7 3 8 2 9 1 10 59 11 60 12
REMARK SMILES IDX 61 13 67 14 63 15 65 16 62 17 64 19 66 21 47 23 48 24 49 25
REMARK SMILES IDX 50 26 58 27 51 28 56 29 52 30 54 31 57 32 53 34 55 36 34 38
REMARK SMILES IDX 35 39 36 40 37 41 45 42 38 43 43 44 39 45 41 46 44 47 40 49
REMARK SMILES IDX 42 51 8 53 9 54 10 55 11 56 19 57 12 58 17 59 13 60 15 61
REMARK SMILES IDX 18 62 14 64 16 66 21 68 22 69 23 70 24 71 32 72 25 73 30 74
REMARK SMILES IDX 26 75 28 76 31 77 27 79 29 81
REMARK H PARENT 62 18 64 20 66 22 57 33 53 35 55 37 44 48 40 50 42 52 18 63
REMARK H PARENT 14 65 16 67 31 78 27 80 29 82
REMARK Flexibility Score: inf
ROOT
ATOM      1  C   UNL     1       0.979   3.401   8.297  1.00  0.00     0.205 C 
ATOM      2  C   UNL     1       0.765   4.861   7.858  1.00  0.00     0.254 C 
ATOM      3  C   UNL     1      -0.744   5.074   7.691  1.00  0.00     0.267 C 
ATOM      4  C   UNL     1      -1.463   4.738   9.010  1.00  0.00     0.290 C 
ATOM      5  C   UNL     1      -1.048   3.326   9.482  1.00  0.00     0.357 C 
ATOM      6  O   UNL     1       0.364   3.175   9.558  1.00  0.00    -0.329 OA
ENDROOT
BRANCH   1   7
ATOM      7  C   UNL     1       2.471   3.031   8.388  1.00  0.00     0.269 C 
BRANCH   7   8
ATOM      8  O   UNL     1       2.604   1.616   8.489  1.00  0.00    -0.459 OA
BRANCH   8   9
ATOM      9  C   UNL     1       3.333   1.002   9.516  1.00  0.00     0.338 C 
ATOM     10  O   UNL     1       2.746   0.639  10.575  1.00  0.00    -0.246 OA
BRANCH   9  11
ATOM     11  C   UNL     1       4.792   0.811   9.373  1.00  0.00     0.067 A 
ATOM     12  C   UNL     1       5.409  -0.333   9.897  1.00  0.00     0.066 A 
ATOM     13  C   UNL     1       6.793  -0.503   9.816  1.00  0.00     0.162 A 
ATOM     14  C   UNL     1       5.583   1.796   8.748  1.00  0.00     0.066 A 
ATOM     15  C   UNL     1       7.590   0.503   9.221  1.00  0.00     0.200 A 
ATOM     16  C   UNL     1       6.973   1.647   8.684  1.00  0.00     0.162 A 
BRANCH  13  17
ATOM     17  O   UNL     1       7.330  -1.686  10.325  1.00  0.00    -0.504 OA
ATOM     18  H   UNL     1       7.383  -2.544   9.804  1.00  0.00     0.293 HD
ENDBRANCH  13  17
BRANCH  15  19
ATOM     19  O   UNL     1       8.983   0.402   9.153  1.00  0.00    -0.502 OA
ATOM     20  H   UNL     1       9.523  -0.336   9.579  1.00  0.00     0.293 HD
ENDBRANCH  15  19
BRANCH  16  21
ATOM     21  O   UNL     1       7.725   2.656   8.082  1.00  0.00    -0.504 OA
ATOM     22  H   UNL     1       8.221   3.353   8.624  1.00  0.00     0.293 HD
ENDBRANCH  16  21
ENDBRANCH   9  11
ENDBRANCH   8   9
ENDBRANCH   7   8
ENDBRANCH   1   7
BRANCH   2  23
ATOM     23  O   UNL     1       1.251   5.756   8.860  1.00  0.00    -0.452 OA
BRANCH  23  24
ATOM     24  C   UNL     1       2.160   6.794   8.614  1.00  0.00     0.338 C 
ATOM     25  O   UNL     1       1.808   7.989   8.790  1.00  0.00    -0.246 OA
BRANCH  24  26
ATOM     26  C   UNL     1       3.533   6.471   8.168  1.00  0.00     0.067 A 
ATOM     27  C   UNL     1       3.912   6.635   6.823  1.00  0.00     0.066 A 
ATOM     28  C   UNL     1       4.462   5.941   9.078  1.00  0.00     0.066 A 
ATOM     29  C   UNL     1       5.196   6.261   6.391  1.00  0.00     0.162 A 
ATOM     30  C   UNL     1       5.744   5.577   8.656  1.00  0.00     0.162 A 
ATOM     31  C   UNL     1       6.116   5.733   7.312  1.00  0.00     0.200 A 
BRANCH  29  32
ATOM     32  O   UNL     1       5.556   6.406   5.054  1.00  0.00    -0.504 OA
ATOM     33  H   UNL     1       6.188   5.755   4.603  1.00  0.00     0.293 HD
ENDBRANCH  29  32
BRANCH  30  34
ATOM     34  O   UNL     1       6.636   5.052   9.589  1.00  0.00    -0.504 OA
ATOM     35  H   UNL     1       6.351   4.817  10.535  1.00  0.00     0.293 HD
ENDBRANCH  30  34
BRANCH  31  36
ATOM     36  O   UNL     1       7.395   5.352   6.910  1.00  0.00    -0.502 OA
ATOM     37  H   UNL     1       7.600   4.424   6.563  1.00  0.00     0.293 HD
ENDBRANCH  31  36
ENDBRANCH  24  26
ENDBRANCH  23  24
ENDBRANCH   2  23
BRANCH   3  38
ATOM     38  O   UNL     1      -1.015   6.413   7.280  1.00  0.00    -0.450 OA
BRANCH  38  39
ATOM     39  C   UNL     1      -1.111   6.785   5.931  1.00  0.00     0.338 C 
ATOM     40  O   UNL     1      -0.085   7.176   5.310  1.00  0.00    -0.246 OA
BRANCH  39  41
ATOM     41  C   UNL     1      -2.409   6.701   5.227  1.00  0.00     0.067 A 
ATOM     42  C   UNL     1      -3.611   6.920   5.923  1.00  0.00     0.066 A 
ATOM     43  C   UNL     1      -2.455   6.405   3.855  1.00  0.00     0.066 A 
ATOM     44  C   UNL     1      -4.839   6.840   5.262  1.00  0.00     0.162 A 
ATOM     45  C   UNL     1      -3.679   6.318   3.183  1.00  0.00     0.162 A 
ATOM     46  C   UNL     1      -4.889   6.528   3.894  1.00  0.00     0.200 A 
BRANCH  44  47
ATOM     47  O   UNL     1      -6.021   7.074   5.968  1.00  0.00    -0.504 OA
ATOM     48  H   UNL     1      -6.445   6.357   6.552  1.00  0.00     0.293 HD
ENDBRANCH  44  47
BRANCH  45  49
ATOM     49  O   UNL     1      -3.647   6.020   1.821  1.00  0.00    -0.504 OA
ATOM     50  H   UNL     1      -4.383   5.534   1.330  1.00  0.00     0.293 HD
ENDBRANCH  45  49
BRANCH  46  51
ATOM     51  O   UNL     1      -6.146   6.434   3.292  1.00  0.00    -0.502 OA
ATOM     52  H   UNL     1      -6.658   5.565   3.193  1.00  0.00     0.293 HD
ENDBRANCH  46  51
ENDBRANCH  39  41
ENDBRANCH  38  39
ENDBRANCH   3  38
BRANCH   5  53
ATOM     53  O   UNL     1      -1.623   2.329   8.638  1.00  0.00    -0.428 OA
BRANCH  53  54
ATOM     54  C   UNL     1      -2.339   1.229   9.124  1.00  0.00     0.340 C 
ATOM     55  O   UNL     1      -3.519   1.364   9.536  1.00  0.00    -0.246 OA
BRANCH  54  56
ATOM     56  C   UNL     1      -1.700  -0.096   9.142  1.00  0.00     0.067 A 
ATOM     57  C   UNL     1      -2.447  -1.249   9.412  1.00  0.00     0.066 A 
ATOM     58  C   UNL     1      -0.331  -0.214   8.874  1.00  0.00     0.066 A 
ATOM     59  C   UNL     1      -1.852  -2.517   9.385  1.00  0.00     0.162 A 
ATOM     60  C   UNL     1       0.288  -1.464   8.870  1.00  0.00     0.162 A 
ATOM     61  C   UNL     1      -0.466  -2.632   9.109  1.00  0.00     0.200 A 
BRANCH  59  62
ATOM     62  O   UNL     1      -2.675  -3.621   9.631  1.00  0.00    -0.504 OA
ATOM     63  H   UNL     1      -3.272  -3.712  10.445  1.00  0.00     0.293 HD
ENDBRANCH  59  62
BRANCH  60  64
ATOM     64  O   UNL     1       1.662  -1.525   8.633  1.00  0.00    -0.504 OA
ATOM     65  H   UNL     1       2.336  -1.120   9.274  1.00  0.00     0.293 HD
ENDBRANCH  60  64
BRANCH  61  66
ATOM     66  O   UNL     1       0.185  -3.874   9.059  1.00  0.00    -0.502 OA
ATOM     67  H   UNL     1       0.536  -4.297   8.211  1.00  0.00     0.293 HD
ENDBRANCH  61  66
ENDBRANCH  54  56
ENDBRANCH  53  54
ENDBRANCH   5  53
BRANCH   4  68
ATOM     68  O   UNL     1      -2.876   4.745   8.815  1.00  0.00    -0.448 OA
BRANCH  68  69
ATOM     69  C   UNL     1      -3.812   4.813   9.851  1.00  0.00     0.339 C 
ATOM     70  O   UNL     1      -3.459   5.188  11.004  1.00  0.00    -0.246 OA
BRANCH  69  71
ATOM     71  C   UNL     1      -5.215   4.429   9.591  1.00  0.00     0.067 A 
ATOM     72  C   UNL     1      -5.846   4.776   8.389  1.00  0.00     0.066 A 
ATOM     73  C   UNL     1      -5.937   3.699  10.549  1.00  0.00     0.066 A 
ATOM     74  C   UNL     1      -7.171   4.391   8.136  1.00  0.00     0.162 A 
ATOM     75  C   UNL     1      -7.257   3.307  10.306  1.00  0.00     0.162 A 
ATOM     76  C   UNL     1      -7.880   3.650   9.097  1.00  0.00     0.200 A 
BRANCH  74  77
ATOM     77  O   UNL     1      -7.783   4.731   6.929  1.00  0.00    -0.504 OA
ATOM     78  H   UNL     1      -8.793   4.751   6.833  1.00  0.00     0.293 HD
ENDBRANCH  74  77
BRANCH  75  79
ATOM     79  O   UNL     1      -7.935   2.572  11.279  1.00  0.00    -0.504 OA
ATOM     80  H   UNL     1      -8.254   2.985  12.145  1.00  0.00     0.293 HD
ENDBRANCH  75  79
BRANCH  76  81
ATOM     81  O   UNL     1      -9.198   3.255   8.861  1.00  0.00    -0.502 OA
ATOM     82  H   UNL     1      -9.983   3.875   8.992  1.00  0.00     0.293 HD
ENDBRANCH  76  81
ENDBRANCH  69  71
ENDBRANCH  68  69
ENDBRANCH   4  68
TORSDOF 31
ENDMDL
MODEL 5
REMARK VINA RESULT:    -5.542      1.929      9.962
REMARK INTER + INTRA:         -18.669
REMARK INTER:                 -12.920
REMARK INTRA:                  -5.749
REMARK UNBOUND:                -5.513
REMARK SMILES O=C(OC[C@H]1O[C@H](OC(=O)c2cc(O)c(O)c(O)c2)[C@H](OC(=O)c2cc(O)c(O)c(O)c2)[C@@H](OC(=O)c2cc(O)c(O)c(O)c2)[C@H]1OC(=O)c1cc(O)c(O)c(O)c1)c1cc(O)c(O)c(O)c1
REMARK SMILES IDX 5 1 46 2 33 3 20 4 7 5 6 6 4 7 3 8 2 9 1 10 59 11 60 12
REMARK SMILES IDX 61 13 67 14 63 15 65 16 62 17 64 19 66 21 47 23 48 24 49 25
REMARK SMILES IDX 50 26 58 27 51 28 56 29 52 30 54 31 57 32 53 34 55 36 34 38
REMARK SMILES IDX 35 39 36 40 37 41 45 42 38 43 43 44 39 45 41 46 44 47 40 49
REMARK SMILES IDX 42 51 8 53 9 54 10 55 11 56 19 57 12 58 17 59 13 60 15 61
REMARK SMILES IDX 18 62 14 64 16 66 21 68 22 69 23 70 24 71 32 72 25 73 30 74
REMARK SMILES IDX 26 75 28 76 31 77 27 79 29 81
REMARK H PARENT 62 18 64 20 66 22 57 33 53 35 55 37 44 48 40 50 42 52 18 63
REMARK H PARENT 14 65 16 67 31 78 27 80 29 82
REMARK Flexibility Score: inf
ROOT
ATOM      1  C   UNL     1       0.407   5.363   7.855  1.00  0.00     0.205 C 
ATOM      2  C   UNL     1      -0.677   4.458   8.467  1.00  0.00     0.254 C 
ATOM      3  C   UNL     1      -0.096   3.042   8.556  1.00  0.00     0.267 C 
ATOM      4  C   UNL     1       1.198   3.066   9.390  1.00  0.00     0.290 C 
ATOM      5  C   UNL     1       2.161   4.135   8.824  1.00  0.00     0.357 C 
ATOM      6  O   UNL     1       1.542   5.411   8.708  1.00  0.00    -0.329 OA
ENDROOT
BRANCH   1   7
ATOM      7  C   UNL     1      -0.099   6.796   7.607  1.00  0.00     0.269 C 
BRANCH   7   8
ATOM      8  O   UNL     1      -1.327   6.748   6.888  1.00  0.00    -0.459 OA
BRANCH   8   9
ATOM      9  C   UNL     1      -1.383   6.851   5.491  1.00  0.00     0.338 C 
ATOM     10  O   UNL     1      -0.322   7.048   4.831  1.00  0.00    -0.246 OA
BRANCH   9  11
ATOM     11  C   UNL     1      -2.684   6.762   4.795  1.00  0.00     0.067 A 
ATOM     12  C   UNL     1      -2.735   6.446   3.431  1.00  0.00     0.066 A 
ATOM     13  C   UNL     1      -3.953   6.409   2.748  1.00  0.00     0.162 A 
ATOM     14  C   UNL     1      -3.882   7.038   5.485  1.00  0.00     0.066 A 
ATOM     15  C   UNL     1      -5.151   6.722   3.432  1.00  0.00     0.200 A 
ATOM     16  C   UNL     1      -5.105   7.030   4.804  1.00  0.00     0.162 A 
BRANCH  13  17
ATOM     17  O   UNL     1      -3.928   6.048   1.401  1.00  0.00    -0.504 OA
ATOM     18  H   UNL     1      -4.700   6.188   0.772  1.00  0.00     0.293 HD
ENDBRANCH  13  17
BRANCH  15  19
ATOM     19  O   UNL     1      -6.391   6.743   2.785  1.00  0.00    -0.502 OA
ATOM     20  H   UNL     1      -7.005   7.542   2.753  1.00  0.00     0.293 HD
ENDBRANCH  15  19
BRANCH  16  21
ATOM     21  O   UNL     1      -6.266   7.335   5.515  1.00  0.00    -0.504 OA
ATOM     22  H   UNL     1      -6.918   6.619   5.811  1.00  0.00     0.293 HD
ENDBRANCH  16  21
ENDBRANCH   9  11
ENDBRANCH   8   9
ENDBRANCH   7   8
ENDBRANCH   1   7
BRANCH   2  23
ATOM     23  O   UNL     1      -1.013   4.905   9.781  1.00  0.00    -0.452 OA
BRANCH  23  24
ATOM     24  C   UNL     1      -2.237   4.646  10.412  1.00  0.00     0.338 C 
ATOM     25  O   UNL     1      -2.253   4.195  11.587  1.00  0.00    -0.246 OA
BRANCH  24  26
ATOM     26  C   UNL     1      -3.501   4.925   9.695  1.00  0.00     0.067 A 
ATOM     27  C   UNL     1      -3.873   6.245   9.378  1.00  0.00     0.066 A 
ATOM     28  C   UNL     1      -4.373   3.874   9.370  1.00  0.00     0.066 A 
ATOM     29  C   UNL     1      -5.106   6.509   8.758  1.00  0.00     0.162 A 
ATOM     30  C   UNL     1      -5.596   4.131   8.744  1.00  0.00     0.162 A 
ATOM     31  C   UNL     1      -5.969   5.448   8.437  1.00  0.00     0.200 A 
BRANCH  29  32
ATOM     32  O   UNL     1      -5.478   7.819   8.467  1.00  0.00    -0.504 OA
ATOM     33  H   UNL     1      -5.630   8.502   9.201  1.00  0.00     0.293 HD
ENDBRANCH  29  32
BRANCH  30  34
ATOM     34  O   UNL     1      -6.434   3.061   8.440  1.00  0.00    -0.504 OA
ATOM     35  H   UNL     1      -7.251   3.167   7.845  1.00  0.00     0.293 HD
ENDBRANCH  30  34
BRANCH  31  36
ATOM     36  O   UNL     1      -7.198   5.683   7.824  1.00  0.00    -0.502 OA
ATOM     37  H   UNL     1      -7.380   5.431   6.861  1.00  0.00     0.293 HD
ENDBRANCH  31  36
ENDBRANCH  24  26
ENDBRANCH  23  24
ENDBRANCH   2  23
BRANCH   3  38
ATOM     38  O   UNL     1      -1.055   2.145   9.115  1.00  0.00    -0.450 OA
BRANCH  38  39
ATOM     39  C   UNL     1      -1.364   0.910   8.530  1.00  0.00     0.338 C 
ATOM     40  O   UNL     1      -0.662   0.467   7.580  1.00  0.00    -0.246 OA
BRANCH  39  41
ATOM     41  C   UNL     1      -2.503   0.111   9.036  1.00  0.00     0.067 A 
ATOM     42  C   UNL     1      -2.425  -1.292   9.075  1.00  0.00     0.066 A 
ATOM     43  C   UNL     1      -3.671   0.747   9.486  1.00  0.00     0.066 A 
ATOM     44  C   UNL     1      -3.498  -2.050   9.551  1.00  0.00     0.162 A 
ATOM     45  C   UNL     1      -4.754  -0.001   9.961  1.00  0.00     0.162 A 
ATOM     46  C   UNL     1      -4.673  -1.418   9.986  1.00  0.00     0.200 A 
BRANCH  44  47
ATOM     47  O   UNL     1      -3.396  -3.442   9.595  1.00  0.00    -0.504 OA
ATOM     48  H   UNL     1      -2.892  -3.917  10.340  1.00  0.00     0.293 HD
ENDBRANCH  44  47
BRANCH  45  49
ATOM     49  O   UNL     1      -5.881   0.699  10.391  1.00  0.00    -0.504 OA
ATOM     50  H   UNL     1      -6.720   0.260  10.744  1.00  0.00     0.293 HD
ENDBRANCH  45  49
BRANCH  46  51
ATOM     51  O   UNL     1      -5.724  -2.227  10.426  1.00  0.00    -0.502 OA
ATOM     52  H   UNL     1      -6.607  -2.318   9.935  1.00  0.00     0.293 HD
ENDBRANCH  46  51
ENDBRANCH  39  41
ENDBRANCH  38  39
ENDBRANCH   3  38
BRANCH   5  53
ATOM     53  O   UNL     1       2.693   3.712   7.569  1.00  0.00    -0.428 OA
BRANCH  53  54
ATOM     54  C   UNL     1       3.874   4.226   7.023  1.00  0.00     0.340 C 
ATOM     55  O   UNL     1       3.841   5.192   6.217  1.00  0.00    -0.246 OA
BRANCH  54  56
ATOM     56  C   UNL     1       5.165   3.631   7.404  1.00  0.00     0.067 A 
ATOM     57  C   UNL     1       5.238   2.309   7.862  1.00  0.00     0.066 A 
ATOM     58  C   UNL     1       6.339   4.384   7.296  1.00  0.00     0.066 A 
ATOM     59  C   UNL     1       6.469   1.723   8.181  1.00  0.00     0.162 A 
ATOM     60  C   UNL     1       7.574   3.830   7.636  1.00  0.00     0.162 A 
ATOM     61  C   UNL     1       7.657   2.490   8.066  1.00  0.00     0.200 A 
BRANCH  59  62
ATOM     62  O   UNL     1       6.460   0.389   8.597  1.00  0.00    -0.504 OA
ATOM     63  H   UNL     1       7.101   0.005   9.283  1.00  0.00     0.293 HD
ENDBRANCH  59  62
BRANCH  60  64
ATOM     64  O   UNL     1       8.711   4.634   7.545  1.00  0.00    -0.504 OA
ATOM     65  H   UNL     1       9.269   4.867   8.360  1.00  0.00     0.293 HD
ENDBRANCH  60  64
BRANCH  61  66
ATOM     66  O   UNL     1       8.921   1.957   8.363  1.00  0.00    -0.502 OA
ATOM     67  H   UNL     1       9.442   1.353   7.742  1.00  0.00     0.293 HD
ENDBRANCH  61  66
ENDBRANCH  54  56
ENDBRANCH  53  54
ENDBRANCH   5  53
BRANCH   4  68
ATOM     68  O   UNL     1       1.851   1.800   9.322  1.00  0.00    -0.448 OA
BRANCH  68  69
ATOM     69  C   UNL     1       1.835   0.850  10.348  1.00  0.00     0.339 C 
ATOM     70  O   UNL     1       1.328   1.134  11.469  1.00  0.00    -0.246 OA
BRANCH  69  71
ATOM     71  C   UNL     1       2.430  -0.482  10.116  1.00  0.00     0.067 A 
ATOM     72  C   UNL     1       1.664  -1.532   9.592  1.00  0.00     0.066 A 
ATOM     73  C   UNL     1       3.783  -0.713  10.412  1.00  0.00     0.066 A 
ATOM     74  C   UNL     1       2.238  -2.789   9.352  1.00  0.00     0.162 A 
ATOM     75  C   UNL     1       4.366  -1.961  10.174  1.00  0.00     0.162 A 
ATOM     76  C   UNL     1       3.595  -3.005   9.641  1.00  0.00     0.200 A 
BRANCH  74  77
ATOM     77  O   UNL     1       1.467  -3.822   8.817  1.00  0.00    -0.504 OA
ATOM     78  H   UNL     1       0.648  -3.633   8.249  1.00  0.00     0.293 HD
ENDBRANCH  74  77
BRANCH  75  79
ATOM     79  O   UNL     1       5.717  -2.145  10.470  1.00  0.00    -0.504 OA
ATOM     80  H   UNL     1       6.454  -1.820   9.859  1.00  0.00     0.293 HD
ENDBRANCH  75  79
BRANCH  76  81
ATOM     81  O   UNL     1       4.185  -4.249   9.406  1.00  0.00    -0.502 OA
ATOM     82  H   UNL     1       4.468  -4.550   8.485  1.00  0.00     0.293 HD
ENDBRANCH  76  81
ENDBRANCH  69  71
ENDBRANCH  68  69
ENDBRANCH   4  68
TORSDOF 31
ENDMDL
MODEL 6
REMARK VINA RESULT:    -5.535      1.423      2.571
REMARK INTER + INTRA:         -18.651
REMARK INTER:                 -13.093
REMARK INTRA:                  -5.557
REMARK UNBOUND:                -5.513
REMARK SMILES O=C(OC[C@H]1O[C@H](OC(=O)c2cc(O)c(O)c(O)c2)[C@H](OC(=O)c2cc(O)c(O)c(O)c2)[C@@H](OC(=O)c2cc(O)c(O)c(O)c2)[C@H]1OC(=O)c1cc(O)c(O)c(O)c1)c1cc(O)c(O)c(O)c1
REMARK SMILES IDX 5 1 46 2 33 3 20 4 7 5 6 6 4 7 3 8 2 9 1 10 59 11 60 12
REMARK SMILES IDX 61 13 67 14 63 15 65 16 62 17 64 19 66 21 47 23 48 24 49 25
REMARK SMILES IDX 50 26 58 27 51 28 56 29 52 30 54 31 57 32 53 34 55 36 34 38
REMARK SMILES IDX 35 39 36 40 37 41 45 42 38 43 43 44 39 45 41 46 44 47 40 49
REMARK SMILES IDX 42 51 8 53 9 54 10 55 11 56 19 57 12 58 17 59 13 60 15 61
REMARK SMILES IDX 18 62 14 64 16 66 21 68 22 69 23 70 24 71 32 72 25 73 30 74
REMARK SMILES IDX 26 75 28 76 31 77 27 79 29 81
REMARK H PARENT 62 18 64 20 66 22 57 33 53 35 55 37 44 48 40 50 42 52 18 63
REMARK H PARENT 14 65 16 67 31 78 27 80 29 82
REMARK Flexibility Score: inf
ROOT
ATOM      1  C   UNL     1       1.047   3.460   8.401  1.00  0.00     0.205 C 
ATOM      2  C   UNL     1       0.837   4.913   7.938  1.00  0.00     0.254 C 
ATOM      3  C   UNL     1      -0.667   5.113   7.719  1.00  0.00     0.267 C 
ATOM      4  C   UNL     1      -1.426   4.788   9.018  1.00  0.00     0.290 C 
ATOM      5  C   UNL     1      -1.018   3.385   9.521  1.00  0.00     0.357 C 
ATOM      6  O   UNL     1       0.392   3.245   9.644  1.00  0.00    -0.329 OA
ENDROOT
BRANCH   1   7
ATOM      7  C   UNL     1       2.537   3.102   8.546  1.00  0.00     0.269 C 
BRANCH   7   8
ATOM      8  O   UNL     1       2.705   1.696   8.393  1.00  0.00    -0.459 OA
BRANCH   8   9
ATOM      9  C   UNL     1       3.351   0.908   9.355  1.00  0.00     0.338 C 
ATOM     10  O   UNL     1       2.674   0.319  10.246  1.00  0.00    -0.246 OA
BRANCH   9  11
ATOM     11  C   UNL     1       4.825   0.795   9.347  1.00  0.00     0.067 A 
ATOM     12  C   UNL     1       5.606   1.778   8.725  1.00  0.00     0.066 A 
ATOM     13  C   UNL     1       6.996   1.658   8.664  1.00  0.00     0.162 A 
ATOM     14  C   UNL     1       5.458  -0.324   9.927  1.00  0.00     0.066 A 
ATOM     15  C   UNL     1       7.627   0.517   9.213  1.00  0.00     0.200 A 
ATOM     16  C   UNL     1       6.847  -0.466   9.849  1.00  0.00     0.162 A 
BRANCH  13  17
ATOM     17  O   UNL     1       7.708   2.696   8.062  1.00  0.00    -0.504 OA
ATOM     18  H   UNL     1       7.358   3.239   7.291  1.00  0.00     0.293 HD
ENDBRANCH  13  17
BRANCH  15  19
ATOM     19  O   UNL     1       9.011   0.328   9.141  1.00  0.00    -0.502 OA
ATOM     20  H   UNL     1       9.649   0.485   9.905  1.00  0.00     0.293 HD
ENDBRANCH  15  19
BRANCH  16  21
ATOM     21  O   UNL     1       7.435  -1.600  10.410  1.00  0.00    -0.504 OA
ATOM     22  H   UNL     1       8.362  -1.911  10.147  1.00  0.00     0.293 HD
ENDBRANCH  16  21
ENDBRANCH   9  11
ENDBRANCH   8   9
ENDBRANCH   7   8
ENDBRANCH   1   7
BRANCH   2  23
ATOM     23  O   UNL     1       1.284   5.824   8.944  1.00  0.00    -0.452 OA
BRANCH  23  24
ATOM     24  C   UNL     1       2.212   6.850   8.721  1.00  0.00     0.338 C 
ATOM     25  O   UNL     1       1.890   8.045   8.946  1.00  0.00    -0.246 OA
BRANCH  24  26
ATOM     26  C   UNL     1       3.571   6.513   8.242  1.00  0.00     0.067 A 
ATOM     27  C   UNL     1       3.913   6.657   6.885  1.00  0.00     0.066 A 
ATOM     28  C   UNL     1       4.522   5.990   9.133  1.00  0.00     0.066 A 
ATOM     29  C   UNL     1       5.182   6.270   6.423  1.00  0.00     0.162 A 
ATOM     30  C   UNL     1       5.790   5.613   8.680  1.00  0.00     0.162 A 
ATOM     31  C   UNL     1       6.125   5.749   7.325  1.00  0.00     0.200 A 
BRANCH  29  32
ATOM     32  O   UNL     1       5.506   6.396   5.075  1.00  0.00    -0.504 OA
ATOM     33  H   UNL     1       4.791   6.391   4.356  1.00  0.00     0.293 HD
ENDBRANCH  29  32
BRANCH  30  34
ATOM     34  O   UNL     1       6.704   5.096   9.595  1.00  0.00    -0.504 OA
ATOM     35  H   UNL     1       6.735   4.108   9.828  1.00  0.00     0.293 HD
ENDBRANCH  30  34
BRANCH  31  36
ATOM     36  O   UNL     1       7.390   5.356   6.893  1.00  0.00    -0.502 OA
ATOM     37  H   UNL     1       7.646   4.383   6.778  1.00  0.00     0.293 HD
ENDBRANCH  31  36
ENDBRANCH  24  26
ENDBRANCH  23  24
ENDBRANCH   2  23
BRANCH   3  38
ATOM     38  O   UNL     1      -0.934   6.446   7.283  1.00  0.00    -0.450 OA
BRANCH  38  39
ATOM     39  C   UNL     1      -1.023   6.794   5.928  1.00  0.00     0.338 C 
ATOM     40  O   UNL     1       0.009   7.156   5.300  1.00  0.00    -0.246 OA
BRANCH  39  41
ATOM     41  C   UNL     1      -2.323   6.717   5.224  1.00  0.00     0.067 A 
ATOM     42  C   UNL     1      -2.373   6.388   3.858  1.00  0.00     0.066 A 
ATOM     43  C   UNL     1      -3.520   6.967   5.914  1.00  0.00     0.066 A 
ATOM     44  C   UNL     1      -3.597   6.315   3.190  1.00  0.00     0.162 A 
ATOM     45  C   UNL     1      -4.752   6.901   5.256  1.00  0.00     0.162 A 
ATOM     46  C   UNL     1      -4.794   6.581   3.874  1.00  0.00     0.200 A 
BRANCH  44  47
ATOM     47  O   UNL     1      -3.628   5.975   1.836  1.00  0.00    -0.504 OA
ATOM     48  H   UNL     1      -4.250   6.442   1.182  1.00  0.00     0.293 HD
ENDBRANCH  44  47
BRANCH  45  49
ATOM     49  O   UNL     1      -5.899   7.162   6.005  1.00  0.00    -0.504 OA
ATOM     50  H   UNL     1      -6.485   7.975   5.879  1.00  0.00     0.293 HD
ENDBRANCH  45  49
BRANCH  46  51
ATOM     51  O   UNL     1      -5.987   6.521   3.147  1.00  0.00    -0.502 OA
ATOM     52  H   UNL     1      -6.906   6.521   3.575  1.00  0.00     0.293 HD
ENDBRANCH  46  51
ENDBRANCH  39  41
ENDBRANCH  38  39
ENDBRANCH   3  38
BRANCH   5  53
ATOM     53  O   UNL     1      -1.557   2.374   8.670  1.00  0.00    -0.428 OA
BRANCH  53  54
ATOM     54  C   UNL     1      -2.359   1.326   9.135  1.00  0.00     0.340 C 
ATOM     55  O   UNL     1      -3.527   1.545   9.548  1.00  0.00    -0.246 OA
BRANCH  54  56
ATOM     56  C   UNL     1      -1.827  -0.046   9.131  1.00  0.00     0.067 A 
ATOM     57  C   UNL     1      -0.495  -0.298   8.776  1.00  0.00     0.066 A 
ATOM     58  C   UNL     1      -2.651  -1.116   9.499  1.00  0.00     0.066 A 
ATOM     59  C   UNL     1       0.029  -1.596   8.816  1.00  0.00     0.162 A 
ATOM     60  C   UNL     1      -2.158  -2.421   9.518  1.00  0.00     0.162 A 
ATOM     61  C   UNL     1      -0.810  -2.676   9.193  1.00  0.00     0.200 A 
BRANCH  59  62
ATOM     62  O   UNL     1       1.376  -1.758   8.480  1.00  0.00    -0.504 OA
ATOM     63  H   UNL     1       1.885  -2.629   8.583  1.00  0.00     0.293 HD
ENDBRANCH  59  62
BRANCH  60  64
ATOM     64  O   UNL     1      -3.030  -3.456   9.857  1.00  0.00    -0.504 OA
ATOM     65  H   UNL     1      -3.217  -4.229   9.226  1.00  0.00     0.293 HD
ENDBRANCH  60  64
BRANCH  61  66
ATOM     66  O   UNL     1      -0.341  -3.997   9.260  1.00  0.00    -0.502 OA
ATOM     67  H   UNL     1      -0.023  -4.527   8.460  1.00  0.00     0.293 HD
ENDBRANCH  61  66
ENDBRANCH  54  56
ENDBRANCH  53  54
ENDBRANCH   5  53
BRANCH   4  68
ATOM     68  O   UNL     1      -2.832   4.782   8.777  1.00  0.00    -0.448 OA
BRANCH  68  69
ATOM     69  C   UNL     1      -3.800   4.988   9.765  1.00  0.00     0.339 C 
ATOM     70  O   UNL     1      -3.486   5.530  10.861  1.00  0.00    -0.246 OA
BRANCH  69  71
ATOM     71  C   UNL     1      -5.192   4.553   9.522  1.00  0.00     0.067 A 
ATOM     72  C   UNL     1      -5.906   3.845  10.497  1.00  0.00     0.066 A 
ATOM     73  C   UNL     1      -5.823   4.853   8.304  1.00  0.00     0.066 A 
ATOM     74  C   UNL     1      -7.234   3.454  10.271  1.00  0.00     0.162 A 
ATOM     75  C   UNL     1      -7.146   4.471   8.070  1.00  0.00     0.162 A 
ATOM     76  C   UNL     1      -7.859   3.770   9.053  1.00  0.00     0.200 A 
BRANCH  74  77
ATOM     77  O   UNL     1      -7.939   2.761  11.256  1.00  0.00    -0.504 OA
ATOM     78  H   UNL     1      -8.721   2.158  11.024  1.00  0.00     0.293 HD
ENDBRANCH  74  77
BRANCH  75  79
ATOM     79  O   UNL     1      -7.741   4.800   6.850  1.00  0.00    -0.504 OA
ATOM     80  H   UNL     1      -8.729   4.669   6.678  1.00  0.00     0.293 HD
ENDBRANCH  75  79
BRANCH  76  81
ATOM     81  O   UNL     1      -9.181   3.391   8.812  1.00  0.00    -0.502 OA
ATOM     82  H   UNL     1      -9.804   3.093   9.548  1.00  0.00     0.293 HD
ENDBRANCH  76  81
ENDBRANCH  69  71
ENDBRANCH  68  69
ENDBRANCH   4  68
TORSDOF 31
ENDMDL
MODEL 7
REMARK VINA RESULT:    -5.517      1.494     10.487
REMARK INTER + INTRA:         -18.609
REMARK INTER:                 -13.073
REMARK INTRA:                  -5.536
REMARK UNBOUND:                -5.513
REMARK SMILES O=C(OC[C@H]1O[C@H](OC(=O)c2cc(O)c(O)c(O)c2)[C@H](OC(=O)c2cc(O)c(O)c(O)c2)[C@@H](OC(=O)c2cc(O)c(O)c(O)c2)[C@H]1OC(=O)c1cc(O)c(O)c(O)c1)c1cc(O)c(O)c(O)c1
REMARK SMILES IDX 5 1 46 2 33 3 20 4 7 5 6 6 4 7 3 8 2 9 1 10 59 11 60 12
REMARK SMILES IDX 61 13 67 14 63 15 65 16 62 17 64 19 66 21 47 23 48 24 49 25
REMARK SMILES IDX 50 26 58 27 51 28 56 29 52 30 54 31 57 32 53 34 55 36 34 38
REMARK SMILES IDX 35 39 36 40 37 41 45 42 38 43 43 44 39 45 41 46 44 47 40 49
REMARK SMILES IDX 42 51 8 53 9 54 10 55 11 56 19 57 12 58 17 59 13 60 15 61
REMARK SMILES IDX 18 62 14 64 16 66 21 68 22 69 23 70 24 71 32 72 25 73 30 74
REMARK SMILES IDX 26 75 28 76 31 77 27 79 29 81
REMARK H PARENT 62 18 64 20 66 22 57 33 53 35 55 37 44 48 40 50 42 52 18 63
REMARK H PARENT 14 65 16 67 31 78 27 80 29 82
REMARK Flexibility Score: inf
ROOT
ATOM      1  C   UNL     1       0.533   4.924   8.037  1.00  0.00     0.205 C 
ATOM      2  C   UNL     1      -0.529   3.910   8.499  1.00  0.00     0.254 C 
ATOM      3  C   UNL     1       0.106   2.516   8.431  1.00  0.00     0.267 C 
ATOM      4  C   UNL     1       1.376   2.484   9.301  1.00  0.00     0.290 C 
ATOM      5  C   UNL     1       2.309   3.650   8.901  1.00  0.00     0.357 C 
ATOM      6  O   UNL     1       1.643   4.906   8.926  1.00  0.00    -0.329 OA
ENDROOT
BRANCH   1   7
ATOM      7  C   UNL     1      -0.024   6.357   7.953  1.00  0.00     0.269 C 
BRANCH   7   8
ATOM      8  O   UNL     1      -1.203   6.362   7.155  1.00  0.00    -0.459 OA
BRANCH   8   9
ATOM      9  C   UNL     1      -1.191   6.719   5.800  1.00  0.00     0.338 C 
ATOM     10  O   UNL     1      -0.101   7.037   5.242  1.00  0.00    -0.246 OA
BRANCH   9  11
ATOM     11  C   UNL     1      -2.454   6.755   5.034  1.00  0.00     0.067 A 
ATOM     12  C   UNL     1      -3.647   7.143   5.658  1.00  0.00     0.066 A 
ATOM     13  C   UNL     1      -4.858   7.132   4.961  1.00  0.00     0.162 A 
ATOM     14  C   UNL     1      -2.481   6.359   3.681  1.00  0.00     0.066 A 
ATOM     15  C   UNL     1      -4.889   6.700   3.615  1.00  0.00     0.200 A 
ATOM     16  C   UNL     1      -3.692   6.321   2.982  1.00  0.00     0.162 A 
BRANCH  13  17
ATOM     17  O   UNL     1      -5.997   7.569   5.639  1.00  0.00    -0.504 OA
ATOM     18  H   UNL     1      -6.785   6.978   5.842  1.00  0.00     0.293 HD
ENDBRANCH  13  17
BRANCH  15  19
ATOM     19  O   UNL     1      -6.081   6.629   2.886  1.00  0.00    -0.502 OA
ATOM     20  H   UNL     1      -6.274   5.945   2.171  1.00  0.00     0.293 HD
ENDBRANCH  15  19
BRANCH  16  21
ATOM     21  O   UNL     1      -3.682   5.897   1.652  1.00  0.00    -0.504 OA
ATOM     22  H   UNL     1      -3.106   6.345   0.950  1.00  0.00     0.293 HD
ENDBRANCH  16  21
ENDBRANCH   9  11
ENDBRANCH   8   9
ENDBRANCH   7   8
ENDBRANCH   1   7
BRANCH   2  23
ATOM     23  O   UNL     1      -0.917   4.177   9.847  1.00  0.00    -0.452 OA
BRANCH  23  24
ATOM     24  C   UNL     1      -2.092   4.850  10.210  1.00  0.00     0.338 C 
ATOM     25  O   UNL     1      -2.031   5.853  10.966  1.00  0.00    -0.246 OA
BRANCH  24  26
ATOM     26  C   UNL     1      -3.393   4.383   9.681  1.00  0.00     0.067 A 
ATOM     27  C   UNL     1      -4.211   5.237   8.919  1.00  0.00     0.066 A 
ATOM     28  C   UNL     1      -3.851   3.090   9.983  1.00  0.00     0.066 A 
ATOM     29  C   UNL     1      -5.475   4.811   8.478  1.00  0.00     0.162 A 
ATOM     30  C   UNL     1      -5.105   2.657   9.538  1.00  0.00     0.162 A 
ATOM     31  C   UNL     1      -5.922   3.515   8.786  1.00  0.00     0.200 A 
BRANCH  29  32
ATOM     32  O   UNL     1      -6.288   5.670   7.744  1.00  0.00    -0.504 OA
ATOM     33  H   UNL     1      -7.294   5.680   7.865  1.00  0.00     0.293 HD
ENDBRANCH  29  32
BRANCH  30  34
ATOM     34  O   UNL     1      -5.524   1.369   9.860  1.00  0.00    -0.504 OA
ATOM     35  H   UNL     1      -5.835   1.120  10.794  1.00  0.00     0.293 HD
ENDBRANCH  30  34
BRANCH  31  36
ATOM     36  O   UNL     1      -7.172   3.067   8.363  1.00  0.00    -0.502 OA
ATOM     37  H   UNL     1      -7.473   2.109   8.483  1.00  0.00     0.293 HD
ENDBRANCH  31  36
ENDBRANCH  24  26
ENDBRANCH  23  24
ENDBRANCH   2  23
BRANCH   3  38
ATOM     38  O   UNL     1      -0.830   1.522   8.844  1.00  0.00    -0.450 OA
BRANCH  38  39
ATOM     39  C   UNL     1      -0.861   0.235   8.288  1.00  0.00     0.338 C 
ATOM     40  O   UNL     1      -0.218  -0.011   7.231  1.00  0.00    -0.246 OA
BRANCH  39  41
ATOM     41  C   UNL     1      -1.630  -0.842   8.948  1.00  0.00     0.067 A 
ATOM     42  C   UNL     1      -0.968  -1.958   9.491  1.00  0.00     0.066 A 
ATOM     43  C   UNL     1      -3.028  -0.761   9.044  1.00  0.00     0.066 A 
ATOM     44  C   UNL     1      -1.690  -2.978  10.114  1.00  0.00     0.162 A 
ATOM     45  C   UNL     1      -3.763  -1.778   9.662  1.00  0.00     0.162 A 
ATOM     46  C   UNL     1      -3.090  -2.907  10.197  1.00  0.00     0.200 A 
BRANCH  44  47
ATOM     47  O   UNL     1      -1.014  -4.072  10.659  1.00  0.00    -0.504 OA
ATOM     48  H   UNL     1      -0.658  -4.824  10.074  1.00  0.00     0.293 HD
ENDBRANCH  44  47
BRANCH  45  49
ATOM     49  O   UNL     1      -5.149  -1.628   9.720  1.00  0.00    -0.504 OA
ATOM     50  H   UNL     1      -5.662  -1.423  10.565  1.00  0.00     0.293 HD
ENDBRANCH  45  49
BRANCH  46  51
ATOM     51  O   UNL     1      -3.762  -3.970  10.807  1.00  0.00    -0.502 OA
ATOM     52  H   UNL     1      -4.535  -3.850  11.451  1.00  0.00     0.293 HD
ENDBRANCH  46  51
ENDBRANCH  39  41
ENDBRANCH  38  39
ENDBRANCH   3  38
BRANCH   5  53
ATOM     53  O   UNL     1       2.891   3.406   7.622  1.00  0.00    -0.428 OA
BRANCH  53  54
ATOM     54  C   UNL     1       4.227   3.690   7.318  1.00  0.00     0.340 C 
ATOM     55  O   UNL     1       5.121   2.822   7.485  1.00  0.00    -0.246 OA
BRANCH  54  56
ATOM     56  C   UNL     1       4.581   5.019   6.793  1.00  0.00     0.067 A 
ATOM     57  C   UNL     1       3.611   5.836   6.199  1.00  0.00     0.066 A 
ATOM     58  C   UNL     1       5.897   5.482   6.898  1.00  0.00     0.066 A 
ATOM     59  C   UNL     1       3.934   7.120   5.740  1.00  0.00     0.162 A 
ATOM     60  C   UNL     1       6.247   6.746   6.421  1.00  0.00     0.162 A 
ATOM     61  C   UNL     1       5.268   7.587   5.852  1.00  0.00     0.200 A 
BRANCH  59  62
ATOM     62  O   UNL     1       2.901   7.887   5.191  1.00  0.00    -0.504 OA
ATOM     63  H   UNL     1       2.096   8.211   5.715  1.00  0.00     0.293 HD
ENDBRANCH  59  62
BRANCH  60  64
ATOM     64  O   UNL     1       7.580   7.147   6.516  1.00  0.00    -0.504 OA
ATOM     65  H   UNL     1       8.251   6.961   5.777  1.00  0.00     0.293 HD
ENDBRANCH  60  64
BRANCH  61  66
ATOM     66  O   UNL     1       5.651   8.865   5.418  1.00  0.00    -0.502 OA
ATOM     67  H   UNL     1       5.855   9.637   6.038  1.00  0.00     0.293 HD
ENDBRANCH  61  66
ENDBRANCH  54  56
ENDBRANCH  53  54
ENDBRANCH   5  53
BRANCH   4  68
ATOM     68  O   UNL     1       2.081   1.261   9.097  1.00  0.00    -0.448 OA
BRANCH  68  69
ATOM     69  C   UNL     1       2.251   0.279  10.077  1.00  0.00     0.339 C 
ATOM     70  O   UNL     1       1.479   0.234  11.075  1.00  0.00    -0.246 OA
BRANCH  69  71
ATOM     71  C   UNL     1       3.353  -0.698   9.945  1.00  0.00     0.067 A 
ATOM     72  C   UNL     1       4.684  -0.274   9.845  1.00  0.00     0.066 A 
ATOM     73  C   UNL     1       3.077  -2.075   9.925  1.00  0.00     0.066 A 
ATOM     74  C   UNL     1       5.728  -1.205   9.742  1.00  0.00     0.162 A 
ATOM     75  C   UNL     1       4.110  -3.011   9.826  1.00  0.00     0.162 A 
ATOM     76  C   UNL     1       5.442  -2.580   9.735  1.00  0.00     0.200 A 
BRANCH  74  77
ATOM     77  O   UNL     1       7.051  -0.769   9.657  1.00  0.00    -0.504 OA
ATOM     78  H   UNL     1       7.809  -1.286  10.092  1.00  0.00     0.293 HD
ENDBRANCH  74  77
BRANCH  75  79
ATOM     79  O   UNL     1       3.794  -4.371   9.823  1.00  0.00    -0.504 OA
ATOM     80  H   UNL     1       4.269  -5.038  10.416  1.00  0.00     0.293 HD
ENDBRANCH  75  79
BRANCH  76  81
ATOM     81  O   UNL     1       6.468  -3.522   9.637  1.00  0.00    -0.502 OA
ATOM     82  H   UNL     1       6.699  -4.153  10.389  1.00  0.00     0.293 HD
ENDBRANCH  76  81
ENDBRANCH  69  71
ENDBRANCH  68  69
ENDBRANCH   4  68
TORSDOF 31
ENDMDL
MODEL 8
REMARK VINA RESULT:    -5.489     10.998     15.271
REMARK INTER + INTRA:         -18.542
REMARK INTER:                 -11.197
REMARK INTRA:                  -7.345
REMARK UNBOUND:                -5.513
REMARK SMILES O=C(OC[C@H]1O[C@H](OC(=O)c2cc(O)c(O)c(O)c2)[C@H](OC(=O)c2cc(O)c(O)c(O)c2)[C@@H](OC(=O)c2cc(O)c(O)c(O)c2)[C@H]1OC(=O)c1cc(O)c(O)c(O)c1)c1cc(O)c(O)c(O)c1
REMARK SMILES IDX 5 1 46 2 33 3 20 4 7 5 6 6 4 7 3 8 2 9 1 10 59 11 60 12
REMARK SMILES IDX 61 13 67 14 63 15 65 16 62 17 64 19 66 21 47 23 48 24 49 25
REMARK SMILES IDX 50 26 58 27 51 28 56 29 52 30 54 31 57 32 53 34 55 36 34 38
REMARK SMILES IDX 35 39 36 40 37 41 45 42 38 43 43 44 39 45 41 46 44 47 40 49
REMARK SMILES IDX 42 51 8 53 9 54 10 55 11 56 19 57 12 58 17 59 13 60 15 61
REMARK SMILES IDX 18 62 14 64 16 66 21 68 22 69 23 70 24 71 32 72 25 73 30 74
REMARK SMILES IDX 26 75 28 76 31 77 27 79 29 81
REMARK H PARENT 62 18 64 20 66 22 57 33 53 35 55 37 44 48 40 50 42 52 18 63
REMARK H PARENT 14 65 16 67 31 78 27 80 29 82
REMARK Flexibility Score: inf
ROOT
ATOM      1  C   UNL     1      -0.518   1.129  -6.141  1.00  0.00     0.205 C 
ATOM      2  C   UNL     1       0.524   0.123  -5.620  1.00  0.00     0.254 C 
ATOM      3  C   UNL     1      -0.235  -1.126  -5.156  1.00  0.00     0.267 C 
ATOM      4  C   UNL     1      -1.070  -1.686  -6.322  1.00  0.00     0.290 C 
ATOM      5  C   UNL     1      -1.953  -0.564  -6.914  1.00  0.00     0.357 C 
ATOM      6  O   UNL     1      -1.197   0.589  -7.266  1.00  0.00    -0.329 OA
ENDROOT
BRANCH   1   7
ATOM      7  C   UNL     1       0.116   2.477  -6.533  1.00  0.00     0.269 C 
BRANCH   7   8
ATOM      8  O   UNL     1      -0.423   3.510  -5.715  1.00  0.00    -0.459 OA
BRANCH   8   9
ATOM      9  C   UNL     1      -1.767   3.904  -5.791  1.00  0.00     0.338 C 
ATOM     10  O   UNL     1      -2.353   3.927  -6.911  1.00  0.00    -0.246 OA
BRANCH   9  11
ATOM     11  C   UNL     1      -2.484   4.323  -4.569  1.00  0.00     0.067 A 
ATOM     12  C   UNL     1      -3.033   5.609  -4.479  1.00  0.00     0.066 A 
ATOM     13  C   UNL     1      -3.668   6.038  -3.311  1.00  0.00     0.162 A 
ATOM     14  C   UNL     1      -2.585   3.451  -3.466  1.00  0.00     0.066 A 
ATOM     15  C   UNL     1      -3.737   5.175  -2.192  1.00  0.00     0.200 A 
ATOM     16  C   UNL     1      -3.197   3.879  -2.283  1.00  0.00     0.162 A 
BRANCH  13  17
ATOM     17  O   UNL     1      -4.224   7.318  -3.310  1.00  0.00    -0.504 OA
ATOM     18  H   UNL     1      -3.952   8.043  -2.669  1.00  0.00     0.293 HD
ENDBRANCH  13  17
BRANCH  15  19
ATOM     19  O   UNL     1      -4.323   5.571  -0.985  1.00  0.00    -0.502 OA
ATOM     20  H   UNL     1      -3.809   5.798  -0.148  1.00  0.00     0.293 HD
ENDBRANCH  15  19
BRANCH  16  21
ATOM     21  O   UNL     1      -3.253   2.997  -1.203  1.00  0.00    -0.504 OA
ATOM     22  H   UNL     1      -4.091   2.474  -0.981  1.00  0.00     0.293 HD
ENDBRANCH  16  21
ENDBRANCH   9  11
ENDBRANCH   8   9
ENDBRANCH   7   8
ENDBRANCH   1   7
BRANCH   2  23
ATOM     23  O   UNL     1       1.426  -0.244  -6.665  1.00  0.00    -0.452 OA
BRANCH  23  24
ATOM     24  C   UNL     1       2.818  -0.094  -6.594  1.00  0.00     0.338 C 
ATOM     25  O   UNL     1       3.383   0.816  -7.254  1.00  0.00    -0.246 OA
BRANCH  24  26
ATOM     26  C   UNL     1       3.605  -0.997  -5.726  1.00  0.00     0.067 A 
ATOM     27  C   UNL     1       3.817  -2.340  -6.087  1.00  0.00     0.066 A 
ATOM     28  C   UNL     1       4.104  -0.534  -4.498  1.00  0.00     0.066 A 
ATOM     29  C   UNL     1       4.507  -3.211  -5.226  1.00  0.00     0.162 A 
ATOM     30  C   UNL     1       4.800  -1.394  -3.642  1.00  0.00     0.162 A 
ATOM     31  C   UNL     1       5.002  -2.735  -4.001  1.00  0.00     0.200 A 
BRANCH  29  32
ATOM     32  O   UNL     1       4.694  -4.544  -5.581  1.00  0.00    -0.504 OA
ATOM     33  H   UNL     1       3.962  -5.080  -6.032  1.00  0.00     0.293 HD
ENDBRANCH  29  32
BRANCH  30  34
ATOM     34  O   UNL     1       5.278  -0.897  -2.432  1.00  0.00    -0.504 OA
ATOM     35  H   UNL     1       5.320  -1.468  -1.593  1.00  0.00     0.293 HD
ENDBRANCH  30  34
BRANCH  31  36
ATOM     36  O   UNL     1       5.688  -3.578  -3.128  1.00  0.00    -0.502 OA
ATOM     37  H   UNL     1       5.456  -4.558  -3.028  1.00  0.00     0.293 HD
ENDBRANCH  31  36
ENDBRANCH  24  26
ENDBRANCH  23  24
ENDBRANCH   2  23
BRANCH   3  38
ATOM     38  O   UNL     1       0.675  -2.104  -4.655  1.00  0.00    -0.450 OA
BRANCH  38  39
ATOM     39  C   UNL     1       0.999  -2.208  -3.294  1.00  0.00     0.338 C 
ATOM     40  O   UNL     1       1.220  -1.168  -2.617  1.00  0.00    -0.246 OA
BRANCH  39  41
ATOM     41  C   UNL     1       1.060  -3.536  -2.645  1.00  0.00     0.067 A 
ATOM     42  C   UNL     1       1.818  -4.573  -3.217  1.00  0.00     0.066 A 
ATOM     43  C   UNL     1       0.367  -3.774  -1.447  1.00  0.00     0.066 A 
ATOM     44  C   UNL     1       1.878  -5.829  -2.608  1.00  0.00     0.162 A 
ATOM     45  C   UNL     1       0.416  -5.027  -0.829  1.00  0.00     0.162 A 
ATOM     46  C   UNL     1       1.172  -6.073  -1.419  1.00  0.00     0.200 A 
BRANCH  44  47
ATOM     47  O   UNL     1       2.647  -6.842  -3.185  1.00  0.00    -0.504 OA
ATOM     48  H   UNL     1       3.521  -7.152  -2.767  1.00  0.00     0.293 HD
ENDBRANCH  44  47
BRANCH  45  49
ATOM     49  O   UNL     1      -0.299  -5.190   0.358  1.00  0.00    -0.504 OA
ATOM     50  H   UNL     1      -1.002  -5.900   0.502  1.00  0.00     0.293 HD
ENDBRANCH  45  49
BRANCH  46  51
ATOM     51  O   UNL     1       1.247  -7.356  -0.869  1.00  0.00    -0.502 OA
ATOM     52  H   UNL     1       0.936  -8.193  -1.351  1.00  0.00     0.293 HD
ENDBRANCH  46  51
ENDBRANCH  39  41
ENDBRANCH  38  39
ENDBRANCH   3  38
BRANCH   5  53
ATOM     53  O   UNL     1      -3.004  -0.227  -6.009  1.00  0.00    -0.428 OA
BRANCH  53  54
ATOM     54  C   UNL     1      -4.226   0.318  -6.418  1.00  0.00     0.340 C 
ATOM     55  O   UNL     1      -4.700   0.051  -7.552  1.00  0.00    -0.246 OA
BRANCH  54  56
ATOM     56  C   UNL     1      -4.961   1.207  -5.504  1.00  0.00     0.067 A 
ATOM     57  C   UNL     1      -5.297   0.787  -4.211  1.00  0.00     0.066 A 
ATOM     58  C   UNL     1      -5.319   2.494  -5.921  1.00  0.00     0.066 A 
ATOM     59  C   UNL     1      -5.956   1.646  -3.323  1.00  0.00     0.162 A 
ATOM     60  C   UNL     1      -6.001   3.357  -5.063  1.00  0.00     0.162 A 
ATOM     61  C   UNL     1      -6.313   2.951  -3.748  1.00  0.00     0.200 A 
BRANCH  59  62
ATOM     62  O   UNL     1      -6.225   1.163  -2.038  1.00  0.00    -0.504 OA
ATOM     63  H   UNL     1      -5.690   1.415  -1.214  1.00  0.00     0.293 HD
ENDBRANCH  59  62
BRANCH  60  64
ATOM     64  O   UNL     1      -6.367   4.616  -5.538  1.00  0.00    -0.504 OA
ATOM     65  H   UNL     1      -6.855   4.736  -6.420  1.00  0.00     0.293 HD
ENDBRANCH  60  64
BRANCH  61  66
ATOM     66  O   UNL     1      -6.966   3.860  -2.902  1.00  0.00    -0.502 OA
ATOM     67  H   UNL     1      -7.709   3.608  -2.265  1.00  0.00     0.293 HD
ENDBRANCH  61  66
ENDBRANCH  54  56
ENDBRANCH  53  54
ENDBRANCH   5  53
BRANCH   4  68
ATOM     68  O   UNL     1      -1.926  -2.727  -5.857  1.00  0.00    -0.448 OA
BRANCH  68  69
ATOM     69  C   UNL     1      -1.620  -4.089  -5.931  1.00  0.00     0.339 C 
ATOM     70  O   UNL     1      -1.170  -4.584  -7.003  1.00  0.00    -0.246 OA
BRANCH  69  71
ATOM     71  C   UNL     1      -1.840  -4.950  -4.750  1.00  0.00     0.067 A 
ATOM     72  C   UNL     1      -2.612  -4.506  -3.669  1.00  0.00     0.066 A 
ATOM     73  C   UNL     1      -1.280  -6.237  -4.700  1.00  0.00     0.066 A 
ATOM     74  C   UNL     1      -2.838  -5.334  -2.559  1.00  0.00     0.162 A 
ATOM     75  C   UNL     1      -1.501  -7.072  -3.601  1.00  0.00     0.162 A 
ATOM     76  C   UNL     1      -2.282  -6.624  -2.525  1.00  0.00     0.200 A 
BRANCH  74  77
ATOM     77  O   UNL     1      -3.620  -4.885  -1.495  1.00  0.00    -0.504 OA
ATOM     78  H   UNL     1      -4.009  -3.947  -1.482  1.00  0.00     0.293 HD
ENDBRANCH  74  77
BRANCH  75  79
ATOM     79  O   UNL     1      -0.937  -8.349  -3.596  1.00  0.00    -0.504 OA
ATOM     80  H   UNL     1      -0.055  -8.552  -4.046  1.00  0.00     0.293 HD
ENDBRANCH  75  79
BRANCH  76  81
ATOM     81  O   UNL     1      -2.499  -7.464  -1.431  1.00  0.00    -0.502 OA
ATOM     82  H   UNL     1      -3.422  -7.744  -1.135  1.00  0.00     0.293 HD
ENDBRANCH  76  81
ENDBRANCH  69  71
ENDBRANCH  68  69
ENDBRANCH   4  68
TORSDOF 31
ENDMDL
MODEL 9
REMARK VINA RESULT:    -5.483     11.001     15.321
REMARK INTER + INTRA:         -18.529
REMARK INTER:                 -11.297
REMARK INTRA:                  -7.232
REMARK UNBOUND:                -5.513
REMARK SMILES O=C(OC[C@H]1O[C@H](OC(=O)c2cc(O)c(O)c(O)c2)[C@H](OC(=O)c2cc(O)c(O)c(O)c2)[C@@H](OC(=O)c2cc(O)c(O)c(O)c2)[C@H]1OC(=O)c1cc(O)c(O)c(O)c1)c1cc(O)c(O)c(O)c1
REMARK SMILES IDX 5 1 46 2 33 3 20 4 7 5 6 6 4 7 3 8 2 9 1 10 59 11 60 12
REMARK SMILES IDX 61 13 67 14 63 15 65 16 62 17 64 19 66 21 47 23 48 24 49 25
REMARK SMILES IDX 50 26 58 27 51 28 56 29 52 30 54 31 57 32 53 34 55 36 34 38
REMARK SMILES IDX 35 39 36 40 37 41 45 42 38 43 43 44 39 45 41 46 44 47 40 49
REMARK SMILES IDX 42 51 8 53 9 54 10 55 11 56 19 57 12 58 17 59 13 60 15 61
REMARK SMILES IDX 18 62 14 64 16 66 21 68 22 69 23 70 24 71 32 72 25 73 30 74
REMARK SMILES IDX 26 75 28 76 31 77 27 79 29 81
REMARK H PARENT 62 18 64 20 66 22 57 33 53 35 55 37 44 48 40 50 42 52 18 63
REMARK H PARENT 14 65 16 67 31 78 27 80 29 82
REMARK Flexibility Score: inf
ROOT
ATOM      1  C   UNL     1      -0.569   1.135  -6.165  1.00  0.00     0.205 C 
ATOM      2  C   UNL     1       0.513   0.171  -5.646  1.00  0.00     0.254 C 
ATOM      3  C   UNL     1      -0.196  -1.101  -5.167  1.00  0.00     0.267 C 
ATOM      4  C   UNL     1      -1.021  -1.699  -6.321  1.00  0.00     0.290 C 
ATOM      5  C   UNL     1      -1.949  -0.614  -6.913  1.00  0.00     0.357 C 
ATOM      6  O   UNL     1      -1.238   0.562  -7.281  1.00  0.00    -0.329 OA
ENDROOT
BRANCH   1   7
ATOM      7  C   UNL     1       0.012   2.502  -6.572  1.00  0.00     0.269 C 
BRANCH   7   8
ATOM      8  O   UNL     1      -0.448   3.501  -5.668  1.00  0.00    -0.459 OA
BRANCH   8   9
ATOM      9  C   UNL     1      -1.759   3.995  -5.699  1.00  0.00     0.338 C 
ATOM     10  O   UNL     1      -2.374   4.082  -6.802  1.00  0.00    -0.246 OA
BRANCH   9  11
ATOM     11  C   UNL     1      -2.409   4.444  -4.451  1.00  0.00     0.067 A 
ATOM     12  C   UNL     1      -2.549   3.562  -3.370  1.00  0.00     0.066 A 
ATOM     13  C   UNL     1      -3.206   3.956  -2.203  1.00  0.00     0.162 A 
ATOM     14  C   UNL     1      -2.933   5.748  -4.348  1.00  0.00     0.066 A 
ATOM     15  C   UNL     1      -3.765   5.253  -2.115  1.00  0.00     0.200 A 
ATOM     16  C   UNL     1      -3.616   6.145  -3.193  1.00  0.00     0.162 A 
BRANCH  13  17
ATOM     17  O   UNL     1      -3.272   3.035  -1.156  1.00  0.00    -0.504 OA
ATOM     18  H   UNL     1      -4.093   2.888  -0.594  1.00  0.00     0.293 HD
ENDBRANCH  13  17
BRANCH  15  19
ATOM     19  O   UNL     1      -4.470   5.681  -0.986  1.00  0.00    -0.502 OA
ATOM     20  H   UNL     1      -5.325   6.215  -1.016  1.00  0.00     0.293 HD
ENDBRANCH  15  19
BRANCH  16  21
ATOM     21  O   UNL     1      -4.145   7.435  -3.139  1.00  0.00    -0.504 OA
ATOM     22  H   UNL     1      -3.719   8.211  -3.630  1.00  0.00     0.293 HD
ENDBRANCH  16  21
ENDBRANCH   9  11
ENDBRANCH   8   9
ENDBRANCH   7   8
ENDBRANCH   1   7
BRANCH   2  23
ATOM     23  O   UNL     1       1.418  -0.172  -6.697  1.00  0.00    -0.452 OA
BRANCH  23  24
ATOM     24  C   UNL     1       2.809  -0.022  -6.618  1.00  0.00     0.338 C 
ATOM     25  O   UNL     1       3.378   0.897  -7.264  1.00  0.00    -0.246 OA
BRANCH  24  26
ATOM     26  C   UNL     1       3.594  -0.936  -5.759  1.00  0.00     0.067 A 
ATOM     27  C   UNL     1       3.794  -2.279  -6.129  1.00  0.00     0.066 A 
ATOM     28  C   UNL     1       4.102  -0.484  -4.531  1.00  0.00     0.066 A 
ATOM     29  C   UNL     1       4.480  -3.160  -5.277  1.00  0.00     0.162 A 
ATOM     30  C   UNL     1       4.795  -1.356  -3.684  1.00  0.00     0.162 A 
ATOM     31  C   UNL     1       4.985  -2.696  -4.051  1.00  0.00     0.200 A 
BRANCH  29  32
ATOM     32  O   UNL     1       4.655  -4.493  -5.641  1.00  0.00    -0.504 OA
ATOM     33  H   UNL     1       4.861  -4.758  -6.597  1.00  0.00     0.293 HD
ENDBRANCH  29  32
BRANCH  30  34
ATOM     34  O   UNL     1       5.283  -0.870  -2.473  1.00  0.00    -0.504 OA
ATOM     35  H   UNL     1       5.324   0.124  -2.267  1.00  0.00     0.293 HD
ENDBRANCH  30  34
BRANCH  31  36
ATOM     36  O   UNL     1       5.668  -3.549  -3.187  1.00  0.00    -0.502 OA
ATOM     37  H   UNL     1       6.582  -3.326  -2.816  1.00  0.00     0.293 HD
ENDBRANCH  31  36
ENDBRANCH  24  26
ENDBRANCH  23  24
ENDBRANCH   2  23
BRANCH   3  38
ATOM     38  O   UNL     1       0.753  -2.042  -4.666  1.00  0.00    -0.450 OA
BRANCH  38  39
ATOM     39  C   UNL     1       1.049  -2.163  -3.302  1.00  0.00     0.338 C 
ATOM     40  O   UNL     1       1.270  -1.132  -2.610  1.00  0.00    -0.246 OA
BRANCH  39  41
ATOM     41  C   UNL     1       1.084  -3.497  -2.664  1.00  0.00     0.067 A 
ATOM     42  C   UNL     1       0.403  -3.725  -1.455  1.00  0.00     0.066 A 
ATOM     43  C   UNL     1       1.794  -4.552  -3.260  1.00  0.00     0.066 A 
ATOM     44  C   UNL     1       0.434  -4.983  -0.848  1.00  0.00     0.162 A 
ATOM     45  C   UNL     1       1.836  -5.815  -2.661  1.00  0.00     0.162 A 
ATOM     46  C   UNL     1       1.157  -6.034  -1.435  1.00  0.00     0.200 A 
BRANCH  44  47
ATOM     47  O   UNL     1      -0.260  -5.193   0.345  1.00  0.00    -0.504 OA
ATOM     48  H   UNL     1      -0.648  -4.420   0.880  1.00  0.00     0.293 HD
ENDBRANCH  44  47
BRANCH  45  49
ATOM     49  O   UNL     1       2.561  -6.813  -3.311  1.00  0.00    -0.504 OA
ATOM     50  H   UNL     1       3.319  -7.329  -2.888  1.00  0.00     0.293 HD
ENDBRANCH  45  49
BRANCH  46  51
ATOM     51  O   UNL     1       1.175  -7.263  -0.769  1.00  0.00    -0.502 OA
ATOM     52  H   UNL     1       0.627  -7.461   0.061  1.00  0.00     0.293 HD
ENDBRANCH  46  51
ENDBRANCH  39  41
ENDBRANCH  38  39
ENDBRANCH   3  38
BRANCH   5  53
ATOM     53  O   UNL     1      -3.003  -0.308  -6.001  1.00  0.00    -0.428 OA
BRANCH  53  54
ATOM     54  C   UNL     1      -4.234   0.225  -6.399  1.00  0.00     0.340 C 
ATOM     55  O   UNL     1      -4.738  -0.084  -7.509  1.00  0.00    -0.246 OA
BRANCH  54  56
ATOM     56  C   UNL     1      -4.942   1.152  -5.502  1.00  0.00     0.067 A 
ATOM     57  C   UNL     1      -5.324   0.753  -4.215  1.00  0.00     0.066 A 
ATOM     58  C   UNL     1      -5.229   2.454  -5.928  1.00  0.00     0.066 A 
ATOM     59  C   UNL     1      -5.957   1.646  -3.341  1.00  0.00     0.162 A 
ATOM     60  C   UNL     1      -5.884   3.351  -5.085  1.00  0.00     0.162 A 
ATOM     61  C   UNL     1      -6.242   2.965  -3.776  1.00  0.00     0.200 A 
BRANCH  59  62
ATOM     62  O   UNL     1      -6.275   1.180  -2.061  1.00  0.00    -0.504 OA
ATOM     63  H   UNL     1      -5.950   0.298  -1.682  1.00  0.00     0.293 HD
ENDBRANCH  59  62
BRANCH  60  64
ATOM     64  O   UNL     1      -6.179   4.626  -5.570  1.00  0.00    -0.504 OA
ATOM     65  H   UNL     1      -7.007   5.133  -5.277  1.00  0.00     0.293 HD
ENDBRANCH  60  64
BRANCH  61  66
ATOM     66  O   UNL     1      -6.865   3.907  -2.945  1.00  0.00    -0.502 OA
ATOM     67  H   UNL     1      -6.598   4.082  -1.986  1.00  0.00     0.293 HD
ENDBRANCH  61  66
ENDBRANCH  54  56
ENDBRANCH  53  54
ENDBRANCH   5  53
BRANCH   4  68
ATOM     68  O   UNL     1      -1.835  -2.767  -5.841  1.00  0.00    -0.448 OA
BRANCH  68  69
ATOM     69  C   UNL     1      -1.490  -4.119  -5.927  1.00  0.00     0.339 C 
ATOM     70  O   UNL     1      -0.969  -4.577  -6.982  1.00  0.00    -0.246 OA
BRANCH  69  71
ATOM     71  C   UNL     1      -1.754  -5.012  -4.779  1.00  0.00     0.067 A 
ATOM     72  C   UNL     1      -1.258  -6.322  -4.756  1.00  0.00     0.066 A 
ATOM     73  C   UNL     1      -2.503  -4.551  -3.684  1.00  0.00     0.066 A 
ATOM     74  C   UNL     1      -1.492  -7.159  -3.655  1.00  0.00     0.162 A 
ATOM     75  C   UNL     1      -2.739  -5.376  -2.580  1.00  0.00     0.162 A 
ATOM     76  C   UNL     1      -2.233  -6.684  -2.560  1.00  0.00     0.200 A 
BRANCH  74  77
ATOM     77  O   UNL     1      -0.981  -8.457  -3.639  1.00  0.00    -0.504 OA
ATOM     78  H   UNL     1       0.002  -8.643  -3.810  1.00  0.00     0.293 HD
ENDBRANCH  74  77
BRANCH  75  79
ATOM     79  O   UNL     1      -3.478  -4.875  -1.507  1.00  0.00    -0.504 OA
ATOM     80  H   UNL     1      -3.435  -5.285  -0.583  1.00  0.00     0.293 HD
ENDBRANCH  75  79
BRANCH  76  81
ATOM     81  O   UNL     1      -2.472  -7.501  -1.453  1.00  0.00    -0.502 OA
ATOM     82  H   UNL     1      -2.939  -7.167  -0.623  1.00  0.00     0.293 HD
ENDBRANCH  76  81
ENDBRANCH  69  71
ENDBRANCH  68  69
ENDBRANCH   4  68
TORSDOF 31
ENDMDL
