MODEL 1
REMARK VINA RESULT:    -3.203      0.000      0.000
REMARK INTER + INTRA:          -4.055
REMARK INTER:                  -3.859
REMARK INTRA:                  -0.197
REMARK UNBOUND:                -0.197
REMARK SMILES C=CCc1ccc(O)c(OC)c1
REMARK SMILES IDX 9 1 7 2 6 3 5 4 4 5 12 6 10 7 11 8 8 9 3 11 2 12 1 13
REMARK H PARENT 8 10
REMARK Flexibility Score: inf
ROOT
ATOM      1  C   UNL     1     128.914 124.435 116.983  1.00  0.00     0.160 A 
ATOM      2  C   UNL     1     128.722 124.362 115.591  1.00  0.00     0.157 A 
ATOM      3  C   UNL     1     128.184 125.453 114.900  1.00  0.00     0.050 A 
ATOM      4  C   UNL     1     127.833 126.619 115.583  1.00  0.00     0.008 A 
ATOM      5  C   UNL     1     128.008 126.704 116.971  1.00  0.00    -0.040 A 
ATOM      6  C   UNL     1     128.557 125.615 117.666  1.00  0.00     0.054 A 
ENDROOT
BRANCH   1   7
ATOM      7  O   UNL     1     129.460 123.326 117.650  1.00  0.00    -0.493 OA
ATOM      8  C   UNL     1     128.696 122.325 118.313  1.00  0.00     0.278 C 
ENDBRANCH   1   7
BRANCH   2   9
ATOM      9  O   UNL     1     129.061 123.214 114.875  1.00  0.00    -0.504 OA
ATOM     10  H   UNL     1     130.014 122.874 114.820  1.00  0.00     0.293 HD
ENDBRANCH   2   9
BRANCH   5  11
ATOM     11  C   UNL     1     127.657 127.971 117.706  1.00  0.00     0.062 C 
BRANCH  11  12
ATOM     12  C   UNL     1     126.207 127.970 118.105  1.00  0.00    -0.030 C 
ATOM     13  C   UNL     1     125.567 129.098 118.426  1.00  0.00     0.004 C 
ENDBRANCH  11  12
ENDBRANCH   5  11
TORSDOF 4
ENDMDL
MODEL 2
REMARK VINA RESULT:    -3.178     13.249     15.168
REMARK INTER + INTRA:          -4.025
REMARK INTER:                  -3.827
REMARK INTRA:                  -0.198
REMARK UNBOUND:                -0.197
REMARK SMILES C=CCc1ccc(O)c(OC)c1
REMARK SMILES IDX 9 1 7 2 6 3 5 4 4 5 12 6 10 7 11 8 8 9 3 11 2 12 1 13
REMARK H PARENT 8 10
REMARK Flexibility Score: inf
ROOT
ATOM      1  C   UNL     1     114.649 128.937 116.988  1.00  0.00     0.160 A 
ATOM      2  C   UNL     1     114.722 128.684 115.606  1.00  0.00     0.157 A 
ATOM      3  C   UNL     1     113.633 128.111 114.941  1.00  0.00     0.050 A 
ATOM      4  C   UNL     1     112.470 127.784 115.640  1.00  0.00     0.008 A 
ATOM      5  C   UNL     1     112.384 128.020 117.019  1.00  0.00    -0.040 A 
ATOM      6  C   UNL     1     113.472 128.605 117.688  1.00  0.00     0.054 A 
ENDROOT
BRANCH   1   7
ATOM      7  O   UNL     1     115.755 129.519 117.630  1.00  0.00    -0.493 OA
ATOM      8  C   UNL     1     116.688 128.807 118.436  1.00  0.00     0.278 C 
ENDBRANCH   1   7
BRANCH   2   9
ATOM      9  O   UNL     1     115.867 128.997 114.875  1.00  0.00    -0.504 OA
ATOM     10  H   UNL     1     116.712 129.342 115.317  1.00  0.00     0.293 HD
ENDBRANCH   2   9
BRANCH   5  11
ATOM     11  C   UNL     1     111.120 127.695 117.770  1.00  0.00     0.062 C 
BRANCH  11  12
ATOM     12  C   UNL     1     110.985 126.211 117.968  1.00  0.00    -0.030 C 
ATOM     13  C   UNL     1     109.950 125.681 118.625  1.00  0.00     0.004 C 
ENDBRANCH  11  12
ENDBRANCH   5  11
TORSDOF 4
ENDMDL
MODEL 3
REMARK VINA RESULT:    -3.148     13.132     15.114
REMARK INTER + INTRA:          -3.989
REMARK INTER:                  -3.794
REMARK INTRA:                  -0.195
REMARK UNBOUND:                -0.197
REMARK SMILES C=CCc1ccc(O)c(OC)c1
REMARK SMILES IDX 9 1 7 2 6 3 5 4 4 5 12 6 10 7 11 8 8 9 3 11 2 12 1 13
REMARK H PARENT 8 10
REMARK Flexibility Score: inf
ROOT
ATOM      1  C   UNL     1     124.319 110.308 117.006  1.00  0.00     0.160 A 
ATOM      2  C   UNL     1     124.285 110.347 115.600  1.00  0.00     0.157 A 
ATOM      3  C   UNL     1     125.418 110.748 114.884  1.00  0.00     0.050 A 
ATOM      4  C   UNL     1     126.587 111.113 115.554  1.00  0.00     0.008 A 
ATOM      5  C   UNL     1     126.633 111.090 116.954  1.00  0.00    -0.040 A 
ATOM      6  C   UNL     1     125.502 110.679 117.677  1.00  0.00     0.054 A 
ENDROOT
BRANCH   1   7
ATOM      7  O   UNL     1     123.169 109.897 117.700  1.00  0.00    -0.493 OA
ATOM      8  C   UNL     1     122.182 110.779 118.223  1.00  0.00     0.278 C 
ENDBRANCH   1   7
BRANCH   2   9
ATOM      9  O   UNL     1     123.137 109.988 114.895  1.00  0.00    -0.504 OA
ATOM     10  H   UNL     1     122.873 110.441 114.027  1.00  0.00     0.293 HD
ENDBRANCH   2   9
BRANCH   5  11
ATOM     11  C   UNL     1     127.901 111.457 117.680  1.00  0.00     0.062 C 
BRANCH  11  12
ATOM     12  C   UNL     1     127.801 112.840 118.262  1.00  0.00    -0.030 C 
ATOM     13  C   UNL     1     128.875 113.619 118.411  1.00  0.00     0.004 C 
ENDBRANCH  11  12
ENDBRANCH   5  11
TORSDOF 4
ENDMDL
MODEL 4
REMARK VINA RESULT:    -2.983     20.157     21.495
REMARK INTER + INTRA:          -3.790
REMARK INTER:                  -3.545
REMARK INTRA:                  -0.245
REMARK UNBOUND:                -0.197
REMARK SMILES C=CCc1ccc(O)c(OC)c1
REMARK SMILES IDX 9 1 7 2 6 3 5 4 4 5 12 6 10 7 11 8 8 9 3 11 2 12 1 13
REMARK H PARENT 8 10
REMARK Flexibility Score: inf
ROOT
ATOM      1  C   UNL     1     110.265 114.528 117.047  1.00  0.00     0.160 A 
ATOM      2  C   UNL     1     110.402 114.501 115.647  1.00  0.00     0.157 A 
ATOM      3  C   UNL     1     110.784 113.318 115.004  1.00  0.00     0.050 A 
ATOM      4  C   UNL     1     111.034 112.160 115.742  1.00  0.00     0.008 A 
ATOM      5  C   UNL     1     110.912 112.173 117.138  1.00  0.00    -0.040 A 
ATOM      6  C   UNL     1     110.519 113.355 117.787  1.00  0.00     0.054 A 
ENDROOT
BRANCH   1   7
ATOM      7  O   UNL     1     109.875 115.727 117.666  1.00  0.00    -0.493 OA
ATOM      8  C   UNL     1     110.706 116.499 118.527  1.00  0.00     0.278 C 
ENDBRANCH   1   7
BRANCH   2   9
ATOM      9  O   UNL     1     110.160 115.637 114.876  1.00  0.00    -0.504 OA
ATOM     10  H   UNL     1     110.860 116.025 114.253  1.00  0.00     0.293 HD
ENDBRANCH   2   9
BRANCH   5  11
ATOM     11  C   UNL     1     111.154 110.918 117.935  1.00  0.00     0.062 C 
BRANCH  11  12
ATOM     12  C   UNL     1     112.427 111.027 118.727  1.00  0.00    -0.030 C 
ATOM     13  C   UNL     1     113.567 110.476 118.303  1.00  0.00     0.004 C 
ENDBRANCH  11  12
ENDBRANCH   5  11
TORSDOF 4
ENDMDL
MODEL 5
REMARK VINA RESULT:    -2.859     16.537     16.975
REMARK INTER + INTRA:          -3.640
REMARK INTER:                  -3.394
REMARK INTRA:                  -0.247
REMARK UNBOUND:                -0.197
REMARK SMILES C=CCc1ccc(O)c(OC)c1
REMARK SMILES IDX 9 1 7 2 6 3 5 4 4 5 12 6 10 7 11 8 8 9 3 11 2 12 1 13
REMARK H PARENT 8 10
REMARK Flexibility Score: inf
ROOT
ATOM      1  C   UNL     1     111.987 117.948 116.994  1.00  0.00     0.160 A 
ATOM      2  C   UNL     1     111.791 118.174 115.619  1.00  0.00     0.157 A 
ATOM      3  C   UNL     1     112.477 119.209 114.975  1.00  0.00     0.050 A 
ATOM      4  C   UNL     1     113.358 120.024 115.687  1.00  0.00     0.008 A 
ATOM      5  C   UNL     1     113.557 119.820 117.059  1.00  0.00    -0.040 A 
ATOM      6  C   UNL     1     112.877 118.776 117.707  1.00  0.00     0.054 A 
ENDROOT
BRANCH   1   7
ATOM      7  O   UNL     1     111.289 116.899 117.615  1.00  0.00    -0.493 OA
ATOM      8  C   UNL     1     110.593 117.012 118.852  1.00  0.00     0.278 C 
ENDBRANCH   1   7
BRANCH   2   9
ATOM      9  O   UNL     1     110.919 117.379 114.875  1.00  0.00    -0.504 OA
ATOM     10  H   UNL     1     110.212 117.777 114.267  1.00  0.00     0.293 HD
ENDBRANCH   2   9
BRANCH   5  11
ATOM     11  C   UNL     1     114.527 120.680 117.825  1.00  0.00     0.062 C 
BRANCH  11  12
ATOM     12  C   UNL     1     113.878 121.250 119.055  1.00  0.00    -0.030 C 
ATOM     13  C   UNL     1     113.085 122.323 118.997  1.00  0.00     0.004 C 
ENDBRANCH  11  12
ENDBRANCH   5  11
TORSDOF 4
ENDMDL
MODEL 6
REMARK VINA RESULT:    -2.854     10.865     14.037
REMARK INTER + INTRA:          -3.635
REMARK INTER:                  -3.419
REMARK INTRA:                  -0.215
REMARK UNBOUND:                -0.197
REMARK SMILES C=CCc1ccc(O)c(OC)c1
REMARK SMILES IDX 9 1 7 2 6 3 5 4 4 5 12 6 10 7 11 8 8 9 3 11 2 12 1 13
REMARK H PARENT 8 10
REMARK Flexibility Score: inf
ROOT
ATOM      1  C   UNL     1     128.362 113.390 118.445  1.00  0.00     0.160 A 
ATOM      2  C   UNL     1     129.364 112.832 119.259  1.00  0.00     0.157 A 
ATOM      3  C   UNL     1     129.616 111.457 119.215  1.00  0.00     0.050 A 
ATOM      4  C   UNL     1     128.878 110.629 118.369  1.00  0.00     0.008 A 
ATOM      5  C   UNL     1     127.869 111.167 117.559  1.00  0.00    -0.040 A 
ATOM      6  C   UNL     1     127.619 112.548 117.593  1.00  0.00     0.054 A 
ENDROOT
BRANCH   1   7
ATOM      7  O   UNL     1     128.133 114.775 118.505  1.00  0.00    -0.493 OA
ATOM      8  C   UNL     1     127.092 115.390 119.257  1.00  0.00     0.278 C 
ENDBRANCH   1   7
BRANCH   2   9
ATOM      9  O   UNL     1     130.123 113.627 120.118  1.00  0.00    -0.504 OA
ATOM     10  H   UNL     1     129.921 114.611 120.261  1.00  0.00     0.293 HD
ENDBRANCH   2   9
BRANCH   5  11
ATOM     11  C   UNL     1     127.089 110.281 116.623  1.00  0.00     0.062 C 
BRANCH  11  12
ATOM     12  C   UNL     1     126.575 111.066 115.449  1.00  0.00    -0.030 C 
ATOM     13  C   UNL     1     125.342 110.887 114.970  1.00  0.00     0.004 C 
ENDBRANCH  11  12
ENDBRANCH   5  11
TORSDOF 4
ENDMDL
MODEL 7
REMARK VINA RESULT:    -2.853      8.566     10.180
REMARK INTER + INTRA:          -3.633
REMARK INTER:                  -3.396
REMARK INTRA:                  -0.236
REMARK UNBOUND:                -0.197
REMARK SMILES C=CCc1ccc(O)c(OC)c1
REMARK SMILES IDX 9 1 7 2 6 3 5 4 4 5 12 6 10 7 11 8 8 9 3 11 2 12 1 13
REMARK H PARENT 8 10
REMARK Flexibility Score: inf
ROOT
ATOM      1  C   UNL     1     117.751 127.328 116.944  1.00  0.00     0.160 A 
ATOM      2  C   UNL     1     117.943 127.578 115.573  1.00  0.00     0.157 A 
ATOM      3  C   UNL     1     118.957 126.912 114.876  1.00  0.00     0.050 A 
ATOM      4  C   UNL     1     119.784 125.999 115.531  1.00  0.00     0.008 A 
ATOM      5  C   UNL     1     119.613 125.746 116.899  1.00  0.00    -0.040 A 
ATOM      6  C   UNL     1     118.590 126.405 117.600  1.00  0.00     0.054 A 
ENDROOT
BRANCH   1   7
ATOM      7  O   UNL     1     116.722 128.006 117.618  1.00  0.00    -0.493 OA
ATOM      8  C   UNL     1     116.882 129.248 118.295  1.00  0.00     0.278 C 
ENDBRANCH   1   7
BRANCH   2   9
ATOM      9  O   UNL     1     117.137 128.483 114.884  1.00  0.00    -0.504 OA
ATOM     10  H   UNL     1     117.154 129.478 115.078  1.00  0.00     0.293 HD
ENDBRANCH   2   9
BRANCH   5  11
ATOM     11  C   UNL     1     120.485 124.741 117.603  1.00  0.00     0.062 C 
BRANCH  11  12
ATOM     12  C   UNL     1     121.009 125.303 118.895  1.00  0.00    -0.030 C 
ATOM     13  C   UNL     1     122.233 125.831 118.986  1.00  0.00     0.004 C 
ENDBRANCH  11  12
ENDBRANCH   5  11
TORSDOF 4
ENDMDL
MODEL 8
REMARK VINA RESULT:    -2.793      4.527      6.869
REMARK INTER + INTRA:          -3.561
REMARK INTER:                  -3.370
REMARK INTRA:                  -0.191
REMARK UNBOUND:                -0.197
REMARK SMILES C=CCc1ccc(O)c(OC)c1
REMARK SMILES IDX 9 1 7 2 6 3 5 4 4 5 12 6 10 7 11 8 8 9 3 11 2 12 1 13
REMARK H PARENT 8 10
REMARK Flexibility Score: inf
ROOT
ATOM      1  C   UNL     1     127.225 121.334 116.969  1.00  0.00     0.160 A 
ATOM      2  C   UNL     1     127.415 121.187 115.582  1.00  0.00     0.157 A 
ATOM      3  C   UNL     1     126.748 120.173 114.887  1.00  0.00     0.050 A 
ATOM      4  C   UNL     1     125.893 119.298 115.560  1.00  0.00     0.008 A 
ATOM      5  C   UNL     1     125.701 119.423 116.943  1.00  0.00    -0.040 A 
ATOM      6  C   UNL     1     126.361 120.447 117.642  1.00  0.00     0.054 A 
ENDROOT
BRANCH   1   7
ATOM      7  O   UNL     1     127.902 122.364 117.640  1.00  0.00    -0.493 OA
ATOM      8  C   UNL     1     129.141 122.205 118.324  1.00  0.00     0.278 C 
ENDBRANCH   1   7
BRANCH   2   9
ATOM      9  O   UNL     1     128.261 122.042 114.876  1.00  0.00    -0.504 OA
ATOM     10  H   UNL     1     129.245 122.133 115.099  1.00  0.00     0.293 HD
ENDBRANCH   2   9
BRANCH   5  11
ATOM     11  C   UNL     1     124.758 118.499 117.667  1.00  0.00     0.062 C 
BRANCH  11  12
ATOM     12  C   UNL     1     125.488 117.710 118.718  1.00  0.00    -0.030 C 
ATOM     13  C   UNL     1     124.901 116.708 119.378  1.00  0.00     0.004 C 
ENDBRANCH  11  12
ENDBRANCH   5  11
TORSDOF 4
ENDMDL
MODEL 9
REMARK VINA RESULT:    -2.783     15.095     15.502
REMARK INTER + INTRA:          -3.549
REMARK INTER:                  -3.340
REMARK INTRA:                  -0.209
REMARK UNBOUND:                -0.197
REMARK SMILES C=CCc1ccc(O)c(OC)c1
REMARK SMILES IDX 9 1 7 2 6 3 5 4 4 5 12 6 10 7 11 8 8 9 3 11 2 12 1 13
REMARK H PARENT 8 10
REMARK Flexibility Score: inf
ROOT
ATOM      1  C   UNL     1     121.289 111.718 116.963  1.00  0.00     0.160 A 
ATOM      2  C   UNL     1     121.120 111.510 115.582  1.00  0.00     0.157 A 
ATOM      3  C   UNL     1     120.102 112.178 114.893  1.00  0.00     0.050 A 
ATOM      4  C   UNL     1     119.247 113.051 115.567  1.00  0.00     0.008 A 
ATOM      5  C   UNL     1     119.395 113.262 116.944  1.00  0.00    -0.040 A 
ATOM      6  C   UNL     1     120.422 112.601 117.638  1.00  0.00     0.054 A 
ENDROOT
BRANCH   1   7
ATOM      7  O   UNL     1     122.323 111.039 117.629  1.00  0.00    -0.493 OA
ATOM      8  C   UNL     1     122.581 111.131 119.026  1.00  0.00     0.278 C 
ENDBRANCH   1   7
BRANCH   2   9
ATOM      9  O   UNL     1     121.955 110.645 114.875  1.00  0.00    -0.504 OA
ATOM     10  H   UNL     1     122.208 110.810 113.907  1.00  0.00     0.293 HD
ENDBRANCH   2   9
BRANCH   5  11
ATOM     11  C   UNL     1     118.492 114.225 117.669  1.00  0.00     0.062 C 
BRANCH  11  12
ATOM     12  C   UNL     1     117.966 113.611 118.937  1.00  0.00    -0.030 C 
ATOM     13  C   UNL     1     116.680 113.276 119.074  1.00  0.00     0.004 C 
ENDBRANCH  11  12
ENDBRANCH   5  11
TORSDOF 4
ENDMDL
