MODEL 1
REMARK VINA RESULT:    -5.998      0.000      0.000
REMARK INTER + INTRA:         -11.094
REMARK INTER:                  -9.154
REMARK INTRA:                  -1.940
REMARK UNBOUND:                -1.940
REMARK SMILES CC(=O)CCC=C(C)CCC=C(C)CCC=C(C)C
REMARK SMILES IDX 10 1 11 2 12 3 13 4 14 5 15 6 16 7 18 8 17 9 19 10 9 11 7 12
REMARK SMILES IDX 6 13 8 14 5 15 4 16 2 17 3 18 1 19
REMARK H PARENT
REMARK Flexibility Score: inf
ROOT
ATOM      1  C   UNL     1     -10.144 -32.738  30.070  1.00  0.00     0.032 C 
ENDROOT
BRANCH   1   2
ATOM      2  C   UNL     1     -10.563 -33.727  29.009  1.00  0.00    -0.028 C 
ATOM      3  C   UNL     1     -11.794 -33.780  28.452  1.00  0.00    -0.077 C 
ATOM      4  C   UNL     1     -12.866 -32.770  28.782  1.00  0.00     0.039 C 
BRANCH   3   5
ATOM      5  C   UNL     1     -12.091 -34.846  27.418  1.00  0.00     0.034 C 
BRANCH   5   6
ATOM      6  C   UNL     1     -13.268 -35.737  27.838  1.00  0.00     0.032 C 
BRANCH   6   7
ATOM      7  C   UNL     1     -13.017 -36.420  29.163  1.00  0.00    -0.028 C 
ATOM      8  C   UNL     1     -14.371 -38.442  28.573  1.00  0.00     0.039 C 
ATOM      9  C   UNL     1     -13.530 -37.617  29.518  1.00  0.00    -0.080 C 
ATOM     10  C   UNL     1     -13.231 -38.144  30.898  1.00  0.00     0.039 C 
ENDBRANCH   6   7
ENDBRANCH   5   6
ENDBRANCH   3   5
ENDBRANCH   1   2
BRANCH   1  11
ATOM     11  C   UNL     1      -9.875 -33.428  31.415  1.00  0.00     0.034 C 
BRANCH  11  12
ATOM     12  C   UNL     1     -10.996 -34.375  31.798  1.00  0.00    -0.077 C 
ATOM     13  C   UNL     1     -12.240 -33.879  31.984  1.00  0.00    -0.028 C 
ATOM     14  C   UNL     1     -10.684 -35.842  31.985  1.00  0.00     0.039 C 
BRANCH  13  15
ATOM     15  C   UNL     1     -13.447 -34.711  32.338  1.00  0.00     0.035 C 
BRANCH  15  16
ATOM     16  C   UNL     1     -14.739 -33.907  32.130  1.00  0.00     0.079 C 
BRANCH  16  17
ATOM     17  C   UNL     1     -15.310 -33.302  33.393  1.00  0.00     0.130 C 
ATOM     18  O   UNL     1     -16.460 -33.581  33.701  1.00  0.00    -0.300 OA
ATOM     19  C   UNL     1     -14.527 -32.381  34.287  1.00  0.00     0.087 C 
ENDBRANCH  16  17
ENDBRANCH  15  16
ENDBRANCH  13  15
ENDBRANCH  11  12
ENDBRANCH   1  11
TORSDOF 9
ENDMDL
MODEL 2
REMARK VINA RESULT:    -5.663      2.411      4.497
REMARK INTER + INTRA:         -10.582
REMARK INTER:                  -9.392
REMARK INTRA:                  -1.190
REMARK UNBOUND:                -1.940
REMARK SMILES CC(=O)CCC=C(C)CCC=C(C)CCC=C(C)C
REMARK SMILES IDX 10 1 11 2 12 3 13 4 14 5 15 6 16 7 18 8 17 9 19 10 9 11 7 12
REMARK SMILES IDX 6 13 8 14 5 15 4 16 2 17 3 18 1 19
REMARK H PARENT
REMARK Flexibility Score: inf
ROOT
ATOM      1  C   UNL     1     -12.880 -33.679  32.567  1.00  0.00     0.032 C 
ENDROOT
BRANCH   1   2
ATOM      2  C   UNL     1     -13.425 -34.935  31.930  1.00  0.00    -0.028 C 
ATOM      3  C   UNL     1     -12.681 -36.016  31.605  1.00  0.00    -0.077 C 
ATOM      4  C   UNL     1     -11.212 -36.107  31.941  1.00  0.00     0.039 C 
BRANCH   3   5
ATOM      5  C   UNL     1     -13.351 -37.200  30.940  1.00  0.00     0.034 C 
BRANCH   5   6
ATOM      6  C   UNL     1     -12.858 -37.402  29.501  1.00  0.00     0.032 C 
BRANCH   6   7
ATOM      7  C   UNL     1     -13.422 -36.365  28.558  1.00  0.00    -0.028 C 
ATOM      8  C   UNL     1     -11.249 -35.141  28.329  1.00  0.00     0.039 C 
ATOM      9  C   UNL     1     -12.722 -35.329  28.050  1.00  0.00    -0.080 C 
ATOM     10  C   UNL     1     -13.440 -34.345  27.162  1.00  0.00     0.039 C 
ENDBRANCH   6   7
ENDBRANCH   5   6
ENDBRANCH   3   5
ENDBRANCH   1   2
BRANCH   1  11
ATOM     11  C   UNL     1     -13.812 -33.149  33.666  1.00  0.00     0.034 C 
BRANCH  11  12
ATOM     12  C   UNL     1     -15.259 -33.121  33.215  1.00  0.00    -0.077 C 
ATOM     13  C   UNL     1     -16.167 -33.876  33.874  1.00  0.00    -0.028 C 
ATOM     14  C   UNL     1     -15.639 -32.269  32.026  1.00  0.00     0.039 C 
BRANCH  13  15
ATOM     15  C   UNL     1     -17.639 -33.920  33.548  1.00  0.00     0.035 C 
BRANCH  15  16
ATOM     16  C   UNL     1     -18.438 -34.492  34.728  1.00  0.00     0.079 C 
BRANCH  16  17
ATOM     17  C   UNL     1     -19.882 -34.812  34.409  1.00  0.00     0.130 C 
ATOM     18  O   UNL     1     -20.713 -34.687  35.297  1.00  0.00    -0.300 OA
ATOM     19  C   UNL     1     -20.339 -35.269  33.051  1.00  0.00     0.087 C 
ENDBRANCH  16  17
ENDBRANCH  15  16
ENDBRANCH  13  15
ENDBRANCH  11  12
ENDBRANCH   1  11
TORSDOF 9
ENDMDL
MODEL 3
REMARK VINA RESULT:    -5.567      1.300      3.104
REMARK INTER + INTRA:         -10.435
REMARK INTER:                  -8.920
REMARK INTRA:                  -1.515
REMARK UNBOUND:                -1.940
REMARK SMILES CC(=O)CCC=C(C)CCC=C(C)CCC=C(C)C
REMARK SMILES IDX 10 1 11 2 12 3 13 4 14 5 15 6 16 7 18 8 17 9 19 10 9 11 7 12
REMARK SMILES IDX 6 13 8 14 5 15 4 16 2 17 3 18 1 19
REMARK H PARENT
REMARK Flexibility Score: inf
ROOT
ATOM      1  C   UNL     1      -9.883 -35.950  31.043  1.00  0.00     0.032 C 
ENDROOT
BRANCH   1   2
ATOM      2  C   UNL     1     -11.060 -36.473  30.254  1.00  0.00    -0.028 C 
ATOM      3  C   UNL     1     -12.050 -37.237  30.766  1.00  0.00    -0.077 C 
ATOM      4  C   UNL     1     -12.122 -37.573  32.236  1.00  0.00     0.039 C 
BRANCH   3   5
ATOM      5  C   UNL     1     -13.157 -37.721  29.853  1.00  0.00     0.034 C 
BRANCH   5   6
ATOM      6  C   UNL     1     -13.239 -36.891  28.565  1.00  0.00     0.032 C 
BRANCH   6   7
ATOM      7  C   UNL     1     -13.486 -35.427  28.848  1.00  0.00    -0.028 C 
ATOM      8  C   UNL     1     -11.919 -34.639  27.062  1.00  0.00     0.039 C 
ATOM      9  C   UNL     1     -12.879 -34.408  28.204  1.00  0.00    -0.080 C 
ATOM     10  C   UNL     1     -13.192 -32.999  28.637  1.00  0.00     0.039 C 
ENDBRANCH   6   7
ENDBRANCH   5   6
ENDBRANCH   3   5
ENDBRANCH   1   2
BRANCH   1  11
ATOM     11  C   UNL     1      -9.909 -34.419  31.153  1.00  0.00     0.034 C 
BRANCH  11  12
ATOM     12  C   UNL     1     -10.872 -33.946  32.224  1.00  0.00    -0.077 C 
ATOM     13  C   UNL     1     -12.196 -33.915  31.950  1.00  0.00    -0.028 C 
ATOM     14  C   UNL     1     -10.322 -33.499  33.559  1.00  0.00     0.039 C 
BRANCH  13  15
ATOM     15  C   UNL     1     -13.262 -33.493  32.930  1.00  0.00     0.035 C 
BRANCH  15  16
ATOM     16  C   UNL     1     -14.575 -34.241  32.656  1.00  0.00     0.079 C 
BRANCH  16  17
ATOM     17  C   UNL     1     -15.824 -33.436  32.938  1.00  0.00     0.130 C 
ATOM     18  O   UNL     1     -15.941 -32.342  32.405  1.00  0.00    -0.300 OA
ATOM     19  C   UNL     1     -16.927 -33.923  33.838  1.00  0.00     0.087 C 
ENDBRANCH  16  17
ENDBRANCH  15  16
ENDBRANCH  13  15
ENDBRANCH  11  12
ENDBRANCH   1  11
TORSDOF 9
ENDMDL
MODEL 4
REMARK VINA RESULT:    -5.563      1.919      3.647
REMARK INTER + INTRA:         -10.430
REMARK INTER:                  -9.113
REMARK INTRA:                  -1.318
REMARK UNBOUND:                -1.940
REMARK SMILES CC(=O)CCC=C(C)CCC=C(C)CCC=C(C)C
REMARK SMILES IDX 10 1 11 2 12 3 13 4 14 5 15 6 16 7 18 8 17 9 19 10 9 11 7 12
REMARK SMILES IDX 6 13 8 14 5 15 4 16 2 17 3 18 1 19
REMARK H PARENT
REMARK Flexibility Score: inf
ROOT
ATOM      1  C   UNL     1     -14.062 -32.738  28.071  1.00  0.00     0.032 C 
ENDROOT
BRANCH   1   2
ATOM      2  C   UNL     1     -12.886 -33.067  28.959  1.00  0.00    -0.028 C 
ATOM      3  C   UNL     1     -11.891 -33.922  28.630  1.00  0.00    -0.077 C 
ATOM      4  C   UNL     1     -11.814 -34.574  27.271  1.00  0.00     0.039 C 
BRANCH   3   5
ATOM      5  C   UNL     1     -10.784 -34.186  29.630  1.00  0.00     0.034 C 
BRANCH   5   6
ATOM      6  C   UNL     1     -10.391 -35.669  29.667  1.00  0.00     0.032 C 
BRANCH   6   7
ATOM      7  C   UNL     1     -11.039 -36.399  30.820  1.00  0.00    -0.028 C 
ATOM      8  C   UNL     1     -12.864 -37.369  29.406  1.00  0.00     0.039 C 
ATOM      9  C   UNL     1     -12.165 -37.139  30.724  1.00  0.00    -0.080 C 
ATOM     10  C   UNL     1     -12.720 -37.764  31.978  1.00  0.00     0.039 C 
ENDBRANCH   6   7
ENDBRANCH   5   6
ENDBRANCH   3   5
ENDBRANCH   1   2
BRANCH   1  11
ATOM     11  C   UNL     1     -14.656 -31.361  28.403  1.00  0.00     0.034 C 
BRANCH  11  12
ATOM     12  C   UNL     1     -15.572 -31.417  29.609  1.00  0.00    -0.077 C 
ATOM     13  C   UNL     1     -15.111 -31.955  30.761  1.00  0.00    -0.028 C 
ATOM     14  C   UNL     1     -16.984 -30.893  29.482  1.00  0.00     0.039 C 
BRANCH  13  15
ATOM     15  C   UNL     1     -15.905 -32.048  32.039  1.00  0.00     0.035 C 
BRANCH  15  16
ATOM     16  C   UNL     1     -15.480 -33.280  32.852  1.00  0.00     0.079 C 
BRANCH  16  17
ATOM     17  C   UNL     1     -14.073 -33.212  33.403  1.00  0.00     0.130 C 
ATOM     18  O   UNL     1     -13.884 -32.584  34.434  1.00  0.00    -0.300 OA
ATOM     19  C   UNL     1     -12.902 -33.887  32.743  1.00  0.00     0.087 C 
ENDBRANCH  16  17
ENDBRANCH  15  16
ENDBRANCH  13  15
ENDBRANCH  11  12
ENDBRANCH   1  11
TORSDOF 9
ENDMDL
MODEL 5
REMARK VINA RESULT:    -5.562      2.356      4.762
REMARK INTER + INTRA:         -10.428
REMARK INTER:                  -9.180
REMARK INTRA:                  -1.248
REMARK UNBOUND:                -1.940
REMARK SMILES CC(=O)CCC=C(C)CCC=C(C)CCC=C(C)C
REMARK SMILES IDX 10 1 11 2 12 3 13 4 14 5 15 6 16 7 18 8 17 9 19 10 9 11 7 12
REMARK SMILES IDX 6 13 8 14 5 15 4 16 2 17 3 18 1 19
REMARK H PARENT
REMARK Flexibility Score: inf
ROOT
ATOM      1  C   UNL     1     -15.861 -32.370  32.206  1.00  0.00     0.032 C 
ENDROOT
BRANCH   1   2
ATOM      2  C   UNL     1     -15.107 -32.085  30.930  1.00  0.00    -0.028 C 
ATOM      3  C   UNL     1     -15.636 -31.477  29.844  1.00  0.00    -0.077 C 
ATOM      4  C   UNL     1     -17.042 -30.929  29.841  1.00  0.00     0.039 C 
BRANCH   3   5
ATOM      5  C   UNL     1     -14.775 -31.281  28.614  1.00  0.00     0.034 C 
BRANCH   5   6
ATOM      6  C   UNL     1     -14.099 -32.588  28.177  1.00  0.00     0.032 C 
BRANCH   6   7
ATOM      7  C   UNL     1     -12.808 -32.835  28.922  1.00  0.00    -0.028 C 
ATOM      8  C   UNL     1     -12.044 -34.631  27.352  1.00  0.00     0.039 C 
ATOM      9  C   UNL     1     -11.892 -33.768  28.582  1.00  0.00    -0.080 C 
ATOM     10  C   UNL     1     -10.676 -33.930  29.457  1.00  0.00     0.039 C 
ENDBRANCH   6   7
ENDBRANCH   5   6
ENDBRANCH   3   5
ENDBRANCH   1   2
BRANCH   1  11
ATOM     11  C   UNL     1     -14.908 -32.602  33.388  1.00  0.00     0.034 C 
BRANCH  11  12
ATOM     12  C   UNL     1     -13.755 -33.512  33.014  1.00  0.00    -0.077 C 
ATOM     13  C   UNL     1     -14.007 -34.633  32.301  1.00  0.00    -0.028 C 
ATOM     14  C   UNL     1     -12.360 -33.151  33.469  1.00  0.00     0.039 C 
BRANCH  13  15
ATOM     15  C   UNL     1     -12.953 -35.608  31.840  1.00  0.00     0.035 C 
BRANCH  15  16
ATOM     16  C   UNL     1     -13.601 -36.885  31.285  1.00  0.00     0.079 C 
BRANCH  16  17
ATOM     17  C   UNL     1     -13.072 -37.321  29.938  1.00  0.00     0.130 C 
ATOM     18  O   UNL     1     -11.873 -37.216  29.724  1.00  0.00    -0.300 OA
ATOM     19  C   UNL     1     -13.952 -37.882  28.854  1.00  0.00     0.087 C 
ENDBRANCH  16  17
ENDBRANCH  15  16
ENDBRANCH  13  15
ENDBRANCH  11  12
ENDBRANCH   1  11
TORSDOF 9
ENDMDL
MODEL 6
REMARK VINA RESULT:    -5.505      2.010      5.175
REMARK INTER + INTRA:         -10.342
REMARK INTER:                  -8.708
REMARK INTRA:                  -1.634
REMARK UNBOUND:                -1.940
REMARK SMILES CC(=O)CCC=C(C)CCC=C(C)CCC=C(C)C
REMARK SMILES IDX 10 1 11 2 12 3 13 4 14 5 15 6 16 7 18 8 17 9 19 10 9 11 7 12
REMARK SMILES IDX 6 13 8 14 5 15 4 16 2 17 3 18 1 19
REMARK H PARENT
REMARK Flexibility Score: inf
ROOT
ATOM      1  C   UNL     1     -13.100 -32.762  28.644  1.00  0.00     0.032 C 
ENDROOT
BRANCH   1   2
ATOM      2  C   UNL     1     -13.242 -33.338  30.033  1.00  0.00    -0.028 C 
ATOM      3  C   UNL     1     -12.213 -33.773  30.793  1.00  0.00    -0.077 C 
ATOM      4  C   UNL     1     -10.777 -33.636  30.349  1.00  0.00     0.039 C 
BRANCH   3   5
ATOM      5  C   UNL     1     -12.500 -34.358  32.160  1.00  0.00     0.034 C 
BRANCH   5   6
ATOM      6  C   UNL     1     -13.212 -33.352  33.074  1.00  0.00     0.032 C 
BRANCH   6   7
ATOM      7  C   UNL     1     -14.572 -33.845  33.509  1.00  0.00    -0.028 C 
ATOM      8  C   UNL     1     -15.814 -32.181  32.108  1.00  0.00     0.039 C 
ATOM      9  C   UNL     1     -15.746 -33.310  33.109  1.00  0.00    -0.080 C 
ATOM     10  C   UNL     1     -17.022 -33.880  33.673  1.00  0.00     0.039 C 
ENDBRANCH   6   7
ENDBRANCH   5   6
ENDBRANCH   3   5
ENDBRANCH   1   2
BRANCH   1  11
ATOM     11  C   UNL     1     -13.612 -33.735  27.571  1.00  0.00     0.034 C 
BRANCH  11  12
ATOM     12  C   UNL     1     -13.021 -35.121  27.738  1.00  0.00    -0.077 C 
ATOM     13  C   UNL     1     -13.746 -36.073  28.369  1.00  0.00    -0.028 C 
ATOM     14  C   UNL     1     -11.629 -35.392  27.217  1.00  0.00     0.039 C 
BRANCH  13  15
ATOM     15  C   UNL     1     -13.291 -37.495  28.578  1.00  0.00     0.035 C 
BRANCH  15  16
ATOM     16  C   UNL     1     -13.553 -37.941  30.024  1.00  0.00     0.079 C 
BRANCH  16  17
ATOM     17  C   UNL     1     -12.387 -37.731  30.964  1.00  0.00     0.130 C 
ATOM     18  O   UNL     1     -11.380 -37.194  30.527  1.00  0.00    -0.300 OA
ATOM     19  C   UNL     1     -12.415 -38.146  32.410  1.00  0.00     0.087 C 
ENDBRANCH  16  17
ENDBRANCH  15  16
ENDBRANCH  13  15
ENDBRANCH  11  12
ENDBRANCH   1  11
TORSDOF 9
ENDMDL
MODEL 7
REMARK VINA RESULT:    -5.458      3.236      3.799
REMARK INTER + INTRA:         -10.269
REMARK INTER:                  -8.857
REMARK INTRA:                  -1.413
REMARK UNBOUND:                -1.940
REMARK SMILES CC(=O)CCC=C(C)CCC=C(C)CCC=C(C)C
REMARK SMILES IDX 10 1 11 2 12 3 13 4 14 5 15 6 16 7 18 8 17 9 19 10 9 11 7 12
REMARK SMILES IDX 6 13 8 14 5 15 4 16 2 17 3 18 1 19
REMARK H PARENT
REMARK Flexibility Score: inf
ROOT
ATOM      1  C   UNL     1     -10.266 -33.466  30.823  1.00  0.00     0.032 C 
ENDROOT
BRANCH   1   2
ATOM      2  C   UNL     1     -10.723 -34.516  29.839  1.00  0.00    -0.028 C 
ATOM      3  C   UNL     1     -11.934 -34.529  29.237  1.00  0.00    -0.077 C 
ATOM      4  C   UNL     1     -12.935 -33.416  29.429  1.00  0.00     0.039 C 
BRANCH   3   5
ATOM      5  C   UNL     1     -12.276 -35.662  28.291  1.00  0.00     0.034 C 
BRANCH   5   6
ATOM      6  C   UNL     1     -13.466 -36.488  28.798  1.00  0.00     0.032 C 
BRANCH   6   7
ATOM      7  C   UNL     1     -13.027 -37.627  29.688  1.00  0.00    -0.028 C 
ATOM      8  C   UNL     1     -13.595 -36.418  31.806  1.00  0.00     0.039 C 
ATOM      9  C   UNL     1     -13.050 -37.599  31.038  1.00  0.00    -0.080 C 
ATOM     10  C   UNL     1     -12.529 -38.797  31.789  1.00  0.00     0.039 C 
ENDBRANCH   6   7
ENDBRANCH   5   6
ENDBRANCH   3   5
ENDBRANCH   1   2
BRANCH   1  11
ATOM     11  C   UNL     1     -10.057 -34.055  32.226  1.00  0.00     0.034 C 
BRANCH  11  12
ATOM     12  C   UNL     1     -10.930 -33.372  33.260  1.00  0.00    -0.077 C 
ATOM     13  C   UNL     1     -10.341 -32.677  34.260  1.00  0.00    -0.028 C 
ATOM     14  C   UNL     1     -12.431 -33.508  33.158  1.00  0.00     0.039 C 
BRANCH  13  15
ATOM     15  C   UNL     1     -11.088 -31.929  35.336  1.00  0.00     0.035 C 
BRANCH  15  16
ATOM     16  C   UNL     1     -10.140 -31.531  36.477  1.00  0.00     0.079 C 
BRANCH  16  17
ATOM     17  C   UNL     1     -10.207 -30.071  36.865  1.00  0.00     0.130 C 
ATOM     18  O   UNL     1     -10.277 -29.237  35.974  1.00  0.00    -0.300 OA
ATOM     19  C   UNL     1     -10.198 -29.601  38.294  1.00  0.00     0.087 C 
ENDBRANCH  16  17
ENDBRANCH  15  16
ENDBRANCH  13  15
ENDBRANCH  11  12
ENDBRANCH   1  11
TORSDOF 9
ENDMDL
MODEL 8
REMARK VINA RESULT:    -5.457      1.947      5.440
REMARK INTER + INTRA:         -10.268
REMARK INTER:                  -9.424
REMARK INTRA:                  -0.844
REMARK UNBOUND:                -1.940
REMARK SMILES CC(=O)CCC=C(C)CCC=C(C)CCC=C(C)C
REMARK SMILES IDX 10 1 11 2 12 3 13 4 14 5 15 6 16 7 18 8 17 9 19 10 9 11 7 12
REMARK SMILES IDX 6 13 8 14 5 15 4 16 2 17 3 18 1 19
REMARK H PARENT
REMARK Flexibility Score: inf
ROOT
ATOM      1  C   UNL     1     -11.946 -37.653  31.567  1.00  0.00     0.032 C 
ENDROOT
BRANCH   1   2
ATOM      2  C   UNL     1     -12.289 -36.256  32.024  1.00  0.00    -0.028 C 
ATOM      3  C   UNL     1     -11.386 -35.272  32.233  1.00  0.00    -0.077 C 
ATOM      4  C   UNL     1      -9.918 -35.457  31.932  1.00  0.00     0.039 C 
BRANCH   3   5
ATOM      5  C   UNL     1     -11.865 -33.921  32.723  1.00  0.00     0.034 C 
BRANCH   5   6
ATOM      6  C   UNL     1     -13.191 -33.514  32.069  1.00  0.00     0.032 C 
BRANCH   6   7
ATOM      7  C   UNL     1     -14.385 -33.983  32.867  1.00  0.00    -0.028 C 
ATOM      8  C   UNL     1     -15.864 -32.125  32.072  1.00  0.00     0.039 C 
ATOM      9  C   UNL     1     -15.579 -33.353  32.903  1.00  0.00    -0.080 C 
ATOM     10  C   UNL     1     -16.659 -33.916  33.791  1.00  0.00     0.039 C 
ENDBRANCH   6   7
ENDBRANCH   5   6
ENDBRANCH   3   5
ENDBRANCH   1   2
BRANCH   1  11
ATOM     11  C   UNL     1     -13.120 -38.315  30.832  1.00  0.00     0.034 C 
BRANCH  11  12
ATOM     12  C   UNL     1     -13.384 -37.664  29.488  1.00  0.00    -0.077 C 
ATOM     13  C   UNL     1     -12.689 -36.554  29.148  1.00  0.00    -0.028 C 
ATOM     14  C   UNL     1     -14.433 -38.259  28.578  1.00  0.00     0.039 C 
BRANCH  13  15
ATOM     15  C   UNL     1     -12.833 -35.824  27.836  1.00  0.00     0.035 C 
BRANCH  15  16
ATOM     16  C   UNL     1     -11.743 -34.752  27.690  1.00  0.00     0.079 C 
BRANCH  16  17
ATOM     17  C   UNL     1     -11.905 -33.566  28.615  1.00  0.00     0.130 C 
ATOM     18  O   UNL     1     -10.952 -33.233  29.303  1.00  0.00    -0.300 OA
ATOM     19  C   UNL     1     -13.182 -32.777  28.719  1.00  0.00     0.087 C 
ENDBRANCH  16  17
ENDBRANCH  15  16
ENDBRANCH  13  15
ENDBRANCH  11  12
ENDBRANCH   1  11
TORSDOF 9
ENDMDL
MODEL 9
REMARK VINA RESULT:    -5.319      1.189      3.765
REMARK INTER + INTRA:         -10.057
REMARK INTER:                  -9.065
REMARK INTRA:                  -0.992
REMARK UNBOUND:                -1.940
REMARK SMILES CC(=O)CCC=C(C)CCC=C(C)CCC=C(C)C
REMARK SMILES IDX 10 1 11 2 12 3 13 4 14 5 15 6 16 7 18 8 17 9 19 10 9 11 7 12
REMARK SMILES IDX 6 13 8 14 5 15 4 16 2 17 3 18 1 19
REMARK H PARENT
REMARK Flexibility Score: inf
ROOT
ATOM      1  C   UNL     1     -13.242 -36.978  28.394  1.00  0.00     0.032 C 
ENDROOT
BRANCH   1   2
ATOM      2  C   UNL     1     -12.801 -35.618  28.880  1.00  0.00    -0.028 C 
ATOM      3  C   UNL     1     -12.096 -34.730  28.143  1.00  0.00    -0.077 C 
ATOM      4  C   UNL     1     -11.752 -34.986  26.696  1.00  0.00     0.039 C 
BRANCH   3   5
ATOM      5  C   UNL     1     -11.690 -33.411  28.766  1.00  0.00     0.034 C 
BRANCH   5   6
ATOM      6  C   UNL     1     -10.235 -33.433  29.254  1.00  0.00     0.032 C 
BRANCH   6   7
ATOM      7  C   UNL     1     -10.137 -33.266  30.753  1.00  0.00    -0.028 C 
ATOM      8  C   UNL     1      -9.875 -35.719  31.182  1.00  0.00     0.039 C 
ATOM      9  C   UNL     1     -10.007 -34.283  31.631  1.00  0.00    -0.080 C 
ATOM     10  C   UNL     1      -9.975 -33.960  33.102  1.00  0.00     0.039 C 
ENDBRANCH   6   7
ENDBRANCH   5   6
ENDBRANCH   3   5
ENDBRANCH   1   2
BRANCH   1  11
ATOM     11  C   UNL     1     -13.381 -37.977  29.552  1.00  0.00     0.034 C 
BRANCH  11  12
ATOM     12  C   UNL     1     -13.240 -37.300  30.902  1.00  0.00    -0.077 C 
ATOM     13  C   UNL     1     -13.758 -36.063  31.074  1.00  0.00    -0.028 C 
ATOM     14  C   UNL     1     -12.502 -38.018  32.008  1.00  0.00     0.039 C 
BRANCH  13  15
ATOM     15  C   UNL     1     -13.713 -35.290  32.368  1.00  0.00     0.035 C 
BRANCH  15  16
ATOM     16  C   UNL     1     -13.595 -33.783  32.095  1.00  0.00     0.079 C 
BRANCH  16  17
ATOM     17  C   UNL     1     -14.888 -33.016  32.255  1.00  0.00     0.130 C 
ATOM     18  O   UNL     1     -15.191 -32.203  31.394  1.00  0.00    -0.300 OA
ATOM     19  C   UNL     1     -15.819 -33.212  33.421  1.00  0.00     0.087 C 
ENDBRANCH  16  17
ENDBRANCH  15  16
ENDBRANCH  13  15
ENDBRANCH  11  12
ENDBRANCH   1  11
TORSDOF 9
ENDMDL
