MODEL 1
REMARK VINA RESULT:    -3.490      0.000      0.000
REMARK INTER + INTRA:          -8.521
REMARK INTER:                  -6.346
REMARK INTRA:                  -2.175
REMARK UNBOUND:                -2.175
REMARK SMILES CCCCCCCCCCCCCCCC(=O)[O-]
REMARK SMILES IDX 9 1 10 2 11 3 12 4 13 5 14 6 15 7 16 8 17 9 18 10 8 11 7 12
REMARK SMILES IDX 6 13 5 14 4 15 3 16 2 17 1 18
REMARK H PARENT
REMARK Flexibility Score: inf
ROOT
ATOM      1  C   UNL     1     153.981 132.759 164.533  1.00  0.00     0.000 C 
ENDROOT
BRANCH   1   2
ATOM      2  C   UNL     1     154.742 132.105 165.701  1.00  0.00     0.000 C 
BRANCH   2   3
ATOM      3  C   UNL     1     154.116 132.406 167.070  1.00  0.00     0.000 C 
BRANCH   3   4
ATOM      4  C   UNL     1     155.199 132.608 168.137  1.00  0.00     0.000 C 
BRANCH   4   5
ATOM      5  C   UNL     1     156.601 132.587 167.511  1.00  0.00     0.000 C 
BRANCH   5   6
ATOM      6  C   UNL     1     157.413 133.852 167.834  1.00  0.00     0.006 C 
BRANCH   6   7
ATOM      7  C   UNL     1     156.597 134.897 168.606  1.00  0.00     0.053 C 
BRANCH   7   8
ATOM      8  C   UNL     1     156.744 136.245 167.974  1.00  0.00     0.041 C 
ATOM      9  O   UNL     1     156.577 136.386 166.733  1.00  0.00    -0.550 OA
ATOM     10  O   UNL     1     157.100 137.341 168.749  1.00  0.00    -0.550 OA
ENDBRANCH   7   8
ENDBRANCH   6   7
ENDBRANCH   5   6
ENDBRANCH   4   5
ENDBRANCH   3   4
ENDBRANCH   2   3
ENDBRANCH   1   2
BRANCH   1  11
ATOM     11  C   UNL     1     152.870 131.893 163.912  1.00  0.00     0.000 C 
BRANCH  11  12
ATOM     12  C   UNL     1     151.531 132.639 163.777  1.00  0.00    -0.000 C 
BRANCH  12  13
ATOM     13  C   UNL     1     150.697 132.590 165.068  1.00  0.00    -0.000 C 
BRANCH  13  14
ATOM     14  C   UNL     1     150.723 133.918 165.840  1.00  0.00    -0.000 C 
BRANCH  14  15
ATOM     15  C   UNL     1     151.030 135.093 164.898  1.00  0.00    -0.000 C 
BRANCH  15  16
ATOM     16  C   UNL     1     151.760 136.244 165.606  1.00  0.00    -0.000 C 
BRANCH  16  17
ATOM     17  C   UNL     1     153.085 135.798 166.244  1.00  0.00    -0.003 C 
ATOM     18  C   UNL     1     153.046 135.960 167.761  1.00  0.00     0.004 C 
ENDBRANCH  16  17
ENDBRANCH  15  16
ENDBRANCH  14  15
ENDBRANCH  13  14
ENDBRANCH  12  13
ENDBRANCH  11  12
ENDBRANCH   1  11
TORSDOF 14
ENDMDL
MODEL 2
REMARK VINA RESULT:    -3.418      3.168      5.137
REMARK INTER + INTRA:          -8.390
REMARK INTER:                  -7.055
REMARK INTRA:                  -1.334
REMARK UNBOUND:                -2.175
REMARK SMILES CCCCCCCCCCCCCCCC(=O)[O-]
REMARK SMILES IDX 9 1 10 2 11 3 12 4 13 5 14 6 15 7 16 8 17 9 18 10 8 11 7 12
REMARK SMILES IDX 6 13 5 14 4 15 3 16 2 17 1 18
REMARK H PARENT
REMARK Flexibility Score: inf
ROOT
ATOM      1  C   UNL     1     150.609 132.748 166.647  1.00  0.00     0.000 C 
ENDROOT
BRANCH   1   2
ATOM      2  C   UNL     1     151.281 133.154 165.323  1.00  0.00     0.000 C 
BRANCH   2   3
ATOM      3  C   UNL     1     151.578 131.958 164.408  1.00  0.00     0.000 C 
BRANCH   3   4
ATOM      4  C   UNL     1     153.060 131.918 164.019  1.00  0.00     0.000 C 
BRANCH   4   5
ATOM      5  C   UNL     1     153.890 132.857 164.906  1.00  0.00     0.000 C 
BRANCH   5   6
ATOM      6  C   UNL     1     155.018 132.127 165.652  1.00  0.00     0.006 C 
BRANCH   6   7
ATOM      7  C   UNL     1     155.091 132.510 167.135  1.00  0.00     0.053 C 
BRANCH   7   8
ATOM      8  C   UNL     1     156.459 133.010 167.479  1.00  0.00     0.041 C 
ATOM      9  O   UNL     1     156.635 134.221 167.778  1.00  0.00    -0.550 OA
ATOM     10  O   UNL     1     157.546 132.147 167.433  1.00  0.00    -0.550 OA
ENDBRANCH   7   8
ENDBRANCH   6   7
ENDBRANCH   5   6
ENDBRANCH   4   5
ENDBRANCH   3   4
ENDBRANCH   2   3
ENDBRANCH   1   2
BRANCH   1  11
ATOM     11  C   UNL     1     149.072 132.847 166.657  1.00  0.00     0.000 C 
BRANCH  11  12
ATOM     12  C   UNL     1     148.527 133.824 165.601  1.00  0.00    -0.000 C 
BRANCH  12  13
ATOM     13  C   UNL     1     147.444 133.188 164.714  1.00  0.00    -0.000 C 
BRANCH  13  14
ATOM     14  C   UNL     1     148.034 132.342 163.576  1.00  0.00    -0.000 C 
BRANCH  14  15
ATOM     15  C   UNL     1     148.364 133.218 162.357  1.00  0.00    -0.000 C 
BRANCH  15  16
ATOM     16  C   UNL     1     147.106 133.764 161.663  1.00  0.00    -0.000 C 
BRANCH  16  17
ATOM     17  C   UNL     1     146.420 132.713 160.776  1.00  0.00    -0.003 C 
ATOM     18  C   UNL     1     144.975 132.487 161.211  1.00  0.00     0.004 C 
ENDBRANCH  16  17
ENDBRANCH  15  16
ENDBRANCH  14  15
ENDBRANCH  13  14
ENDBRANCH  12  13
ENDBRANCH  11  12
ENDBRANCH   1  11
TORSDOF 14
ENDMDL
MODEL 3
REMARK VINA RESULT:    -3.416      2.757      5.328
REMARK INTER + INTRA:          -8.386
REMARK INTER:                  -6.849
REMARK INTRA:                  -1.538
REMARK UNBOUND:                -2.175
REMARK SMILES CCCCCCCCCCCCCCCC(=O)[O-]
REMARK SMILES IDX 9 1 10 2 11 3 12 4 13 5 14 6 15 7 16 8 17 9 18 10 8 11 7 12
REMARK SMILES IDX 6 13 5 14 4 15 3 16 2 17 1 18
REMARK H PARENT
REMARK Flexibility Score: inf
ROOT
ATOM      1  C   UNL     1     154.554 134.857 166.716  1.00  0.00     0.000 C 
ENDROOT
BRANCH   1   2
ATOM      2  C   UNL     1     154.938 136.329 166.480  1.00  0.00     0.000 C 
BRANCH   2   3
ATOM      3  C   UNL     1     156.398 136.635 166.847  1.00  0.00     0.000 C 
BRANCH   3   4
ATOM      4  C   UNL     1     156.522 137.030 168.323  1.00  0.00     0.000 C 
BRANCH   4   5
ATOM      5  C   UNL     1     157.282 138.355 168.478  1.00  0.00     0.000 C 
BRANCH   5   6
ATOM      6  C   UNL     1     157.770 138.919 167.134  1.00  0.00     0.006 C 
BRANCH   6   7
ATOM      7  C   UNL     1     157.596 140.440 167.033  1.00  0.00     0.053 C 
BRANCH   7   8
ATOM      8  C   UNL     1     156.875 140.800 165.772  1.00  0.00     0.041 C 
ATOM      9  O   UNL     1     156.553 139.905 164.947  1.00  0.00    -0.550 OA
ATOM     10  O   UNL     1     156.591 142.130 165.491  1.00  0.00    -0.550 OA
ENDBRANCH   7   8
ENDBRANCH   6   7
ENDBRANCH   5   6
ENDBRANCH   4   5
ENDBRANCH   3   4
ENDBRANCH   2   3
ENDBRANCH   1   2
BRANCH   1  11
ATOM     11  C   UNL     1     154.312 134.032 165.439  1.00  0.00     0.000 C 
BRANCH  11  12
ATOM     12  C   UNL     1     154.655 132.542 165.612  1.00  0.00    -0.000 C 
BRANCH  12  13
ATOM     13  C   UNL     1     155.585 132.287 166.809  1.00  0.00    -0.000 C 
BRANCH  13  14
ATOM     14  C   UNL     1     157.049 132.085 166.389  1.00  0.00    -0.000 C 
BRANCH  14  15
ATOM     15  C   UNL     1     158.000 132.399 167.555  1.00  0.00    -0.000 C 
BRANCH  15  16
ATOM     16  C   UNL     1     157.453 133.491 168.486  1.00  0.00    -0.000 C 
BRANCH  16  17
ATOM     17  C   UNL     1     157.347 133.023 169.946  1.00  0.00    -0.003 C 
ATOM     18  C   UNL     1     156.496 133.984 170.770  1.00  0.00     0.004 C 
ENDBRANCH  16  17
ENDBRANCH  15  16
ENDBRANCH  14  15
ENDBRANCH  13  14
ENDBRANCH  12  13
ENDBRANCH  11  12
ENDBRANCH   1  11
TORSDOF 14
ENDMDL
MODEL 4
REMARK VINA RESULT:    -3.367      5.112      8.351
REMARK INTER + INTRA:          -8.297
REMARK INTER:                  -7.612
REMARK INTRA:                  -0.685
REMARK UNBOUND:                -2.175
REMARK SMILES CCCCCCCCCCCCCCCC(=O)[O-]
REMARK SMILES IDX 9 1 10 2 11 3 12 4 13 5 14 6 15 7 16 8 17 9 18 10 8 11 7 12
REMARK SMILES IDX 6 13 5 14 4 15 3 16 2 17 1 18
REMARK H PARENT
REMARK Flexibility Score: inf
ROOT
ATOM      1  C   UNL     1     153.122 132.146 164.069  1.00  0.00     0.000 C 
ENDROOT
BRANCH   1   2
ATOM      2  C   UNL     1     151.664 131.986 164.536  1.00  0.00     0.000 C 
BRANCH   2   3
ATOM      3  C   UNL     1     150.647 132.134 163.396  1.00  0.00     0.000 C 
BRANCH   3   4
ATOM      4  C   UNL     1     149.556 133.147 163.760  1.00  0.00     0.000 C 
BRANCH   4   5
ATOM      5  C   UNL     1     148.157 132.545 163.568  1.00  0.00     0.000 C 
BRANCH   5   6
ATOM      6  C   UNL     1     147.227 133.454 162.749  1.00  0.00     0.006 C 
BRANCH   6   7
ATOM      7  C   UNL     1     147.153 133.047 161.272  1.00  0.00     0.053 C 
BRANCH   7   8
ATOM      8  C   UNL     1     145.835 132.406 160.971  1.00  0.00     0.041 C 
ATOM      9  O   UNL     1     145.158 131.883 161.896  1.00  0.00    -0.550 OA
ATOM     10  O   UNL     1     145.370 132.355 159.664  1.00  0.00    -0.550 OA
ENDBRANCH   7   8
ENDBRANCH   6   7
ENDBRANCH   5   6
ENDBRANCH   4   5
ENDBRANCH   3   4
ENDBRANCH   2   3
ENDBRANCH   1   2
BRANCH   1  11
ATOM     11  C   UNL     1     154.043 132.899 165.047  1.00  0.00     0.000 C 
BRANCH  11  12
ATOM     12  C   UNL     1     154.636 131.987 166.136  1.00  0.00    -0.000 C 
BRANCH  12  13
ATOM     13  C   UNL     1     156.144 132.213 166.335  1.00  0.00    -0.000 C 
BRANCH  13  14
ATOM     14  C   UNL     1     156.516 132.459 167.805  1.00  0.00    -0.000 C 
BRANCH  14  15
ATOM     15  C   UNL     1     157.449 133.674 167.936  1.00  0.00    -0.000 C 
BRANCH  15  16
ATOM     16  C   UNL     1     156.801 134.838 168.701  1.00  0.00    -0.000 C 
BRANCH  16  17
ATOM     17  C   UNL     1     156.541 136.060 167.806  1.00  0.00    -0.003 C 
ATOM     18  C   UNL     1     155.516 135.740 166.723  1.00  0.00     0.004 C 
ENDBRANCH  16  17
ENDBRANCH  15  16
ENDBRANCH  14  15
ENDBRANCH  13  14
ENDBRANCH  12  13
ENDBRANCH  11  12
ENDBRANCH   1  11
TORSDOF 14
ENDMDL
MODEL 5
REMARK VINA RESULT:    -3.362      4.517      7.502
REMARK INTER + INTRA:          -8.288
REMARK INTER:                  -7.252
REMARK INTRA:                  -1.036
REMARK UNBOUND:                -2.175
REMARK SMILES CCCCCCCCCCCCCCCC(=O)[O-]
REMARK SMILES IDX 9 1 10 2 11 3 12 4 13 5 14 6 15 7 16 8 17 9 18 10 8 11 7 12
REMARK SMILES IDX 6 13 5 14 4 15 3 16 2 17 1 18
REMARK H PARENT
REMARK Flexibility Score: inf
ROOT
ATOM      1  C   UNL     1     153.744 132.832 164.775  1.00  0.00     0.000 C 
ENDROOT
BRANCH   1   2
ATOM      2  C   UNL     1     153.076 132.170 163.556  1.00  0.00     0.000 C 
BRANCH   2   3
ATOM      3  C   UNL     1     151.583 131.881 163.771  1.00  0.00     0.000 C 
BRANCH   3   4
ATOM      4  C   UNL     1     150.790 133.184 163.930  1.00  0.00     0.000 C 
BRANCH   4   5
ATOM      5  C   UNL     1     149.590 132.988 164.868  1.00  0.00     0.000 C 
BRANCH   5   6
ATOM      6  C   UNL     1     148.268 132.800 164.107  1.00  0.00     0.006 C 
BRANCH   6   7
ATOM      7  C   UNL     1     148.310 133.391 162.692  1.00  0.00     0.053 C 
BRANCH   7   8
ATOM      8  C   UNL     1     147.068 133.032 161.938  1.00  0.00     0.041 C 
ATOM      9  O   UNL     1     147.067 133.038 160.678  1.00  0.00    -0.550 OA
ATOM     10  O   UNL     1     145.902 132.724 162.626  1.00  0.00    -0.550 OA
ENDBRANCH   7   8
ENDBRANCH   6   7
ENDBRANCH   5   6
ENDBRANCH   4   5
ENDBRANCH   3   4
ENDBRANCH   2   3
ENDBRANCH   1   2
BRANCH   1  11
ATOM     11  C   UNL     1     154.093 131.875 165.929  1.00  0.00     0.000 C 
BRANCH  11  12
ATOM     12  C   UNL     1     154.866 132.564 167.067  1.00  0.00    -0.000 C 
BRANCH  12  13
ATOM     13  C   UNL     1     154.382 134.000 167.323  1.00  0.00    -0.000 C 
BRANCH  13  14
ATOM     14  C   UNL     1     155.475 135.048 167.068  1.00  0.00    -0.000 C 
BRANCH  14  15
ATOM     15  C   UNL     1     156.775 134.670 167.797  1.00  0.00    -0.000 C 
BRANCH  15  16
ATOM     16  C   UNL     1     156.683 134.880 169.316  1.00  0.00    -0.000 C 
BRANCH  16  17
ATOM     17  C   UNL     1     156.959 133.592 170.107  1.00  0.00    -0.003 C 
ATOM     18  C   UNL     1     157.921 132.680 169.351  1.00  0.00     0.004 C 
ENDBRANCH  16  17
ENDBRANCH  15  16
ENDBRANCH  14  15
ENDBRANCH  13  14
ENDBRANCH  12  13
ENDBRANCH  11  12
ENDBRANCH   1  11
TORSDOF 14
ENDMDL
MODEL 6
REMARK VINA RESULT:    -3.357      3.973      6.846
REMARK INTER + INTRA:          -8.280
REMARK INTER:                  -6.630
REMARK INTRA:                  -1.650
REMARK UNBOUND:                -2.175
REMARK SMILES CCCCCCCCCCCCCCCC(=O)[O-]
REMARK SMILES IDX 9 1 10 2 11 3 12 4 13 5 14 6 15 7 16 8 17 9 18 10 8 11 7 12
REMARK SMILES IDX 6 13 5 14 4 15 3 16 2 17 1 18
REMARK H PARENT
REMARK Flexibility Score: inf
ROOT
ATOM      1  C   UNL     1     154.523 132.963 165.021  1.00  0.00     0.000 C 
ENDROOT
BRANCH   1   2
ATOM      2  C   UNL     1     153.195 132.562 164.351  1.00  0.00     0.000 C 
BRANCH   2   3
ATOM      3  C   UNL     1     152.179 131.970 165.338  1.00  0.00     0.000 C 
BRANCH   3   4
ATOM      4  C   UNL     1     150.831 132.693 165.238  1.00  0.00     0.000 C 
BRANCH   4   5
ATOM      5  C   UNL     1     150.758 133.551 163.967  1.00  0.00     0.000 C 
BRANCH   5   6
ATOM      6  C   UNL     1     149.850 132.938 162.888  1.00  0.00     0.006 C 
BRANCH   6   7
ATOM      7  C   UNL     1     148.608 132.258 163.478  1.00  0.00     0.053 C 
BRANCH   7   8
ATOM      8  C   UNL     1     147.362 132.902 162.956  1.00  0.00     0.041 C 
ATOM      9  O   UNL     1     146.233 132.425 163.245  1.00  0.00    -0.550 OA
ATOM     10  O   UNL     1     147.449 134.008 162.122  1.00  0.00    -0.550 OA
ENDBRANCH   7   8
ENDBRANCH   6   7
ENDBRANCH   5   6
ENDBRANCH   4   5
ENDBRANCH   3   4
ENDBRANCH   2   3
ENDBRANCH   1   2
BRANCH   1  11
ATOM     11  C   UNL     1     155.046 131.974 166.079  1.00  0.00     0.000 C 
BRANCH  11  12
ATOM     12  C   UNL     1     155.205 132.611 167.470  1.00  0.00    -0.000 C 
BRANCH  12  13
ATOM     13  C   UNL     1     156.504 133.423 167.600  1.00  0.00    -0.000 C 
BRANCH  13  14
ATOM     14  C   UNL     1     156.273 134.819 168.197  1.00  0.00    -0.000 C 
BRANCH  14  15
ATOM     15  C   UNL     1     156.570 135.914 167.160  1.00  0.00    -0.000 C 
BRANCH  15  16
ATOM     16  C   UNL     1     155.316 136.709 166.764  1.00  0.00    -0.000 C 
BRANCH  16  17
ATOM     17  C   UNL     1     154.047 136.197 167.464  1.00  0.00    -0.003 C 
ATOM     18  C   UNL     1     152.997 135.761 166.447  1.00  0.00     0.004 C 
ENDBRANCH  16  17
ENDBRANCH  15  16
ENDBRANCH  14  15
ENDBRANCH  13  14
ENDBRANCH  12  13
ENDBRANCH  11  12
ENDBRANCH   1  11
TORSDOF 14
ENDMDL
MODEL 7
REMARK VINA RESULT:    -3.317      4.018      7.112
REMARK INTER + INTRA:          -8.207
REMARK INTER:                  -6.760
REMARK INTRA:                  -1.447
REMARK UNBOUND:                -2.175
REMARK SMILES CCCCCCCCCCCCCCCC(=O)[O-]
REMARK SMILES IDX 9 1 10 2 11 3 12 4 13 5 14 6 15 7 16 8 17 9 18 10 8 11 7 12
REMARK SMILES IDX 6 13 5 14 4 15 3 16 2 17 1 18
REMARK H PARENT
REMARK Flexibility Score: inf
ROOT
ATOM      1  C   UNL     1     153.373 133.990 165.458  1.00  0.00     0.000 C 
ENDROOT
BRANCH   1   2
ATOM      2  C   UNL     1     153.996 132.761 164.772  1.00  0.00     0.000 C 
BRANCH   2   3
ATOM      3  C   UNL     1     153.039 132.071 163.790  1.00  0.00     0.000 C 
BRANCH   3   4
ATOM      4  C   UNL     1     151.654 131.875 164.418  1.00  0.00     0.000 C 
BRANCH   4   5
ATOM      5  C   UNL     1     150.544 132.036 163.369  1.00  0.00     0.000 C 
BRANCH   5   6
ATOM      6  C   UNL     1     149.378 132.903 163.869  1.00  0.00     0.006 C 
BRANCH   6   7
ATOM      7  C   UNL     1     148.008 132.336 163.474  1.00  0.00     0.053 C 
BRANCH   7   8
ATOM      8  C   UNL     1     147.055 133.445 163.156  1.00  0.00     0.041 C 
ATOM      9  O   UNL     1     147.358 134.315 162.296  1.00  0.00    -0.550 OA
ATOM     10  O   UNL     1     145.847 133.539 163.834  1.00  0.00    -0.550 OA
ENDBRANCH   7   8
ENDBRANCH   6   7
ENDBRANCH   5   6
ENDBRANCH   4   5
ENDBRANCH   3   4
ENDBRANCH   2   3
ENDBRANCH   1   2
BRANCH   1  11
ATOM     11  C   UNL     1     153.629 134.094 166.972  1.00  0.00     0.000 C 
BRANCH  11  12
ATOM     12  C   UNL     1     153.837 132.725 167.642  1.00  0.00    -0.000 C 
BRANCH  12  13
ATOM     13  C   UNL     1     155.164 132.641 168.414  1.00  0.00    -0.000 C 
BRANCH  13  14
ATOM     14  C   UNL     1     156.389 132.638 167.486  1.00  0.00    -0.000 C 
BRANCH  14  15
ATOM     15  C   UNL     1     157.366 133.761 167.868  1.00  0.00    -0.000 C 
BRANCH  15  16
ATOM     16  C   UNL     1     156.867 134.601 169.054  1.00  0.00    -0.000 C 
BRANCH  16  17
ATOM     17  C   UNL     1     156.605 136.066 168.671  1.00  0.00    -0.003 C 
ATOM     18  C   UNL     1     156.638 136.251 167.157  1.00  0.00     0.004 C 
ENDBRANCH  16  17
ENDBRANCH  15  16
ENDBRANCH  14  15
ENDBRANCH  13  14
ENDBRANCH  12  13
ENDBRANCH  11  12
ENDBRANCH   1  11
TORSDOF 14
ENDMDL
MODEL 8
REMARK VINA RESULT:    -3.273      2.694      5.680
REMARK INTER + INTRA:          -8.126
REMARK INTER:                  -6.722
REMARK INTRA:                  -1.404
REMARK UNBOUND:                -2.175
REMARK SMILES CCCCCCCCCCCCCCCC(=O)[O-]
REMARK SMILES IDX 9 1 10 2 11 3 12 4 13 5 14 6 15 7 16 8 17 9 18 10 8 11 7 12
REMARK SMILES IDX 6 13 5 14 4 15 3 16 2 17 1 18
REMARK H PARENT
REMARK Flexibility Score: inf
ROOT
ATOM      1  C   UNL     1     157.015 133.092 169.236  1.00  0.00     0.000 C 
ENDROOT
BRANCH   1   2
ATOM      2  C   UNL     1     157.786 132.892 167.918  1.00  0.00     0.000 C 
BRANCH   2   3
ATOM      3  C   UNL     1     156.963 132.165 166.845  1.00  0.00     0.000 C 
BRANCH   3   4
ATOM      4  C   UNL     1     155.461 132.298 167.122  1.00  0.00     0.000 C 
BRANCH   4   5
ATOM      5  C   UNL     1     154.636 131.910 165.886  1.00  0.00     0.000 C 
BRANCH   5   6
ATOM      6  C   UNL     1     154.357 133.105 164.961  1.00  0.00     0.006 C 
BRANCH   6   7
ATOM      7  C   UNL     1     153.826 134.328 165.719  1.00  0.00     0.053 C 
BRANCH   7   8
ATOM      8  C   UNL     1     152.396 134.587 165.359  1.00  0.00     0.041 C 
ATOM      9  O   UNL     1     151.923 135.752 165.436  1.00  0.00    -0.550 OA
ATOM     10  O   UNL     1     151.576 133.535 164.973  1.00  0.00    -0.550 OA
ENDBRANCH   7   8
ENDBRANCH   6   7
ENDBRANCH   5   6
ENDBRANCH   4   5
ENDBRANCH   3   4
ENDBRANCH   2   3
ENDBRANCH   1   2
BRANCH   1  11
ATOM     11  C   UNL     1     156.847 134.557 169.679  1.00  0.00     0.000 C 
BRANCH  11  12
ATOM     12  C   UNL     1     156.751 135.535 168.495  1.00  0.00    -0.000 C 
BRANCH  12  13
ATOM     13  C   UNL     1     155.430 136.322 168.488  1.00  0.00    -0.000 C 
BRANCH  13  14
ATOM     14  C   UNL     1     155.438 137.483 167.482  1.00  0.00    -0.000 C 
BRANCH  14  15
ATOM     15  C   UNL     1     156.864 137.766 166.985  1.00  0.00    -0.000 C 
BRANCH  15  16
ATOM     16  C   UNL     1     157.467 139.034 167.610  1.00  0.00    -0.000 C 
BRANCH  16  17
ATOM     17  C   UNL     1     158.075 139.976 166.560  1.00  0.00    -0.003 C 
ATOM     18  C   UNL     1     157.105 140.213 165.406  1.00  0.00     0.004 C 
ENDBRANCH  16  17
ENDBRANCH  15  16
ENDBRANCH  14  15
ENDBRANCH  13  14
ENDBRANCH  12  13
ENDBRANCH  11  12
ENDBRANCH   1  11
TORSDOF 14
ENDMDL
MODEL 9
REMARK VINA RESULT:    -3.204      2.271      4.887
REMARK INTER + INTRA:          -8.002
REMARK INTER:                  -5.830
REMARK INTRA:                  -2.171
REMARK UNBOUND:                -2.175
REMARK SMILES CCCCCCCCCCCCCCCC(=O)[O-]
REMARK SMILES IDX 9 1 10 2 11 3 12 4 13 5 14 6 15 7 16 8 17 9 18 10 8 11 7 12
REMARK SMILES IDX 6 13 5 14 4 15 3 16 2 17 1 18
REMARK H PARENT
REMARK Flexibility Score: inf
ROOT
ATOM      1  C   UNL     1     156.120 133.703 169.252  1.00  0.00     0.000 C 
ENDROOT
BRANCH   1   2
ATOM      2  C   UNL     1     156.996 134.668 168.431  1.00  0.00     0.000 C 
BRANCH   2   3
ATOM      3  C   UNL     1     156.353 136.048 168.239  1.00  0.00     0.000 C 
BRANCH   3   4
ATOM      4  C   UNL     1     156.194 136.379 166.751  1.00  0.00     0.000 C 
BRANCH   4   5
ATOM      5  C   UNL     1     154.714 136.549 166.378  1.00  0.00     0.000 C 
BRANCH   5   6
ATOM      6  C   UNL     1     153.771 135.813 167.343  1.00  0.00     0.006 C 
BRANCH   6   7
ATOM      7  C   UNL     1     152.488 135.324 166.658  1.00  0.00     0.053 C 
BRANCH   7   8
ATOM      8  C   UNL     1     151.395 135.144 167.663  1.00  0.00     0.041 C 
ATOM      9  O   UNL     1     151.402 135.808 168.734  1.00  0.00    -0.550 OA
ATOM     10  O   UNL     1     150.388 134.216 167.435  1.00  0.00    -0.550 OA
ENDBRANCH   7   8
ENDBRANCH   6   7
ENDBRANCH   5   6
ENDBRANCH   4   5
ENDBRANCH   3   4
ENDBRANCH   2   3
ENDBRANCH   1   2
BRANCH   1  11
ATOM     11  C   UNL     1     155.463 132.568 168.444  1.00  0.00     0.000 C 
BRANCH  11  12
ATOM     12  C   UNL     1     155.826 132.608 166.949  1.00  0.00    -0.000 C 
BRANCH  12  13
ATOM     13  C   UNL     1     154.691 132.082 166.055  1.00  0.00    -0.000 C 
BRANCH  13  14
ATOM     14  C   UNL     1     154.427 132.987 164.841  1.00  0.00    -0.000 C 
BRANCH  14  15
ATOM     15  C   UNL     1     153.187 132.513 164.066  1.00  0.00    -0.000 C 
BRANCH  15  16
ATOM     16  C   UNL     1     152.124 131.883 164.980  1.00  0.00    -0.000 C 
BRANCH  16  17
ATOM     17  C   UNL     1     150.691 132.212 164.531  1.00  0.00    -0.003 C 
ATOM     18  C   UNL     1     150.651 133.511 163.731  1.00  0.00     0.004 C 
ENDBRANCH  16  17
ENDBRANCH  15  16
ENDBRANCH  14  15
ENDBRANCH  13  14
ENDBRANCH  12  13
ENDBRANCH  11  12
ENDBRANCH   1  11
TORSDOF 14
ENDMDL
