MODEL 1
REMARK VINA RESULT:    18.635      0.000      0.000
REMARK INTER + INTRA:          26.232
REMARK INTER:                  25.172
REMARK INTRA:                   1.060
REMARK UNBOUND:                 1.060
REMARK SMILES O=c1c(-c2ccc(O)cc2)coc2c([C@@H]3O[C@H](CO)[C@@H](O)[C@H](O)[C@H]3O)c(O)ccc12
REMARK SMILES IDX 3 1 11 2 12 3 13 4 30 5 2 6 1 7 29 8 28 9 26 10 14 11 4 12
REMARK SMILES IDX 5 13 6 14 7 15 10 16 9 17 8 18 15 20 24 21 16 22 22 23 17 24
REMARK SMILES IDX 20 25 25 26 23 28 18 30 19 31 21 33 27 35
REMARK H PARENT 8 19 25 27 23 29 19 32 21 34 27 36
REMARK Flexibility Score: inf
ROOT
ATOM      1  C   UNL     1      21.486  22.711  36.457  1.00  0.00     0.065 A 
ATOM      2  C   UNL     1      22.769  22.619  35.899  1.00  0.00     0.208 A 
ATOM      3  O   UNL     1      23.453  21.482  35.945  1.00  0.00    -0.463 OA
ATOM      4  C   UNL     1      22.984  20.373  36.511  1.00  0.00     0.147 A 
ATOM      5  C   UNL     1      21.701  20.379  37.107  1.00  0.00     0.066 A 
ATOM      6  C   UNL     1      20.950  21.568  37.079  1.00  0.00     0.200 A 
ATOM      7  O   UNL     1      19.814  21.617  37.626  1.00  0.00    -0.288 OA
ATOM      8  C   UNL     1      21.215  19.213  37.719  1.00  0.00     0.020 A 
ATOM      9  C   UNL     1      21.993  18.059  37.747  1.00  0.00     0.047 A 
ATOM     10  C   UNL     1      23.265  18.041  37.163  1.00  0.00     0.125 A 
ATOM     11  C   UNL     1      23.768  19.195  36.519  1.00  0.00     0.069 A 
ENDROOT
BRANCH   1  12
ATOM     12  C   UNL     1      20.737  23.991  36.385  1.00  0.00    -0.011 A 
ATOM     13  C   UNL     1      20.008  24.458  37.493  1.00  0.00     0.013 A 
ATOM     14  C   UNL     1      19.297  25.659  37.416  1.00  0.00     0.047 A 
ATOM     15  C   UNL     1      19.301  26.406  36.233  1.00  0.00     0.115 A 
ATOM     16  C   UNL     1      20.731  24.743  35.197  1.00  0.00     0.013 A 
ATOM     17  C   UNL     1      20.020  25.944  35.123  1.00  0.00     0.047 A 
BRANCH  15  18
ATOM     18  O   UNL     1      18.589  27.602  36.172  1.00  0.00    -0.508 OA
ATOM     19  H   UNL     1      19.043  28.477  35.935  1.00  0.00     0.293 HD
ENDBRANCH  15  18
ENDBRANCH   1  12
BRANCH  11  20
ATOM     20  C   UNL     1      25.159  19.193  35.899  1.00  0.00     0.188 C 
ATOM     21  C   UNL     1      26.006  18.047  36.496  1.00  0.00     0.179 C 
ATOM     22  O   UNL     1      25.044  19.049  34.493  1.00  0.00    -0.362 OA
ATOM     23  C   UNL     1      27.391  18.025  35.829  1.00  0.00     0.177 C 
ATOM     24  C   UNL     1      26.307  19.183  33.862  1.00  0.00     0.176 C 
ATOM     25  C   UNL     1      27.246  18.029  34.295  1.00  0.00     0.177 C 
BRANCH  21  26
ATOM     26  O   UNL     1      26.148  18.242  37.880  1.00  0.00    -0.387 OA
ATOM     27  H   UNL     1      26.594  17.431  38.242  1.00  0.00     0.211 HD
ENDBRANCH  21  26
BRANCH  23  28
ATOM     28  O   UNL     1      28.084  16.875  36.242  1.00  0.00    -0.387 OA
ATOM     29  H   UNL     1      27.490  16.390  36.872  1.00  0.00     0.211 HD
ENDBRANCH  23  28
BRANCH  24  30
ATOM     30  C   UNL     1      26.076  19.177  32.344  1.00  0.00     0.191 C 
BRANCH  30  31
ATOM     31  O   UNL     1      25.348  18.042  31.962  1.00  0.00    -0.394 OA
ATOM     32  H   UNL     1      24.410  18.343  31.850  1.00  0.00     0.210 HD
ENDBRANCH  30  31
ENDBRANCH  24  30
BRANCH  25  33
ATOM     33  O   UNL     1      28.511  18.200  33.706  1.00  0.00    -0.388 OA
ATOM     34  H   UNL     1      29.036  17.381  33.907  1.00  0.00     0.211 HD
ENDBRANCH  25  33
ENDBRANCH  11  20
BRANCH  10  35
ATOM     35  O   UNL     1      24.030  16.875  37.225  1.00  0.00    -0.507 OA
ATOM     36  H   UNL     1      25.000  16.859  36.935  1.00  0.00     0.293 HD
ENDBRANCH  10  35
TORSDOF 9
ENDMDL
MODEL 2
REMARK VINA RESULT:    19.533      1.415      2.764
REMARK INTER + INTRA:          27.444
REMARK INTER:                  24.095
REMARK INTRA:                   3.349
REMARK UNBOUND:                 1.060
REMARK SMILES O=c1c(-c2ccc(O)cc2)coc2c([C@@H]3O[C@H](CO)[C@@H](O)[C@H](O)[C@H]3O)c(O)ccc12
REMARK SMILES IDX 3 1 11 2 12 3 13 4 30 5 2 6 1 7 29 8 28 9 26 10 14 11 4 12
REMARK SMILES IDX 5 13 6 14 7 15 10 16 9 17 8 18 15 20 24 21 16 22 22 23 17 24
REMARK SMILES IDX 20 25 25 26 23 28 18 30 19 31 21 33 27 35
REMARK H PARENT 8 19 25 27 23 29 19 32 21 34 27 36
REMARK Flexibility Score: inf
ROOT
ATOM      1  C   UNL     1      21.984  22.197  35.025  1.00  0.00     0.065 A 
ATOM      2  C   UNL     1      23.114  21.682  34.376  1.00  0.00     0.208 A 
ATOM      3  O   UNL     1      23.705  20.575  34.810  1.00  0.00    -0.463 OA
ATOM      4  C   UNL     1      23.278  19.889  35.867  1.00  0.00     0.147 A 
ATOM      5  C   UNL     1      22.149  20.342  36.587  1.00  0.00     0.066 A 
ATOM      6  C   UNL     1      21.501  21.514  36.157  1.00  0.00     0.200 A 
ATOM      7  O   UNL     1      20.508  21.964  36.794  1.00  0.00    -0.288 OA
ATOM      8  C   UNL     1      21.711  19.628  37.713  1.00  0.00     0.020 A 
ATOM      9  C   UNL     1      22.389  18.483  38.124  1.00  0.00     0.047 A 
ATOM     10  C   UNL     1      23.509  18.025  37.420  1.00  0.00     0.125 A 
ATOM     11  C   UNL     1      23.956  18.714  36.269  1.00  0.00     0.069 A 
ENDROOT
BRANCH   1  12
ATOM     12  C   UNL     1      21.336  23.432  34.516  1.00  0.00    -0.011 A 
ATOM     13  C   UNL     1      21.103  23.606  33.141  1.00  0.00     0.013 A 
ATOM     14  C   UNL     1      20.502  24.775  32.667  1.00  0.00     0.047 A 
ATOM     15  C   UNL     1      20.129  25.786  33.558  1.00  0.00     0.115 A 
ATOM     16  C   UNL     1      20.965  24.456  35.406  1.00  0.00     0.013 A 
ATOM     17  C   UNL     1      20.363  25.624  34.930  1.00  0.00     0.047 A 
BRANCH  15  18
ATOM     18  O   UNL     1      19.528  26.946  33.072  1.00  0.00    -0.508 OA
ATOM     19  H   UNL     1      19.478  27.140  32.079  1.00  0.00     0.293 HD
ENDBRANCH  15  18
ENDBRANCH   1  12
BRANCH  11  20
ATOM     20  C   UNL     1      25.187  18.236  35.510  1.00  0.00     0.188 C 
ATOM     21  C   UNL     1      25.614  19.294  34.470  1.00  0.00     0.179 C 
ATOM     22  O   UNL     1      26.237  17.987  36.430  1.00  0.00    -0.362 OA
ATOM     23  C   UNL     1      26.884  18.822  33.742  1.00  0.00     0.177 C 
ATOM     24  C   UNL     1      27.356  17.407  35.782  1.00  0.00     0.176 C 
ATOM     25  C   UNL     1      27.961  18.406  34.762  1.00  0.00     0.177 C 
BRANCH  21  26
ATOM     26  O   UNL     1      24.578  19.483  33.540  1.00  0.00    -0.387 OA
ATOM     27  H   UNL     1      23.725  19.309  34.018  1.00  0.00     0.211 HD
ENDBRANCH  21  26
BRANCH  23  28
ATOM     28  O   UNL     1      27.367  19.865  32.935  1.00  0.00    -0.387 OA
ATOM     29  H   UNL     1      26.630  20.124  32.323  1.00  0.00     0.211 HD
ENDBRANCH  23  28
BRANCH  24  30
ATOM     30  C   UNL     1      28.377  17.023  36.862  1.00  0.00     0.191 C 
BRANCH  30  31
ATOM     31  O   UNL     1      27.771  17.000  38.125  1.00  0.00    -0.394 OA
ATOM     32  H   UNL     1      28.509  17.054  38.785  1.00  0.00     0.210 HD
ENDBRANCH  30  31
ENDBRANCH  24  30
BRANCH  25  33
ATOM     33  O   UNL     1      29.037  17.803  34.088  1.00  0.00    -0.388 OA
ATOM     34  H   UNL     1      29.711  18.514  33.927  1.00  0.00     0.211 HD
ENDBRANCH  25  33
ENDBRANCH  11  20
BRANCH  10  35
ATOM     35  O   UNL     1      24.180  16.885  37.868  1.00  0.00    -0.507 OA
ATOM     36  H   UNL     1      24.451  16.774  38.837  1.00  0.00     0.293 HD
ENDBRANCH  10  35
TORSDOF 9
ENDMDL
MODEL 3
REMARK VINA RESULT:    19.804      2.287      7.826
REMARK INTER + INTRA:          27.811
REMARK INTER:                  26.455
REMARK INTRA:                   1.355
REMARK UNBOUND:                 1.060
REMARK SMILES O=c1c(-c2ccc(O)cc2)coc2c([C@@H]3O[C@H](CO)[C@@H](O)[C@H](O)[C@H]3O)c(O)ccc12
REMARK SMILES IDX 3 1 11 2 12 3 13 4 30 5 2 6 1 7 29 8 28 9 26 10 14 11 4 12
REMARK SMILES IDX 5 13 6 14 7 15 10 16 9 17 8 18 15 20 24 21 16 22 22 23 17 24
REMARK SMILES IDX 20 25 25 26 23 28 18 30 19 31 21 33 27 35
REMARK H PARENT 8 19 25 27 23 29 19 32 21 34 27 36
REMARK Flexibility Score: inf
ROOT
ATOM      1  C   UNL     1      26.851  19.194  34.911  1.00  0.00     0.065 A 
ATOM      2  C   UNL     1      25.963  20.206  34.523  1.00  0.00     0.208 A 
ATOM      3  O   UNL     1      24.733  20.261  35.020  1.00  0.00    -0.463 OA
ATOM      4  C   UNL     1      24.264  19.381  35.900  1.00  0.00     0.147 A 
ATOM      5  C   UNL     1      25.090  18.320  36.339  1.00  0.00     0.066 A 
ATOM      6  C   UNL     1      26.398  18.230  35.830  1.00  0.00     0.200 A 
ATOM      7  O   UNL     1      27.153  17.280  36.178  1.00  0.00    -0.288 OA
ATOM      8  C   UNL     1      24.588  17.382  37.254  1.00  0.00     0.020 A 
ATOM      9  C   UNL     1      23.280  17.489  37.722  1.00  0.00     0.047 A 
ATOM     10  C   UNL     1      22.452  18.533  37.293  1.00  0.00     0.125 A 
ATOM     11  C   UNL     1      22.942  19.505  36.390  1.00  0.00     0.069 A 
ENDROOT
BRANCH   1  12
ATOM     12  C   UNL     1      28.225  19.158  34.347  1.00  0.00    -0.011 A 
ATOM     13  C   UNL     1      29.214  18.338  34.920  1.00  0.00     0.013 A 
ATOM     14  C   UNL     1      30.507  18.316  34.391  1.00  0.00     0.047 A 
ATOM     15  C   UNL     1      30.832  19.114  33.290  1.00  0.00     0.115 A 
ATOM     16  C   UNL     1      28.560  19.963  33.244  1.00  0.00     0.013 A 
ATOM     17  C   UNL     1      29.854  19.938  32.717  1.00  0.00     0.047 A 
BRANCH  15  18
ATOM     18  O   UNL     1      32.125  19.081  32.772  1.00  0.00    -0.508 OA
ATOM     19  H   UNL     1      32.310  19.278  31.795  1.00  0.00     0.293 HD
ENDBRANCH  15  18
ENDBRANCH   1  12
BRANCH  11  20
ATOM     20  C   UNL     1      22.042  20.632  35.901  1.00  0.00     0.188 C 
ATOM     21  C   UNL     1      21.853  21.684  37.015  1.00  0.00     0.179 C 
ATOM     22  O   UNL     1      22.619  21.223  34.748  1.00  0.00    -0.362 OA
ATOM     23  C   UNL     1      20.982  22.839  36.495  1.00  0.00     0.177 C 
ATOM     24  C   UNL     1      21.745  22.184  34.177  1.00  0.00     0.176 C 
ATOM     25  C   UNL     1      21.536  23.366  35.157  1.00  0.00     0.177 C 
BRANCH  21  26
ATOM     26  O   UNL     1      21.234  21.086  38.125  1.00  0.00    -0.387 OA
ATOM     27  H   UNL     1      21.641  21.488  38.936  1.00  0.00     0.211 HD
ENDBRANCH  21  26
BRANCH  23  28
ATOM     28  O   UNL     1      20.969  23.872  37.447  1.00  0.00    -0.387 OA
ATOM     29  H   UNL     1      20.586  23.493  38.281  1.00  0.00     0.211 HD
ENDBRANCH  23  28
BRANCH  24  30
ATOM     30  C   UNL     1      22.367  22.656  32.855  1.00  0.00     0.191 C 
BRANCH  30  31
ATOM     31  O   UNL     1      21.639  23.730  32.326  1.00  0.00    -0.394 OA
ATOM     32  H   UNL     1      22.303  24.322  31.887  1.00  0.00     0.210 HD
ENDBRANCH  30  31
ENDBRANCH  24  30
BRANCH  25  33
ATOM     33  O   UNL     1      20.629  24.286  34.604  1.00  0.00    -0.388 OA
ATOM     34  H   UNL     1      20.196  23.837  33.832  1.00  0.00     0.211 HD
ENDBRANCH  25  33
ENDBRANCH  11  20
BRANCH  10  35
ATOM     35  O   UNL     1      21.140  18.603  37.764  1.00  0.00    -0.507 OA
ATOM     36  H   UNL     1      20.512  17.810  37.712  1.00  0.00     0.293 HD
ENDBRANCH  10  35
TORSDOF 9
ENDMDL
