MODEL 1
REMARK VINA RESULT:    -5.339      0.000      0.000
REMARK INTER + INTRA:          -6.384
REMARK INTER:                  -6.119
REMARK INTRA:                  -0.264
REMARK UNBOUND:                -0.264
REMARK SMILES COc1ccc(C=O)c(O)c1
REMARK SMILES IDX 3 1 11 2 9 3 6 4 5 5 4 6 2 7 1 8 10 9 7 11 8 12
REMARK H PARENT 10 10
REMARK Flexibility Score: inf
ROOT
ATOM      1  C   UNL     1     -13.141   2.153  -9.410  1.00  0.00     0.122 A 
ATOM      2  C   UNL     1     -11.851   1.590  -9.421  1.00  0.00     0.093 A 
ATOM      3  C   UNL     1     -11.655   0.264  -9.837  1.00  0.00     0.129 A 
ATOM      4  C   UNL     1     -12.754  -0.514 -10.249  1.00  0.00     0.056 A 
ATOM      5  C   UNL     1     -14.040   0.054 -10.235  1.00  0.00     0.019 A 
ATOM      6  C   UNL     1     -14.227   1.374  -9.820  1.00  0.00     0.047 A 
ENDROOT
BRANCH   1   7
ATOM      7  O   UNL     1     -13.384   3.472  -9.002  1.00  0.00    -0.497 OA
ATOM      8  C   UNL     1     -12.397   4.340  -8.455  1.00  0.00     0.278 C 
ENDBRANCH   1   7
BRANCH   3   9
ATOM      9  O   UNL     1     -10.370  -0.277  -9.841  1.00  0.00    -0.507 OA
ATOM     10  H   UNL     1      -9.750  -0.170 -10.636  1.00  0.00     0.293 HD
ENDBRANCH   3   9
BRANCH   4  11
ATOM     11  C   UNL     1     -12.557  -1.911 -10.689  1.00  0.00     0.263 C 
ATOM     12  O   UNL     1     -12.037  -2.766  -9.924  1.00  0.00    -0.298 OA
ENDBRANCH   4  11
TORSDOF 3
ENDMDL
MODEL 2
REMARK VINA RESULT:    -4.955      1.363      4.739
REMARK INTER + INTRA:          -5.944
REMARK INTER:                  -5.710
REMARK INTRA:                  -0.234
REMARK UNBOUND:                -0.264
REMARK SMILES COc1ccc(C=O)c(O)c1
REMARK SMILES IDX 3 1 11 2 9 3 6 4 5 5 4 6 2 7 1 8 10 9 7 11 8 12
REMARK H PARENT 10 10
REMARK Flexibility Score: inf
ROOT
ATOM      1  C   UNL     1     -13.090  -0.582 -10.359  1.00  0.00     0.122 A 
ATOM      2  C   UNL     1     -14.172   0.296 -10.160  1.00  0.00     0.093 A 
ATOM      3  C   UNL     1     -13.956   1.600  -9.689  1.00  0.00     0.129 A 
ATOM      4  C   UNL     1     -12.646   2.040  -9.412  1.00  0.00     0.056 A 
ATOM      5  C   UNL     1     -11.570   1.158  -9.613  1.00  0.00     0.019 A 
ATOM      6  C   UNL     1     -11.793  -0.138 -10.081  1.00  0.00     0.047 A 
ENDROOT
BRANCH   1   7
ATOM      7  O   UNL     1     -13.260  -1.893 -10.827  1.00  0.00    -0.497 OA
ATOM      8  C   UNL     1     -13.494  -3.022  -9.992  1.00  0.00     0.278 C 
ENDBRANCH   1   7
BRANCH   3   9
ATOM      9  O   UNL     1     -15.039   2.456  -9.497  1.00  0.00    -0.507 OA
ATOM     10  H   UNL     1     -14.915   3.457  -9.396  1.00  0.00     0.293 HD
ENDBRANCH   3   9
BRANCH   4  11
ATOM     11  C   UNL     1     -12.408   3.411  -8.916  1.00  0.00     0.263 C 
ATOM     12  O   UNL     1     -13.218   3.967  -8.127  1.00  0.00    -0.298 OA
ENDBRANCH   4  11
TORSDOF 3
ENDMDL
MODEL 3
REMARK VINA RESULT:    -4.919      1.666      4.372
REMARK INTER + INTRA:          -5.902
REMARK INTER:                  -5.642
REMARK INTRA:                  -0.260
REMARK UNBOUND:                -0.264
REMARK SMILES COc1ccc(C=O)c(O)c1
REMARK SMILES IDX 3 1 11 2 9 3 6 4 5 5 4 6 2 7 1 8 10 9 7 11 8 12
REMARK H PARENT 10 10
REMARK Flexibility Score: inf
ROOT
ATOM      1  C   UNL     1     -11.352  -1.657  -9.969  1.00  0.00     0.122 A 
ATOM      2  C   UNL     1     -10.976  -0.341  -9.640  1.00  0.00     0.093 A 
ATOM      3  C   UNL     1     -11.926   0.692  -9.632  1.00  0.00     0.129 A 
ATOM      4  C   UNL     1     -13.269   0.415  -9.956  1.00  0.00     0.056 A 
ATOM      5  C   UNL     1     -13.638  -0.901 -10.284  1.00  0.00     0.019 A 
ATOM      6  C   UNL     1     -12.687  -1.924 -10.289  1.00  0.00     0.047 A 
ENDROOT
BRANCH   1   7
ATOM      7  O   UNL     1     -10.437  -2.719  -9.990  1.00  0.00    -0.497 OA
ATOM      8  C   UNL     1     -10.422  -3.788  -9.049  1.00  0.00     0.278 C 
ENDBRANCH   1   7
BRANCH   3   9
ATOM      9  O   UNL     1     -11.536   1.990  -9.304  1.00  0.00    -0.507 OA
ATOM     10  H   UNL     1     -12.192   2.762  -9.320  1.00  0.00     0.293 HD
ENDBRANCH   3   9
BRANCH   4  11
ATOM     11  C   UNL     1     -14.277   1.496  -9.950  1.00  0.00     0.263 C 
ATOM     12  O   UNL     1     -14.512   2.160  -8.905  1.00  0.00    -0.298 OA
ENDBRANCH   4  11
TORSDOF 3
ENDMDL
MODEL 4
REMARK VINA RESULT:    -4.892      1.372      4.437
REMARK INTER + INTRA:          -5.871
REMARK INTER:                  -5.606
REMARK INTRA:                  -0.266
REMARK UNBOUND:                -0.264
REMARK SMILES COc1ccc(C=O)c(O)c1
REMARK SMILES IDX 3 1 11 2 9 3 6 4 5 5 4 6 2 7 1 8 10 9 7 11 8 12
REMARK H PARENT 10 10
REMARK Flexibility Score: inf
ROOT
ATOM      1  C   UNL     1     -13.005   0.185 -10.123  1.00  0.00     0.122 A 
ATOM      2  C   UNL     1     -11.913   0.922  -9.626  1.00  0.00     0.093 A 
ATOM      3  C   UNL     1     -12.115   2.167  -9.011  1.00  0.00     0.129 A 
ATOM      4  C   UNL     1     -13.417   2.688  -8.887  1.00  0.00     0.056 A 
ATOM      5  C   UNL     1     -14.503   1.947  -9.385  1.00  0.00     0.019 A 
ATOM      6  C   UNL     1     -14.295   0.708  -9.996  1.00  0.00     0.047 A 
ENDROOT
BRANCH   1   7
ATOM      7  O   UNL     1     -12.850  -1.063 -10.745  1.00  0.00    -0.497 OA
ATOM      8  C   UNL     1     -13.545  -2.245 -10.361  1.00  0.00     0.278 C 
ENDBRANCH   1   7
BRANCH   3   9
ATOM      9  O   UNL     1     -11.022   2.885  -8.525  1.00  0.00    -0.507 OA
ATOM     10  H   UNL     1     -10.134   2.436  -8.333  1.00  0.00     0.293 HD
ENDBRANCH   3   9
BRANCH   4  11
ATOM     11  C   UNL     1     -13.640   3.999  -8.240  1.00  0.00     0.263 C 
ATOM     12  O   UNL     1     -12.973   5.012  -8.581  1.00  0.00    -0.298 OA
ENDBRANCH   4  11
TORSDOF 3
ENDMDL
MODEL 5
REMARK VINA RESULT:    -4.750      3.765      5.499
REMARK INTER + INTRA:          -5.709
REMARK INTER:                  -5.466
REMARK INTRA:                  -0.243
REMARK UNBOUND:                -0.264
REMARK SMILES COc1ccc(C=O)c(O)c1
REMARK SMILES IDX 3 1 11 2 9 3 6 4 5 5 4 6 2 7 1 8 10 9 7 11 8 12
REMARK H PARENT 10 10
REMARK Flexibility Score: inf
ROOT
ATOM      1  C   UNL     1     -10.296  -2.211  -9.024  1.00  0.00     0.122 A 
ATOM      2  C   UNL     1     -10.845  -3.262  -9.782  1.00  0.00     0.093 A 
ATOM      3  C   UNL     1     -10.820  -4.579  -9.297  1.00  0.00     0.129 A 
ATOM      4  C   UNL     1     -10.243  -4.856  -8.043  1.00  0.00     0.056 A 
ATOM      5  C   UNL     1      -9.696  -3.801  -7.292  1.00  0.00     0.019 A 
ATOM      6  C   UNL     1      -9.724  -2.494  -7.781  1.00  0.00     0.047 A 
ENDROOT
BRANCH   1   7
ATOM      7  O   UNL     1     -10.298  -0.881  -9.469  1.00  0.00    -0.497 OA
ATOM      8  C   UNL     1     -11.370  -0.272 -10.183  1.00  0.00     0.278 C 
ENDBRANCH   1   7
BRANCH   3   9
ATOM      9  O   UNL     1     -11.369  -5.609 -10.061  1.00  0.00    -0.507 OA
ATOM     10  H   UNL     1     -12.361  -5.650 -10.264  1.00  0.00     0.293 HD
ENDBRANCH   3   9
BRANCH   4  11
ATOM     11  C   UNL     1     -10.212  -6.240  -7.524  1.00  0.00     0.263 C 
ATOM     12  O   UNL     1      -9.995  -7.216  -8.289  1.00  0.00    -0.298 OA
ENDBRANCH   4  11
TORSDOF 3
ENDMDL
MODEL 6
REMARK VINA RESULT:    -4.748      3.707      6.471
REMARK INTER + INTRA:          -5.706
REMARK INTER:                  -5.464
REMARK INTRA:                  -0.242
REMARK UNBOUND:                -0.264
REMARK SMILES COc1ccc(C=O)c(O)c1
REMARK SMILES IDX 3 1 11 2 9 3 6 4 5 5 4 6 2 7 1 8 10 9 7 11 8 12
REMARK H PARENT 10 10
REMARK Flexibility Score: inf
ROOT
ATOM      1  C   UNL     1     -10.143  -4.782  -8.209  1.00  0.00     0.122 A 
ATOM      2  C   UNL     1     -10.990  -4.432  -9.278  1.00  0.00     0.093 A 
ATOM      3  C   UNL     1     -11.146  -3.089  -9.653  1.00  0.00     0.129 A 
ATOM      4  C   UNL     1     -10.452  -2.079  -8.959  1.00  0.00     0.056 A 
ATOM      5  C   UNL     1      -9.608  -2.435  -7.893  1.00  0.00     0.019 A 
ATOM      6  C   UNL     1      -9.458  -3.774  -7.525  1.00  0.00     0.047 A 
ENDROOT
BRANCH   1   7
ATOM      7  O   UNL     1      -9.957  -6.110  -7.800  1.00  0.00    -0.497 OA
ATOM      8  C   UNL     1      -9.921  -6.537  -6.442  1.00  0.00     0.278 C 
ENDBRANCH   1   7
BRANCH   3   9
ATOM      9  O   UNL     1     -11.989  -2.759 -10.714  1.00  0.00    -0.507 OA
ATOM     10  H   UNL     1     -11.909  -1.875 -11.203  1.00  0.00     0.293 HD
ENDBRANCH   3   9
BRANCH   4  11
ATOM     11  C   UNL     1     -10.610  -0.661  -9.347  1.00  0.00     0.263 C 
ATOM     12  O   UNL     1     -10.731  -0.329 -10.556  1.00  0.00    -0.298 OA
ENDBRANCH   4  11
TORSDOF 3
ENDMDL
MODEL 7
REMARK VINA RESULT:    -4.714     15.338     17.252
REMARK INTER + INTRA:          -5.667
REMARK INTER:                  -5.401
REMARK INTRA:                  -0.266
REMARK UNBOUND:                -0.264
REMARK SMILES COc1ccc(C=O)c(O)c1
REMARK SMILES IDX 3 1 11 2 9 3 6 4 5 5 4 6 2 7 1 8 10 9 7 11 8 12
REMARK H PARENT 10 10
REMARK Flexibility Score: inf
ROOT
ATOM      1  C   UNL     1     -12.682   6.295   5.128  1.00  0.00     0.122 A 
ATOM      2  C   UNL     1     -12.850   5.050   5.763  1.00  0.00     0.093 A 
ATOM      3  C   UNL     1     -12.243   4.794   7.003  1.00  0.00     0.129 A 
ATOM      4  C   UNL     1     -11.459   5.788   7.621  1.00  0.00     0.056 A 
ATOM      5  C   UNL     1     -11.295   7.029   6.981  1.00  0.00     0.019 A 
ATOM      6  C   UNL     1     -11.902   7.276   5.747  1.00  0.00     0.047 A 
ENDROOT
BRANCH   1   7
ATOM      7  O   UNL     1     -13.269   6.593   3.890  1.00  0.00    -0.497 OA
ATOM      8  C   UNL     1     -14.104   5.701   3.159  1.00  0.00     0.278 C 
ENDBRANCH   1   7
BRANCH   3   9
ATOM      9  O   UNL     1     -12.420   3.556   7.618  1.00  0.00    -0.507 OA
ATOM     10  H   UNL     1     -12.373   2.690   7.094  1.00  0.00     0.293 HD
ENDBRANCH   3   9
BRANCH   4  11
ATOM     11  C   UNL     1     -10.817   5.529   8.926  1.00  0.00     0.263 C 
ATOM     12  O   UNL     1     -10.146   4.480   9.123  1.00  0.00    -0.298 OA
ENDBRANCH   4  11
TORSDOF 3
ENDMDL
MODEL 8
REMARK VINA RESULT:    -4.670      2.044      3.241
REMARK INTER + INTRA:          -5.617
REMARK INTER:                  -5.346
REMARK INTRA:                  -0.271
REMARK UNBOUND:                -0.264
REMARK SMILES COc1ccc(C=O)c(O)c1
REMARK SMILES IDX 3 1 11 2 9 3 6 4 5 5 4 6 2 7 1 8 10 9 7 11 8 12
REMARK H PARENT 10 10
REMARK Flexibility Score: inf
ROOT
ATOM      1  C   UNL     1     -13.048  -0.377 -10.217  1.00  0.00     0.122 A 
ATOM      2  C   UNL     1     -13.204  -1.776 -10.212  1.00  0.00     0.093 A 
ATOM      3  C   UNL     1     -12.105  -2.615  -9.967  1.00  0.00     0.129 A 
ATOM      4  C   UNL     1     -10.835  -2.057  -9.724  1.00  0.00     0.056 A 
ATOM      5  C   UNL     1     -10.687  -0.659  -9.731  1.00  0.00     0.019 A 
ATOM      6  C   UNL     1     -11.785   0.169  -9.976  1.00  0.00     0.047 A 
ENDROOT
BRANCH   1   7
ATOM      7  O   UNL     1     -14.117   0.498 -10.457  1.00  0.00    -0.497 OA
ATOM      8  C   UNL     1     -14.308   1.739  -9.785  1.00  0.00     0.278 C 
ENDBRANCH   1   7
BRANCH   3   9
ATOM      9  O   UNL     1     -12.277  -3.998  -9.966  1.00  0.00    -0.507 OA
ATOM     10  H   UNL     1     -13.191  -4.421 -10.080  1.00  0.00     0.293 HD
ENDBRANCH   3   9
BRANCH   4  11
ATOM     11  C   UNL     1      -9.672  -2.932  -9.465  1.00  0.00     0.263 C 
ATOM     12  O   UNL     1      -9.711  -3.814  -8.567  1.00  0.00    -0.298 OA
ENDBRANCH   4  11
TORSDOF 3
ENDMDL
MODEL 9
REMARK VINA RESULT:    -4.623      6.513      8.499
REMARK INTER + INTRA:          -5.563
REMARK INTER:                  -5.298
REMARK INTRA:                  -0.265
REMARK UNBOUND:                -0.264
REMARK SMILES COc1ccc(C=O)c(O)c1
REMARK SMILES IDX 3 1 11 2 9 3 6 4 5 5 4 6 2 7 1 8 10 9 7 11 8 12
REMARK H PARENT 10 10
REMARK Flexibility Score: inf
ROOT
ATOM      1  C   UNL     1     -11.385  -7.065  -6.058  1.00  0.00     0.122 A 
ATOM      2  C   UNL     1     -10.764  -7.203  -7.314  1.00  0.00     0.093 A 
ATOM      3  C   UNL     1     -10.068  -6.128  -7.887  1.00  0.00     0.129 A 
ATOM      4  C   UNL     1      -9.986  -4.898  -7.204  1.00  0.00     0.056 A 
ATOM      5  C   UNL     1     -10.608  -4.768  -5.950  1.00  0.00     0.019 A 
ATOM      6  C   UNL     1     -11.300  -5.843  -5.387  1.00  0.00     0.047 A 
ENDROOT
BRANCH   1   7
ATOM      7  O   UNL     1     -12.091  -8.113  -5.449  1.00  0.00    -0.497 OA
ATOM      8  C   UNL     1     -13.496  -8.108  -5.215  1.00  0.00     0.278 C 
ENDBRANCH   1   7
BRANCH   3   9
ATOM      9  O   UNL     1      -9.458  -6.281  -9.132  1.00  0.00    -0.507 OA
ATOM     10  H   UNL     1      -9.996  -6.487  -9.966  1.00  0.00     0.293 HD
ENDBRANCH   3   9
BRANCH   4  11
ATOM     11  C   UNL     1      -9.255  -3.760  -7.799  1.00  0.00     0.263 C 
ATOM     12  O   UNL     1      -8.062  -3.885  -8.187  1.00  0.00    -0.298 OA
ENDBRANCH   4  11
TORSDOF 3
ENDMDL
