MODEL 1
REMARK VINA RESULT:    -5.702      0.000      0.000
REMARK INTER + INTRA:          -6.702
REMARK INTER:                  -6.535
REMARK INTRA:                  -0.167
REMARK UNBOUND:                -0.167
REMARK SMILES CC=Cc1ccc(O)c(OC)c1
REMARK SMILES IDX 4 1 12 2 9 3 7 4 6 5 5 6 3 7 1 8 2 9 10 10 11 11 8 12
REMARK H PARENT 8 13
REMARK Flexibility Score: inf
ROOT
ATOM      1  C   UNL     1      31.017   8.934 105.542  1.00  0.00    -0.022 A 
ATOM      2  C   UNL     1      31.427   8.347 106.751  1.00  0.00     0.058 A 
ATOM      3  C   UNL     1      31.397   6.948 106.923  1.00  0.00     0.161 A 
ATOM      4  C   UNL     1      30.940   6.136 105.870  1.00  0.00     0.157 A 
ATOM      5  C   UNL     1      30.517   6.718 104.672  1.00  0.00     0.051 A 
ATOM      6  C   UNL     1      30.548   8.103 104.506  1.00  0.00     0.012 A 
ENDROOT
BRANCH   1   7
ATOM      7  C   UNL     1      31.060  10.412 105.419  1.00  0.00     0.003 C 
ATOM      8  C   UNL     1      30.107  12.683 105.340  1.00  0.00     0.035 C 
ATOM      9  C   UNL     1      29.980  11.200 105.487  1.00  0.00    -0.030 C 
ENDBRANCH   1   7
BRANCH   3  10
ATOM     10  O   UNL     1      31.812   6.337 108.118  1.00  0.00    -0.493 OA
ATOM     11  C   UNL     1      33.158   5.988 108.422  1.00  0.00     0.278 C 
ENDBRANCH   3  10
BRANCH   4  12
ATOM     12  O   UNL     1      30.895   4.748 105.997  1.00  0.00    -0.504 OA
ATOM     13  H   UNL     1      30.924   4.287 106.899  1.00  0.00     0.293 HD
ENDBRANCH   4  12
TORSDOF 3
ENDMDL
MODEL 2
REMARK VINA RESULT:    -4.828      2.398      3.911
REMARK INTER + INTRA:          -5.700
REMARK INTER:                  -5.530
REMARK INTRA:                  -0.170
REMARK UNBOUND:                -0.167
REMARK SMILES CC=Cc1ccc(O)c(OC)c1
REMARK SMILES IDX 4 1 12 2 9 3 7 4 6 5 5 6 3 7 1 8 2 9 10 10 11 11 8 12
REMARK H PARENT 8 13
REMARK Flexibility Score: inf
ROOT
ATOM      1  C   UNL     1      33.160   7.757 107.824  1.00  0.00    -0.022 A 
ATOM      2  C   UNL     1      32.165   8.022 106.868  1.00  0.00     0.058 A 
ATOM      3  C   UNL     1      31.289   7.006 106.435  1.00  0.00     0.161 A 
ATOM      4  C   UNL     1      31.426   5.710 106.963  1.00  0.00     0.157 A 
ATOM      5  C   UNL     1      32.425   5.440 107.901  1.00  0.00     0.051 A 
ATOM      6  C   UNL     1      33.289   6.449 108.328  1.00  0.00     0.012 A 
ENDROOT
BRANCH   1   7
ATOM      7  C   UNL     1      34.060   8.862 108.237  1.00  0.00     0.003 C 
ATOM      8  C   UNL     1      35.711  10.658 107.887  1.00  0.00     0.035 C 
ATOM      9  C   UNL     1      34.818   9.567 107.388  1.00  0.00    -0.030 C 
ENDBRANCH   1   7
BRANCH   3  10
ATOM     10  O   UNL     1      30.280   7.249 105.488  1.00  0.00    -0.493 OA
ATOM     11  C   UNL     1      30.492   7.337 104.084  1.00  0.00     0.278 C 
ENDBRANCH   3  10
BRANCH   4  12
ATOM     12  O   UNL     1      30.580   4.676 106.562  1.00  0.00    -0.504 OA
ATOM     13  H   UNL     1      29.800   4.828 105.934  1.00  0.00     0.293 HD
ENDBRANCH   4  12
TORSDOF 3
ENDMDL
MODEL 3
REMARK VINA RESULT:    -4.691      3.520      5.358
REMARK INTER + INTRA:          -5.544
REMARK INTER:                  -5.377
REMARK INTRA:                  -0.166
REMARK UNBOUND:                -0.167
REMARK SMILES CC=Cc1ccc(O)c(OC)c1
REMARK SMILES IDX 4 1 12 2 9 3 7 4 6 5 5 6 3 7 1 8 2 9 10 10 11 11 8 12
REMARK H PARENT 8 13
REMARK Flexibility Score: inf
ROOT
ATOM      1  C   UNL     1      31.514   9.620 105.344  1.00  0.00    -0.022 A 
ATOM      2  C   UNL     1      32.899   9.854 105.344  1.00  0.00     0.058 A 
ATOM      3  C   UNL     1      33.412  11.161 105.218  1.00  0.00     0.161 A 
ATOM      4  C   UNL     1      32.520  12.239 105.082  1.00  0.00     0.157 A 
ATOM      5  C   UNL     1      31.143  12.007 105.065  1.00  0.00     0.051 A 
ATOM      6  C   UNL     1      30.639  10.712 105.190  1.00  0.00     0.012 A 
ENDROOT
BRANCH   1   7
ATOM      7  C   UNL     1      31.029   8.223 105.470  1.00  0.00     0.003 C 
ATOM      8  C   UNL     1      30.877   5.987 106.495  1.00  0.00     0.035 C 
ATOM      9  C   UNL     1      31.401   7.387 106.447  1.00  0.00    -0.030 C 
ENDBRANCH   1   7
BRANCH   3  10
ATOM     10  O   UNL     1      34.793  11.421 105.227  1.00  0.00    -0.493 OA
ATOM     11  C   UNL     1      35.574  11.606 106.403  1.00  0.00     0.278 C 
ENDBRANCH   3  10
BRANCH   4  12
ATOM     12  O   UNL     1      32.985  13.547 104.956  1.00  0.00    -0.504 OA
ATOM     13  H   UNL     1      32.372  14.319 104.722  1.00  0.00     0.293 HD
ENDBRANCH   4  12
TORSDOF 3
ENDMDL
MODEL 4
REMARK VINA RESULT:    -4.658      2.412      3.302
REMARK INTER + INTRA:          -5.505
REMARK INTER:                  -5.338
REMARK INTRA:                  -0.168
REMARK UNBOUND:                -0.167
REMARK SMILES CC=Cc1ccc(O)c(OC)c1
REMARK SMILES IDX 4 1 12 2 9 3 7 4 6 5 5 6 3 7 1 8 2 9 10 10 11 11 8 12
REMARK H PARENT 8 13
REMARK Flexibility Score: inf
ROOT
ATOM      1  C   UNL     1      33.044   8.147 107.479  1.00  0.00    -0.022 A 
ATOM      2  C   UNL     1      33.270   6.815 107.865  1.00  0.00     0.058 A 
ATOM      3  C   UNL     1      32.411   5.782 107.436  1.00  0.00     0.161 A 
ATOM      4  C   UNL     1      31.310   6.098 106.621  1.00  0.00     0.157 A 
ATOM      5  C   UNL     1      31.075   7.425 106.249  1.00  0.00     0.051 A 
ATOM      6  C   UNL     1      31.927   8.443 106.675  1.00  0.00     0.012 A 
ENDROOT
BRANCH   1   7
ATOM      7  C   UNL     1      33.975   9.195 107.967  1.00  0.00     0.003 C 
ATOM      8  C   UNL     1      35.877  10.753 107.808  1.00  0.00     0.035 C 
ATOM      9  C   UNL     1      34.973   9.708 107.237  1.00  0.00    -0.030 C 
ENDBRANCH   1   7
BRANCH   3  10
ATOM     10  O   UNL     1      32.622   4.442 107.800  1.00  0.00    -0.493 OA
ATOM     11  C   UNL     1      33.572   3.578 107.186  1.00  0.00     0.278 C 
ENDBRANCH   3  10
BRANCH   4  12
ATOM     12  O   UNL     1      30.437   5.108 106.174  1.00  0.00    -0.504 OA
ATOM     13  H   UNL     1      29.935   5.185 105.297  1.00  0.00     0.293 HD
ENDBRANCH   4  12
TORSDOF 3
ENDMDL
MODEL 5
REMARK VINA RESULT:    -4.609      3.319      3.912
REMARK INTER + INTRA:          -5.449
REMARK INTER:                  -5.291
REMARK INTRA:                  -0.158
REMARK UNBOUND:                -0.167
REMARK SMILES CC=Cc1ccc(O)c(OC)c1
REMARK SMILES IDX 4 1 12 2 9 3 7 4 6 5 5 6 3 7 1 8 2 9 10 10 11 11 8 12
REMARK H PARENT 8 13
REMARK Flexibility Score: inf
ROOT
ATOM      1  C   UNL     1      34.406   9.630 106.705  1.00  0.00    -0.022 A 
ATOM      2  C   UNL     1      33.957   8.679 107.636  1.00  0.00     0.058 A 
ATOM      3  C   UNL     1      32.698   8.062 107.490  1.00  0.00     0.161 A 
ATOM      4  C   UNL     1      31.882   8.415 106.401  1.00  0.00     0.157 A 
ATOM      5  C   UNL     1      32.319   9.374 105.483  1.00  0.00     0.051 A 
ATOM      6  C   UNL     1      33.566   9.981 105.631  1.00  0.00     0.012 A 
ENDROOT
BRANCH   1   7
ATOM      7  C   UNL     1      35.736  10.255 106.914  1.00  0.00     0.003 C 
ATOM      8  C   UNL     1      37.333  12.124 107.080  1.00  0.00     0.035 C 
ATOM      9  C   UNL     1      35.957  11.574 106.873  1.00  0.00    -0.030 C 
ENDBRANCH   1   7
BRANCH   3  10
ATOM     10  O   UNL     1      32.232   7.099 108.401  1.00  0.00    -0.493 OA
ATOM     11  C   UNL     1      32.447   5.698 108.278  1.00  0.00     0.278 C 
ENDBRANCH   3  10
BRANCH   4  12
ATOM     12  O   UNL     1      30.630   7.829 106.218  1.00  0.00    -0.504 OA
ATOM     13  H   UNL     1      29.861   7.985 106.859  1.00  0.00     0.293 HD
ENDBRANCH   4  12
TORSDOF 3
ENDMDL
MODEL 6
REMARK VINA RESULT:    -4.491      3.409      4.471
REMARK INTER + INTRA:          -5.314
REMARK INTER:                  -5.257
REMARK INTRA:                  -0.057
REMARK UNBOUND:                -0.167
REMARK SMILES CC=Cc1ccc(O)c(OC)c1
REMARK SMILES IDX 4 1 12 2 9 3 7 4 6 5 5 6 3 7 1 8 2 9 10 10 11 11 8 12
REMARK H PARENT 8 13
REMARK Flexibility Score: inf
ROOT
ATOM      1  C   UNL     1      34.337   9.550 106.558  1.00  0.00    -0.022 A 
ATOM      2  C   UNL     1      33.177   9.512 105.767  1.00  0.00     0.058 A 
ATOM      3  C   UNL     1      32.055   8.758 106.164  1.00  0.00     0.161 A 
ATOM      4  C   UNL     1      32.108   8.028 107.365  1.00  0.00     0.157 A 
ATOM      5  C   UNL     1      33.267   8.051 108.145  1.00  0.00     0.051 A 
ATOM      6  C   UNL     1      34.375   8.799 107.748  1.00  0.00     0.012 A 
ENDROOT
BRANCH   1   7
ATOM      7  C   UNL     1      35.493  10.354 106.086  1.00  0.00     0.003 C 
ATOM      8  C   UNL     1      37.380  11.920 106.324  1.00  0.00     0.035 C 
ATOM      9  C   UNL     1      36.239  11.129 106.881  1.00  0.00    -0.030 C 
ENDBRANCH   1   7
BRANCH   3  10
ATOM     10  O   UNL     1      30.879   8.713 105.396  1.00  0.00    -0.493 OA
ATOM     11  C   UNL     1      30.468   7.599 104.611  1.00  0.00     0.278 C 
ENDBRANCH   3  10
BRANCH   4  12
ATOM     12  O   UNL     1      31.020   7.269 107.796  1.00  0.00    -0.504 OA
ATOM     13  H   UNL     1      30.552   6.604 107.192  1.00  0.00     0.293 HD
ENDBRANCH   4  12
TORSDOF 3
ENDMDL
MODEL 7
REMARK VINA RESULT:    -4.436      3.886      5.690
REMARK INTER + INTRA:          -5.251
REMARK INTER:                  -5.107
REMARK INTRA:                  -0.144
REMARK UNBOUND:                -0.167
REMARK SMILES CC=Cc1ccc(O)c(OC)c1
REMARK SMILES IDX 4 1 12 2 9 3 7 4 6 5 5 6 3 7 1 8 2 9 10 10 11 11 8 12
REMARK H PARENT 8 13
REMARK Flexibility Score: inf
ROOT
ATOM      1  C   UNL     1      32.842  13.092 104.986  1.00  0.00    -0.022 A 
ATOM      2  C   UNL     1      32.427  11.752 105.061  1.00  0.00     0.058 A 
ATOM      3  C   UNL     1      31.064  11.423 105.203  1.00  0.00     0.161 A 
ATOM      4  C   UNL     1      30.113  12.456 105.279  1.00  0.00     0.157 A 
ATOM      5  C   UNL     1      30.524  13.790 105.220  1.00  0.00     0.051 A 
ATOM      6  C   UNL     1      31.875  14.110 105.080  1.00  0.00     0.012 A 
ENDROOT
BRANCH   1   7
ATOM      7  C   UNL     1      34.292  13.380 104.847  1.00  0.00     0.003 C 
ATOM      8  C   UNL     1      36.413  13.663 103.626  1.00  0.00     0.035 C 
ATOM      9  C   UNL     1      34.946  13.375 103.680  1.00  0.00    -0.030 C 
ENDBRANCH   1   7
BRANCH   3  10
ATOM     10  O   UNL     1      30.623  10.091 105.269  1.00  0.00    -0.493 OA
ATOM     11  C   UNL     1      31.457   8.978 105.575  1.00  0.00     0.278 C 
ENDBRANCH   3  10
BRANCH   4  12
ATOM     12  O   UNL     1      28.754  12.175 105.417  1.00  0.00    -0.504 OA
ATOM     13  H   UNL     1      28.283  12.213 106.313  1.00  0.00     0.293 HD
ENDBRANCH   4  12
TORSDOF 3
ENDMDL
MODEL 8
REMARK VINA RESULT:    -4.305      3.551      5.829
REMARK INTER + INTRA:          -5.100
REMARK INTER:                  -4.940
REMARK INTRA:                  -0.161
REMARK UNBOUND:                -0.167
REMARK SMILES CC=Cc1ccc(O)c(OC)c1
REMARK SMILES IDX 4 1 12 2 9 3 7 4 6 5 5 6 3 7 1 8 2 9 10 10 11 11 8 12
REMARK H PARENT 8 13
REMARK Flexibility Score: inf
ROOT
ATOM      1  C   UNL     1      31.941   9.631 105.423  1.00  0.00    -0.022 A 
ATOM      2  C   UNL     1      31.219  10.824 105.255  1.00  0.00     0.058 A 
ATOM      3  C   UNL     1      31.885  12.058 105.106  1.00  0.00     0.161 A 
ATOM      4  C   UNL     1      33.290  12.088 105.137  1.00  0.00     0.157 A 
ATOM      5  C   UNL     1      34.010  10.904 105.320  1.00  0.00     0.051 A 
ATOM      6  C   UNL     1      33.347   9.685 105.466  1.00  0.00     0.012 A 
ENDROOT
BRANCH   1   7
ATOM      7  C   UNL     1      31.188   8.361 105.584  1.00  0.00     0.003 C 
ATOM      8  C   UNL     1      30.736   6.128 106.520  1.00  0.00     0.035 C 
ATOM      9  C   UNL     1      31.542   7.384 106.427  1.00  0.00    -0.030 C 
ENDBRANCH   1   7
BRANCH   3  10
ATOM     10  O   UNL     1      31.186  13.263 104.927  1.00  0.00    -0.493 OA
ATOM     11  C   UNL     1      29.878  13.521 105.426  1.00  0.00     0.278 C 
ENDBRANCH   3  10
BRANCH   4  12
ATOM     12  O   UNL     1      33.989  13.286 104.992  1.00  0.00    -0.504 OA
ATOM     13  H   UNL     1      33.559  14.119 104.608  1.00  0.00     0.293 HD
ENDBRANCH   4  12
TORSDOF 3
ENDMDL
MODEL 9
REMARK VINA RESULT:    -4.159      5.322      6.721
REMARK INTER + INTRA:          -4.933
REMARK INTER:                  -4.759
REMARK INTRA:                  -0.174
REMARK UNBOUND:                -0.167
REMARK SMILES CC=Cc1ccc(O)c(OC)c1
REMARK SMILES IDX 4 1 12 2 9 3 7 4 6 5 5 6 3 7 1 8 2 9 10 10 11 11 8 12
REMARK H PARENT 8 13
REMARK Flexibility Score: inf
ROOT
ATOM      1  C   UNL     1      34.782   9.841 106.972  1.00  0.00    -0.022 A 
ATOM      2  C   UNL     1      35.892  10.599 107.378  1.00  0.00     0.058 A 
ATOM      3  C   UNL     1      36.301  11.732 106.646  1.00  0.00     0.161 A 
ATOM      4  C   UNL     1      35.591  12.096 105.489  1.00  0.00     0.157 A 
ATOM      5  C   UNL     1      34.496  11.333 105.073  1.00  0.00     0.051 A 
ATOM      6  C   UNL     1      34.094  10.213 105.801  1.00  0.00     0.012 A 
ENDROOT
BRANCH   1   7
ATOM      7  C   UNL     1      34.401   8.652 107.775  1.00  0.00     0.003 C 
ATOM      8  C   UNL     1      32.868   6.921 108.628  1.00  0.00     0.035 C 
ATOM      9  C   UNL     1      33.176   8.112 107.777  1.00  0.00    -0.030 C 
ENDBRANCH   1   7
BRANCH   3  10
ATOM     10  O   UNL     1      37.401  12.513 107.039  1.00  0.00    -0.493 OA
ATOM     11  C   UNL     1      38.751  12.250 106.672  1.00  0.00     0.278 C 
ENDBRANCH   3  10
BRANCH   4  12
ATOM     12  O   UNL     1      35.961  13.209 104.736  1.00  0.00    -0.504 OA
ATOM     13  H   UNL     1      35.292  13.913 104.446  1.00  0.00     0.293 HD
ENDBRANCH   4  12
TORSDOF 3
ENDMDL
