MODEL 1
REMARK VINA RESULT:    -6.021      0.000      0.000
REMARK INTER + INTRA:          -6.021
REMARK INTER:                  -6.021
REMARK INTRA:                   0.000
REMARK UNBOUND:                 0.000
REMARK SMILES C=C1CCC[C@]2(C)CC(=O)C(=C(C)C)C[C@@H]12
REMARK SMILES IDX 13 1 12 2 11 3 15 4 16 5 2 6 1 7 3 8 4 9 5 10 6 11 8 12 9 13
REMARK SMILES IDX 10 14 7 15 14 16
REMARK H PARENT
REMARK Flexibility Score: inf
ROOT
ATOM      1  C   UNL     1      -1.768  -7.544   3.672  1.00  0.00     0.039 C 
ATOM      2  C   UNL     1      -3.259  -7.348   3.830  1.00  0.00    -0.070 C 
ATOM      3  C   UNL     1      -3.878  -6.220   3.373  1.00  0.00    -0.006 C 
ATOM      4  C   UNL     1      -3.089  -5.102   2.707  1.00  0.00     0.047 C 
ATOM      5  C   UNL     1      -3.720  -3.704   2.932  1.00  0.00     0.025 C 
ATOM      6  C   UNL     1      -2.991  -2.546   2.250  1.00  0.00    -0.073 C 
ATOM      7  C   UNL     1      -1.886  -2.690   1.494  1.00  0.00     0.008 C 
ATOM      8  C   UNL     1      -3.550  -1.165   2.502  1.00  0.00     0.031 C 
ATOM      9  C   UNL     1      -5.045  -1.127   2.170  1.00  0.00     0.005 C 
ATOM     10  C   UNL     1      -5.812  -2.258   2.878  1.00  0.00     0.008 C 
ATOM     11  C   UNL     1      -5.238  -3.673   2.570  1.00  0.00    -0.018 C 
ATOM     12  C   UNL     1      -5.980  -4.699   3.461  1.00  0.00     0.088 C 
ATOM     13  C   UNL     1      -5.362  -6.066   3.386  1.00  0.00     0.159 C 
ATOM     14  O   UNL     1      -6.125  -7.068   3.319  1.00  0.00    -0.295 OA
ATOM     15  C   UNL     1      -5.483  -4.020   1.074  1.00  0.00     0.012 C 
ATOM     16  C   UNL     1      -4.019  -8.440   4.548  1.00  0.00     0.039 C 
ENDROOT
TORSDOF 0
ENDMDL
MODEL 2
REMARK VINA RESULT:    -5.643      6.234      8.758
REMARK INTER + INTRA:          -5.643
REMARK INTER:                  -5.643
REMARK INTRA:                   0.000
REMARK UNBOUND:                 0.000
REMARK SMILES C=C1CCC[C@]2(C)CC(=O)C(=C(C)C)C[C@@H]12
REMARK SMILES IDX 13 1 12 2 11 3 15 4 16 5 2 6 1 7 3 8 4 9 5 10 6 11 8 12 9 13
REMARK SMILES IDX 10 14 7 15 14 16
REMARK H PARENT
REMARK Flexibility Score: inf
ROOT
ATOM      1  C   UNL     1       1.326   0.785   1.189  1.00  0.00     0.039 C 
ATOM      2  C   UNL     1      -0.105   0.748   1.677  1.00  0.00    -0.070 C 
ATOM      3  C   UNL     1      -0.810   1.898   1.895  1.00  0.00    -0.006 C 
ATOM      4  C   UNL     1      -0.176   3.264   1.676  1.00  0.00     0.047 C 
ATOM      5  C   UNL     1      -0.758   4.353   2.612  1.00  0.00     0.025 C 
ATOM      6  C   UNL     1      -0.186   5.757   2.409  1.00  0.00    -0.073 C 
ATOM      7  C   UNL     1       0.746   6.066   1.488  1.00  0.00     0.008 C 
ATOM      8  C   UNL     1      -0.693   6.826   3.350  1.00  0.00     0.031 C 
ATOM      9  C   UNL     1      -2.224   6.863   3.338  1.00  0.00     0.005 C 
ATOM     10  C   UNL     1      -2.827   5.470   3.584  1.00  0.00     0.008 C 
ATOM     11  C   UNL     1      -2.318   4.396   2.576  1.00  0.00    -0.018 C 
ATOM     12  C   UNL     1      -2.861   3.017   3.025  1.00  0.00     0.088 C 
ATOM     13  C   UNL     1      -2.263   1.889   2.235  1.00  0.00     0.159 C 
ATOM     14  O   UNL     1      -3.017   0.951   1.860  1.00  0.00    -0.295 OA
ATOM     15  C   UNL     1      -2.854   4.721   1.154  1.00  0.00     0.012 C 
ATOM     16  C   UNL     1      -0.700  -0.615   1.948  1.00  0.00     0.039 C 
ENDROOT
TORSDOF 0
ENDMDL
MODEL 3
REMARK VINA RESULT:    -5.614     10.477     12.021
REMARK INTER + INTRA:          -5.614
REMARK INTER:                  -5.614
REMARK INTRA:                   0.000
REMARK UNBOUND:                 0.000
REMARK SMILES C=C1CCC[C@]2(C)CC(=O)C(=C(C)C)C[C@@H]12
REMARK SMILES IDX 13 1 12 2 11 3 15 4 16 5 2 6 1 7 3 8 4 9 5 10 6 11 8 12 9 13
REMARK SMILES IDX 10 14 7 15 14 16
REMARK H PARENT
REMARK Flexibility Score: inf
ROOT
ATOM      1  C   UNL     1      -4.850  -2.407  17.003  1.00  0.00     0.039 C 
ATOM      2  C   UNL     1      -3.828  -2.604  15.907  1.00  0.00    -0.070 C 
ATOM      3  C   UNL     1      -4.077  -3.425  14.844  1.00  0.00    -0.006 C 
ATOM      4  C   UNL     1      -5.386  -4.193  14.731  1.00  0.00     0.047 C 
ATOM      5  C   UNL     1      -5.231  -5.538  13.979  1.00  0.00     0.025 C 
ATOM      6  C   UNL     1      -6.524  -6.334  13.800  1.00  0.00    -0.073 C 
ATOM      7  C   UNL     1      -7.729  -5.925  14.239  1.00  0.00     0.008 C 
ATOM      8  C   UNL     1      -6.391  -7.679  13.122  1.00  0.00     0.031 C 
ATOM      9  C   UNL     1      -5.662  -7.531  11.783  1.00  0.00     0.005 C 
ATOM     10  C   UNL     1      -4.334  -6.770  11.941  1.00  0.00     0.008 C 
ATOM     11  C   UNL     1      -4.507  -5.371  12.606  1.00  0.00    -0.018 C 
ATOM     12  C   UNL     1      -3.097  -4.781  12.860  1.00  0.00     0.088 C 
ATOM     13  C   UNL     1      -3.149  -3.525  13.680  1.00  0.00     0.159 C 
ATOM     14  O   UNL     1      -2.404  -2.562  13.353  1.00  0.00    -0.295 OA
ATOM     15  C   UNL     1      -5.292  -4.432  11.649  1.00  0.00     0.012 C 
ATOM     16  C   UNL     1      -2.509  -1.882  16.065  1.00  0.00     0.039 C 
ENDROOT
TORSDOF 0
ENDMDL
MODEL 4
REMARK VINA RESULT:    -5.598      1.782      3.331
REMARK INTER + INTRA:          -5.598
REMARK INTER:                  -5.598
REMARK INTRA:                   0.000
REMARK UNBOUND:                 0.000
REMARK SMILES C=C1CCC[C@]2(C)CC(=O)C(=C(C)C)C[C@@H]12
REMARK SMILES IDX 13 1 12 2 11 3 15 4 16 5 2 6 1 7 3 8 4 9 5 10 6 11 8 12 9 13
REMARK SMILES IDX 10 14 7 15 14 16
REMARK H PARENT
REMARK Flexibility Score: inf
ROOT
ATOM      1  C   UNL     1      -3.707  -8.380   4.241  1.00  0.00     0.039 C 
ATOM      2  C   UNL     1      -2.855  -7.230   3.753  1.00  0.00    -0.070 C 
ATOM      3  C   UNL     1      -3.419  -6.071   3.302  1.00  0.00    -0.006 C 
ATOM      4  C   UNL     1      -4.930  -5.899   3.249  1.00  0.00     0.047 C 
ATOM      5  C   UNL     1      -5.388  -4.957   2.107  1.00  0.00     0.025 C 
ATOM      6  C   UNL     1      -6.896  -4.714   2.032  1.00  0.00    -0.073 C 
ATOM      7  C   UNL     1      -7.790  -5.251   2.883  1.00  0.00     0.008 C 
ATOM      8  C   UNL     1      -7.375  -3.848   0.890  1.00  0.00     0.031 C 
ATOM      9  C   UNL     1      -6.616  -2.518   0.875  1.00  0.00     0.005 C 
ATOM     10  C   UNL     1      -5.093  -2.734   0.907  1.00  0.00     0.008 C 
ATOM     11  C   UNL     1      -4.623  -3.597   2.116  1.00  0.00    -0.018 C 
ATOM     12  C   UNL     1      -3.110  -3.880   1.946  1.00  0.00     0.088 C 
ATOM     13  C   UNL     1      -2.603  -4.872   2.952  1.00  0.00     0.159 C 
ATOM     14  O   UNL     1      -1.487  -4.658   3.500  1.00  0.00    -0.295 OA
ATOM     15  C   UNL     1      -4.853  -2.812   3.437  1.00  0.00     0.012 C 
ATOM     16  C   UNL     1      -1.357  -7.441   3.755  1.00  0.00     0.039 C 
ENDROOT
TORSDOF 0
ENDMDL
MODEL 5
REMARK VINA RESULT:    -5.326     18.847     19.837
REMARK INTER + INTRA:          -5.326
REMARK INTER:                  -5.326
REMARK INTRA:                   0.000
REMARK UNBOUND:                 0.000
REMARK SMILES C=C1CCC[C@]2(C)CC(=O)C(=C(C)C)C[C@@H]12
REMARK SMILES IDX 13 1 12 2 11 3 15 4 16 5 2 6 1 7 3 8 4 9 5 10 6 11 8 12 9 13
REMARK SMILES IDX 10 14 7 15 14 16
REMARK H PARENT
REMARK Flexibility Score: inf
ROOT
ATOM      1  C   UNL     1      -2.822   2.963  21.103  1.00  0.00     0.039 C 
ATOM      2  C   UNL     1      -1.553   2.282  20.644  1.00  0.00    -0.070 C 
ATOM      3  C   UNL     1      -0.454   3.004  20.275  1.00  0.00    -0.006 C 
ATOM      4  C   UNL     1      -0.471   4.526  20.288  1.00  0.00     0.047 C 
ATOM      5  C   UNL     1       0.458   5.146  19.214  1.00  0.00     0.025 C 
ATOM      6  C   UNL     1       0.513   6.674  19.208  1.00  0.00    -0.073 C 
ATOM      7  C   UNL     1      -0.171   7.458  20.063  1.00  0.00     0.008 C 
ATOM      8  C   UNL     1       1.365   7.306  18.131  1.00  0.00     0.031 C 
ATOM      9  C   UNL     1       2.779   6.719  18.157  1.00  0.00     0.005 C 
ATOM     10  C   UNL     1       2.755   5.181  18.121  1.00  0.00     0.008 C 
ATOM     11  C   UNL     1       1.902   4.555  19.265  1.00  0.00    -0.018 C 
ATOM     12  C   UNL     1       1.820   3.028  19.024  1.00  0.00     0.088 C 
ATOM     13  C   UNL     1       0.853   2.359  19.958  1.00  0.00     0.159 C 
ATOM     14  O   UNL     1       1.180   1.256  20.474  1.00  0.00    -0.295 OA
ATOM     15  C   UNL     1       2.589   4.824  20.633  1.00  0.00     0.012 C 
ATOM     16  C   UNL     1      -1.573   0.771  20.579  1.00  0.00     0.039 C 
ENDROOT
TORSDOF 0
ENDMDL
MODEL 6
REMARK VINA RESULT:    -5.298      2.133      5.547
REMARK INTER + INTRA:          -5.298
REMARK INTER:                  -5.298
REMARK INTRA:                   0.000
REMARK UNBOUND:                 0.000
REMARK SMILES C=C1CCC[C@]2(C)CC(=O)C(=C(C)C)C[C@@H]12
REMARK SMILES IDX 13 1 12 2 11 3 15 4 16 5 2 6 1 7 3 8 4 9 5 10 6 11 8 12 9 13
REMARK SMILES IDX 10 14 7 15 14 16
REMARK H PARENT
REMARK Flexibility Score: inf
ROOT
ATOM      1  C   UNL     1      -5.846  -1.484   2.720  1.00  0.00     0.039 C 
ATOM      2  C   UNL     1      -4.343  -1.422   2.871  1.00  0.00    -0.070 C 
ATOM      3  C   UNL     1      -3.582  -2.556   2.867  1.00  0.00    -0.006 C 
ATOM      4  C   UNL     1      -4.219  -3.932   2.734  1.00  0.00     0.047 C 
ATOM      5  C   UNL     1      -3.415  -5.040   3.461  1.00  0.00     0.025 C 
ATOM      6  C   UNL     1      -3.987  -6.451   3.327  1.00  0.00    -0.073 C 
ATOM      7  C   UNL     1      -5.098  -6.752   2.628  1.00  0.00     0.008 C 
ATOM      8  C   UNL     1      -3.256  -7.541   4.076  1.00  0.00     0.031 C 
ATOM      9  C   UNL     1      -1.768  -7.529   3.715  1.00  0.00     0.005 C 
ATOM     10  C   UNL     1      -1.155  -6.128   3.883  1.00  0.00     0.008 C 
ATOM     11  C   UNL     1      -1.904  -5.031   3.069  1.00  0.00    -0.018 C 
ATOM     12  C   UNL     1      -1.304  -3.655   3.447  1.00  0.00     0.088 C 
ATOM     13  C   UNL     1      -2.091  -2.514   2.869  1.00  0.00     0.159 C 
ATOM     14  O   UNL     1      -1.463  -1.538   2.377  1.00  0.00    -0.295 OA
ATOM     15  C   UNL     1      -1.701  -5.280   1.548  1.00  0.00     0.012 C 
ATOM     16  C   UNL     1      -3.732  -0.052   3.063  1.00  0.00     0.039 C 
ENDROOT
TORSDOF 0
ENDMDL
MODEL 7
REMARK VINA RESULT:    -5.272      1.225      1.390
REMARK INTER + INTRA:          -5.272
REMARK INTER:                  -5.272
REMARK INTRA:                   0.000
REMARK UNBOUND:                 0.000
REMARK SMILES C=C1CCC[C@]2(C)CC(=O)C(=C(C)C)C[C@@H]12
REMARK SMILES IDX 13 1 12 2 11 3 15 4 16 5 2 6 1 7 3 8 4 9 5 10 6 11 8 12 9 13
REMARK SMILES IDX 10 14 7 15 14 16
REMARK H PARENT
REMARK Flexibility Score: inf
ROOT
ATOM      1  C   UNL     1      -2.254  -7.127   2.776  1.00  0.00     0.039 C 
ATOM      2  C   UNL     1      -3.590  -6.700   3.342  1.00  0.00    -0.070 C 
ATOM      3  C   UNL     1      -3.976  -5.390   3.336  1.00  0.00    -0.006 C 
ATOM      4  C   UNL     1      -3.066  -4.303   2.780  1.00  0.00     0.047 C 
ATOM      5  C   UNL     1      -3.267  -2.935   3.480  1.00  0.00     0.025 C 
ATOM      6  C   UNL     1      -2.408  -1.794   2.934  1.00  0.00    -0.073 C 
ATOM      7  C   UNL     1      -1.538  -1.926   1.915  1.00  0.00     0.008 C 
ATOM      8  C   UNL     1      -2.540  -0.464   3.639  1.00  0.00     0.031 C 
ATOM      9  C   UNL     1      -4.011  -0.041   3.707  1.00  0.00     0.005 C 
ATOM     10  C   UNL     1      -4.894  -1.156   4.294  1.00  0.00     0.008 C 
ATOM     11  C   UNL     1      -4.768  -2.506   3.525  1.00  0.00    -0.018 C 
ATOM     12  C   UNL     1      -5.566  -3.581   4.302  1.00  0.00     0.088 C 
ATOM     13  C   UNL     1      -5.342  -4.960   3.753  1.00  0.00     0.159 C 
ATOM     14  O   UNL     1      -6.333  -5.732   3.642  1.00  0.00    -0.295 OA
ATOM     15  C   UNL     1      -5.367  -2.351   2.099  1.00  0.00     0.012 C 
ATOM     16  C   UNL     1      -4.455  -7.783   3.945  1.00  0.00     0.039 C 
ENDROOT
TORSDOF 0
ENDMDL
MODEL 8
REMARK VINA RESULT:    -5.082     18.392     19.685
REMARK INTER + INTRA:          -5.082
REMARK INTER:                  -5.082
REMARK INTRA:                   0.000
REMARK UNBOUND:                 0.000
REMARK SMILES C=C1CCC[C@]2(C)CC(=O)C(=C(C)C)C[C@@H]12
REMARK SMILES IDX 13 1 12 2 11 3 15 4 16 5 2 6 1 7 3 8 4 9 5 10 6 11 8 12 9 13
REMARK SMILES IDX 10 14 7 15 14 16
REMARK H PARENT
REMARK Flexibility Score: inf
ROOT
ATOM      1  C   UNL     1       2.932   6.750  18.530  1.00  0.00     0.039 C 
ATOM      2  C   UNL     1       1.429   6.912  18.566  1.00  0.00    -0.070 C 
ATOM      3  C   UNL     1       0.614   5.884  18.946  1.00  0.00    -0.006 C 
ATOM      4  C   UNL     1       1.185   4.525  19.327  1.00  0.00     0.047 C 
ATOM      5  C   UNL     1       0.220   3.356  19.004  1.00  0.00     0.025 C 
ATOM      6  C   UNL     1       0.725   1.969  19.403  1.00  0.00    -0.073 C 
ATOM      7  C   UNL     1       1.909   1.740  20.002  1.00  0.00     0.008 C 
ATOM      8  C   UNL     1      -0.170   0.805  19.044  1.00  0.00     0.031 C 
ATOM      9  C   UNL     1      -1.585   1.036  19.583  1.00  0.00     0.005 C 
ATOM     10  C   UNL     1      -2.136   2.409  19.160  1.00  0.00     0.008 C 
ATOM     11  C   UNL     1      -1.213   3.594  19.576  1.00  0.00    -0.018 C 
ATOM     12  C   UNL     1      -1.784   4.892  18.955  1.00  0.00     0.088 C 
ATOM     13  C   UNL     1      -0.856   6.059  19.130  1.00  0.00     0.159 C 
ATOM     14  O   UNL     1      -1.348   7.176  19.446  1.00  0.00    -0.295 OA
ATOM     15  C   UNL     1      -1.202   3.726  21.125  1.00  0.00     0.012 C 
ATOM     16  C   UNL     1       0.875   8.248  18.127  1.00  0.00     0.039 C 
ENDROOT
TORSDOF 0
ENDMDL
MODEL 9
REMARK VINA RESULT:    -5.003      2.110      4.505
REMARK INTER + INTRA:          -5.003
REMARK INTER:                  -5.003
REMARK INTRA:                   0.000
REMARK UNBOUND:                 0.000
REMARK SMILES C=C1CCC[C@]2(C)CC(=O)C(=C(C)C)C[C@@H]12
REMARK SMILES IDX 13 1 12 2 11 3 15 4 16 5 2 6 1 7 3 8 4 9 5 10 6 11 8 12 9 13
REMARK SMILES IDX 10 14 7 15 14 16
REMARK H PARENT
REMARK Flexibility Score: inf
ROOT
ATOM      1  C   UNL     1      -6.658  -6.670   1.996  1.00  0.00     0.039 C 
ATOM      2  C   UNL     1      -6.143  -5.252   1.897  1.00  0.00    -0.070 C 
ATOM      3  C   UNL     1      -4.837  -4.952   2.158  1.00  0.00    -0.006 C 
ATOM      4  C   UNL     1      -3.850  -6.030   2.582  1.00  0.00     0.047 C 
ATOM      5  C   UNL     1      -2.732  -5.490   3.509  1.00  0.00     0.025 C 
ATOM      6  C   UNL     1      -1.687  -6.523   3.934  1.00  0.00    -0.073 C 
ATOM      7  C   UNL     1      -1.697  -7.811   3.545  1.00  0.00     0.008 C 
ATOM      8  C   UNL     1      -0.619  -6.037   4.887  1.00  0.00     0.031 C 
ATOM      9  C   UNL     1       0.062  -4.783   4.329  1.00  0.00     0.005 C 
ATOM     10  C   UNL     1      -0.965  -3.709   3.933  1.00  0.00     0.008 C 
ATOM     11  C   UNL     1      -2.031  -4.226   2.920  1.00  0.00    -0.018 C 
ATOM     12  C   UNL     1      -3.094  -3.116   2.730  1.00  0.00     0.088 C 
ATOM     13  C   UNL     1      -4.271  -3.590   1.928  1.00  0.00     0.159 C 
ATOM     14  O   UNL     1      -4.754  -2.820   1.054  1.00  0.00    -0.295 OA
ATOM     15  C   UNL     1      -1.351  -4.525   1.555  1.00  0.00     0.012 C 
ATOM     16  C   UNL     1      -7.150  -4.183   1.533  1.00  0.00     0.039 C 
ENDROOT
TORSDOF 0
ENDMDL
