MODEL 1
REMARK VINA RESULT:    -3.732      0.000      0.000
REMARK INTER + INTRA:         -15.723
REMARK INTER:                  -9.841
REMARK INTRA:                  -5.882
REMARK UNBOUND:                -5.882
REMARK SMILES CCCCCCCCCCCCCCCCCCCCCCCCCCCCCC(=O)[O-]
REMARK SMILES IDX 16 1 17 2 18 3 19 4 20 5 21 6 22 7 23 8 24 9 25 10 26 11
REMARK SMILES IDX 27 12 28 13 29 14 30 15 31 16 32 17 15 18 14 19 13 20 12 21
REMARK SMILES IDX 11 22 10 23 9 24 8 25 7 26 6 27 5 28 4 29 3 30 2 31 1 32
REMARK H PARENT
REMARK Flexibility Score: inf
ROOT
ATOM      1  C   UNL     1     -12.741   8.432  27.688  1.00  0.00     0.000 C 
ENDROOT
BRANCH   1   2
ATOM      2  C   UNL     1     -11.275   8.419  28.168  1.00  0.00     0.000 C 
BRANCH   2   3
ATOM      3  C   UNL     1     -11.134   8.227  29.685  1.00  0.00     0.000 C 
BRANCH   3   4
ATOM      4  C   UNL     1     -10.004   7.238  30.010  1.00  0.00     0.000 C 
BRANCH   4   5
ATOM      5  C   UNL     1      -8.806   7.361  29.054  1.00  0.00     0.000 C 
BRANCH   5   6
ATOM      6  C   UNL     1      -8.363   6.003  28.481  1.00  0.00     0.000 C 
BRANCH   6   7
ATOM      7  C   UNL     1      -7.057   5.482  29.109  1.00  0.00     0.000 C 
BRANCH   7   8
ATOM      8  C   UNL     1      -6.368   6.448  30.091  1.00  0.00     0.000 C 
BRANCH   8   9
ATOM      9  C   UNL     1      -5.946   5.767  31.405  1.00  0.00     0.000 C 
BRANCH   9  10
ATOM     10  C   UNL     1      -6.553   4.362  31.577  1.00  0.00     0.000 C 
BRANCH  10  11
ATOM     11  C   UNL     1      -7.705   4.260  32.599  1.00  0.00     0.000 C 
BRANCH  11  12
ATOM     12  C   UNL     1      -9.122   4.211  31.997  1.00  0.00     0.000 C 
BRANCH  12  13
ATOM     13  C   UNL     1      -9.308   3.223  30.828  1.00  0.00     0.006 C 
BRANCH  13  14
ATOM     14  C   UNL     1      -9.577   1.773  31.270  1.00  0.00     0.053 C 
BRANCH  14  15
ATOM     15  C   UNL     1      -8.438   0.852  30.953  1.00  0.00     0.041 C 
ATOM     16  O   UNL     1      -8.385  -0.294  31.473  1.00  0.00    -0.550 OA
ATOM     17  O   UNL     1      -7.448   1.248  30.063  1.00  0.00    -0.550 OA
ENDBRANCH  14  15
ENDBRANCH  13  14
ENDBRANCH  12  13
ENDBRANCH  11  12
ENDBRANCH  10  11
ENDBRANCH   9  10
ENDBRANCH   8   9
ENDBRANCH   7   8
ENDBRANCH   6   7
ENDBRANCH   5   6
ENDBRANCH   4   5
ENDBRANCH   3   4
ENDBRANCH   2   3
ENDBRANCH   1   2
BRANCH   1  18
ATOM     18  C   UNL     1     -13.804   8.555  28.801  1.00  0.00     0.000 C 
BRANCH  18  19
ATOM     19  C   UNL     1     -14.731   7.328  28.953  1.00  0.00     0.000 C 
BRANCH  19  20
ATOM     20  C   UNL     1     -15.722   7.425  30.127  1.00  0.00     0.000 C 
BRANCH  20  21
ATOM     21  C   UNL     1     -16.073   6.066  30.767  1.00  0.00     0.000 C 
BRANCH  21  22
ATOM     22  C   UNL     1     -16.377   4.992  29.713  1.00  0.00     0.000 C 
BRANCH  22  23
ATOM     23  C   UNL     1     -16.961   3.730  30.363  1.00  0.00     0.000 C 
BRANCH  23  24
ATOM     24  C   UNL     1     -16.430   2.430  29.730  1.00  0.00    -0.000 C 
BRANCH  24  25
ATOM     25  C   UNL     1     -15.578   1.545  30.660  1.00  0.00    -0.000 C 
BRANCH  25  26
ATOM     26  C   UNL     1     -14.743   2.292  31.720  1.00  0.00    -0.000 C 
BRANCH  26  27
ATOM     27  C   UNL     1     -13.283   2.567  31.306  1.00  0.00    -0.000 C 
BRANCH  27  28
ATOM     28  C   UNL     1     -12.833   4.012  31.594  1.00  0.00    -0.000 C 
BRANCH  28  29
ATOM     29  C   UNL     1     -12.656   4.846  30.313  1.00  0.00    -0.000 C 
BRANCH  29  30
ATOM     30  C   UNL     1     -12.266   4.034  29.063  1.00  0.00    -0.000 C 
BRANCH  30  31
ATOM     31  C   UNL     1     -12.779   4.646  27.741  1.00  0.00    -0.003 C 
ATOM     32  C   UNL     1     -13.971   3.880  27.171  1.00  0.00     0.004 C 
ENDBRANCH  30  31
ENDBRANCH  29  30
ENDBRANCH  28  29
ENDBRANCH  27  28
ENDBRANCH  26  27
ENDBRANCH  25  26
ENDBRANCH  24  25
ENDBRANCH  23  24
ENDBRANCH  22  23
ENDBRANCH  21  22
ENDBRANCH  20  21
ENDBRANCH  19  20
ENDBRANCH  18  19
ENDBRANCH   1  18
TORSDOF 28
ENDMDL
MODEL 2
REMARK VINA RESULT:    -3.651      2.022      3.758
REMARK INTER + INTRA:         -15.510
REMARK INTER:                 -10.684
REMARK INTRA:                  -4.826
REMARK UNBOUND:                -5.882
REMARK SMILES CCCCCCCCCCCCCCCCCCCCCCCCCCCCCC(=O)[O-]
REMARK SMILES IDX 16 1 17 2 18 3 19 4 20 5 21 6 22 7 23 8 24 9 25 10 26 11
REMARK SMILES IDX 27 12 28 13 29 14 30 15 31 16 32 17 15 18 14 19 13 20 12 21
REMARK SMILES IDX 11 22 10 23 9 24 8 25 7 26 6 27 5 28 4 29 3 30 2 31 1 32
REMARK H PARENT
REMARK Flexibility Score: inf
ROOT
ATOM      1  C   UNL     1     -12.064   9.125  28.951  1.00  0.00     0.000 C 
ENDROOT
BRANCH   1   2
ATOM      2  C   UNL     1     -10.579   8.756  29.149  1.00  0.00     0.000 C 
BRANCH   2   3
ATOM      3  C   UNL     1     -10.371   7.534  30.055  1.00  0.00     0.000 C 
BRANCH   3   4
ATOM      4  C   UNL     1      -9.880   6.326  29.242  1.00  0.00     0.000 C 
BRANCH   4   5
ATOM      5  C   UNL     1     -10.886   5.164  29.227  1.00  0.00     0.000 C 
BRANCH   5   6
ATOM      6  C   UNL     1     -11.850   5.198  30.426  1.00  0.00     0.000 C 
BRANCH   6   7
ATOM      7  C   UNL     1     -11.877   3.875  31.214  1.00  0.00     0.000 C 
BRANCH   7   8
ATOM      8  C   UNL     1     -11.722   2.599  30.365  1.00  0.00     0.000 C 
BRANCH   8   9
ATOM      9  C   UNL     1     -11.165   1.409  31.167  1.00  0.00     0.000 C 
BRANCH   9  10
ATOM     10  C   UNL     1      -9.729   1.029  30.761  1.00  0.00     0.000 C 
BRANCH  10  11
ATOM     11  C   UNL     1      -8.776   2.216  30.509  1.00  0.00     0.000 C 
BRANCH  11  12
ATOM     12  C   UNL     1      -7.983   2.701  31.738  1.00  0.00     0.000 C 
BRANCH  12  13
ATOM     13  C   UNL     1      -8.253   4.159  32.163  1.00  0.00     0.006 C 
BRANCH  13  14
ATOM     14  C   UNL     1      -7.231   5.171  31.613  1.00  0.00     0.053 C 
BRANCH  14  15
ATOM     15  C   UNL     1      -5.943   5.165  32.379  1.00  0.00     0.041 C 
ATOM     16  O   UNL     1      -4.848   5.003  31.777  1.00  0.00    -0.550 OA
ATOM     17  O   UNL     1      -5.948   5.364  33.753  1.00  0.00    -0.550 OA
ENDBRANCH  14  15
ENDBRANCH  13  14
ENDBRANCH  12  13
ENDBRANCH  11  12
ENDBRANCH  10  11
ENDBRANCH   9  10
ENDBRANCH   8   9
ENDBRANCH   7   8
ENDBRANCH   6   7
ENDBRANCH   5   6
ENDBRANCH   4   5
ENDBRANCH   3   4
ENDBRANCH   2   3
ENDBRANCH   1   2
BRANCH   1  18
ATOM     18  C   UNL     1     -12.752   8.481  27.728  1.00  0.00     0.000 C 
BRANCH  18  19
ATOM     19  C   UNL     1     -13.765   7.364  28.066  1.00  0.00     0.000 C 
BRANCH  19  20
ATOM     20  C   UNL     1     -14.559   7.600  29.363  1.00  0.00     0.000 C 
BRANCH  20  21
ATOM     21  C   UNL     1     -15.050   6.307  30.043  1.00  0.00     0.000 C 
BRANCH  21  22
ATOM     22  C   UNL     1     -16.371   6.515  30.798  1.00  0.00     0.000 C 
BRANCH  22  23
ATOM     23  C   UNL     1     -16.705   5.300  31.674  1.00  0.00     0.000 C 
BRANCH  23  24
ATOM     24  C   UNL     1     -15.540   4.298  31.775  1.00  0.00    -0.000 C 
BRANCH  24  25
ATOM     25  C   UNL     1     -15.373   3.616  33.146  1.00  0.00    -0.000 C 
BRANCH  25  26
ATOM     26  C   UNL     1     -16.523   2.686  33.580  1.00  0.00    -0.000 C 
BRANCH  26  27
ATOM     27  C   UNL     1     -16.805   1.522  32.608  1.00  0.00    -0.000 C 
BRANCH  27  28
ATOM     28  C   UNL     1     -15.630   0.534  32.487  1.00  0.00    -0.000 C 
BRANCH  28  29
ATOM     29  C   UNL     1     -14.911   0.628  31.130  1.00  0.00    -0.000 C 
BRANCH  29  30
ATOM     30  C   UNL     1     -15.770   1.194  29.982  1.00  0.00    -0.000 C 
BRANCH  30  31
ATOM     31  C   UNL     1     -14.957   1.970  28.924  1.00  0.00    -0.003 C 
ATOM     32  C   UNL     1     -15.048   1.332  27.539  1.00  0.00     0.004 C 
ENDBRANCH  30  31
ENDBRANCH  29  30
ENDBRANCH  28  29
ENDBRANCH  27  28
ENDBRANCH  26  27
ENDBRANCH  25  26
ENDBRANCH  24  25
ENDBRANCH  23  24
ENDBRANCH  22  23
ENDBRANCH  21  22
ENDBRANCH  20  21
ENDBRANCH  19  20
ENDBRANCH  18  19
ENDBRANCH   1  18
TORSDOF 28
ENDMDL
MODEL 3
REMARK VINA RESULT:    -3.619      2.470      7.927
REMARK INTER + INTRA:         -15.424
REMARK INTER:                 -11.078
REMARK INTRA:                  -4.346
REMARK UNBOUND:                -5.882
REMARK SMILES CCCCCCCCCCCCCCCCCCCCCCCCCCCCCC(=O)[O-]
REMARK SMILES IDX 16 1 17 2 18 3 19 4 20 5 21 6 22 7 23 8 24 9 25 10 26 11
REMARK SMILES IDX 27 12 28 13 29 14 30 15 31 16 32 17 15 18 14 19 13 20 12 21
REMARK SMILES IDX 11 22 10 23 9 24 8 25 7 26 6 27 5 28 4 29 3 30 2 31 1 32
REMARK H PARENT
REMARK Flexibility Score: inf
ROOT
ATOM      1  C   UNL     1     -10.501   5.327  31.290  1.00  0.00     0.000 C 
ENDROOT
BRANCH   1   2
ATOM      2  C   UNL     1     -11.623   5.720  30.307  1.00  0.00     0.000 C 
BRANCH   2   3
ATOM      3  C   UNL     1     -11.345   5.287  28.861  1.00  0.00     0.000 C 
BRANCH   3   4
ATOM      4  C   UNL     1     -11.070   6.506  27.967  1.00  0.00     0.000 C 
BRANCH   4   5
ATOM      5  C   UNL     1     -10.730   7.773  28.767  1.00  0.00     0.000 C 
BRANCH   5   6
ATOM      6  C   UNL     1     -11.823   8.851  28.664  1.00  0.00     0.000 C 
BRANCH   6   7
ATOM      7  C   UNL     1     -13.028   8.407  27.814  1.00  0.00     0.000 C 
BRANCH   7   8
ATOM      8  C   UNL     1     -14.392   8.461  28.527  1.00  0.00     0.000 C 
BRANCH   8   9
ATOM      9  C   UNL     1     -14.671   7.212  29.381  1.00  0.00     0.000 C 
BRANCH   9  10
ATOM     10  C   UNL     1     -15.934   7.348  30.252  1.00  0.00     0.000 C 
BRANCH  10  11
ATOM     11  C   UNL     1     -16.353   6.073  31.014  1.00  0.00     0.000 C 
BRANCH  11  12
ATOM     12  C   UNL     1     -15.485   4.828  30.749  1.00  0.00     0.000 C 
BRANCH  12  13
ATOM     13  C   UNL     1     -14.757   4.257  31.983  1.00  0.00     0.006 C 
BRANCH  13  14
ATOM     14  C   UNL     1     -13.954   2.974  31.699  1.00  0.00     0.053 C 
BRANCH  14  15
ATOM     15  C   UNL     1     -14.811   1.746  31.697  1.00  0.00     0.041 C 
ATOM     16  O   UNL     1     -14.933   1.059  30.647  1.00  0.00    -0.550 OA
ATOM     17  O   UNL     1     -15.454   1.342  32.859  1.00  0.00    -0.550 OA
ENDBRANCH  14  15
ENDBRANCH  13  14
ENDBRANCH  12  13
ENDBRANCH  11  12
ENDBRANCH  10  11
ENDBRANCH   9  10
ENDBRANCH   8   9
ENDBRANCH   7   8
ENDBRANCH   6   7
ENDBRANCH   5   6
ENDBRANCH   4   5
ENDBRANCH   3   4
ENDBRANCH   2   3
ENDBRANCH   1   2
BRANCH   1  18
ATOM     18  C   UNL     1     -10.200   3.816  31.386  1.00  0.00     0.000 C 
BRANCH  18  19
ATOM     19  C   UNL     1      -8.930   3.455  32.188  1.00  0.00     0.000 C 
BRANCH  19  20
ATOM     20  C   UNL     1      -8.445   2.008  31.990  1.00  0.00     0.000 C 
BRANCH  20  21
ATOM     21  C   UNL     1      -8.453   1.538  30.522  1.00  0.00     0.000 C 
BRANCH  21  22
ATOM     22  C   UNL     1      -7.273   2.112  29.724  1.00  0.00     0.000 C 
BRANCH  22  23
ATOM     23  C   UNL     1      -7.757   3.116  28.669  1.00  0.00     0.000 C 
BRANCH  23  24
ATOM     24  C   UNL     1      -6.881   4.382  28.602  1.00  0.00    -0.000 C 
BRANCH  24  25
ATOM     25  C   UNL     1      -7.538   5.667  29.140  1.00  0.00    -0.000 C 
BRANCH  25  26
ATOM     26  C   UNL     1      -7.033   6.158  30.511  1.00  0.00    -0.000 C 
BRANCH  26  27
ATOM     27  C   UNL     1      -5.872   5.329  31.100  1.00  0.00    -0.000 C 
BRANCH  27  28
ATOM     28  C   UNL     1      -5.908   5.240  32.637  1.00  0.00    -0.000 C 
BRANCH  28  29
ATOM     29  C   UNL     1      -4.542   5.527  33.282  1.00  0.00    -0.000 C 
BRANCH  29  30
ATOM     30  C   UNL     1      -4.451   6.870  34.031  1.00  0.00    -0.000 C 
BRANCH  30  31
ATOM     31  C   UNL     1      -3.112   7.609  33.822  1.00  0.00    -0.003 C 
ATOM     32  C   UNL     1      -3.305   9.010  33.246  1.00  0.00     0.004 C 
ENDBRANCH  30  31
ENDBRANCH  29  30
ENDBRANCH  28  29
ENDBRANCH  27  28
ENDBRANCH  26  27
ENDBRANCH  25  26
ENDBRANCH  24  25
ENDBRANCH  23  24
ENDBRANCH  22  23
ENDBRANCH  21  22
ENDBRANCH  20  21
ENDBRANCH  19  20
ENDBRANCH  18  19
ENDBRANCH   1  18
TORSDOF 28
ENDMDL
MODEL 4
REMARK VINA RESULT:    -3.599      2.673      5.126
REMARK INTER + INTRA:         -15.373
REMARK INTER:                 -11.048
REMARK INTRA:                  -4.325
REMARK UNBOUND:                -5.882
REMARK SMILES CCCCCCCCCCCCCCCCCCCCCCCCCCCCCC(=O)[O-]
REMARK SMILES IDX 16 1 17 2 18 3 19 4 20 5 21 6 22 7 23 8 24 9 25 10 26 11
REMARK SMILES IDX 27 12 28 13 29 14 30 15 31 16 32 17 15 18 14 19 13 20 12 21
REMARK SMILES IDX 11 22 10 23 9 24 8 25 7 26 6 27 5 28 4 29 3 30 2 31 1 32
REMARK H PARENT
REMARK Flexibility Score: inf
ROOT
ATOM      1  C   UNL     1     -10.513   6.128  29.166  1.00  0.00     0.000 C 
ENDROOT
BRANCH   1   2
ATOM      2  C   UNL     1     -11.467   4.960  29.489  1.00  0.00     0.000 C 
BRANCH   2   3
ATOM      3  C   UNL     1     -11.871   4.895  30.968  1.00  0.00     0.000 C 
BRANCH   3   4
ATOM      4  C   UNL     1     -12.400   3.499  31.332  1.00  0.00     0.000 C 
BRANCH   4   5
ATOM      5  C   UNL     1     -12.044   2.431  30.286  1.00  0.00     0.000 C 
BRANCH   5   6
ATOM      6  C   UNL     1     -11.473   1.149  30.917  1.00  0.00     0.000 C 
BRANCH   6   7
ATOM      7  C   UNL     1      -9.936   1.077  30.847  1.00  0.00     0.000 C 
BRANCH   7   8
ATOM      8  C   UNL     1      -9.188   2.078  31.748  1.00  0.00     0.000 C 
BRANCH   8   9
ATOM      9  C   UNL     1      -8.245   3.004  30.961  1.00  0.00     0.000 C 
BRANCH   9  10
ATOM     10  C   UNL     1      -8.179   4.430  31.540  1.00  0.00     0.000 C 
BRANCH  10  11
ATOM     11  C   UNL     1      -7.230   4.611  32.744  1.00  0.00     0.000 C 
BRANCH  11  12
ATOM     12  C   UNL     1      -5.922   5.368  32.448  1.00  0.00     0.000 C 
BRANCH  12  13
ATOM     13  C   UNL     1      -4.926   5.446  33.622  1.00  0.00     0.006 C 
BRANCH  13  14
ATOM     14  C   UNL     1      -3.908   6.596  33.505  1.00  0.00     0.053 C 
BRANCH  14  15
ATOM     15  C   UNL     1      -2.653   6.336  34.280  1.00  0.00     0.041 C 
ATOM     16  O   UNL     1      -1.967   7.299  34.719  1.00  0.00    -0.550 OA
ATOM     17  O   UNL     1      -2.252   5.033  34.542  1.00  0.00    -0.550 OA
ENDBRANCH  14  15
ENDBRANCH  13  14
ENDBRANCH  12  13
ENDBRANCH  11  12
ENDBRANCH  10  11
ENDBRANCH   9  10
ENDBRANCH   8   9
ENDBRANCH   7   8
ENDBRANCH   6   7
ENDBRANCH   5   6
ENDBRANCH   4   5
ENDBRANCH   3   4
ENDBRANCH   2   3
ENDBRANCH   1   2
BRANCH   1  18
ATOM     18  C   UNL     1     -11.049   7.165  28.156  1.00  0.00     0.000 C 
BRANCH  18  19
ATOM     19  C   UNL     1     -11.509   8.502  28.779  1.00  0.00     0.000 C 
BRANCH  19  20
ATOM     20  C   UNL     1     -13.008   8.803  28.597  1.00  0.00     0.000 C 
BRANCH  20  21
ATOM     21  C   UNL     1     -13.935   7.631  28.977  1.00  0.00     0.000 C 
BRANCH  21  22
ATOM     22  C   UNL     1     -15.332   8.112  29.398  1.00  0.00     0.000 C 
BRANCH  22  23
ATOM     23  C   UNL     1     -15.969   7.144  30.404  1.00  0.00     0.000 C 
BRANCH  23  24
ATOM     24  C   UNL     1     -15.340   5.738  30.361  1.00  0.00    -0.000 C 
BRANCH  24  25
ATOM     25  C   UNL     1     -16.143   4.681  29.580  1.00  0.00    -0.000 C 
BRANCH  25  26
ATOM     26  C   UNL     1     -15.310   3.609  28.848  1.00  0.00    -0.000 C 
BRANCH  26  27
ATOM     27  C   UNL     1     -15.571   2.164  29.319  1.00  0.00    -0.000 C 
BRANCH  27  28
ATOM     28  C   UNL     1     -16.971   1.967  29.929  1.00  0.00    -0.000 C 
BRANCH  28  29
ATOM     29  C   UNL     1     -16.926   1.672  31.437  1.00  0.00    -0.000 C 
BRANCH  29  30
ATOM     30  C   UNL     1     -15.546   1.867  32.093  1.00  0.00    -0.000 C 
BRANCH  30  31
ATOM     31  C   UNL     1     -15.523   2.967  33.176  1.00  0.00    -0.003 C 
ATOM     32  C   UNL     1     -16.924   3.456  33.537  1.00  0.00     0.004 C 
ENDBRANCH  30  31
ENDBRANCH  29  30
ENDBRANCH  28  29
ENDBRANCH  27  28
ENDBRANCH  26  27
ENDBRANCH  25  26
ENDBRANCH  24  25
ENDBRANCH  23  24
ENDBRANCH  22  23
ENDBRANCH  21  22
ENDBRANCH  20  21
ENDBRANCH  19  20
ENDBRANCH  18  19
ENDBRANCH   1  18
TORSDOF 28
ENDMDL
MODEL 5
REMARK VINA RESULT:    -3.543      2.120      6.604
REMARK INTER + INTRA:         -15.226
REMARK INTER:                  -9.769
REMARK INTRA:                  -5.457
REMARK UNBOUND:                -5.882
REMARK SMILES CCCCCCCCCCCCCCCCCCCCCCCCCCCCCC(=O)[O-]
REMARK SMILES IDX 16 1 17 2 18 3 19 4 20 5 21 6 22 7 23 8 24 9 25 10 26 11
REMARK SMILES IDX 27 12 28 13 29 14 30 15 31 16 32 17 15 18 14 19 13 20 12 21
REMARK SMILES IDX 11 22 10 23 9 24 8 25 7 26 6 27 5 28 4 29 3 30 2 31 1 32
REMARK H PARENT
REMARK Flexibility Score: inf
ROOT
ATOM      1  C   UNL     1     -12.260   8.180  27.785  1.00  0.00     0.000 C 
ENDROOT
BRANCH   1   2
ATOM      2  C   UNL     1     -13.755   8.516  27.605  1.00  0.00     0.000 C 
BRANCH   2   3
ATOM      3  C   UNL     1     -14.521   8.611  28.932  1.00  0.00     0.000 C 
BRANCH   3   4
ATOM      4  C   UNL     1     -14.914   7.216  29.440  1.00  0.00     0.000 C 
BRANCH   4   5
ATOM      5  C   UNL     1     -16.077   7.249  30.445  1.00  0.00     0.000 C 
BRANCH   5   6
ATOM      6  C   UNL     1     -16.446   5.851  30.971  1.00  0.00     0.000 C 
BRANCH   6   7
ATOM      7  C   UNL     1     -16.229   4.739  29.929  1.00  0.00     0.000 C 
BRANCH   7   8
ATOM      8  C   UNL     1     -15.569   3.454  30.464  1.00  0.00     0.000 C 
BRANCH   8   9
ATOM      9  C   UNL     1     -14.647   3.711  31.669  1.00  0.00     0.000 C 
BRANCH   9  10
ATOM     10  C   UNL     1     -13.261   3.058  31.517  1.00  0.00     0.000 C 
BRANCH  10  11
ATOM     11  C   UNL     1     -12.080   4.039  31.361  1.00  0.00     0.000 C 
BRANCH  11  12
ATOM     12  C   UNL     1     -12.095   4.895  30.081  1.00  0.00     0.000 C 
BRANCH  12  13
ATOM     13  C   UNL     1     -11.024   4.532  29.033  1.00  0.00     0.006 C 
BRANCH  13  14
ATOM     14  C   UNL     1     -11.536   4.555  27.581  1.00  0.00     0.053 C 
BRANCH  14  15
ATOM     15  C   UNL     1     -12.930   4.022  27.452  1.00  0.00     0.041 C 
ATOM     16  O   UNL     1     -13.894   4.809  27.255  1.00  0.00    -0.550 OA
ATOM     17  O   UNL     1     -13.163   2.655  27.523  1.00  0.00    -0.550 OA
ENDBRANCH  14  15
ENDBRANCH  13  14
ENDBRANCH  12  13
ENDBRANCH  11  12
ENDBRANCH  10  11
ENDBRANCH   9  10
ENDBRANCH   8   9
ENDBRANCH   7   8
ENDBRANCH   6   7
ENDBRANCH   5   6
ENDBRANCH   4   5
ENDBRANCH   3   4
ENDBRANCH   2   3
ENDBRANCH   1   2
BRANCH   1  18
ATOM     18  C   UNL     1     -11.513   9.018  28.845  1.00  0.00     0.000 C 
BRANCH  18  19
ATOM     19  C   UNL     1     -10.548   8.215  29.745  1.00  0.00     0.000 C 
BRANCH  19  20
ATOM     20  C   UNL     1      -9.058   8.416  29.414  1.00  0.00     0.000 C 
BRANCH  20  21
ATOM     21  C   UNL     1      -8.551   7.547  28.245  1.00  0.00     0.000 C 
BRANCH  21  22
ATOM     22  C   UNL     1      -7.737   6.340  28.733  1.00  0.00     0.000 C 
BRANCH  22  23
ATOM     23  C   UNL     1      -6.888   6.705  29.958  1.00  0.00     0.000 C 
BRANCH  23  24
ATOM     24  C   UNL     1      -6.877   5.597  31.029  1.00  0.00    -0.000 C 
BRANCH  24  25
ATOM     25  C   UNL     1      -8.258   5.024  31.398  1.00  0.00    -0.000 C 
BRANCH  25  26
ATOM     26  C   UNL     1      -8.267   3.953  32.508  1.00  0.00    -0.000 C 
BRANCH  26  27
ATOM     27  C   UNL     1      -8.681   2.544  32.035  1.00  0.00    -0.000 C 
BRANCH  27  28
ATOM     28  C   UNL     1      -8.483   2.329  30.523  1.00  0.00    -0.000 C 
BRANCH  28  29
ATOM     29  C   UNL     1      -8.497   0.843  30.127  1.00  0.00    -0.000 C 
BRANCH  29  30
ATOM     30  C   UNL     1      -9.630   0.442  29.162  1.00  0.00    -0.000 C 
BRANCH  30  31
ATOM     31  C   UNL     1     -11.044   0.708  29.720  1.00  0.00    -0.003 C 
ATOM     32  C   UNL     1     -11.320  -0.076  31.002  1.00  0.00     0.004 C 
ENDBRANCH  30  31
ENDBRANCH  29  30
ENDBRANCH  28  29
ENDBRANCH  27  28
ENDBRANCH  26  27
ENDBRANCH  25  26
ENDBRANCH  24  25
ENDBRANCH  23  24
ENDBRANCH  22  23
ENDBRANCH  21  22
ENDBRANCH  20  21
ENDBRANCH  19  20
ENDBRANCH  18  19
ENDBRANCH   1  18
TORSDOF 28
ENDMDL
MODEL 6
REMARK VINA RESULT:    -3.493      1.650      3.599
REMARK INTER + INTRA:         -15.092
REMARK INTER:                  -9.450
REMARK INTRA:                  -5.642
REMARK UNBOUND:                -5.882
REMARK SMILES CCCCCCCCCCCCCCCCCCCCCCCCCCCCCC(=O)[O-]
REMARK SMILES IDX 16 1 17 2 18 3 19 4 20 5 21 6 22 7 23 8 24 9 25 10 26 11
REMARK SMILES IDX 27 12 28 13 29 14 30 15 31 16 32 17 15 18 14 19 13 20 12 21
REMARK SMILES IDX 11 22 10 23 9 24 8 25 7 26 6 27 5 28 4 29 3 30 2 31 1 32
REMARK H PARENT
REMARK Flexibility Score: inf
ROOT
ATOM      1  C   UNL     1     -16.296   6.502  30.880  1.00  0.00     0.000 C 
ENDROOT
BRANCH   1   2
ATOM      2  C   UNL     1     -15.619   7.538  29.959  1.00  0.00     0.000 C 
BRANCH   2   3
ATOM      3  C   UNL     1     -14.482   6.948  29.113  1.00  0.00     0.000 C 
BRANCH   3   4
ATOM      4  C   UNL     1     -14.016   7.949  28.045  1.00  0.00     0.000 C 
BRANCH   4   5
ATOM      5  C   UNL     1     -13.084   9.035  28.607  1.00  0.00     0.000 C 
BRANCH   5   6
ATOM      6  C   UNL     1     -11.607   8.792  28.249  1.00  0.00     0.000 C 
BRANCH   6   7
ATOM      7  C   UNL     1     -10.675   8.838  29.475  1.00  0.00     0.000 C 
BRANCH   7   8
ATOM      8  C   UNL     1      -9.746   7.621  29.641  1.00  0.00     0.000 C 
BRANCH   8   9
ATOM      9  C   UNL     1     -10.360   6.515  30.518  1.00  0.00     0.000 C 
BRANCH   9  10
ATOM     10  C   UNL     1      -9.367   5.383  30.842  1.00  0.00     0.000 C 
BRANCH  10  11
ATOM     11  C   UNL     1      -9.985   4.124  31.485  1.00  0.00     0.000 C 
BRANCH  11  12
ATOM     12  C   UNL     1      -8.979   3.129  32.094  1.00  0.00     0.000 C 
BRANCH  12  13
ATOM     13  C   UNL     1      -8.453   2.049  31.127  1.00  0.00     0.006 C 
BRANCH  13  14
ATOM     14  C   UNL     1      -9.526   1.482  30.178  1.00  0.00     0.053 C 
BRANCH  14  15
ATOM     15  C   UNL     1      -9.958   0.099  30.558  1.00  0.00     0.041 C 
ATOM     16  O   UNL     1     -10.752  -0.076  31.522  1.00  0.00    -0.550 OA
ATOM     17  O   UNL     1      -9.507  -0.997  29.834  1.00  0.00    -0.550 OA
ENDBRANCH  14  15
ENDBRANCH  13  14
ENDBRANCH  12  13
ENDBRANCH  11  12
ENDBRANCH  10  11
ENDBRANCH   9  10
ENDBRANCH   8   9
ENDBRANCH   7   8
ENDBRANCH   6   7
ENDBRANCH   5   6
ENDBRANCH   4   5
ENDBRANCH   3   4
ENDBRANCH   2   3
ENDBRANCH   1   2
BRANCH   1  18
ATOM     18  C   UNL     1     -16.560   5.119  30.245  1.00  0.00     0.000 C 
BRANCH  18  19
ATOM     19  C   UNL     1     -16.320   3.916  31.185  1.00  0.00     0.000 C 
BRANCH  19  20
ATOM     20  C   UNL     1     -15.034   4.016  32.026  1.00  0.00     0.000 C 
BRANCH  20  21
ATOM     21  C   UNL     1     -13.735   3.910  31.203  1.00  0.00     0.000 C 
BRANCH  21  22
ATOM     22  C   UNL     1     -13.078   2.528  31.335  1.00  0.00     0.000 C 
BRANCH  22  23
ATOM     23  C   UNL     1     -14.120   1.408  31.221  1.00  0.00     0.000 C 
BRANCH  23  24
ATOM     24  C   UNL     1     -13.927   0.537  29.965  1.00  0.00    -0.000 C 
BRANCH  24  25
ATOM     25  C   UNL     1     -15.160   0.420  29.049  1.00  0.00    -0.000 C 
BRANCH  25  26
ATOM     26  C   UNL     1     -15.792   1.753  28.598  1.00  0.00    -0.000 C 
BRANCH  26  27
ATOM     27  C   UNL     1     -15.190   2.342  27.305  1.00  0.00    -0.000 C 
BRANCH  27  28
ATOM     28  C   UNL     1     -14.164   3.460  27.568  1.00  0.00    -0.000 C 
BRANCH  28  29
ATOM     29  C   UNL     1     -12.713   2.951  27.552  1.00  0.00    -0.000 C 
BRANCH  29  30
ATOM     30  C   UNL     1     -11.674   3.943  28.111  1.00  0.00    -0.000 C 
BRANCH  30  31
ATOM     31  C   UNL     1     -11.580   5.260  27.312  1.00  0.00    -0.003 C 
ATOM     32  C   UNL     1     -10.211   5.446  26.659  1.00  0.00     0.004 C 
ENDBRANCH  30  31
ENDBRANCH  29  30
ENDBRANCH  28  29
ENDBRANCH  27  28
ENDBRANCH  26  27
ENDBRANCH  25  26
ENDBRANCH  24  25
ENDBRANCH  23  24
ENDBRANCH  22  23
ENDBRANCH  21  22
ENDBRANCH  20  21
ENDBRANCH  19  20
ENDBRANCH  18  19
ENDBRANCH   1  18
TORSDOF 28
ENDMDL
MODEL 7
REMARK VINA RESULT:    -3.472      2.542      6.798
REMARK INTER + INTRA:         -15.036
REMARK INTER:                  -9.543
REMARK INTRA:                  -5.493
REMARK UNBOUND:                -5.882
REMARK SMILES CCCCCCCCCCCCCCCCCCCCCCCCCCCCCC(=O)[O-]
REMARK SMILES IDX 16 1 17 2 18 3 19 4 20 5 21 6 22 7 23 8 24 9 25 10 26 11
REMARK SMILES IDX 27 12 28 13 29 14 30 15 31 16 32 17 15 18 14 19 13 20 12 21
REMARK SMILES IDX 11 22 10 23 9 24 8 25 7 26 6 27 5 28 4 29 3 30 2 31 1 32
REMARK H PARENT
REMARK Flexibility Score: inf
ROOT
ATOM      1  C   UNL     1     -10.349   7.784  29.252  1.00  0.00     0.000 C 
ENDROOT
BRANCH   1   2
ATOM      2  C   UNL     1     -11.627   8.498  28.766  1.00  0.00     0.000 C 
BRANCH   2   3
ATOM      3  C   UNL     1     -12.728   7.530  28.310  1.00  0.00     0.000 C 
BRANCH   3   4
ATOM      4  C   UNL     1     -14.066   7.862  28.989  1.00  0.00     0.000 C 
BRANCH   4   5
ATOM      5  C   UNL     1     -14.773   6.622  29.559  1.00  0.00     0.000 C 
BRANCH   5   6
ATOM      6  C   UNL     1     -16.000   6.980  30.416  1.00  0.00     0.000 C 
BRANCH   6   7
ATOM      7  C   UNL     1     -16.487   5.808  31.289  1.00  0.00     0.000 C 
BRANCH   7   8
ATOM      8  C   UNL     1     -15.422   4.745  31.618  1.00  0.00     0.000 C 
BRANCH   8   9
ATOM      9  C   UNL     1     -15.756   3.361  31.031  1.00  0.00     0.000 C 
BRANCH   9  10
ATOM     10  C   UNL     1     -17.058   3.354  30.209  1.00  0.00     0.000 C 
BRANCH  10  11
ATOM     11  C   UNL     1     -16.874   3.257  28.679  1.00  0.00     0.000 C 
BRANCH  11  12
ATOM     12  C   UNL     1     -15.414   3.218  28.189  1.00  0.00     0.000 C 
BRANCH  12  13
ATOM     13  C   UNL     1     -15.235   3.055  26.666  1.00  0.00     0.006 C 
BRANCH  13  14
ATOM     14  C   UNL     1     -13.775   3.183  26.190  1.00  0.00     0.053 C 
BRANCH  14  15
ATOM     15  C   UNL     1     -13.612   4.193  25.096  1.00  0.00     0.041 C 
ATOM     16  O   UNL     1     -13.843   3.874  23.899  1.00  0.00    -0.550 OA
ATOM     17  O   UNL     1     -13.233   5.494  25.398  1.00  0.00    -0.550 OA
ENDBRANCH  14  15
ENDBRANCH  13  14
ENDBRANCH  12  13
ENDBRANCH  11  12
ENDBRANCH  10  11
ENDBRANCH   9  10
ENDBRANCH   8   9
ENDBRANCH   7   8
ENDBRANCH   6   7
ENDBRANCH   5   6
ENDBRANCH   4   5
ENDBRANCH   3   4
ENDBRANCH   2   3
ENDBRANCH   1   2
BRANCH   1  18
ATOM     18  C   UNL     1     -10.468   6.255  29.430  1.00  0.00     0.000 C 
BRANCH  18  19
ATOM     19  C   UNL     1     -10.727   5.788  30.880  1.00  0.00     0.000 C 
BRANCH  19  20
ATOM     20  C   UNL     1     -11.797   4.688  31.009  1.00  0.00     0.000 C 
BRANCH  20  21
ATOM     21  C   UNL     1     -12.267   4.107  29.660  1.00  0.00     0.000 C 
BRANCH  21  22
ATOM     22  C   UNL     1     -11.968   2.605  29.542  1.00  0.00     0.000 C 
BRANCH  22  23
ATOM     23  C   UNL     1     -12.260   1.879  30.862  1.00  0.00     0.000 C 
BRANCH  23  24
ATOM     24  C   UNL     1     -11.347   0.658  31.087  1.00  0.00    -0.000 C 
BRANCH  24  25
ATOM     25  C   UNL     1     -10.047   0.647  30.261  1.00  0.00    -0.000 C 
BRANCH  25  26
ATOM     26  C   UNL     1      -8.774   1.099  31.005  1.00  0.00    -0.000 C 
BRANCH  26  27
ATOM     27  C   UNL     1      -8.555   2.626  31.027  1.00  0.00    -0.000 C 
BRANCH  27  28
ATOM     28  C   UNL     1      -8.663   3.234  32.438  1.00  0.00    -0.000 C 
BRANCH  28  29
ATOM     29  C   UNL     1      -7.609   4.323  32.699  1.00  0.00    -0.000 C 
BRANCH  29  30
ATOM     30  C   UNL     1      -6.616   4.550  31.543  1.00  0.00    -0.000 C 
BRANCH  30  31
ATOM     31  C   UNL     1      -6.891   5.833  30.730  1.00  0.00    -0.003 C 
ATOM     32  C   UNL     1      -6.785   5.600  29.224  1.00  0.00     0.004 C 
ENDBRANCH  30  31
ENDBRANCH  29  30
ENDBRANCH  28  29
ENDBRANCH  27  28
ENDBRANCH  26  27
ENDBRANCH  25  26
ENDBRANCH  24  25
ENDBRANCH  23  24
ENDBRANCH  22  23
ENDBRANCH  21  22
ENDBRANCH  20  21
ENDBRANCH  19  20
ENDBRANCH  18  19
ENDBRANCH   1  18
TORSDOF 28
ENDMDL
MODEL 8
REMARK VINA RESULT:    -3.471      2.162      4.080
REMARK INTER + INTRA:         -15.036
REMARK INTER:                  -9.362
REMARK INTRA:                  -5.673
REMARK UNBOUND:                -5.882
REMARK SMILES CCCCCCCCCCCCCCCCCCCCCCCCCCCCCC(=O)[O-]
REMARK SMILES IDX 16 1 17 2 18 3 19 4 20 5 21 6 22 7 23 8 24 9 25 10 26 11
REMARK SMILES IDX 27 12 28 13 29 14 30 15 31 16 32 17 15 18 14 19 13 20 12 21
REMARK SMILES IDX 11 22 10 23 9 24 8 25 7 26 6 27 5 28 4 29 3 30 2 31 1 32
REMARK H PARENT
REMARK Flexibility Score: inf
ROOT
ATOM      1  C   UNL     1     -11.189   4.703  26.761  1.00  0.00     0.000 C 
ENDROOT
BRANCH   1   2
ATOM      2  C   UNL     1      -9.767   5.294  26.858  1.00  0.00     0.000 C 
BRANCH   2   3
ATOM      3  C   UNL     1      -9.336   5.610  28.297  1.00  0.00     0.000 C 
BRANCH   3   4
ATOM      4  C   UNL     1      -9.686   7.060  28.667  1.00  0.00     0.000 C 
BRANCH   4   5
ATOM      5  C   UNL     1     -10.450   7.172  29.996  1.00  0.00     0.000 C 
BRANCH   5   6
ATOM      6  C   UNL     1     -10.532   5.832  30.749  1.00  0.00     0.000 C 
BRANCH   6   7
ATOM      7  C   UNL     1     -11.963   5.270  30.822  1.00  0.00     0.000 C 
BRANCH   7   8
ATOM      8  C   UNL     1     -12.156   3.875  30.197  1.00  0.00     0.000 C 
BRANCH   8   9
ATOM      9  C   UNL     1     -11.696   2.735  31.122  1.00  0.00     0.000 C 
BRANCH   9  10
ATOM     10  C   UNL     1     -10.256   2.269  30.835  1.00  0.00     0.000 C 
BRANCH  10  11
ATOM     11  C   UNL     1      -9.227   2.580  31.942  1.00  0.00     0.000 C 
BRANCH  11  12
ATOM     12  C   UNL     1      -7.838   3.028  31.448  1.00  0.00     0.000 C 
BRANCH  12  13
ATOM     13  C   UNL     1      -7.377   4.413  31.944  1.00  0.00     0.006 C 
BRANCH  13  14
ATOM     14  C   UNL     1      -5.898   4.725  31.650  1.00  0.00     0.053 C 
BRANCH  14  15
ATOM     15  C   UNL     1      -5.348   5.799  32.537  1.00  0.00     0.041 C 
ATOM     16  O   UNL     1      -4.716   6.770  32.040  1.00  0.00    -0.550 OA
ATOM     17  O   UNL     1      -5.554   5.745  33.909  1.00  0.00    -0.550 OA
ENDBRANCH  14  15
ENDBRANCH  13  14
ENDBRANCH  12  13
ENDBRANCH  11  12
ENDBRANCH  10  11
ENDBRANCH   9  10
ENDBRANCH   8   9
ENDBRANCH   7   8
ENDBRANCH   6   7
ENDBRANCH   5   6
ENDBRANCH   4   5
ENDBRANCH   3   4
ENDBRANCH   2   3
ENDBRANCH   1   2
BRANCH   1  18
ATOM     18  C   UNL     1     -12.292   5.694  26.333  1.00  0.00     0.000 C 
BRANCH  18  19
ATOM     19  C   UNL     1     -13.311   6.051  27.439  1.00  0.00     0.000 C 
BRANCH  19  20
ATOM     20  C   UNL     1     -13.336   7.542  27.820  1.00  0.00     0.000 C 
BRANCH  20  21
ATOM     21  C   UNL     1     -14.298   7.879  28.977  1.00  0.00     0.000 C 
BRANCH  21  22
ATOM     22  C   UNL     1     -15.060   6.641  29.474  1.00  0.00     0.000 C 
BRANCH  22  23
ATOM     23  C   UNL     1     -16.110   7.025  30.526  1.00  0.00     0.000 C 
BRANCH  23  24
ATOM     24  C   UNL     1     -16.602   5.818  31.347  1.00  0.00    -0.000 C 
BRANCH  24  25
ATOM     25  C   UNL     1     -15.527   4.766  31.682  1.00  0.00    -0.000 C 
BRANCH  25  26
ATOM     26  C   UNL     1     -15.789   3.343  31.147  1.00  0.00    -0.000 C 
BRANCH  26  27
ATOM     27  C   UNL     1     -17.088   3.196  30.328  1.00  0.00    -0.000 C 
BRANCH  27  28
ATOM     28  C   UNL     1     -16.874   3.373  28.814  1.00  0.00    -0.000 C 
BRANCH  28  29
ATOM     29  C   UNL     1     -15.400   3.226  28.401  1.00  0.00    -0.000 C 
BRANCH  29  30
ATOM     30  C   UNL     1     -15.000   1.815  27.927  1.00  0.00    -0.000 C 
BRANCH  30  31
ATOM     31  C   UNL     1     -13.578   1.740  27.331  1.00  0.00    -0.003 C 
ATOM     32  C   UNL     1     -13.551   2.092  25.845  1.00  0.00     0.004 C 
ENDBRANCH  30  31
ENDBRANCH  29  30
ENDBRANCH  28  29
ENDBRANCH  27  28
ENDBRANCH  26  27
ENDBRANCH  25  26
ENDBRANCH  24  25
ENDBRANCH  23  24
ENDBRANCH  22  23
ENDBRANCH  21  22
ENDBRANCH  20  21
ENDBRANCH  19  20
ENDBRANCH  18  19
ENDBRANCH   1  18
TORSDOF 28
ENDMDL
MODEL 9
REMARK VINA RESULT:    -3.464      2.082      5.013
REMARK INTER + INTRA:         -15.018
REMARK INTER:                 -10.327
REMARK INTRA:                  -4.691
REMARK UNBOUND:                -5.882
REMARK SMILES CCCCCCCCCCCCCCCCCCCCCCCCCCCCCC(=O)[O-]
REMARK SMILES IDX 16 1 17 2 18 3 19 4 20 5 21 6 22 7 23 8 24 9 25 10 26 11
REMARK SMILES IDX 27 12 28 13 29 14 30 15 31 16 32 17 15 18 14 19 13 20 12 21
REMARK SMILES IDX 11 22 10 23 9 24 8 25 7 26 6 27 5 28 4 29 3 30 2 31 1 32
REMARK H PARENT
REMARK Flexibility Score: inf
ROOT
ATOM      1  C   UNL     1     -16.472   4.167  32.028  1.00  0.00     0.000 C 
ENDROOT
BRANCH   1   2
ATOM      2  C   UNL     1     -15.878   5.068  30.926  1.00  0.00     0.000 C 
BRANCH   2   3
ATOM      3  C   UNL     1     -16.520   6.461  30.869  1.00  0.00     0.000 C 
BRANCH   3   4
ATOM      4  C   UNL     1     -15.626   7.446  30.101  1.00  0.00     0.000 C 
BRANCH   4   5
ATOM      5  C   UNL     1     -14.639   6.747  29.152  1.00  0.00     0.000 C 
BRANCH   5   6
ATOM      6  C   UNL     1     -14.039   7.705  28.108  1.00  0.00     0.000 C 
BRANCH   6   7
ATOM      7  C   UNL     1     -12.568   7.391  27.779  1.00  0.00     0.000 C 
BRANCH   7   8
ATOM      8  C   UNL     1     -11.530   8.065  28.696  1.00  0.00     0.000 C 
BRANCH   8   9
ATOM      9  C   UNL     1     -10.104   7.524  28.487  1.00  0.00     0.000 C 
BRANCH   9  10
ATOM     10  C   UNL     1      -9.424   7.098  29.801  1.00  0.00     0.000 C 
BRANCH  10  11
ATOM     11  C   UNL     1      -8.984   5.620  29.869  1.00  0.00     0.000 C 
BRANCH  11  12
ATOM     12  C   UNL     1      -8.809   5.045  31.288  1.00  0.00     0.000 C 
BRANCH  12  13
ATOM     13  C   UNL     1      -7.739   3.944  31.426  1.00  0.00     0.006 C 
BRANCH  13  14
ATOM     14  C   UNL     1      -6.297   4.442  31.212  1.00  0.00     0.053 C 
BRANCH  14  15
ATOM     15  C   UNL     1      -5.772   5.212  32.385  1.00  0.00     0.041 C 
ATOM     16  O   UNL     1      -4.797   5.998  32.243  1.00  0.00    -0.550 OA
ATOM     17  O   UNL     1      -6.375   5.084  33.629  1.00  0.00    -0.550 OA
ENDBRANCH  14  15
ENDBRANCH  13  14
ENDBRANCH  12  13
ENDBRANCH  11  12
ENDBRANCH  10  11
ENDBRANCH   9  10
ENDBRANCH   8   9
ENDBRANCH   7   8
ENDBRANCH   6   7
ENDBRANCH   5   6
ENDBRANCH   4   5
ENDBRANCH   3   4
ENDBRANCH   2   3
ENDBRANCH   1   2
BRANCH   1  18
ATOM     18  C   UNL     1     -15.442   3.412  32.896  1.00  0.00     0.000 C 
BRANCH  18  19
ATOM     19  C   UNL     1     -15.974   2.930  34.265  1.00  0.00     0.000 C 
BRANCH  19  20
ATOM     20  C   UNL     1     -16.135   1.403  34.380  1.00  0.00     0.000 C 
BRANCH  20  21
ATOM     21  C   UNL     1     -16.691   0.732  33.108  1.00  0.00     0.000 C 
BRANCH  21  22
ATOM     22  C   UNL     1     -15.617  -0.074  32.362  1.00  0.00     0.000 C 
BRANCH  22  23
ATOM     23  C   UNL     1     -16.051  -0.369  30.920  1.00  0.00     0.000 C 
BRANCH  23  24
ATOM     24  C   UNL     1     -16.450   0.900  30.144  1.00  0.00    -0.000 C 
BRANCH  24  25
ATOM     25  C   UNL     1     -15.277   1.726  29.583  1.00  0.00    -0.000 C 
BRANCH  25  26
ATOM     26  C   UNL     1     -14.249   0.947  28.738  1.00  0.00    -0.000 C 
BRANCH  26  27
ATOM     27  C   UNL     1     -13.315   1.833  27.888  1.00  0.00    -0.000 C 
BRANCH  27  28
ATOM     28  C   UNL     1     -13.409   3.329  28.242  1.00  0.00    -0.000 C 
BRANCH  28  29
ATOM     29  C   UNL     1     -12.161   3.846  28.976  1.00  0.00    -0.000 C 
BRANCH  29  30
ATOM     30  C   UNL     1     -12.403   4.287  30.433  1.00  0.00    -0.000 C 
BRANCH  30  31
ATOM     31  C   UNL     1     -11.983   3.233  31.479  1.00  0.00    -0.003 C 
ATOM     32  C   UNL     1     -11.170   2.095  30.863  1.00  0.00     0.004 C 
ENDBRANCH  30  31
ENDBRANCH  29  30
ENDBRANCH  28  29
ENDBRANCH  27  28
ENDBRANCH  26  27
ENDBRANCH  25  26
ENDBRANCH  24  25
ENDBRANCH  23  24
ENDBRANCH  22  23
ENDBRANCH  21  22
ENDBRANCH  20  21
ENDBRANCH  19  20
ENDBRANCH  18  19
ENDBRANCH   1  18
TORSDOF 28
ENDMDL
