MODEL 1
REMARK VINA RESULT:    -3.076      0.000      0.000
REMARK INTER + INTRA:          -4.822
REMARK INTER:                  -4.335
REMARK INTRA:                  -0.487
REMARK UNBOUND:                -0.487
REMARK SMILES CCCCCCCCC(=O)[O-]
REMARK SMILES IDX 6 1 7 2 8 3 9 4 10 5 11 6 5 7 4 8 3 9 2 10 1 11
REMARK H PARENT
REMARK Flexibility Score: inf
ROOT
ATOM      1  C   UNL     1      14.044  12.812   8.255  1.00  0.00     0.000 C 
ENDROOT
BRANCH   1   2
ATOM      2  C   UNL     1      14.581  13.168   9.653  1.00  0.00     0.006 C 
BRANCH   2   3
ATOM      3  C   UNL     1      14.086  12.211  10.743  1.00  0.00     0.053 C 
BRANCH   3   4
ATOM      4  C   UNL     1      13.898  12.941  12.035  1.00  0.00     0.041 C 
ATOM      5  O   UNL     1      12.863  12.748  12.727  1.00  0.00    -0.550 OA
ATOM      6  O   UNL     1      14.840  13.870  12.452  1.00  0.00    -0.550 OA
ENDBRANCH   3   4
ENDBRANCH   2   3
ENDBRANCH   1   2
BRANCH   1   7
ATOM      7  C   UNL     1      14.823  13.483   7.103  1.00  0.00     0.000 C 
BRANCH   7   8
ATOM      8  C   UNL     1      16.324  13.616   7.415  1.00  0.00    -0.000 C 
BRANCH   8   9
ATOM      9  C   UNL     1      16.789  15.081   7.515  1.00  0.00    -0.000 C 
BRANCH   9  10
ATOM     10  C   UNL     1      15.711  16.125   7.176  1.00  0.00    -0.003 C 
ATOM     11  C   UNL     1      15.261  16.937   8.390  1.00  0.00     0.004 C 
ENDBRANCH   9  10
ENDBRANCH   8   9
ENDBRANCH   7   8
ENDBRANCH   1   7
TORSDOF 7
ENDMDL
MODEL 2
REMARK VINA RESULT:    -3.075      1.303      1.402
REMARK INTER + INTRA:          -4.821
REMARK INTER:                  -4.207
REMARK INTRA:                  -0.614
REMARK UNBOUND:                -0.487
REMARK SMILES CCCCCCCCC(=O)[O-]
REMARK SMILES IDX 6 1 7 2 8 3 9 4 10 5 11 6 5 7 4 8 3 9 2 10 1 11
REMARK H PARENT
REMARK Flexibility Score: inf
ROOT
ATOM      1  C   UNL     1      14.042  12.832   8.088  1.00  0.00     0.000 C 
ENDROOT
BRANCH   1   2
ATOM      2  C   UNL     1      14.452  13.179   9.530  1.00  0.00     0.006 C 
BRANCH   2   3
ATOM      3  C   UNL     1      14.163  12.047  10.522  1.00  0.00     0.053 C 
BRANCH   3   4
ATOM      4  C   UNL     1      15.378  11.745  11.341  1.00  0.00     0.041 C 
ATOM      5  O   UNL     1      15.258  11.285  12.507  1.00  0.00    -0.550 OA
ATOM      6  O   UNL     1      16.642  12.018  10.836  1.00  0.00    -0.550 OA
ENDBRANCH   3   4
ENDBRANCH   2   3
ENDBRANCH   1   2
BRANCH   1   7
ATOM      7  C   UNL     1      15.030  13.349   7.020  1.00  0.00     0.000 C 
BRANCH   7   8
ATOM      8  C   UNL     1      16.428  13.622   7.605  1.00  0.00    -0.000 C 
BRANCH   8   9
ATOM      9  C   UNL     1      16.877  15.085   7.426  1.00  0.00    -0.000 C 
BRANCH   9  10
ATOM     10  C   UNL     1      15.736  16.082   7.156  1.00  0.00    -0.003 C 
ATOM     11  C   UNL     1      15.282  16.828   8.410  1.00  0.00     0.004 C 
ENDBRANCH   9  10
ENDBRANCH   8   9
ENDBRANCH   7   8
ENDBRANCH   1   7
TORSDOF 7
ENDMDL
MODEL 3
REMARK VINA RESULT:    -3.004      2.630      5.190
REMARK INTER + INTRA:          -4.721
REMARK INTER:                  -4.386
REMARK INTRA:                  -0.335
REMARK UNBOUND:                -0.487
REMARK SMILES CCCCCCCCC(=O)[O-]
REMARK SMILES IDX 6 1 7 2 8 3 9 4 10 5 11 6 5 7 4 8 3 9 2 10 1 11
REMARK H PARENT
REMARK Flexibility Score: inf
ROOT
ATOM      1  C   UNL     1      14.217  13.040   8.004  1.00  0.00     0.000 C 
ENDROOT
BRANCH   1   2
ATOM      2  C   UNL     1      15.348  13.547   7.092  1.00  0.00     0.006 C 
BRANCH   2   3
ATOM      3  C   UNL     1      16.373  14.410   7.837  1.00  0.00     0.053 C 
BRANCH   3   4
ATOM      4  C   UNL     1      16.155  15.859   7.535  1.00  0.00     0.041 C 
ATOM      5  O   UNL     1      16.929  16.465   6.748  1.00  0.00    -0.550 OA
ATOM      6  O   UNL     1      15.129  16.553   8.160  1.00  0.00    -0.550 OA
ENDBRANCH   3   4
ENDBRANCH   2   3
ENDBRANCH   1   2
BRANCH   1   7
ATOM      7  C   UNL     1      14.517  13.194   9.511  1.00  0.00     0.000 C 
BRANCH   7   8
ATOM      8  C   UNL     1      13.999  12.000  10.333  1.00  0.00    -0.000 C 
BRANCH   8   9
ATOM      9  C   UNL     1      15.002  11.529  11.403  1.00  0.00    -0.000 C 
BRANCH   9  10
ATOM     10  C   UNL     1      14.703  12.020  12.830  1.00  0.00    -0.003 C 
ATOM     11  C   UNL     1      13.387  12.789  12.936  1.00  0.00     0.004 C 
ENDBRANCH   9  10
ENDBRANCH   8   9
ENDBRANCH   7   8
ENDBRANCH   1   7
TORSDOF 7
ENDMDL
MODEL 4
REMARK VINA RESULT:    -2.951      3.085      5.346
REMARK INTER + INTRA:          -4.646
REMARK INTER:                  -4.190
REMARK INTRA:                  -0.457
REMARK UNBOUND:                -0.487
REMARK SMILES CCCCCCCCC(=O)[O-]
REMARK SMILES IDX 6 1 7 2 8 3 9 4 10 5 11 6 5 7 4 8 3 9 2 10 1 11
REMARK H PARENT
REMARK Flexibility Score: inf
ROOT
ATOM      1  C   UNL     1      14.175  12.631   9.956  1.00  0.00     0.000 C 
ENDROOT
BRANCH   1   2
ATOM      2  C   UNL     1      15.143  13.767   9.579  1.00  0.00     0.006 C 
BRANCH   2   3
ATOM      3  C   UNL     1      14.813  14.407   8.226  1.00  0.00     0.053 C 
BRANCH   3   4
ATOM      4  C   UNL     1      14.938  13.400   7.127  1.00  0.00     0.041 C 
ATOM      5  O   UNL     1      13.906  12.920   6.587  1.00  0.00    -0.550 OA
ATOM      6  O   UNL     1      16.192  12.954   6.731  1.00  0.00    -0.550 OA
ENDBRANCH   3   4
ENDBRANCH   2   3
ENDBRANCH   1   2
BRANCH   1   7
ATOM      7  C   UNL     1      13.959  12.478  11.477  1.00  0.00     0.000 C 
BRANCH   7   8
ATOM      8  C   UNL     1      14.998  13.268  12.295  1.00  0.00    -0.000 C 
BRANCH   8   9
ATOM      9  C   UNL     1      16.202  12.409  12.723  1.00  0.00    -0.000 C 
BRANCH   9  10
ATOM     10  C   UNL     1      15.946  10.892  12.724  1.00  0.00    -0.003 C 
ATOM     11  C   UNL     1      16.844  10.132  11.748  1.00  0.00     0.004 C 
ENDBRANCH   9  10
ENDBRANCH   8   9
ENDBRANCH   7   8
ENDBRANCH   1   7
TORSDOF 7
ENDMDL
MODEL 5
REMARK VINA RESULT:    -2.932      2.100      4.536
REMARK INTER + INTRA:          -4.620
REMARK INTER:                  -4.124
REMARK INTRA:                  -0.496
REMARK UNBOUND:                -0.487
REMARK SMILES CCCCCCCCC(=O)[O-]
REMARK SMILES IDX 6 1 7 2 8 3 9 4 10 5 11 6 5 7 4 8 3 9 2 10 1 11
REMARK H PARENT
REMARK Flexibility Score: inf
ROOT
ATOM      1  C   UNL     1      16.448  13.525   7.494  1.00  0.00     0.000 C 
ENDROOT
BRANCH   1   2
ATOM      2  C   UNL     1      17.075  14.931   7.477  1.00  0.00     0.006 C 
BRANCH   2   3
ATOM      3  C   UNL     1      16.028  16.051   7.470  1.00  0.00     0.053 C 
BRANCH   3   4
ATOM      4  C   UNL     1      16.034  16.781   8.775  1.00  0.00     0.041 C 
ATOM      5  O   UNL     1      16.386  16.190   9.830  1.00  0.00    -0.550 OA
ATOM      6  O   UNL     1      15.606  18.100   8.836  1.00  0.00    -0.550 OA
ENDBRANCH   3   4
ENDBRANCH   2   3
ENDBRANCH   1   2
BRANCH   1   7
ATOM      7  C   UNL     1      14.966  13.501   7.062  1.00  0.00     0.000 C 
BRANCH   7   8
ATOM      8  C   UNL     1      14.059  12.862   8.129  1.00  0.00    -0.000 C 
BRANCH   8   9
ATOM      9  C   UNL     1      14.490  13.208   9.567  1.00  0.00    -0.000 C 
BRANCH   9  10
ATOM     10  C   UNL     1      14.130  12.147  10.622  1.00  0.00    -0.003 C 
ATOM     11  C   UNL     1      13.790  12.749  11.985  1.00  0.00     0.004 C 
ENDBRANCH   9  10
ENDBRANCH   8   9
ENDBRANCH   7   8
ENDBRANCH   1   7
TORSDOF 7
ENDMDL
MODEL 6
REMARK VINA RESULT:    -2.867      3.303      4.866
REMARK INTER + INTRA:          -4.527
REMARK INTER:                  -4.359
REMARK INTRA:                  -0.169
REMARK UNBOUND:                -0.487
REMARK SMILES CCCCCCCCC(=O)[O-]
REMARK SMILES IDX 6 1 7 2 8 3 9 4 10 5 11 6 5 7 4 8 3 9 2 10 1 11
REMARK H PARENT
REMARK Flexibility Score: inf
ROOT
ATOM      1  C   UNL     1      15.175  16.884   8.242  1.00  0.00     0.000 C 
ENDROOT
BRANCH   1   2
ATOM      2  C   UNL     1      15.526  15.432   8.613  1.00  0.00     0.006 C 
BRANCH   2   3
ATOM      3  C   UNL     1      15.310  14.452   7.455  1.00  0.00     0.053 C 
BRANCH   3   4
ATOM      4  C   UNL     1      14.402  13.339   7.873  1.00  0.00     0.041 C 
ATOM      5  O   UNL     1      13.629  12.804   7.036  1.00  0.00    -0.550 OA
ATOM      6  O   UNL     1      14.374  12.926   9.198  1.00  0.00    -0.550 OA
ENDBRANCH   3   4
ENDBRANCH   2   3
ENDBRANCH   1   2
BRANCH   1   7
ATOM      7  C   UNL     1      16.100  17.933   8.896  1.00  0.00     0.000 C 
BRANCH   7   8
ATOM      8  C   UNL     1      15.724  18.206  10.364  1.00  0.00    -0.000 C 
BRANCH   8   9
ATOM      9  C   UNL     1      15.243  19.650  10.601  1.00  0.00    -0.000 C 
BRANCH   9  10
ATOM     10  C   UNL     1      14.204  19.809  11.726  1.00  0.00    -0.003 C 
ATOM     11  C   UNL     1      13.459  21.142  11.669  1.00  0.00     0.004 C 
ENDBRANCH   9  10
ENDBRANCH   8   9
ENDBRANCH   7   8
ENDBRANCH   1   7
TORSDOF 7
ENDMDL
MODEL 7
REMARK VINA RESULT:    -2.745      1.814      2.769
REMARK INTER + INTRA:          -4.355
REMARK INTER:                  -3.835
REMARK INTRA:                  -0.520
REMARK UNBOUND:                -0.487
REMARK SMILES CCCCCCCCC(=O)[O-]
REMARK SMILES IDX 6 1 7 2 8 3 9 4 10 5 11 6 5 7 4 8 3 9 2 10 1 11
REMARK H PARENT
REMARK Flexibility Score: inf
ROOT
ATOM      1  C   UNL     1      16.113  14.344  10.871  1.00  0.00     0.000 C 
ENDROOT
BRANCH   1   2
ATOM      2  C   UNL     1      16.705  12.948  10.609  1.00  0.00     0.006 C 
BRANCH   2   3
ATOM      3  C   UNL     1      16.020  11.846  11.425  1.00  0.00     0.053 C 
BRANCH   3   4
ATOM      4  C   UNL     1      14.538  12.051  11.440  1.00  0.00     0.041 C 
ATOM      5  O   UNL     1      13.946  12.313  12.520  1.00  0.00    -0.550 OA
ATOM      6  O   UNL     1      13.804  11.903  10.271  1.00  0.00    -0.550 OA
ENDBRANCH   3   4
ENDBRANCH   2   3
ENDBRANCH   1   2
BRANCH   1   7
ATOM      7  C   UNL     1      16.288  15.324   9.691  1.00  0.00     0.000 C 
BRANCH   7   8
ATOM      8  C   UNL     1      15.165  15.186   8.647  1.00  0.00    -0.000 C 
BRANCH   8   9
ATOM      9  C   UNL     1      15.657  14.598   7.311  1.00  0.00    -0.000 C 
BRANCH   9  10
ATOM     10  C   UNL     1      15.235  13.140   7.052  1.00  0.00    -0.003 C 
ATOM     11  C   UNL     1      13.719  12.948   7.046  1.00  0.00     0.004 C 
ENDBRANCH   9  10
ENDBRANCH   8   9
ENDBRANCH   7   8
ENDBRANCH   1   7
TORSDOF 7
ENDMDL
MODEL 8
REMARK VINA RESULT:    -2.707      3.148      4.448
REMARK INTER + INTRA:          -4.302
REMARK INTER:                  -3.776
REMARK INTRA:                  -0.526
REMARK UNBOUND:                -0.487
REMARK SMILES CCCCCCCCC(=O)[O-]
REMARK SMILES IDX 6 1 7 2 8 3 9 4 10 5 11 6 5 7 4 8 3 9 2 10 1 11
REMARK H PARENT
REMARK Flexibility Score: inf
ROOT
ATOM      1  C   UNL     1      14.678  11.933  11.296  1.00  0.00     0.000 C 
ENDROOT
BRANCH   1   2
ATOM      2  C   UNL     1      14.028  12.054   9.906  1.00  0.00     0.006 C 
BRANCH   2   3
ATOM      3  C   UNL     1      14.481  13.303   9.142  1.00  0.00     0.053 C 
BRANCH   3   4
ATOM      4  C   UNL     1      14.416  13.066   7.666  1.00  0.00     0.041 C 
ATOM      5  O   UNL     1      13.326  12.744   7.124  1.00  0.00    -0.550 OA
ATOM      6  O   UNL     1      15.567  13.153   6.896  1.00  0.00    -0.550 OA
ENDBRANCH   3   4
ENDBRANCH   2   3
ENDBRANCH   1   2
BRANCH   1   7
ATOM      7  C   UNL     1      14.390  13.134  12.222  1.00  0.00     0.000 C 
BRANCH   7   8
ATOM      8  C   UNL     1      15.617  13.526  13.066  1.00  0.00    -0.000 C 
BRANCH   8   9
ATOM      9  C   UNL     1      16.778  14.075  12.216  1.00  0.00    -0.000 C 
BRANCH   9  10
ATOM     10  C   UNL     1      16.467  15.380  11.462  1.00  0.00    -0.003 C 
ATOM     11  C   UNL     1      16.311  16.585  12.389  1.00  0.00     0.004 C 
ENDBRANCH   9  10
ENDBRANCH   8   9
ENDBRANCH   7   8
ENDBRANCH   1   7
TORSDOF 7
ENDMDL
MODEL 9
REMARK VINA RESULT:    -2.698      3.252      5.172
REMARK INTER + INTRA:          -4.289
REMARK INTER:                  -3.968
REMARK INTRA:                  -0.321
REMARK UNBOUND:                -0.487
REMARK SMILES CCCCCCCCC(=O)[O-]
REMARK SMILES IDX 6 1 7 2 8 3 9 4 10 5 11 6 5 7 4 8 3 9 2 10 1 11
REMARK H PARENT
REMARK Flexibility Score: inf
ROOT
ATOM      1  C   UNL     1      15.223  17.076   8.508  1.00  0.00     0.000 C 
ENDROOT
BRANCH   1   2
ATOM      2  C   UNL     1      15.929  18.290   9.136  1.00  0.00     0.006 C 
BRANCH   2   3
ATOM      3  C   UNL     1      15.728  18.378  10.653  1.00  0.00     0.053 C 
BRANCH   3   4
ATOM      4  C   UNL     1      14.929  19.593  11.005  1.00  0.00     0.041 C 
ATOM      5  O   UNL     1      15.357  20.740  10.709  1.00  0.00    -0.550 OA
ATOM      6  O   UNL     1      13.737  19.463  11.705  1.00  0.00    -0.550 OA
ENDBRANCH   3   4
ENDBRANCH   2   3
ENDBRANCH   1   2
BRANCH   1   7
ATOM      7  C   UNL     1      16.109  15.814   8.430  1.00  0.00     0.000 C 
BRANCH   7   8
ATOM      8  C   UNL     1      15.764  14.792   9.529  1.00  0.00    -0.000 C 
BRANCH   8   9
ATOM      9  C   UNL     1      15.041  13.546   8.983  1.00  0.00    -0.000 C 
BRANCH   9  10
ATOM     10  C   UNL     1      14.800  13.553   7.463  1.00  0.00    -0.003 C 
ATOM     11  C   UNL     1      13.533  12.801   7.054  1.00  0.00     0.004 C 
ENDBRANCH   9  10
ENDBRANCH   8   9
ENDBRANCH   7   8
ENDBRANCH   1   7
TORSDOF 7
ENDMDL
