MODEL 1
REMARK VINA RESULT:    -5.062      0.000      0.000
REMARK INTER + INTRA:         -15.687
REMARK INTER:                 -10.981
REMARK INTRA:                  -4.706
REMARK UNBOUND:                -4.706
REMARK SMILES C[C@@H]1O[C@@H](OC[C@@H]2O[C@H](Oc3c(-c4ccc(OCCO)c(OCCO)c4)oc4cc(OCCO)cc(O)c4c3=O)[C@H](O)[C@H](O)[C@@H]2O)[C@H](O)[C@H](O)[C@@H]1O
REMARK SMILES IDX 11 1 12 2 27 3 28 4 29 5 30 6 35 7 36 8 38 9 39 10 40 11
REMARK SMILES IDX 10 12 9 13 7 14 45 15 8 16 43 17 41 18 6 19 5 20 4 21 1 22
REMARK SMILES IDX 2 23 51 24 3 25 49 26 47 27 52 28 50 30 48 32 46 34 44 36
REMARK SMILES IDX 42 38 13 40 26 41 14 42 21 43 15 44 16 45 22 46 23 47 24 48
REMARK SMILES IDX 25 49 17 51 18 52 19 53 20 54 37 56 31 58 32 59 33 60 34 61
REMARK H PARENT 52 29 50 31 48 33 46 35 44 37 42 39 25 50 20 55 37 57 34 62
REMARK Flexibility Score: inf
ROOT
ATOM      1  C   UNL     1      67.625  -0.524  36.428  1.00  0.00     0.214 A 
ATOM      2  C   UNL     1      66.682  -0.201  37.399  1.00  0.00     0.180 A 
ATOM      3  O   UNL     1      67.129   0.299  38.555  1.00  0.00    -0.452 OA
ATOM      4  C   UNL     1      68.367   0.109  38.962  1.00  0.00     0.146 A 
ATOM      5  C   UNL     1      68.749   0.590  40.192  1.00  0.00     0.094 A 
ATOM      6  C   UNL     1      69.948   0.156  40.809  1.00  0.00     0.126 A 
ATOM      7  C   UNL     1      70.699  -0.828  40.152  1.00  0.00     0.093 A 
ATOM      8  C   UNL     1      70.358  -1.263  38.848  1.00  0.00     0.134 A 
ATOM      9  C   UNL     1      69.224  -0.739  38.214  1.00  0.00     0.111 A 
ATOM     10  C   UNL     1      68.816  -1.069  36.889  1.00  0.00     0.239 A 
ATOM     11  O   UNL     1      69.533  -1.758  36.112  1.00  0.00    -0.285 OA
ENDROOT
BRANCH   1  12
ATOM     12  O   UNL     1      67.527  -0.086  35.092  1.00  0.00    -0.454 OA
BRANCH  12  13
ATOM     13  C   UNL     1      67.525   1.322  34.813  1.00  0.00     0.339 C 
ATOM     14  C   UNL     1      68.896   3.233  34.698  1.00  0.00     0.180 C 
ATOM     15  C   UNL     1      67.860   3.921  33.732  1.00  0.00     0.177 C 
ATOM     16  O   UNL     1      68.847   1.819  34.783  1.00  0.00    -0.332 OA
ATOM     17  C   UNL     1      66.558   3.094  33.517  1.00  0.00     0.180 C 
ATOM     18  C   UNL     1      66.881   1.617  33.462  1.00  0.00     0.214 C 
BRANCH  14  19
ATOM     19  C   UNL     1      70.366   3.658  34.404  1.00  0.00     0.198 C 
BRANCH  19  20
ATOM     20  O   UNL     1      71.164   2.522  34.013  1.00  0.00    -0.347 OA
BRANCH  20  21
ATOM     21  C   UNL     1      72.550   2.656  34.415  1.00  0.00     0.281 C 
ATOM     22  C   UNL     1      74.752   0.061  34.943  1.00  0.00     0.041 C 
ATOM     23  C   UNL     1      73.353   0.365  34.384  1.00  0.00     0.150 C 
ATOM     24  C   UNL     1      72.228   0.107  35.406  1.00  0.00     0.174 C 
ATOM     25  O   UNL     1      73.335   1.657  33.778  1.00  0.00    -0.344 OA
ATOM     26  C   UNL     1      72.151   1.196  36.469  1.00  0.00     0.179 C 
ATOM     27  C   UNL     1      72.622   2.593  35.972  1.00  0.00     0.202 C 
BRANCH  24  28
ATOM     28  O   UNL     1      72.352  -1.189  35.971  1.00  0.00    -0.388 OA
ATOM     29  H   UNL     1      71.694  -1.239  36.715  1.00  0.00     0.211 HD
ENDBRANCH  24  28
BRANCH  26  30
ATOM     30  O   UNL     1      72.770   0.816  37.662  1.00  0.00    -0.387 OA
ATOM     31  H   UNL     1      72.098   0.442  38.263  1.00  0.00     0.211 HD
ENDBRANCH  26  30
BRANCH  27  32
ATOM     32  O   UNL     1      73.942   2.859  36.377  1.00  0.00    -0.385 OA
ATOM     33  H   UNL     1      74.443   2.030  36.173  1.00  0.00     0.211 HD
ENDBRANCH  27  32
ENDBRANCH  20  21
ENDBRANCH  19  20
ENDBRANCH  14  19
BRANCH  15  34
ATOM     34  O   UNL     1      68.481   4.295  32.496  1.00  0.00    -0.387 OA
ATOM     35  H   UNL     1      68.320   3.540  31.864  1.00  0.00     0.211 HD
ENDBRANCH  15  34
BRANCH  17  36
ATOM     36  O   UNL     1      65.917   3.517  32.342  1.00  0.00    -0.387 OA
ATOM     37  H   UNL     1      65.060   3.946  32.625  1.00  0.00     0.211 HD
ENDBRANCH  17  36
BRANCH  18  38
ATOM     38  O   UNL     1      67.774   1.381  32.385  1.00  0.00    -0.384 OA
ATOM     39  H   UNL     1      68.588   0.951  32.757  1.00  0.00     0.211 HD
ENDBRANCH  18  38
ENDBRANCH  12  13
ENDBRANCH   1  12
BRANCH   2  40
ATOM     40  C   UNL     1      65.281  -0.732  37.343  1.00  0.00     0.025 A 
ATOM     41  C   UNL     1      64.306   0.004  38.036  1.00  0.00     0.062 A 
ATOM     42  C   UNL     1      64.971  -2.070  37.001  1.00  0.00     0.016 A 
ATOM     43  C   UNL     1      63.143  -0.610  38.507  1.00  0.00     0.162 A 
ATOM     44  C   UNL     1      63.708  -2.622  37.301  1.00  0.00     0.051 A 
ATOM     45  C   UNL     1      62.811  -1.910  38.100  1.00  0.00     0.161 A 
BRANCH  43  46
ATOM     46  O   UNL     1      62.370   0.011  39.491  1.00  0.00    -0.487 OA
BRANCH  46  47
ATOM     47  C   UNL     1      62.809   0.259  40.809  1.00  0.00     0.258 C 
BRANCH  47  48
ATOM     48  C   UNL     1      62.092  -0.630  41.836  1.00  0.00     0.197 C 
BRANCH  48  49
ATOM     49  O   UNL     1      62.096  -1.976  41.436  1.00  0.00    -0.393 OA
ATOM     50  H   UNL     1      62.630  -2.467  42.105  1.00  0.00     0.210 HD
ENDBRANCH  48  49
ENDBRANCH  47  48
ENDBRANCH  46  47
ENDBRANCH  43  46
BRANCH  45  51
ATOM     51  O   UNL     1      61.600  -2.464  38.504  1.00  0.00    -0.487 OA
BRANCH  51  52
ATOM     52  C   UNL     1      60.388  -2.451  37.734  1.00  0.00     0.258 C 
BRANCH  52  53
ATOM     53  C   UNL     1      59.201  -1.940  38.570  1.00  0.00     0.197 C 
BRANCH  53  54
ATOM     54  O   UNL     1      59.619  -1.251  39.718  1.00  0.00    -0.393 OA
ATOM     55  H   UNL     1      60.508  -0.858  39.489  1.00  0.00     0.210 HD
ENDBRANCH  53  54
ENDBRANCH  52  53
ENDBRANCH  51  52
ENDBRANCH  45  51
ENDBRANCH   2  40
BRANCH   8  56
ATOM     56  O   UNL     1      71.086  -2.276  38.216  1.00  0.00    -0.507 OA
ATOM     57  H   UNL     1      71.587  -2.117  37.351  1.00  0.00     0.293 HD
ENDBRANCH   8  56
BRANCH   6  58
ATOM     58  O   UNL     1      70.337   0.606  42.075  1.00  0.00    -0.491 OA
BRANCH  58  59
ATOM     59  C   UNL     1      70.237  -0.196  43.255  1.00  0.00     0.257 C 
BRANCH  59  60
ATOM     60  C   UNL     1      68.785  -0.372  43.679  1.00  0.00     0.197 C 
BRANCH  60  61
ATOM     61  O   UNL     1      68.264  -1.604  43.248  1.00  0.00    -0.393 OA
ATOM     62  H   UNL     1      67.593  -1.423  42.541  1.00  0.00     0.210 HD
ENDBRANCH  60  61
ENDBRANCH  59  60
ENDBRANCH  58  59
ENDBRANCH   6  58
TORSDOF 25
ENDMDL
MODEL 2
REMARK VINA RESULT:    -4.910      1.615      2.281
REMARK INTER + INTRA:         -15.357
REMARK INTER:                 -10.670
REMARK INTRA:                  -4.687
REMARK UNBOUND:                -4.706
REMARK SMILES C[C@@H]1O[C@@H](OC[C@@H]2O[C@H](Oc3c(-c4ccc(OCCO)c(OCCO)c4)oc4cc(OCCO)cc(O)c4c3=O)[C@H](O)[C@H](O)[C@@H]2O)[C@H](O)[C@H](O)[C@@H]1O
REMARK SMILES IDX 11 1 12 2 27 3 28 4 29 5 30 6 35 7 36 8 38 9 39 10 40 11
REMARK SMILES IDX 10 12 9 13 7 14 45 15 8 16 43 17 41 18 6 19 5 20 4 21 1 22
REMARK SMILES IDX 2 23 51 24 3 25 49 26 47 27 52 28 50 30 48 32 46 34 44 36
REMARK SMILES IDX 42 38 13 40 26 41 14 42 21 43 15 44 16 45 22 46 23 47 24 48
REMARK SMILES IDX 25 49 17 51 18 52 19 53 20 54 37 56 31 58 32 59 33 60 34 61
REMARK H PARENT 52 29 50 31 48 33 46 35 44 37 42 39 25 50 20 55 37 57 34 62
REMARK Flexibility Score: inf
ROOT
ATOM      1  C   UNL     1      66.750  -0.187  35.487  1.00  0.00     0.214 A 
ATOM      2  C   UNL     1      66.289  -0.260  36.798  1.00  0.00     0.180 A 
ATOM      3  O   UNL     1      67.189  -0.131  37.779  1.00  0.00    -0.452 OA
ATOM      4  C   UNL     1      68.470  -0.360  37.580  1.00  0.00     0.146 A 
ATOM      5  C   UNL     1      69.337  -0.277  38.644  1.00  0.00     0.094 A 
ATOM      6  C   UNL     1      70.648  -0.807  38.564  1.00  0.00     0.126 A 
ATOM      7  C   UNL     1      71.011  -1.473  37.386  1.00  0.00     0.093 A 
ATOM      8  C   UNL     1      70.155  -1.486  36.256  1.00  0.00     0.134 A 
ATOM      9  C   UNL     1      68.903  -0.861  36.326  1.00  0.00     0.111 A 
ATOM     10  C   UNL     1      67.985  -0.772  35.240  1.00  0.00     0.239 A 
ATOM     11  O   UNL     1      68.289  -1.122  34.066  1.00  0.00    -0.285 OA
ENDROOT
BRANCH   1  12
ATOM     12  O   UNL     1      66.166   0.652  34.516  1.00  0.00    -0.454 OA
BRANCH  12  13
ATOM     13  C   UNL     1      66.218   2.075  34.696  1.00  0.00     0.339 C 
ATOM     14  C   UNL     1      67.613   3.853  35.357  1.00  0.00     0.180 C 
ATOM     15  C   UNL     1      66.724   4.860  34.536  1.00  0.00     0.177 C 
ATOM     16  O   UNL     1      67.537   2.486  34.987  1.00  0.00    -0.332 OA
ATOM     17  C   UNL     1      65.453   4.210  33.914  1.00  0.00     0.180 C 
ATOM     18  C   UNL     1      65.763   2.807  33.438  1.00  0.00     0.214 C 
BRANCH  14  19
ATOM     19  C   UNL     1      69.114   4.269  35.395  1.00  0.00     0.198 C 
BRANCH  19  20
ATOM     20  O   UNL     1      69.957   3.214  34.888  1.00  0.00    -0.347 OA
BRANCH  20  21
ATOM     21  C   UNL     1      70.631   3.587  33.661  1.00  0.00     0.281 C 
ATOM     22  C   UNL     1      70.783   1.689  30.791  1.00  0.00     0.041 C 
ATOM     23  C   UNL     1      70.085   1.759  32.160  1.00  0.00     0.150 C 
ATOM     24  C   UNL     1      70.761   0.871  33.224  1.00  0.00     0.174 C 
ATOM     25  O   UNL     1      69.890   3.120  32.543  1.00  0.00    -0.344 OA
ATOM     26  C   UNL     1      72.061   1.475  33.741  1.00  0.00     0.179 C 
ATOM     27  C   UNL     1      72.088   3.030  33.708  1.00  0.00     0.202 C 
BRANCH  24  28
ATOM     28  O   UNL     1      70.937  -0.450  32.735  1.00  0.00    -0.388 OA
ATOM     29  H   UNL     1      70.377  -1.041  33.307  1.00  0.00     0.211 HD
ENDBRANCH  24  28
BRANCH  26  30
ATOM     30  O   UNL     1      73.185   0.907  33.138  1.00  0.00    -0.387 OA
ATOM     31  H   UNL     1      73.921   0.904  33.778  1.00  0.00     0.211 HD
ENDBRANCH  26  30
BRANCH  27  32
ATOM     32  O   UNL     1      72.790   3.503  32.585  1.00  0.00    -0.385 OA
ATOM     33  H   UNL     1      72.095   3.875  31.987  1.00  0.00     0.211 HD
ENDBRANCH  27  32
ENDBRANCH  20  21
ENDBRANCH  19  20
ENDBRANCH  14  19
BRANCH  15  34
ATOM     34  O   UNL     1      67.508   5.565  33.566  1.00  0.00    -0.387 OA
ATOM     35  H   UNL     1      66.862   5.939  32.905  1.00  0.00     0.211 HD
ENDBRANCH  15  34
BRANCH  17  36
ATOM     36  O   UNL     1      64.979   5.009  32.861  1.00  0.00    -0.387 OA
ATOM     37  H   UNL     1      64.162   5.472  33.202  1.00  0.00     0.211 HD
ENDBRANCH  17  36
BRANCH  18  38
ATOM     38  O   UNL     1      66.790   2.870  32.460  1.00  0.00    -0.384 OA
ATOM     39  H   UNL     1      67.238   3.751  32.550  1.00  0.00     0.211 HD
ENDBRANCH  18  38
ENDBRANCH  12  13
ENDBRANCH   1  12
BRANCH   2  40
ATOM     40  C   UNL     1      64.946  -0.835  37.129  1.00  0.00     0.025 A 
ATOM     41  C   UNL     1      64.057   0.007  37.817  1.00  0.00     0.062 A 
ATOM     42  C   UNL     1      64.682  -2.226  37.156  1.00  0.00     0.016 A 
ATOM     43  C   UNL     1      63.048  -0.521  38.626  1.00  0.00     0.162 A 
ATOM     44  C   UNL     1      63.539  -2.736  37.806  1.00  0.00     0.051 A 
ATOM     45  C   UNL     1      62.748  -1.890  38.586  1.00  0.00     0.161 A 
BRANCH  43  46
ATOM     46  O   UNL     1      62.418   0.284  39.579  1.00  0.00    -0.487 OA
BRANCH  46  47
ATOM     47  C   UNL     1      63.006   0.678  40.800  1.00  0.00     0.258 C 
BRANCH  47  48
ATOM     48  C   UNL     1      62.486  -0.145  41.987  1.00  0.00     0.197 C 
BRANCH  48  49
ATOM     49  O   UNL     1      63.029  -1.441  41.986  1.00  0.00    -0.393 OA
ATOM     50  H   UNL     1      62.276  -2.063  42.119  1.00  0.00     0.210 HD
ENDBRANCH  48  49
ENDBRANCH  47  48
ENDBRANCH  46  47
ENDBRANCH  43  46
BRANCH  45  51
ATOM     51  O   UNL     1      61.675  -2.377  39.327  1.00  0.00    -0.487 OA
BRANCH  51  52
ATOM     52  C   UNL     1      60.304  -2.359  38.902  1.00  0.00     0.258 C 
BRANCH  52  53
ATOM     53  C   UNL     1      59.406  -1.664  39.941  1.00  0.00     0.197 C 
BRANCH  53  54
ATOM     54  O   UNL     1      59.573  -0.272  39.938  1.00  0.00    -0.393 OA
ATOM     55  H   UNL     1      58.656   0.112  40.034  1.00  0.00     0.210 HD
ENDBRANCH  53  54
ENDBRANCH  52  53
ENDBRANCH  51  52
ENDBRANCH  45  51
ENDBRANCH   2  40
BRANCH   8  56
ATOM     56  O   UNL     1      70.503  -2.188  35.100  1.00  0.00    -0.507 OA
ATOM     57  H   UNL     1      70.518  -1.748  34.187  1.00  0.00     0.293 HD
ENDBRANCH   8  56
BRANCH   6  58
ATOM     58  O   UNL     1      71.534  -0.766  39.647  1.00  0.00    -0.491 OA
BRANCH  58  59
ATOM     59  C   UNL     1      71.375   0.126  40.754  1.00  0.00     0.257 C 
BRANCH  59  60
ATOM     60  C   UNL     1      71.208  -0.641  42.058  1.00  0.00     0.197 C 
BRANCH  60  61
ATOM     61  O   UNL     1      70.208  -1.623  41.959  1.00  0.00    -0.393 OA
ATOM     62  H   UNL     1      69.461  -1.248  41.426  1.00  0.00     0.210 HD
ENDBRANCH  60  61
ENDBRANCH  59  60
ENDBRANCH  58  59
ENDBRANCH   6  58
TORSDOF 25
ENDMDL
MODEL 3
REMARK VINA RESULT:    -4.893      3.626      6.404
REMARK INTER + INTRA:         -15.321
REMARK INTER:                 -10.908
REMARK INTRA:                  -4.413
REMARK UNBOUND:                -4.706
REMARK SMILES C[C@@H]1O[C@@H](OC[C@@H]2O[C@H](Oc3c(-c4ccc(OCCO)c(OCCO)c4)oc4cc(OCCO)cc(O)c4c3=O)[C@H](O)[C@H](O)[C@@H]2O)[C@H](O)[C@H](O)[C@@H]1O
REMARK SMILES IDX 11 1 12 2 27 3 28 4 29 5 30 6 35 7 36 8 38 9 39 10 40 11
REMARK SMILES IDX 10 12 9 13 7 14 45 15 8 16 43 17 41 18 6 19 5 20 4 21 1 22
REMARK SMILES IDX 2 23 51 24 3 25 49 26 47 27 52 28 50 30 48 32 46 34 44 36
REMARK SMILES IDX 42 38 13 40 26 41 14 42 21 43 15 44 16 45 22 46 23 47 24 48
REMARK SMILES IDX 25 49 17 51 18 52 19 53 20 54 37 56 31 58 32 59 33 60 34 61
REMARK H PARENT 52 29 50 31 48 33 46 35 44 37 42 39 25 50 20 55 37 57 34 62
REMARK Flexibility Score: inf
ROOT
ATOM      1  C   UNL     1      68.626   0.298  36.751  1.00  0.00     0.214 A 
ATOM      2  C   UNL     1      69.138  -0.996  36.776  1.00  0.00     0.180 A 
ATOM      3  O   UNL     1      69.342  -1.559  37.972  1.00  0.00    -0.452 OA
ATOM      4  C   UNL     1      69.485  -0.837  39.064  1.00  0.00     0.146 A 
ATOM      5  C   UNL     1      69.760  -1.470  40.252  1.00  0.00     0.094 A 
ATOM      6  C   UNL     1      70.225  -0.745  41.378  1.00  0.00     0.126 A 
ATOM      7  C   UNL     1      70.454   0.628  41.219  1.00  0.00     0.093 A 
ATOM      8  C   UNL     1      70.090   1.300  40.026  1.00  0.00     0.134 A 
ATOM      9  C   UNL     1      69.532   0.577  38.963  1.00  0.00     0.111 A 
ATOM     10  C   UNL     1      69.087   1.157  37.740  1.00  0.00     0.239 A 
ATOM     11  O   UNL     1      69.021   2.405  37.567  1.00  0.00    -0.285 OA
ENDROOT
BRANCH   1  12
ATOM     12  O   UNL     1      67.513   0.664  35.968  1.00  0.00    -0.454 OA
BRANCH  12  13
ATOM     13  C   UNL     1      67.651   1.715  35.000  1.00  0.00     0.339 C 
ATOM     14  C   UNL     1      69.115   2.645  33.407  1.00  0.00     0.180 C 
ATOM     15  C   UNL     1      67.892   3.296  32.659  1.00  0.00     0.177 C 
ATOM     16  O   UNL     1      68.833   1.539  34.248  1.00  0.00    -0.332 OA
ATOM     17  C   UNL     1      66.533   3.102  33.394  1.00  0.00     0.180 C 
ATOM     18  C   UNL     1      66.473   1.731  34.030  1.00  0.00     0.214 C 
BRANCH  14  19
ATOM     19  C   UNL     1      70.268   2.246  32.439  1.00  0.00     0.198 C 
BRANCH  19  20
ATOM     20  O   UNL     1      71.554   2.589  32.997  1.00  0.00    -0.347 OA
BRANCH  20  21
ATOM     21  C   UNL     1      71.467   3.668  33.961  1.00  0.00     0.281 C 
ATOM     22  C   UNL     1      74.114   5.530  35.139  1.00  0.00     0.041 C 
ATOM     23  C   UNL     1      73.749   4.491  34.067  1.00  0.00     0.150 C 
ATOM     24  C   UNL     1      74.099   3.049  34.485  1.00  0.00     0.174 C 
ATOM     25  O   UNL     1      72.404   4.685  33.632  1.00  0.00    -0.344 OA
ATOM     26  C   UNL     1      73.119   2.488  35.508  1.00  0.00     0.179 C 
ATOM     27  C   UNL     1      71.682   3.074  35.388  1.00  0.00     0.202 C 
BRANCH  24  28
ATOM     28  O   UNL     1      75.446   2.969  34.928  1.00  0.00    -0.388 OA
ATOM     29  H   UNL     1      75.939   3.701  34.470  1.00  0.00     0.211 HD
ENDBRANCH  24  28
BRANCH  26  30
ATOM     30  O   UNL     1      73.617   2.556  36.811  1.00  0.00    -0.387 OA
ATOM     31  H   UNL     1      73.856   3.480  37.012  1.00  0.00     0.211 HD
ENDBRANCH  26  30
BRANCH  27  32
ATOM     32  O   UNL     1      71.465   4.087  36.338  1.00  0.00    -0.385 OA
ATOM     33  H   UNL     1      71.181   4.875  35.811  1.00  0.00     0.211 HD
ENDBRANCH  27  32
ENDBRANCH  20  21
ENDBRANCH  19  20
ENDBRANCH  14  19
BRANCH  15  34
ATOM     34  O   UNL     1      67.840   2.871  31.292  1.00  0.00    -0.387 OA
ATOM     35  H   UNL     1      68.774   2.622  31.043  1.00  0.00     0.211 HD
ENDBRANCH  15  34
BRANCH  17  36
ATOM     36  O   UNL     1      65.475   3.287  32.489  1.00  0.00    -0.387 OA
ATOM     37  H   UNL     1      64.943   2.442  32.499  1.00  0.00     0.211 HD
ENDBRANCH  17  36
BRANCH  18  38
ATOM     38  O   UNL     1      66.608   0.747  33.016  1.00  0.00    -0.384 OA
ATOM     39  H   UNL     1      66.767  -0.126  33.462  1.00  0.00     0.211 HD
ENDBRANCH  18  38
ENDBRANCH  12  13
ENDBRANCH   1  12
BRANCH   2  40
ATOM     40  C   UNL     1      69.799  -1.605  35.576  1.00  0.00     0.025 A 
ATOM     41  C   UNL     1      71.083  -1.130  35.262  1.00  0.00     0.062 A 
ATOM     42  C   UNL     1      69.087  -2.289  34.561  1.00  0.00     0.016 A 
ATOM     43  C   UNL     1      71.571  -1.191  33.954  1.00  0.00     0.162 A 
ATOM     44  C   UNL     1      69.672  -2.527  33.300  1.00  0.00     0.051 A 
ATOM     45  C   UNL     1      70.894  -1.934  32.978  1.00  0.00     0.161 A 
BRANCH  43  46
ATOM     46  O   UNL     1      72.661  -0.405  33.575  1.00  0.00    -0.487 OA
BRANCH  46  47
ATOM     47  C   UNL     1      74.011  -0.785  33.739  1.00  0.00     0.258 C 
BRANCH  47  48
ATOM     48  C   UNL     1      74.503  -0.573  35.178  1.00  0.00     0.197 C 
BRANCH  48  49
ATOM     49  O   UNL     1      75.783   0.006  35.198  1.00  0.00    -0.393 OA
ATOM     50  H   UNL     1      75.720   0.847  34.688  1.00  0.00     0.210 HD
ENDBRANCH  48  49
ENDBRANCH  47  48
ENDBRANCH  46  47
ENDBRANCH  43  46
BRANCH  45  51
ATOM     51  O   UNL     1      71.450  -2.060  31.708  1.00  0.00    -0.487 OA
BRANCH  51  52
ATOM     52  C   UNL     1      71.057  -1.299  30.555  1.00  0.00     0.258 C 
BRANCH  52  53
ATOM     53  C   UNL     1      72.237  -0.489  29.991  1.00  0.00     0.197 C 
BRANCH  53  54
ATOM     54  O   UNL     1      72.569   0.602  30.807  1.00  0.00    -0.393 OA
ATOM     55  H   UNL     1      72.885   1.318  30.187  1.00  0.00     0.210 HD
ENDBRANCH  53  54
ENDBRANCH  52  53
ENDBRANCH  51  52
ENDBRANCH  45  51
ENDBRANCH   2  40
BRANCH   8  56
ATOM     56  O   UNL     1      70.361   2.661  39.857  1.00  0.00    -0.507 OA
ATOM     57  H   UNL     1      70.051   3.173  39.040  1.00  0.00     0.293 HD
ENDBRANCH   8  56
BRANCH   6  58
ATOM     58  O   UNL     1      70.546  -1.374  42.586  1.00  0.00    -0.491 OA
BRANCH  58  59
ATOM     59  C   UNL     1      69.653  -2.260  43.267  1.00  0.00     0.257 C 
BRANCH  59  60
ATOM     60  C   UNL     1      68.409  -1.524  43.747  1.00  0.00     0.197 C 
BRANCH  60  61
ATOM     61  O   UNL     1      67.304  -2.386  43.852  1.00  0.00    -0.393 OA
ATOM     62  H   UNL     1      66.607  -2.068  43.223  1.00  0.00     0.210 HD
ENDBRANCH  60  61
ENDBRANCH  59  60
ENDBRANCH  58  59
ENDBRANCH   6  58
TORSDOF 25
ENDMDL
MODEL 4
REMARK VINA RESULT:    -4.829      2.415      4.311
REMARK INTER + INTRA:         -15.180
REMARK INTER:                 -10.404
REMARK INTRA:                  -4.777
REMARK UNBOUND:                -4.706
REMARK SMILES C[C@@H]1O[C@@H](OC[C@@H]2O[C@H](Oc3c(-c4ccc(OCCO)c(OCCO)c4)oc4cc(OCCO)cc(O)c4c3=O)[C@H](O)[C@H](O)[C@@H]2O)[C@H](O)[C@H](O)[C@@H]1O
REMARK SMILES IDX 11 1 12 2 27 3 28 4 29 5 30 6 35 7 36 8 38 9 39 10 40 11
REMARK SMILES IDX 10 12 9 13 7 14 45 15 8 16 43 17 41 18 6 19 5 20 4 21 1 22
REMARK SMILES IDX 2 23 51 24 3 25 49 26 47 27 52 28 50 30 48 32 46 34 44 36
REMARK SMILES IDX 42 38 13 40 26 41 14 42 21 43 15 44 16 45 22 46 23 47 24 48
REMARK SMILES IDX 25 49 17 51 18 52 19 53 20 54 37 56 31 58 32 59 33 60 34 61
REMARK H PARENT 52 29 50 31 48 33 46 35 44 37 42 39 25 50 20 55 37 57 34 62
REMARK Flexibility Score: inf
ROOT
ATOM      1  C   UNL     1      65.508   0.285  35.678  1.00  0.00     0.214 A 
ATOM      2  C   UNL     1      65.656  -0.131  36.998  1.00  0.00     0.180 A 
ATOM      3  O   UNL     1      66.891  -0.142  37.510  1.00  0.00    -0.452 OA
ATOM      4  C   UNL     1      67.960  -0.192  36.743  1.00  0.00     0.146 A 
ATOM      5  C   UNL     1      69.201  -0.269  37.329  1.00  0.00     0.094 A 
ATOM      6  C   UNL     1      70.345  -0.634  36.578  1.00  0.00     0.126 A 
ATOM      7  C   UNL     1      70.159  -0.974  35.231  1.00  0.00     0.093 A 
ATOM      8  C   UNL     1      68.901  -0.812  34.601  1.00  0.00     0.134 A 
ATOM      9  C   UNL     1      67.807  -0.347  35.342  1.00  0.00     0.111 A 
ATOM     10  C   UNL     1      66.512  -0.103  34.799  1.00  0.00     0.239 A 
ATOM     11  O   UNL     1      66.278  -0.143  33.559  1.00  0.00    -0.285 OA
ENDROOT
BRANCH   1  12
ATOM     12  O   UNL     1      64.572   1.262  35.284  1.00  0.00    -0.454 OA
BRANCH  12  13
ATOM     13  C   UNL     1      64.973   2.639  35.234  1.00  0.00     0.339 C 
ATOM     14  C   UNL     1      66.759   4.110  35.671  1.00  0.00     0.180 C 
ATOM     15  C   UNL     1      66.156   5.149  34.652  1.00  0.00     0.177 C 
ATOM     16  O   UNL     1      66.350   2.761  35.523  1.00  0.00    -0.332 OA
ATOM     17  C   UNL     1      64.770   4.731  34.079  1.00  0.00     0.180 C 
ATOM     18  C   UNL     1      64.727   3.236  33.852  1.00  0.00     0.214 C 
BRANCH  14  19
ATOM     19  C   UNL     1      68.316   4.150  35.718  1.00  0.00     0.198 C 
BRANCH  19  20
ATOM     20  O   UNL     1      68.886   3.329  34.678  1.00  0.00    -0.347 OA
BRANCH  20  21
ATOM     21  C   UNL     1      70.239   3.725  34.342  1.00  0.00     0.281 C 
ATOM     22  C   UNL     1      71.242   5.118  31.356  1.00  0.00     0.041 C 
ATOM     23  C   UNL     1      69.982   4.736  32.149  1.00  0.00     0.150 C 
ATOM     24  C   UNL     1      69.409   3.364  31.741  1.00  0.00     0.174 C 
ATOM     25  O   UNL     1      70.211   4.904  33.547  1.00  0.00    -0.344 OA
ATOM     26  C   UNL     1      70.232   2.206  32.292  1.00  0.00     0.179 C 
ATOM     27  C   UNL     1      70.946   2.527  33.637  1.00  0.00     0.202 C 
BRANCH  24  28
ATOM     28  O   UNL     1      69.247   3.288  30.333  1.00  0.00    -0.388 OA
ATOM     29  H   UNL     1      68.427   2.747  30.170  1.00  0.00     0.211 HD
ENDBRANCH  24  28
BRANCH  26  30
ATOM     30  O   UNL     1      71.102   1.673  31.338  1.00  0.00    -0.387 OA
ATOM     31  H   UNL     1      70.870   0.738  31.184  1.00  0.00     0.211 HD
ENDBRANCH  26  30
BRANCH  27  32
ATOM     32  O   UNL     1      72.297   2.855  33.429  1.00  0.00    -0.385 OA
ATOM     33  H   UNL     1      72.278   3.708  32.927  1.00  0.00     0.211 HD
ENDBRANCH  27  32
ENDBRANCH  20  21
ENDBRANCH  19  20
ENDBRANCH  14  19
BRANCH  15  34
ATOM     34  O   UNL     1      67.100   5.468  33.624  1.00  0.00    -0.387 OA
ATOM     35  H   UNL     1      66.657   6.145  33.040  1.00  0.00     0.211 HD
ENDBRANCH  15  34
BRANCH  17  36
ATOM     36  O   UNL     1      64.519   5.432  32.888  1.00  0.00    -0.387 OA
ATOM     37  H   UNL     1      64.008   4.811  32.296  1.00  0.00     0.211 HD
ENDBRANCH  17  36
BRANCH  18  38
ATOM     38  O   UNL     1      65.747   2.881  32.931  1.00  0.00    -0.384 OA
ATOM     39  H   UNL     1      65.679   1.905  32.767  1.00  0.00     0.211 HD
ENDBRANCH  18  38
ENDBRANCH  12  13
ENDBRANCH   1  12
BRANCH   2  40
ATOM     40  C   UNL     1      64.581  -0.897  37.706  1.00  0.00     0.025 A 
ATOM     41  C   UNL     1      63.906  -1.871  36.951  1.00  0.00     0.062 A 
ATOM     42  C   UNL     1      63.960  -0.445  38.896  1.00  0.00     0.016 A 
ATOM     43  C   UNL     1      62.604  -2.257  37.278  1.00  0.00     0.162 A 
ATOM     44  C   UNL     1      62.735  -0.993  39.328  1.00  0.00     0.051 A 
ATOM     45  C   UNL     1      62.029  -1.862  38.494  1.00  0.00     0.161 A 
BRANCH  43  46
ATOM     46  O   UNL     1      61.814  -2.927  36.340  1.00  0.00    -0.487 OA
BRANCH  46  47
ATOM     47  C   UNL     1      61.574  -2.466  35.028  1.00  0.00     0.258 C 
BRANCH  47  48
ATOM     48  C   UNL     1      60.899  -1.087  35.011  1.00  0.00     0.197 C 
BRANCH  48  49
ATOM     49  O   UNL     1      61.827  -0.069  34.733  1.00  0.00    -0.393 OA
ATOM     50  H   UNL     1      61.496   0.403  33.932  1.00  0.00     0.210 HD
ENDBRANCH  48  49
ENDBRANCH  47  48
ENDBRANCH  46  47
ENDBRANCH  43  46
BRANCH  45  51
ATOM     51  O   UNL     1      60.768  -2.340  38.841  1.00  0.00    -0.487 OA
BRANCH  51  52
ATOM     52  C   UNL     1      59.556  -1.573  38.800  1.00  0.00     0.258 C 
BRANCH  52  53
ATOM     53  C   UNL     1      58.419  -2.361  38.126  1.00  0.00     0.197 C 
BRANCH  53  54
ATOM     54  O   UNL     1      58.875  -3.125  37.042  1.00  0.00    -0.393 OA
ATOM     55  H   UNL     1      59.237  -3.967  37.437  1.00  0.00     0.210 HD
ENDBRANCH  53  54
ENDBRANCH  52  53
ENDBRANCH  51  52
ENDBRANCH  45  51
ENDBRANCH   2  40
BRANCH   8  56
ATOM     56  O   UNL     1      68.711  -1.194  33.270  1.00  0.00    -0.507 OA
ATOM     57  H   UNL     1      68.934  -0.577  32.497  1.00  0.00     0.293 HD
ENDBRANCH   8  56
BRANCH   6  58
ATOM     58  O   UNL     1      71.611  -0.755  37.163  1.00  0.00    -0.491 OA
BRANCH  58  59
ATOM     59  C   UNL     1      72.761  -0.047  36.691  1.00  0.00     0.257 C 
BRANCH  59  60
ATOM     60  C   UNL     1      72.532   1.458  36.724  1.00  0.00     0.197 C 
BRANCH  60  61
ATOM     61  O   UNL     1      73.619   2.161  36.177  1.00  0.00    -0.393 OA
ATOM     62  H   UNL     1      74.304   1.501  35.901  1.00  0.00     0.210 HD
ENDBRANCH  60  61
ENDBRANCH  59  60
ENDBRANCH  58  59
ENDBRANCH   6  58
TORSDOF 25
ENDMDL
MODEL 5
REMARK VINA RESULT:    -4.762      1.808      2.720
REMARK INTER + INTRA:         -15.035
REMARK INTER:                 -11.044
REMARK INTRA:                  -3.991
REMARK UNBOUND:                -4.706
REMARK SMILES C[C@@H]1O[C@@H](OC[C@@H]2O[C@H](Oc3c(-c4ccc(OCCO)c(OCCO)c4)oc4cc(OCCO)cc(O)c4c3=O)[C@H](O)[C@H](O)[C@@H]2O)[C@H](O)[C@H](O)[C@@H]1O
REMARK SMILES IDX 11 1 12 2 27 3 28 4 29 5 30 6 35 7 36 8 38 9 39 10 40 11
REMARK SMILES IDX 10 12 9 13 7 14 45 15 8 16 43 17 41 18 6 19 5 20 4 21 1 22
REMARK SMILES IDX 2 23 51 24 3 25 49 26 47 27 52 28 50 30 48 32 46 34 44 36
REMARK SMILES IDX 42 38 13 40 26 41 14 42 21 43 15 44 16 45 22 46 23 47 24 48
REMARK SMILES IDX 25 49 17 51 18 52 19 53 20 54 37 56 31 58 32 59 33 60 34 61
REMARK H PARENT 52 29 50 31 48 33 46 35 44 37 42 39 25 50 20 55 37 57 34 62
REMARK Flexibility Score: inf
ROOT
ATOM      1  C   UNL     1      66.710  -0.312  35.411  1.00  0.00     0.214 A 
ATOM      2  C   UNL     1      66.153  -0.501  36.672  1.00  0.00     0.180 A 
ATOM      3  O   UNL     1      66.960  -0.376  37.731  1.00  0.00    -0.452 OA
ATOM      4  C   UNL     1      68.266  -0.504  37.628  1.00  0.00     0.146 A 
ATOM      5  C   UNL     1      69.037  -0.432  38.764  1.00  0.00     0.094 A 
ATOM      6  C   UNL     1      70.386  -0.865  38.762  1.00  0.00     0.126 A 
ATOM      7  C   UNL     1      70.889  -1.427  37.581  1.00  0.00     0.093 A 
ATOM      8  C   UNL     1      70.129  -1.423  36.385  1.00  0.00     0.134 A 
ATOM      9  C   UNL     1      68.833  -0.891  36.386  1.00  0.00     0.111 A 
ATOM     10  C   UNL     1      68.000  -0.793  35.234  1.00  0.00     0.239 A 
ATOM     11  O   UNL     1      68.422  -1.045  34.071  1.00  0.00    -0.285 OA
ENDROOT
BRANCH   1  12
ATOM     12  O   UNL     1      66.145   0.547  34.446  1.00  0.00    -0.454 OA
BRANCH  12  13
ATOM     13  C   UNL     1      66.198   1.967  34.655  1.00  0.00     0.339 C 
ATOM     14  C   UNL     1      67.591   3.730  35.358  1.00  0.00     0.180 C 
ATOM     15  C   UNL     1      66.707   4.754  34.552  1.00  0.00     0.177 C 
ATOM     16  O   UNL     1      67.515   2.371  34.960  1.00  0.00    -0.332 OA
ATOM     17  C   UNL     1      65.439   4.117  33.910  1.00  0.00     0.180 C 
ATOM     18  C   UNL     1      65.749   2.724  33.408  1.00  0.00     0.214 C 
BRANCH  14  19
ATOM     19  C   UNL     1      69.092   4.144  35.412  1.00  0.00     0.198 C 
BRANCH  19  20
ATOM     20  O   UNL     1      69.935   3.107  34.869  1.00  0.00    -0.347 OA
BRANCH  20  21
ATOM     21  C   UNL     1      70.593   3.514  33.644  1.00  0.00     0.281 C 
ATOM     22  C   UNL     1      70.815   1.643  30.761  1.00  0.00     0.041 C 
ATOM     23  C   UNL     1      70.117   1.677  32.131  1.00  0.00     0.150 C 
ATOM     24  C   UNL     1      70.827   0.808  33.189  1.00  0.00     0.174 C 
ATOM     25  O   UNL     1      69.869   3.026  32.523  1.00  0.00    -0.344 OA
ATOM     26  C   UNL     1      72.104   1.459  33.708  1.00  0.00     0.179 C 
ATOM     27  C   UNL     1      72.070   3.015  33.685  1.00  0.00     0.202 C 
BRANCH  24  28
ATOM     28  O   UNL     1      71.054  -0.502  32.691  1.00  0.00    -0.388 OA
ATOM     29  H   UNL     1      70.199  -0.801  32.281  1.00  0.00     0.211 HD
ENDBRANCH  24  28
BRANCH  26  30
ATOM     30  O   UNL     1      73.249   0.939  33.100  1.00  0.00    -0.387 OA
ATOM     31  H   UNL     1      72.980   0.341  32.378  1.00  0.00     0.211 HD
ENDBRANCH  26  30
BRANCH  27  32
ATOM     32  O   UNL     1      72.752   3.521  32.565  1.00  0.00    -0.385 OA
ATOM     33  H   UNL     1      73.703   3.293  32.721  1.00  0.00     0.211 HD
ENDBRANCH  27  32
ENDBRANCH  20  21
ENDBRANCH  19  20
ENDBRANCH  14  19
BRANCH  15  34
ATOM     34  O   UNL     1      67.496   5.477  33.600  1.00  0.00    -0.387 OA
ATOM     35  H   UNL     1      68.349   4.968  33.502  1.00  0.00     0.211 HD
ENDBRANCH  15  34
BRANCH  17  36
ATOM     36  O   UNL     1      64.971   4.938  32.871  1.00  0.00    -0.387 OA
ATOM     37  H   UNL     1      64.229   4.437  32.427  1.00  0.00     0.211 HD
ENDBRANCH  17  36
BRANCH  18  38
ATOM     38  O   UNL     1      66.782   2.805  32.437  1.00  0.00    -0.384 OA
ATOM     39  H   UNL     1      67.280   1.947  32.455  1.00  0.00     0.211 HD
ENDBRANCH  18  38
ENDBRANCH  12  13
ENDBRANCH   1  12
BRANCH   2  40
ATOM     40  C   UNL     1      64.833  -1.187  36.854  1.00  0.00     0.025 A 
ATOM     41  C   UNL     1      63.711  -0.355  37.004  1.00  0.00     0.062 A 
ATOM     42  C   UNL     1      64.710  -2.535  37.272  1.00  0.00     0.016 A 
ATOM     43  C   UNL     1      62.575  -0.799  37.685  1.00  0.00     0.162 A 
ATOM     44  C   UNL     1      63.488  -3.030  37.771  1.00  0.00     0.051 A 
ATOM     45  C   UNL     1      62.434  -2.151  38.027  1.00  0.00     0.161 A 
BRANCH  43  46
ATOM     46  O   UNL     1      61.632   0.121  38.150  1.00  0.00    -0.487 OA
BRANCH  46  47
ATOM     47  C   UNL     1      60.666   0.750  37.335  1.00  0.00     0.258 C 
BRANCH  47  48
ATOM     48  C   UNL     1      60.243  -0.131  36.150  1.00  0.00     0.197 C 
BRANCH  48  49
ATOM     49  O   UNL     1      60.284   0.586  34.942  1.00  0.00    -0.393 OA
ATOM     50  H   UNL     1      59.436   0.398  34.475  1.00  0.00     0.210 HD
ENDBRANCH  48  49
ENDBRANCH  47  48
ENDBRANCH  46  47
ENDBRANCH  43  46
BRANCH  45  51
ATOM     51  O   UNL     1      61.251  -2.586  38.618  1.00  0.00    -0.487 OA
BRANCH  51  52
ATOM     52  C   UNL     1      61.135  -3.093  39.955  1.00  0.00     0.258 C 
BRANCH  52  53
ATOM     53  C   UNL     1      61.147  -1.952  40.988  1.00  0.00     0.197 C 
BRANCH  53  54
ATOM     54  O   UNL     1      62.423  -1.742  41.531  1.00  0.00    -0.393 OA
ATOM     55  H   UNL     1      62.273  -1.285  42.406  1.00  0.00     0.210 HD
ENDBRANCH  53  54
ENDBRANCH  52  53
ENDBRANCH  51  52
ENDBRANCH  45  51
ENDBRANCH   2  40
BRANCH   8  56
ATOM     56  O   UNL     1      70.619  -2.023  35.222  1.00  0.00    -0.507 OA
ATOM     57  H   UNL     1      70.140  -1.941  34.333  1.00  0.00     0.293 HD
ENDBRANCH   8  56
BRANCH   6  58
ATOM     58  O   UNL     1      71.177  -0.835  39.916  1.00  0.00    -0.491 OA
BRANCH  58  59
ATOM     59  C   UNL     1      70.681  -0.426  41.194  1.00  0.00     0.257 C 
BRANCH  59  60
ATOM     60  C   UNL     1      70.126  -1.611  41.972  1.00  0.00     0.197 C 
BRANCH  60  61
ATOM     61  O   UNL     1      68.792  -1.402  42.358  1.00  0.00    -0.393 OA
ATOM     62  H   UNL     1      68.644  -0.425  42.436  1.00  0.00     0.210 HD
ENDBRANCH  60  61
ENDBRANCH  59  60
ENDBRANCH  58  59
ENDBRANCH   6  58
TORSDOF 25
ENDMDL
MODEL 6
REMARK VINA RESULT:    -4.748      4.203      9.280
REMARK INTER + INTRA:         -15.005
REMARK INTER:                 -10.258
REMARK INTRA:                  -4.747
REMARK UNBOUND:                -4.706
REMARK SMILES C[C@@H]1O[C@@H](OC[C@@H]2O[C@H](Oc3c(-c4ccc(OCCO)c(OCCO)c4)oc4cc(OCCO)cc(O)c4c3=O)[C@H](O)[C@H](O)[C@@H]2O)[C@H](O)[C@H](O)[C@@H]1O
REMARK SMILES IDX 11 1 12 2 27 3 28 4 29 5 30 6 35 7 36 8 38 9 39 10 40 11
REMARK SMILES IDX 10 12 9 13 7 14 45 15 8 16 43 17 41 18 6 19 5 20 4 21 1 22
REMARK SMILES IDX 2 23 51 24 3 25 49 26 47 27 52 28 50 30 48 32 46 34 44 36
REMARK SMILES IDX 42 38 13 40 26 41 14 42 21 43 15 44 16 45 22 46 23 47 24 48
REMARK SMILES IDX 25 49 17 51 18 52 19 53 20 54 37 56 31 58 32 59 33 60 34 61
REMARK H PARENT 52 29 50 31 48 33 46 35 44 37 42 39 25 50 20 55 37 57 34 62
REMARK Flexibility Score: inf
ROOT
ATOM      1  C   UNL     1      72.465   2.734  36.646  1.00  0.00     0.214 A 
ATOM      2  C   UNL     1      73.562   2.638  35.796  1.00  0.00     0.180 A 
ATOM      3  O   UNL     1      74.325   3.725  35.642  1.00  0.00    -0.452 OA
ATOM      4  C   UNL     1      73.871   4.934  35.899  1.00  0.00     0.146 A 
ATOM      5  C   UNL     1      74.681   6.018  35.657  1.00  0.00     0.094 A 
ATOM      6  C   UNL     1      74.153   7.332  35.617  1.00  0.00     0.126 A 
ATOM      7  C   UNL     1      72.768   7.483  35.769  1.00  0.00     0.093 A 
ATOM      8  C   UNL     1      71.942   6.382  36.105  1.00  0.00     0.134 A 
ATOM      9  C   UNL     1      72.506   5.107  36.245  1.00  0.00     0.111 A 
ATOM     10  C   UNL     1      71.780   3.942  36.625  1.00  0.00     0.239 A 
ATOM     11  O   UNL     1      70.581   3.990  37.018  1.00  0.00    -0.285 OA
ENDROOT
BRANCH   1  12
ATOM     12  O   UNL     1      72.207   1.800  37.670  1.00  0.00    -0.454 OA
BRANCH  12  13
ATOM     13  C   UNL     1      70.990   1.040  37.635  1.00  0.00     0.339 C 
ATOM     14  C   UNL     1      69.234   0.335  36.234  1.00  0.00     0.180 C 
ATOM     15  C   UNL     1      68.943  -0.874  37.201  1.00  0.00     0.177 C 
ATOM     16  O   UNL     1      70.526   0.914  36.307  1.00  0.00    -0.332 OA
ATOM     17  C   UNL     1      69.802  -0.857  38.499  1.00  0.00     0.180 C 
ATOM     18  C   UNL     1      71.200  -0.364  38.195  1.00  0.00     0.214 C 
BRANCH  14  19
ATOM     19  C   UNL     1      68.930  -0.002  34.743  1.00  0.00     0.198 C 
BRANCH  19  20
ATOM     20  O   UNL     1      67.882   0.843  34.224  1.00  0.00    -0.347 OA
BRANCH  20  21
ATOM     21  C   UNL     1      68.330   1.657  33.112  1.00  0.00     0.281 C 
ATOM     22  C   UNL     1      68.989   5.035  33.227  1.00  0.00     0.041 C 
ATOM     23  C   UNL     1      68.687   3.830  34.132  1.00  0.00     0.150 C 
ATOM     24  C   UNL     1      67.198   3.732  34.524  1.00  0.00     0.174 C 
ATOM     25  O   UNL     1      69.245   2.642  33.573  1.00  0.00    -0.344 OA
ATOM     26  C   UNL     1      66.332   3.220  33.380  1.00  0.00     0.179 C 
ATOM     27  C   UNL     1      67.078   2.264  32.406  1.00  0.00     0.202 C 
BRANCH  24  28
ATOM     28  O   UNL     1      66.734   4.971  35.040  1.00  0.00    -0.388 OA
ATOM     29  H   UNL     1      65.808   4.811  35.369  1.00  0.00     0.211 HD
ENDBRANCH  24  28
BRANCH  26  30
ATOM     30  O   UNL     1      65.670   4.254  32.713  1.00  0.00    -0.387 OA
ATOM     31  H   UNL     1      64.910   3.883  32.228  1.00  0.00     0.211 HD
ENDBRANCH  26  30
BRANCH  27  32
ATOM     32  O   UNL     1      67.494   2.942  31.247  1.00  0.00    -0.385 OA
ATOM     33  H   UNL     1      66.742   2.844  30.610  1.00  0.00     0.211 HD
ENDBRANCH  27  32
ENDBRANCH  20  21
ENDBRANCH  19  20
ENDBRANCH  14  19
BRANCH  15  34
ATOM     34  O   UNL     1      69.029  -2.122  36.503  1.00  0.00    -0.387 OA
ATOM     35  H   UNL     1      69.997  -2.363  36.482  1.00  0.00     0.211 HD
ENDBRANCH  15  34
BRANCH  17  36
ATOM     36  O   UNL     1      69.831  -2.143  39.064  1.00  0.00    -0.387 OA
ATOM     37  H   UNL     1      69.948  -2.783  38.307  1.00  0.00     0.211 HD
ENDBRANCH  17  36
BRANCH  18  38
ATOM     38  O   UNL     1      71.797  -1.231  37.243  1.00  0.00    -0.384 OA
ATOM     39  H   UNL     1      71.288  -1.144  36.395  1.00  0.00     0.211 HD
ENDBRANCH  18  38
ENDBRANCH  12  13
ENDBRANCH   1  12
BRANCH   2  40
ATOM     40  C   UNL     1      73.687   1.528  34.796  1.00  0.00     0.025 A 
ATOM     41  C   UNL     1      72.862   1.613  33.662  1.00  0.00     0.062 A 
ATOM     42  C   UNL     1      74.252   0.266  35.102  1.00  0.00     0.016 A 
ATOM     43  C   UNL     1      72.487   0.464  32.961  1.00  0.00     0.162 A 
ATOM     44  C   UNL     1      74.032  -0.849  34.267  1.00  0.00     0.051 A 
ATOM     45  C   UNL     1      73.107  -0.764  33.224  1.00  0.00     0.161 A 
BRANCH  43  46
ATOM     46  O   UNL     1      71.398   0.501  32.086  1.00  0.00    -0.487 OA
BRANCH  46  47
ATOM     47  C   UNL     1      71.492   0.813  30.712  1.00  0.00     0.258 C 
BRANCH  47  48
ATOM     48  C   UNL     1      70.662   2.051  30.340  1.00  0.00     0.197 C 
BRANCH  48  49
ATOM     49  O   UNL     1      70.953   3.132  31.189  1.00  0.00    -0.393 OA
ATOM     50  H   UNL     1      70.354   3.048  31.968  1.00  0.00     0.210 HD
ENDBRANCH  48  49
ENDBRANCH  47  48
ENDBRANCH  46  47
ENDBRANCH  43  46
BRANCH  45  51
ATOM     51  O   UNL     1      72.786  -1.873  32.446  1.00  0.00    -0.487 OA
BRANCH  51  52
ATOM     52  C   UNL     1      72.161  -3.070  32.934  1.00  0.00     0.258 C 
BRANCH  52  53
ATOM     53  C   UNL     1      70.663  -2.847  33.205  1.00  0.00     0.197 C 
BRANCH  53  54
ATOM     54  O   UNL     1      70.028  -2.176  32.150  1.00  0.00    -0.393 OA
ATOM     55  H   UNL     1      70.752  -1.691  31.663  1.00  0.00     0.210 HD
ENDBRANCH  53  54
ENDBRANCH  52  53
ENDBRANCH  51  52
ENDBRANCH  45  51
ENDBRANCH   2  40
BRANCH   8  56
ATOM     56  O   UNL     1      70.557   6.531  36.213  1.00  0.00    -0.507 OA
ATOM     57  H   UNL     1      69.954   5.766  36.492  1.00  0.00     0.293 HD
ENDBRANCH   8  56
BRANCH   6  58
ATOM     58  O   UNL     1      74.953   8.445  35.336  1.00  0.00    -0.491 OA
BRANCH  58  59
ATOM     59  C   UNL     1      76.074   8.400  34.448  1.00  0.00     0.257 C 
BRANCH  59  60
ATOM     60  C   UNL     1      77.385   8.532  35.210  1.00  0.00     0.197 C 
BRANCH  60  61
ATOM     61  O   UNL     1      77.768   7.316  35.800  1.00  0.00    -0.393 OA
ATOM     62  H   UNL     1      78.275   6.794  35.127  1.00  0.00     0.210 HD
ENDBRANCH  60  61
ENDBRANCH  59  60
ENDBRANCH  58  59
ENDBRANCH   6  58
TORSDOF 25
ENDMDL
MODEL 7
REMARK VINA RESULT:    -4.710      2.316      6.894
REMARK INTER + INTRA:         -14.922
REMARK INTER:                 -10.311
REMARK INTRA:                  -4.611
REMARK UNBOUND:                -4.706
REMARK SMILES C[C@@H]1O[C@@H](OC[C@@H]2O[C@H](Oc3c(-c4ccc(OCCO)c(OCCO)c4)oc4cc(OCCO)cc(O)c4c3=O)[C@H](O)[C@H](O)[C@@H]2O)[C@H](O)[C@H](O)[C@@H]1O
REMARK SMILES IDX 11 1 12 2 27 3 28 4 29 5 30 6 35 7 36 8 38 9 39 10 40 11
REMARK SMILES IDX 10 12 9 13 7 14 45 15 8 16 43 17 41 18 6 19 5 20 4 21 1 22
REMARK SMILES IDX 2 23 51 24 3 25 49 26 47 27 52 28 50 30 48 32 46 34 44 36
REMARK SMILES IDX 42 38 13 40 26 41 14 42 21 43 15 44 16 45 22 46 23 47 24 48
REMARK SMILES IDX 25 49 17 51 18 52 19 53 20 54 37 56 31 58 32 59 33 60 34 61
REMARK H PARENT 52 29 50 31 48 33 46 35 44 37 42 39 25 50 20 55 37 57 34 62
REMARK Flexibility Score: inf
ROOT
ATOM      1  C   UNL     1      66.524   0.125  34.948  1.00  0.00     0.214 A 
ATOM      2  C   UNL     1      67.030  -1.107  35.352  1.00  0.00     0.180 A 
ATOM      3  O   UNL     1      66.190  -1.955  35.954  1.00  0.00    -0.452 OA
ATOM      4  C   UNL     1      65.086  -1.541  36.539  1.00  0.00     0.146 A 
ATOM      5  C   UNL     1      64.297  -2.452  37.201  1.00  0.00     0.094 A 
ATOM      6  C   UNL     1      63.283  -2.029  38.096  1.00  0.00     0.126 A 
ATOM      7  C   UNL     1      63.154  -0.654  38.332  1.00  0.00     0.093 A 
ATOM      8  C   UNL     1      63.904   0.292  37.590  1.00  0.00     0.134 A 
ATOM      9  C   UNL     1      64.825  -0.150  36.631  1.00  0.00     0.111 A 
ATOM     10  C   UNL     1      65.595   0.712  35.797  1.00  0.00     0.239 A 
ATOM     11  O   UNL     1      65.400   1.958  35.747  1.00  0.00    -0.285 OA
ENDROOT
BRANCH   1  12
ATOM     12  O   UNL     1      66.705   0.636  33.647  1.00  0.00    -0.454 OA
BRANCH  12  13
ATOM     13  C   UNL     1      67.497   1.819  33.462  1.00  0.00     0.339 C 
ATOM     14  C   UNL     1      69.134   3.181  34.467  1.00  0.00     0.180 C 
ATOM     15  C   UNL     1      69.554   3.726  33.051  1.00  0.00     0.177 C 
ATOM     16  O   UNL     1      68.451   1.938  34.496  1.00  0.00    -0.332 OA
ATOM     17  C   UNL     1      68.648   3.219  31.890  1.00  0.00     0.180 C 
ATOM     18  C   UNL     1      68.244   1.781  32.133  1.00  0.00     0.214 C 
BRANCH  14  19
ATOM     19  C   UNL     1      70.331   3.109  35.462  1.00  0.00     0.198 C 
BRANCH  19  20
ATOM     20  O   UNL     1      70.851   4.425  35.743  1.00  0.00    -0.347 OA
BRANCH  20  21
ATOM     21  C   UNL     1      71.836   4.413  36.806  1.00  0.00     0.281 C 
ATOM     22  C   UNL     1      74.306   6.765  37.284  1.00  0.00     0.041 C 
ATOM     23  C   UNL     1      73.036   6.495  36.460  1.00  0.00     0.150 C 
ATOM     24  C   UNL     1      73.339   5.923  35.061  1.00  0.00     0.174 C 
ATOM     25  O   UNL     1      72.101   5.743  37.232  1.00  0.00    -0.344 OA
ATOM     26  C   UNL     1      73.743   4.454  35.111  1.00  0.00     0.179 C 
ATOM     27  C   UNL     1      73.107   3.668  36.294  1.00  0.00     0.202 C 
BRANCH  24  28
ATOM     28  O   UNL     1      74.301   6.723  34.390  1.00  0.00    -0.388 OA
ATOM     29  H   UNL     1      73.903   6.968  33.512  1.00  0.00     0.211 HD
ENDBRANCH  24  28
BRANCH  26  30
ATOM     30  O   UNL     1      75.127   4.282  35.037  1.00  0.00    -0.387 OA
ATOM     31  H   UNL     1      75.479   4.848  34.324  1.00  0.00     0.211 HD
ENDBRANCH  26  30
BRANCH  27  32
ATOM     32  O   UNL     1      74.014   3.533  37.360  1.00  0.00    -0.385 OA
ATOM     33  H   UNL     1      74.219   4.460  37.640  1.00  0.00     0.211 HD
ENDBRANCH  27  32
ENDBRANCH  20  21
ENDBRANCH  19  20
ENDBRANCH  14  19
BRANCH  15  34
ATOM     34  O   UNL     1      70.945   3.492  32.801  1.00  0.00    -0.387 OA
ATOM     35  H   UNL     1      71.112   3.784  31.862  1.00  0.00     0.211 HD
ENDBRANCH  15  34
BRANCH  17  36
ATOM     36  O   UNL     1      69.323   3.356  30.667  1.00  0.00    -0.387 OA
ATOM     37  H   UNL     1      68.869   2.743  30.022  1.00  0.00     0.211 HD
ENDBRANCH  17  36
BRANCH  18  38
ATOM     38  O   UNL     1      69.414   0.981  32.204  1.00  0.00    -0.384 OA
ATOM     39  H   UNL     1      69.462   0.599  33.119  1.00  0.00     0.211 HD
ENDBRANCH  18  38
ENDBRANCH  12  13
ENDBRANCH   1  12
BRANCH   2  40
ATOM     40  C   UNL     1      68.504  -1.349  35.477  1.00  0.00     0.025 A 
ATOM     41  C   UNL     1      69.144  -0.755  36.578  1.00  0.00     0.062 A 
ATOM     42  C   UNL     1      69.316  -1.771  34.397  1.00  0.00     0.016 A 
ATOM     43  C   UNL     1      70.506  -0.448  36.536  1.00  0.00     0.162 A 
ATOM     44  C   UNL     1      70.720  -1.644  34.452  1.00  0.00     0.051 A 
ATOM     45  C   UNL     1      71.313  -0.935  35.499  1.00  0.00     0.161 A 
BRANCH  43  46
ATOM     46  O   UNL     1      71.050   0.456  37.452  1.00  0.00    -0.487 OA
BRANCH  46  47
ATOM     47  C   UNL     1      71.393   0.130  38.783  1.00  0.00     0.258 C 
BRANCH  47  48
ATOM     48  C   UNL     1      72.897  -0.130  38.948  1.00  0.00     0.197 C 
BRANCH  48  49
ATOM     49  O   UNL     1      73.645   0.586  37.999  1.00  0.00    -0.393 OA
ATOM     50  H   UNL     1      73.255   1.491  37.957  1.00  0.00     0.210 HD
ENDBRANCH  48  49
ENDBRANCH  47  48
ENDBRANCH  46  47
ENDBRANCH  43  46
BRANCH  45  51
ATOM     51  O   UNL     1      72.684  -0.698  35.531  1.00  0.00    -0.487 OA
BRANCH  51  52
ATOM     52  C   UNL     1      73.501  -0.420  34.383  1.00  0.00     0.258 C 
BRANCH  52  53
ATOM     53  C   UNL     1      73.237   0.996  33.840  1.00  0.00     0.197 C 
BRANCH  53  54
ATOM     54  O   UNL     1      72.474   0.978  32.664  1.00  0.00    -0.393 OA
ATOM     55  H   UNL     1      72.501   0.035  32.338  1.00  0.00     0.210 HD
ENDBRANCH  53  54
ENDBRANCH  52  53
ENDBRANCH  51  52
ENDBRANCH  45  51
ENDBRANCH   2  40
BRANCH   8  56
ATOM     56  O   UNL     1      63.802   1.659  37.860  1.00  0.00    -0.507 OA
ATOM     57  H   UNL     1      63.053   2.227  37.483  1.00  0.00     0.293 HD
ENDBRANCH   8  56
BRANCH   6  58
ATOM     58  O   UNL     1      62.494  -2.940  38.807  1.00  0.00    -0.491 OA
BRANCH  58  59
ATOM     59  C   UNL     1      61.234  -2.594  39.390  1.00  0.00     0.257 C 
BRANCH  59  60
ATOM     60  C   UNL     1      61.264  -2.761  40.903  1.00  0.00     0.197 C 
BRANCH  60  61
ATOM     61  O   UNL     1      62.270  -1.976  41.491  1.00  0.00    -0.393 OA
ATOM     62  H   UNL     1      63.147  -2.367  41.247  1.00  0.00     0.210 HD
ENDBRANCH  60  61
ENDBRANCH  59  60
ENDBRANCH  58  59
ENDBRANCH   6  58
TORSDOF 25
ENDMDL
MODEL 8
REMARK VINA RESULT:    -4.692      1.767      2.601
REMARK INTER + INTRA:         -14.883
REMARK INTER:                 -10.646
REMARK INTRA:                  -4.237
REMARK UNBOUND:                -4.706
REMARK SMILES C[C@@H]1O[C@@H](OC[C@@H]2O[C@H](Oc3c(-c4ccc(OCCO)c(OCCO)c4)oc4cc(OCCO)cc(O)c4c3=O)[C@H](O)[C@H](O)[C@@H]2O)[C@H](O)[C@H](O)[C@@H]1O
REMARK SMILES IDX 11 1 12 2 27 3 28 4 29 5 30 6 35 7 36 8 38 9 39 10 40 11
REMARK SMILES IDX 10 12 9 13 7 14 45 15 8 16 43 17 41 18 6 19 5 20 4 21 1 22
REMARK SMILES IDX 2 23 51 24 3 25 49 26 47 27 52 28 50 30 48 32 46 34 44 36
REMARK SMILES IDX 42 38 13 40 26 41 14 42 21 43 15 44 16 45 22 46 23 47 24 48
REMARK SMILES IDX 25 49 17 51 18 52 19 53 20 54 37 56 31 58 32 59 33 60 34 61
REMARK H PARENT 52 29 50 31 48 33 46 35 44 37 42 39 25 50 20 55 37 57 34 62
REMARK Flexibility Score: inf
ROOT
ATOM      1  C   UNL     1      66.760  -0.308  35.414  1.00  0.00     0.214 A 
ATOM      2  C   UNL     1      66.180  -0.499  36.665  1.00  0.00     0.180 A 
ATOM      3  O   UNL     1      66.971  -0.398  37.738  1.00  0.00    -0.452 OA
ATOM      4  C   UNL     1      68.277  -0.548  37.654  1.00  0.00     0.146 A 
ATOM      5  C   UNL     1      69.031  -0.501  38.802  1.00  0.00     0.094 A 
ATOM      6  C   UNL     1      70.372  -0.958  38.818  1.00  0.00     0.126 A 
ATOM      7  C   UNL     1      70.883  -1.518  37.639  1.00  0.00     0.093 A 
ATOM      8  C   UNL     1      70.142  -1.489  36.432  1.00  0.00     0.134 A 
ATOM      9  C   UNL     1      68.856  -0.934  36.418  1.00  0.00     0.111 A 
ATOM     10  C   UNL     1      68.044  -0.811  35.253  1.00  0.00     0.239 A 
ATOM     11  O   UNL     1      68.479  -1.059  34.095  1.00  0.00    -0.285 OA
ENDROOT
BRANCH   1  12
ATOM     12  O   UNL     1      66.226   0.570  34.450  1.00  0.00    -0.454 OA
BRANCH  12  13
ATOM     13  C   UNL     1      66.341   1.987  34.650  1.00  0.00     0.339 C 
ATOM     14  C   UNL     1      67.840   3.700  35.252  1.00  0.00     0.180 C 
ATOM     15  C   UNL     1      66.940   4.754  34.504  1.00  0.00     0.177 C 
ATOM     16  O   UNL     1      67.690   2.344  34.865  1.00  0.00    -0.332 OA
ATOM     17  C   UNL     1      65.610   4.162  33.951  1.00  0.00     0.180 C 
ATOM     18  C   UNL     1      65.837   2.758  33.434  1.00  0.00     0.214 C 
BRANCH  14  19
ATOM     19  C   UNL     1      69.354   4.062  35.203  1.00  0.00     0.198 C 
BRANCH  19  20
ATOM     20  O   UNL     1      70.163   2.967  35.683  1.00  0.00    -0.347 OA
BRANCH  20  21
ATOM     21  C   UNL     1      71.371   3.422  36.343  1.00  0.00     0.281 C 
ATOM     22  C   UNL     1      74.492   3.635  34.903  1.00  0.00     0.041 C 
ATOM     23  C   UNL     1      73.014   3.395  34.556  1.00  0.00     0.150 C 
ATOM     24  C   UNL     1      72.659   1.898  34.445  1.00  0.00     0.174 C 
ATOM     25  O   UNL     1      72.175   4.152  35.427  1.00  0.00    -0.344 OA
ATOM     26  C   UNL     1      72.554   1.225  35.808  1.00  0.00     0.179 C 
ATOM     27  C   UNL     1      72.101   2.183  36.948  1.00  0.00     0.202 C 
BRANCH  24  28
ATOM     28  O   UNL     1      73.568   1.231  33.583  1.00  0.00    -0.388 OA
ATOM     29  H   UNL     1      73.156   0.352  33.362  1.00  0.00     0.211 HD
ENDBRANCH  24  28
BRANCH  26  30
ATOM     30  O   UNL     1      73.709   0.511  36.136  1.00  0.00    -0.387 OA
ATOM     31  H   UNL     1      74.230   0.361  35.326  1.00  0.00     0.211 HD
ENDBRANCH  26  30
BRANCH  27  32
ATOM     32  O   UNL     1      73.199   2.628  37.705  1.00  0.00    -0.385 OA
ATOM     33  H   UNL     1      72.809   2.940  38.560  1.00  0.00     0.211 HD
ENDBRANCH  27  32
ENDBRANCH  20  21
ENDBRANCH  19  20
ENDBRANCH  14  19
BRANCH  15  34
ATOM     34  O   UNL     1      67.689   5.449  33.499  1.00  0.00    -0.387 OA
ATOM     35  H   UNL     1      68.613   5.550  33.862  1.00  0.00     0.211 HD
ENDBRANCH  15  34
BRANCH  17  36
ATOM     36  O   UNL     1      65.102   4.998  32.943  1.00  0.00    -0.387 OA
ATOM     37  H   UNL     1      64.838   4.401  32.187  1.00  0.00     0.211 HD
ENDBRANCH  17  36
BRANCH  18  38
ATOM     38  O   UNL     1      66.804   2.802  32.395  1.00  0.00    -0.384 OA
ATOM     39  H   UNL     1      67.506   3.451  32.664  1.00  0.00     0.211 HD
ENDBRANCH  18  38
ENDBRANCH  12  13
ENDBRANCH   1  12
BRANCH   2  40
ATOM     40  C   UNL     1      64.845  -1.163  36.820  1.00  0.00     0.025 A 
ATOM     41  C   UNL     1      63.727  -0.314  36.871  1.00  0.00     0.062 A 
ATOM     42  C   UNL     1      64.687  -2.484  37.303  1.00  0.00     0.016 A 
ATOM     43  C   UNL     1      62.554  -0.710  37.520  1.00  0.00     0.162 A 
ATOM     44  C   UNL     1      63.437  -2.942  37.769  1.00  0.00     0.051 A 
ATOM     45  C   UNL     1      62.382  -2.040  37.926  1.00  0.00     0.161 A 
BRANCH  43  46
ATOM     46  O   UNL     1      61.600   0.242  37.888  1.00  0.00    -0.487 OA
BRANCH  46  47
ATOM     47  C   UNL     1      60.735   0.892  36.983  1.00  0.00     0.258 C 
BRANCH  47  48
ATOM     48  C   UNL     1      59.256   0.685  37.341  1.00  0.00     0.197 C 
BRANCH  48  49
ATOM     49  O   UNL     1      59.103  -0.324  38.307  1.00  0.00    -0.393 OA
ATOM     50  H   UNL     1      59.959  -0.381  38.794  1.00  0.00     0.210 HD
ENDBRANCH  48  49
ENDBRANCH  47  48
ENDBRANCH  46  47
ENDBRANCH  43  46
BRANCH  45  51
ATOM     51  O   UNL     1      61.167  -2.433  38.482  1.00  0.00    -0.487 OA
BRANCH  51  52
ATOM     52  C   UNL     1      60.993  -2.932  39.817  1.00  0.00     0.258 C 
BRANCH  52  53
ATOM     53  C   UNL     1      61.146  -1.807  40.857  1.00  0.00     0.197 C 
BRANCH  53  54
ATOM     54  O   UNL     1      62.404  -1.825  41.475  1.00  0.00    -0.393 OA
ATOM     55  H   UNL     1      62.724  -2.769  41.411  1.00  0.00     0.210 HD
ENDBRANCH  53  54
ENDBRANCH  52  53
ENDBRANCH  51  52
ENDBRANCH  45  51
ENDBRANCH   2  40
BRANCH   8  56
ATOM     56  O   UNL     1      70.640  -2.088  35.271  1.00  0.00    -0.507 OA
ATOM     57  H   UNL     1      70.139  -2.825  34.790  1.00  0.00     0.293 HD
ENDBRANCH   8  56
BRANCH   6  58
ATOM     58  O   UNL     1      71.145  -0.952  39.984  1.00  0.00    -0.491 OA
BRANCH  58  59
ATOM     59  C   UNL     1      71.996   0.137  40.353  1.00  0.00     0.257 C 
BRANCH  59  60
ATOM     60  C   UNL     1      73.464  -0.253  40.244  1.00  0.00     0.197 C 
BRANCH  60  61
ATOM     61  O   UNL     1      73.991   0.057  38.979  1.00  0.00    -0.393 OA
ATOM     62  H   UNL     1      73.234   0.226  38.363  1.00  0.00     0.210 HD
ENDBRANCH  60  61
ENDBRANCH  59  60
ENDBRANCH  58  59
ENDBRANCH   6  58
TORSDOF 25
ENDMDL
MODEL 9
REMARK VINA RESULT:    -4.643      2.232      3.005
REMARK INTER + INTRA:         -14.778
REMARK INTER:                  -9.921
REMARK INTRA:                  -4.857
REMARK UNBOUND:                -4.706
REMARK SMILES C[C@@H]1O[C@@H](OC[C@@H]2O[C@H](Oc3c(-c4ccc(OCCO)c(OCCO)c4)oc4cc(OCCO)cc(O)c4c3=O)[C@H](O)[C@H](O)[C@@H]2O)[C@H](O)[C@H](O)[C@@H]1O
REMARK SMILES IDX 11 1 12 2 27 3 28 4 29 5 30 6 35 7 36 8 38 9 39 10 40 11
REMARK SMILES IDX 10 12 9 13 7 14 45 15 8 16 43 17 41 18 6 19 5 20 4 21 1 22
REMARK SMILES IDX 2 23 51 24 3 25 49 26 47 27 52 28 50 30 48 32 46 34 44 36
REMARK SMILES IDX 42 38 13 40 26 41 14 42 21 43 15 44 16 45 22 46 23 47 24 48
REMARK SMILES IDX 25 49 17 51 18 52 19 53 20 54 37 56 31 58 32 59 33 60 34 61
REMARK H PARENT 52 29 50 31 48 33 46 35 44 37 42 39 25 50 20 55 37 57 34 62
REMARK Flexibility Score: inf
ROOT
ATOM      1  C   UNL     1      66.977  -0.227  34.979  1.00  0.00     0.214 A 
ATOM      2  C   UNL     1      66.226  -0.498  36.119  1.00  0.00     0.180 A 
ATOM      3  O   UNL     1      66.854  -0.460  37.299  1.00  0.00    -0.452 OA
ATOM      4  C   UNL     1      68.160  -0.599  37.394  1.00  0.00     0.146 A 
ATOM      5  C   UNL     1      68.741  -0.619  38.640  1.00  0.00     0.094 A 
ATOM      6  C   UNL     1      70.072  -1.070  38.821  1.00  0.00     0.126 A 
ATOM      7  C   UNL     1      70.755  -1.552  37.696  1.00  0.00     0.093 A 
ATOM      8  C   UNL     1      70.195  -1.453  36.399  1.00  0.00     0.134 A 
ATOM      9  C   UNL     1      68.916  -0.904  36.234  1.00  0.00     0.111 A 
ATOM     10  C   UNL     1      68.278  -0.713  34.974  1.00  0.00     0.239 A 
ATOM     11  O   UNL     1      68.878  -0.886  33.877  1.00  0.00    -0.285 OA
ENDROOT
BRANCH   1  12
ATOM     12  O   UNL     1      66.575   0.707  34.002  1.00  0.00    -0.454 OA
BRANCH  12  13
ATOM     13  C   UNL     1      66.314   2.063  34.394  1.00  0.00     0.339 C 
ATOM     14  C   UNL     1      67.222   3.919  35.523  1.00  0.00     0.180 C 
ATOM     15  C   UNL     1      66.262   4.878  34.725  1.00  0.00     0.177 C 
ATOM     16  O   UNL     1      67.473   2.646  34.950  1.00  0.00    -0.332 OA
ATOM     17  C   UNL     1      65.241   4.130  33.818  1.00  0.00     0.180 C 
ATOM     18  C   UNL     1      65.888   2.910  33.199  1.00  0.00     0.214 C 
BRANCH  14  19
ATOM     19  C   UNL     1      68.589   4.584  35.863  1.00  0.00     0.198 C 
BRANCH  19  20
ATOM     20  O   UNL     1      69.611   4.171  34.932  1.00  0.00    -0.347 OA
BRANCH  20  21
ATOM     21  C   UNL     1      70.817   3.723  35.599  1.00  0.00     0.281 C 
ATOM     22  C   UNL     1      73.868   3.184  34.093  1.00  0.00     0.041 C 
ATOM     23  C   UNL     1      72.475   3.780  33.827  1.00  0.00     0.150 C 
ATOM     24  C   UNL     1      71.530   2.799  33.105  1.00  0.00     0.174 C 
ATOM     25  O   UNL     1      71.951   4.357  35.022  1.00  0.00    -0.344 OA
ATOM     26  C   UNL     1      71.001   1.714  34.036  1.00  0.00     0.179 C 
ATOM     27  C   UNL     1      70.878   2.166  35.520  1.00  0.00     0.202 C 
BRANCH  24  28
ATOM     28  O   UNL     1      72.156   2.259  31.950  1.00  0.00    -0.388 OA
ATOM     29  H   UNL     1      72.000   1.277  31.976  1.00  0.00     0.211 HD
ENDBRANCH  24  28
BRANCH  26  30
ATOM     30  O   UNL     1      71.698   0.512  33.898  1.00  0.00    -0.387 OA
ATOM     31  H   UNL     1      72.655   0.696  33.916  1.00  0.00     0.211 HD
ENDBRANCH  26  30
BRANCH  27  32
ATOM     32  O   UNL     1      71.972   1.716  36.281  1.00  0.00    -0.385 OA
ATOM     33  H   UNL     1      72.746   1.760  35.665  1.00  0.00     0.211 HD
ENDBRANCH  27  32
ENDBRANCH  20  21
ENDBRANCH  19  20
ENDBRANCH  14  19
BRANCH  15  34
ATOM     34  O   UNL     1      67.007   5.870  34.007  1.00  0.00    -0.387 OA
ATOM     35  H   UNL     1      67.969   5.638  34.130  1.00  0.00     0.211 HD
ENDBRANCH  15  34
BRANCH  17  36
ATOM     36  O   UNL     1      64.756   5.003  32.830  1.00  0.00    -0.387 OA
ATOM     37  H   UNL     1      65.010   5.925  33.118  1.00  0.00     0.211 HD
ENDBRANCH  17  36
BRANCH  18  38
ATOM     38  O   UNL     1      66.999   3.324  32.419  1.00  0.00    -0.384 OA
ATOM     39  H   UNL     1      67.820   2.980  32.857  1.00  0.00     0.211 HD
ENDBRANCH  18  38
ENDBRANCH  12  13
ENDBRANCH   1  12
BRANCH   2  40
ATOM     40  C   UNL     1      64.892  -1.177  36.040  1.00  0.00     0.025 A 
ATOM     41  C   UNL     1      63.990  -0.673  35.089  1.00  0.00     0.062 A 
ATOM     42  C   UNL     1      64.366  -1.979  37.081  1.00  0.00     0.016 A 
ATOM     43  C   UNL     1      62.611  -0.824  35.257  1.00  0.00     0.162 A 
ATOM     44  C   UNL     1      62.994  -2.300  37.127  1.00  0.00     0.051 A 
ATOM     45  C   UNL     1      62.106  -1.680  36.245  1.00  0.00     0.161 A 
BRANCH  43  46
ATOM     46  O   UNL     1      61.723  -0.024  34.533  1.00  0.00    -0.487 OA
BRANCH  46  47
ATOM     47  C   UNL     1      61.632   1.379  34.660  1.00  0.00     0.258 C 
BRANCH  47  48
ATOM     48  C   UNL     1      60.888   1.799  35.936  1.00  0.00     0.197 C 
BRANCH  48  49
ATOM     49  O   UNL     1      59.755   0.999  36.152  1.00  0.00    -0.393 OA
ATOM     50  H   UNL     1      60.022   0.297  36.791  1.00  0.00     0.210 HD
ENDBRANCH  48  49
ENDBRANCH  47  48
ENDBRANCH  46  47
ENDBRANCH  43  46
BRANCH  45  51
ATOM     51  O   UNL     1      60.732  -1.890  36.330  1.00  0.00    -0.487 OA
BRANCH  51  52
ATOM     52  C   UNL     1      59.988  -2.817  35.525  1.00  0.00     0.258 C 
BRANCH  52  53
ATOM     53  C   UNL     1      58.740  -2.151  34.916  1.00  0.00     0.197 C 
BRANCH  53  54
ATOM     54  O   UNL     1      59.061  -1.012  34.165  1.00  0.00    -0.393 OA
ATOM     55  H   UNL     1      60.037  -0.856  34.312  1.00  0.00     0.210 HD
ENDBRANCH  53  54
ENDBRANCH  52  53
ENDBRANCH  51  52
ENDBRANCH  45  51
ENDBRANCH   2  40
BRANCH   8  56
ATOM     56  O   UNL     1      70.862  -1.975  35.287  1.00  0.00    -0.507 OA
ATOM     57  H   UNL     1      71.798  -1.681  35.035  1.00  0.00     0.293 HD
ENDBRANCH   8  56
BRANCH   6  58
ATOM     58  O   UNL     1      70.670  -1.133  40.085  1.00  0.00    -0.491 OA
BRANCH  58  59
ATOM     59  C   UNL     1      70.091  -0.545  41.254  1.00  0.00     0.257 C 
BRANCH  59  60
ATOM     60  C   UNL     1      69.704  -1.610  42.270  1.00  0.00     0.197 C 
BRANCH  60  61
ATOM     61  O   UNL     1      69.138  -2.737  41.651  1.00  0.00    -0.393 OA
ATOM     62  H   UNL     1      69.187  -3.495  42.287  1.00  0.00     0.210 HD
ENDBRANCH  60  61
ENDBRANCH  59  60
ENDBRANCH  58  59
ENDBRANCH   6  58
TORSDOF 25
ENDMDL
