MODEL 1
REMARK VINA RESULT:    -4.085      0.000      0.000
REMARK INTER + INTRA:          -5.417
REMARK INTER:                  -5.518
REMARK INTRA:                   0.101
REMARK UNBOUND:                 0.101
REMARK SMILES C=C(C)[C@@H]1CC[C@@H](C)C2=C(C1)[C@H](C)CC2
REMARK SMILES IDX 10 1 9 2 15 3 14 4 12 5 13 6 7 7 8 8 6 9 11 11 4 12 5 13
REMARK SMILES IDX 2 15 1 16 3 17
REMARK H PARENT
REMARK Flexibility Score: 80.00
ROOT
ATOM      1  C   UNL     1      -1.744   3.637  13.781  1.00  0.00    -0.067 C 
ATOM      2  C   UNL     1      -1.487   2.332  13.863  1.00  0.00    -0.068 C 
ATOM      3  C   UNL     1      -0.910   1.974  15.197  1.00  0.00     0.032 C 
ATOM      4  C   UNL     1      -1.011   3.258  16.022  1.00  0.00     0.012 C 
ATOM      5  C   UNL     1      -1.373   4.373  15.029  1.00  0.00     0.012 C 
ATOM      6  C   UNL     1      -0.189   5.314  14.778  1.00  0.00     0.012 C 
ENDROOT
BRANCH   2   7
ATOM      7  C   UNL     1      -1.694   1.356  12.712  1.00  0.00     0.012 C 
ATOM      8  C   UNL     1      -1.431  -0.097  13.135  1.00  0.00     0.012 C 
BRANCH   7   9
ATOM      9  C   UNL     1      -0.793   1.731  11.513  1.00  0.00     0.008 CG0
ATOM     10  G   UNL     1      -1.358   2.890  10.673  1.00  0.00     0.000 G0
ENDBRANCH   7   9
ENDBRANCH   2   7
BRANCH   1  11
ATOM     11  C   UNL     1      -2.313   4.319  12.562  1.00  0.00     0.039 C 
BRANCH  11  12
ATOM     12  C   UNL     1      -1.334   4.256  11.371  1.00  0.00     0.018 C 
BRANCH  12  13
ATOM     13  C   UNL     1      -1.363   2.885  10.660  1.00  0.00     0.009 CG0
ATOM     14  G   UNL     1      -0.796   1.733  11.508  1.00  0.00     0.000 G0
ENDBRANCH  12  13
BRANCH  12  15
ATOM     15  C   UNL     1      -1.651   5.362  10.372  1.00  0.00    -0.077 C 
ATOM     16  C   UNL     1      -2.922   5.608  10.015  1.00  0.00     0.008 C 
ATOM     17  C   UNL     1      -0.554   6.205   9.770  1.00  0.00     0.039 C 
ENDBRANCH  12  15
ENDBRANCH  11  12
ENDBRANCH   1  11
TORSDOF 1
ENDMDL
MODEL 2
REMARK VINA RESULT:    -4.068      1.403      4.142
REMARK INTER + INTRA:          -5.394
REMARK INTER:                  -5.464
REMARK INTRA:                   0.070
REMARK UNBOUND:                 0.101
REMARK SMILES C=C(C)[C@@H]1CC[C@@H](C)C2=C(C1)[C@H](C)CC2
REMARK SMILES IDX 10 1 9 2 15 3 14 4 12 5 13 6 7 7 8 8 6 9 11 11 4 12 5 13
REMARK SMILES IDX 2 15 1 16 3 17
REMARK H PARENT
REMARK Flexibility Score: 80.00
ROOT
ATOM      1  C   UNL     1      -0.003   4.745  13.118  1.00  0.00    -0.067 C 
ATOM      2  C   UNL     1      -0.298   5.586  12.126  1.00  0.00    -0.068 C 
ATOM      3  C   UNL     1      -0.280   7.007  12.596  1.00  0.00     0.032 C 
ATOM      4  C   UNL     1       0.256   6.938  14.027  1.00  0.00     0.012 C 
ATOM      5  C   UNL     1       0.245   5.451  14.412  1.00  0.00     0.012 C 
ATOM      6  C   UNL     1      -0.859   5.136  15.428  1.00  0.00     0.012 C 
ENDROOT
BRANCH   2   7
ATOM      7  C   UNL     1      -0.672   5.136  10.720  1.00  0.00     0.012 C 
ATOM      8  C   UNL     1      -0.836   6.325   9.760  1.00  0.00     0.012 C 
BRANCH   7   9
ATOM      9  C   UNL     1      -1.966   4.292  10.745  1.00  0.00     0.008 CG0
ATOM     10  G   UNL     1      -1.726   2.831  11.164  1.00  0.00     0.000 G0
ENDBRANCH   7   9
ENDBRANCH   2   7
BRANCH   1  11
ATOM     11  C   UNL     1       0.046   3.244  12.976  1.00  0.00     0.039 C 
BRANCH  11  12
ATOM     12  C   UNL     1      -1.347   2.661  12.655  1.00  0.00     0.018 C 
BRANCH  12  13
ATOM     13  C   UNL     1      -1.721   2.824  11.165  1.00  0.00     0.009 CG0
ATOM     14  G   UNL     1      -1.976   4.281  10.743  1.00  0.00     0.000 G0
ENDBRANCH  12  13
BRANCH  12  15
ATOM     15  C   UNL     1      -1.403   1.189  13.044  1.00  0.00    -0.077 C 
ATOM     16  C   UNL     1      -1.103   0.239  12.143  1.00  0.00     0.008 C 
ATOM     17  C   UNL     1      -1.787   0.767  14.440  1.00  0.00     0.039 C 
ENDBRANCH  12  15
ENDBRANCH  11  12
ENDBRANCH   1  11
TORSDOF 1
ENDMDL
MODEL 3
REMARK VINA RESULT:    -4.062      1.862      4.660
REMARK INTER + INTRA:          -5.386
REMARK INTER:                  -5.483
REMARK INTRA:                   0.097
REMARK UNBOUND:                 0.101
REMARK SMILES C=C(C)[C@@H]1CC[C@@H](C)C2=C(C1)[C@H](C)CC2
REMARK SMILES IDX 10 1 9 2 15 3 14 4 12 5 13 6 7 7 8 8 6 9 11 11 4 12 5 13
REMARK SMILES IDX 2 15 1 16 3 17
REMARK H PARENT
REMARK Flexibility Score: 80.00
ROOT
ATOM      1  C   UNL     1      -2.137   4.601  13.027  1.00  0.00    -0.067 C 
ATOM      2  C   UNL     1      -1.220   5.468  13.455  1.00  0.00    -0.068 C 
ATOM      3  C   UNL     1      -1.336   6.778  12.739  1.00  0.00     0.032 C 
ATOM      4  C   UNL     1      -2.610   6.652  11.901  1.00  0.00     0.012 C 
ATOM      5  C   UNL     1      -3.005   5.169  11.951  1.00  0.00     0.012 C 
ATOM      6  C   UNL     1      -2.748   4.468  10.612  1.00  0.00     0.012 C 
ENDROOT
BRANCH   2   7
ATOM      7  C   UNL     1      -0.155   5.132  14.490  1.00  0.00     0.012 C 
ATOM      8  C   UNL     1       0.684   6.360  14.874  1.00  0.00     0.012 C 
BRANCH   7   9
ATOM      9  C   UNL     1       0.765   4.001  13.974  1.00  0.00     0.008 CG0
ATOM     10  G   UNL     1       0.151   2.600  14.141  1.00  0.00     0.000 G0
ENDBRANCH   7   9
ENDBRANCH   2   7
BRANCH   1  11
ATOM     11  C   UNL     1      -2.275   3.187  13.536  1.00  0.00     0.039 C 
BRANCH  11  12
ATOM     12  C   UNL     1      -1.034   2.337  13.186  1.00  0.00     0.018 C 
BRANCH  12  13
ATOM     13  C   UNL     1       0.148   2.605  14.143  1.00  0.00     0.009 CG0
ATOM     14  G   UNL     1       0.773   4.002  13.983  1.00  0.00     0.000 G0
ENDBRANCH  12  13
BRANCH  12  15
ATOM     15  C   UNL     1      -1.390   0.856  13.208  1.00  0.00    -0.077 C 
ATOM     16  C   UNL     1      -1.390   0.143  12.070  1.00  0.00     0.008 C 
ATOM     17  C   UNL     1      -1.743   0.159  14.498  1.00  0.00     0.039 C 
ENDBRANCH  12  15
ENDBRANCH  11  12
ENDBRANCH   1  11
TORSDOF 1
ENDMDL
MODEL 4
REMARK VINA RESULT:    -3.674      2.473      4.727
REMARK INTER + INTRA:          -4.861
REMARK INTER:                  -4.949
REMARK INTRA:                   0.087
REMARK UNBOUND:                 0.101
REMARK SMILES C=C(C)[C@@H]1CC[C@@H](C)C2=C(C1)[C@H](C)CC2
REMARK SMILES IDX 10 1 9 2 15 3 14 4 12 5 13 6 7 7 8 8 6 9 11 11 4 12 5 13
REMARK SMILES IDX 2 15 1 16 3 17
REMARK H PARENT
REMARK Flexibility Score: 80.00
ROOT
ATOM      1  C   UNL     1      -0.958   4.804  14.485  1.00  0.00    -0.067 C 
ATOM      2  C   UNL     1      -1.606   5.009  13.339  1.00  0.00    -0.068 C 
ATOM      3  C   UNL     1      -2.568   3.898  13.054  1.00  0.00     0.032 C 
ATOM      4  C   UNL     1      -2.551   3.033  14.315  1.00  0.00     0.012 C 
ATOM      5  C   UNL     1      -1.360   3.527  15.151  1.00  0.00     0.012 C 
ATOM      6  C   UNL     1      -0.205   2.519  15.143  1.00  0.00     0.012 C 
ENDROOT
BRANCH   2   7
ATOM      7  C   UNL     1      -1.339   6.190  12.416  1.00  0.00     0.012 C 
ATOM      8  C   UNL     1      -2.326   6.236  11.239  1.00  0.00     0.012 C 
BRANCH   7   9
ATOM      9  C   UNL     1       0.114   6.150  11.889  1.00  0.00     0.008 CG0
ATOM     10  G   UNL     1       1.138   6.688  12.903  1.00  0.00     0.000 G0
ENDBRANCH   7   9
ENDBRANCH   2   7
BRANCH   1  11
ATOM     11  C   UNL     1       0.091   5.730  15.048  1.00  0.00     0.039 C 
BRANCH  11  12
ATOM     12  C   UNL     1       1.343   5.780  14.145  1.00  0.00     0.018 C 
BRANCH  12  13
ATOM     13  C   UNL     1       1.143   6.695  12.917  1.00  0.00     0.009 CG0
ATOM     14  G   UNL     1       0.131   6.150  11.894  1.00  0.00     0.000 G0
ENDBRANCH  12  13
BRANCH  12  15
ATOM     15  C   UNL     1       2.550   6.249  14.948  1.00  0.00    -0.077 C 
ATOM     16  C   UNL     1       3.559   5.403  15.211  1.00  0.00     0.008 C 
ATOM     17  C   UNL     1       2.643   7.666  15.457  1.00  0.00     0.039 C 
ENDBRANCH  12  15
ENDBRANCH  11  12
ENDBRANCH   1  11
TORSDOF 1
ENDMDL
MODEL 5
REMARK VINA RESULT:    -3.654      1.879      3.799
REMARK INTER + INTRA:          -4.835
REMARK INTER:                  -5.807
REMARK INTRA:                   0.973
REMARK UNBOUND:                 0.101
REMARK SMILES C=C(C)[C@@H]1CC[C@@H](C)C2=C(C1)[C@H](C)CC2
REMARK SMILES IDX 10 1 9 2 15 3 14 4 12 5 13 6 7 7 8 8 6 9 11 11 4 12 5 13
REMARK SMILES IDX 2 15 1 16 3 17
REMARK H PARENT
REMARK Flexibility Score: 80.00
ROOT
ATOM      1  C   UNL     1      -1.455   3.320  12.579  1.00  0.00    -0.067 C 
ATOM      2  C   UNL     1      -1.490   2.072  13.046  1.00  0.00    -0.068 C 
ATOM      3  C   UNL     1      -1.449   1.074  11.931  1.00  0.00     0.032 C 
ATOM      4  C   UNL     1      -1.199   1.907  10.672  1.00  0.00     0.012 C 
ATOM      5  C   UNL     1      -1.400   3.372  11.086  1.00  0.00     0.012 C 
ATOM      6  C   UNL     1      -2.697   3.951  10.510  1.00  0.00     0.012 C 
ENDROOT
BRANCH   2   7
ATOM      7  C   UNL     1      -1.627   1.724  14.522  1.00  0.00     0.012 C 
ATOM      8  C   UNL     1      -2.939   2.255  15.120  1.00  0.00     0.012 C 
BRANCH   7   9
ATOM      9  C   UNL     1      -0.421   2.268  15.322  1.00  0.00     0.008 CG0
ATOM     10  G   UNL     1       0.417   3.288  14.531  1.00  0.00     0.000 G0
ENDBRANCH   7   9
ENDBRANCH   2   7
BRANCH   1  11
ATOM     11  C   UNL     1      -1.499   4.555  13.445  1.00  0.00     0.039 C 
BRANCH  11  12
ATOM     12  C   UNL     1      -0.248   4.660  14.343  1.00  0.00     0.018 C 
BRANCH  12  13
ATOM     13  C   UNL     1       0.442   3.293  14.548  1.00  0.00     0.009 CG0
ATOM     14  G   UNL     1      -0.417   2.272  15.314  1.00  0.00     0.000 G0
ENDBRANCH  12  13
BRANCH  12  15
ATOM     15  C   UNL     1       0.742   5.654  13.749  1.00  0.00    -0.077 C 
ATOM     16  C   UNL     1       0.439   6.322  12.624  1.00  0.00     0.008 C 
ATOM     17  C   UNL     1       2.074   5.914  14.407  1.00  0.00     0.039 C 
ENDBRANCH  12  15
ENDBRANCH  11  12
ENDBRANCH   1  11
TORSDOF 1
ENDMDL
MODEL 6
REMARK VINA RESULT:    -3.597      2.304      3.656
REMARK INTER + INTRA:          -4.758
REMARK INTER:                  -4.855
REMARK INTRA:                   0.097
REMARK UNBOUND:                 0.101
REMARK SMILES C=C(C)[C@@H]1CC[C@@H](C)C2=C(C1)[C@H](C)CC2
REMARK SMILES IDX 10 1 9 2 15 3 14 4 12 5 13 6 7 7 8 8 6 9 11 11 4 12 5 13
REMARK SMILES IDX 2 15 1 16 3 17
REMARK H PARENT
REMARK Flexibility Score: 80.00
ROOT
ATOM      1  C   UNL     1      -1.362   3.582  13.213  1.00  0.00    -0.067 C 
ATOM      2  C   UNL     1      -0.254   4.210  13.602  1.00  0.00    -0.068 C 
ATOM      3  C   UNL     1       0.417   3.483  14.725  1.00  0.00     0.032 C 
ATOM      4  C   UNL     1      -0.366   2.177  14.866  1.00  0.00     0.012 C 
ATOM      5  C   UNL     1      -1.630   2.346  14.011  1.00  0.00     0.012 C 
ATOM      6  C   UNL     1      -2.883   2.515  14.877  1.00  0.00     0.012 C 
ENDROOT
BRANCH   2   7
ATOM      7  C   UNL     1       0.218   5.535  13.016  1.00  0.00     0.012 C 
ATOM      8  C   UNL     1       1.591   5.952  13.564  1.00  0.00     0.012 C 
BRANCH   7   9
ATOM      9  C   UNL     1      -0.821   6.648  13.284  1.00  0.00     0.008 CG0
ATOM     10  G   UNL     1      -2.007   6.615  12.304  1.00  0.00     0.000 G0
ENDBRANCH   7   9
ENDBRANCH   2   7
BRANCH   1  11
ATOM     11  C   UNL     1      -2.276   4.066  12.114  1.00  0.00     0.039 C 
BRANCH  11  12
ATOM     12  C   UNL     1      -2.954   5.401  12.491  1.00  0.00     0.018 C 
BRANCH  12  13
ATOM     13  C   UNL     1      -2.012   6.610  12.301  1.00  0.00     0.009 CG0
ATOM     14  G   UNL     1      -0.837   6.645  13.294  1.00  0.00     0.000 G0
ENDBRANCH  12  13
BRANCH  12  15
ATOM     15  C   UNL     1      -4.219   5.597  11.666  1.00  0.00    -0.077 C 
ATOM     16  C   UNL     1      -5.414   5.693  12.271  1.00  0.00     0.008 C 
ATOM     17  C   UNL     1      -4.160   5.696  10.162  1.00  0.00     0.039 C 
ENDBRANCH  12  15
ENDBRANCH  11  12
ENDBRANCH   1  11
TORSDOF 1
ENDMDL
MODEL 7
REMARK VINA RESULT:    -3.369      1.483      2.243
REMARK INTER + INTRA:          -4.449
REMARK INTER:                  -4.531
REMARK INTRA:                   0.081
REMARK UNBOUND:                 0.101
REMARK SMILES C=C(C)[C@@H]1CC[C@@H](C)C2=C(C1)[C@H](C)CC2
REMARK SMILES IDX 10 1 9 2 15 3 14 4 12 5 13 6 7 7 8 8 6 9 11 11 4 12 5 13
REMARK SMILES IDX 2 15 1 16 3 17
REMARK H PARENT
REMARK Flexibility Score: 80.00
ROOT
ATOM      1  C   UNL     1      -1.306   5.466  13.360  1.00  0.00    -0.067 C 
ATOM      2  C   UNL     1      -0.779   4.252  13.515  1.00  0.00    -0.068 C 
ATOM      3  C   UNL     1       0.464   4.301  14.348  1.00  0.00     0.032 C 
ATOM      4  C   UNL     1       0.539   5.744  14.850  1.00  0.00     0.012 C 
ATOM      5  C   UNL     1      -0.506   6.529  14.044  1.00  0.00     0.012 C 
ATOM      6  C   UNL     1       0.151   7.462  13.021  1.00  0.00     0.012 C 
ENDROOT
BRANCH   2   7
ATOM      7  C   UNL     1      -1.342   2.996  12.862  1.00  0.00     0.012 C 
ATOM      8  C   UNL     1      -0.612   1.727  13.329  1.00  0.00     0.012 C 
BRANCH   7   9
ATOM      9  C   UNL     1      -1.278   3.109  11.322  1.00  0.00     0.008 CG0
ATOM     10  G   UNL     1      -2.433   3.935  10.729  1.00  0.00     0.000 G0
ENDBRANCH   7   9
ENDBRANCH   2   7
BRANCH   1  11
ATOM     11  C   UNL     1      -2.551   5.759  12.560  1.00  0.00     0.039 C 
BRANCH  11  12
ATOM     12  C   UNL     1      -2.343   5.456  11.061  1.00  0.00     0.018 C 
BRANCH  12  13
ATOM     13  C   UNL     1      -2.435   3.946  10.750  1.00  0.00     0.009 CG0
ATOM     14  G   UNL     1      -1.270   3.120  11.323  1.00  0.00     0.000 G0
ENDBRANCH  12  13
BRANCH  12  15
ATOM     15  C   UNL     1      -3.363   6.219  10.225  1.00  0.00    -0.077 C 
ATOM     16  C   UNL     1      -3.044   7.407   9.687  1.00  0.00     0.008 C 
ATOM     17  C   UNL     1      -4.741   5.659   9.978  1.00  0.00     0.039 C 
ENDBRANCH  12  15
ENDBRANCH  11  12
ENDBRANCH   1  11
TORSDOF 1
ENDMDL
MODEL 8
REMARK VINA RESULT:    -3.237     13.009     14.437
REMARK INTER + INTRA:          -4.271
REMARK INTER:                  -4.368
REMARK INTRA:                   0.098
REMARK UNBOUND:                 0.101
REMARK SMILES C=C(C)[C@@H]1CC[C@@H](C)C2=C(C1)[C@H](C)CC2
REMARK SMILES IDX 10 1 9 2 15 3 14 4 12 5 13 6 7 7 8 8 6 9 11 11 4 12 5 13
REMARK SMILES IDX 2 15 1 16 3 17
REMARK H PARENT
REMARK Flexibility Score: 80.00
ROOT
ATOM      1  C   UNL     1      -2.124 -11.262  11.175  1.00  0.00    -0.067 C 
ATOM      2  C   UNL     1      -3.156 -10.981  11.971  1.00  0.00    -0.068 C 
ATOM      3  C   UNL     1      -4.440 -10.948  11.203  1.00  0.00     0.032 C 
ATOM      4  C   UNL     1      -4.070 -11.437   9.802  1.00  0.00     0.012 C 
ATOM      5  C   UNL     1      -2.535 -11.449   9.749  1.00  0.00     0.012 C 
ATOM      6  C   UNL     1      -1.989 -10.318   8.870  1.00  0.00     0.012 C 
ENDROOT
BRANCH   2   7
ATOM      7  C   UNL     1      -3.018 -10.667  13.455  1.00  0.00     0.012 C 
ATOM      8  C   UNL     1      -4.384 -10.509  14.140  1.00  0.00     0.012 C 
BRANCH   7   9
ATOM      9  C   UNL     1      -2.169  -9.392  13.663  1.00  0.00     0.008 CG0
ATOM     10  G   UNL     1      -0.656  -9.647  13.540  1.00  0.00     0.000 G0
ENDBRANCH   7   9
ENDBRANCH   2   7
BRANCH   1  11
ATOM     11  C   UNL     1      -0.691 -11.353  11.637  1.00  0.00     0.039 C 
BRANCH  11  12
ATOM     12  C   UNL     1      -0.166  -9.983  12.119  1.00  0.00     0.018 C 
BRANCH  12  13
ATOM     13  C   UNL     1      -0.649  -9.639  13.545  1.00  0.00     0.009 CG0
ATOM     14  G   UNL     1      -2.166  -9.399  13.647  1.00  0.00     0.000 G0
ENDBRANCH  12  13
BRANCH  12  15
ATOM     15  C   UNL     1       1.357  -9.958  12.070  1.00  0.00    -0.077 C 
ATOM     16  C   UNL     1       1.995  -9.075  11.286  1.00  0.00     0.008 C 
ATOM     17  C   UNL     1       2.177 -10.914  12.899  1.00  0.00     0.039 C 
ENDBRANCH  12  15
ENDBRANCH  11  12
ENDBRANCH   1  11
TORSDOF 1
ENDMDL
MODEL 9
REMARK VINA RESULT:    -3.209     12.736     13.658
REMARK INTER + INTRA:          -4.233
REMARK INTER:                  -4.276
REMARK INTRA:                   0.043
REMARK UNBOUND:                 0.101
REMARK SMILES C=C(C)[C@@H]1CC[C@@H](C)C2=C(C1)[C@H](C)CC2
REMARK SMILES IDX 10 1 9 2 15 3 14 4 12 5 13 6 7 7 8 8 6 9 11 11 4 12 5 13
REMARK SMILES IDX 2 15 1 16 3 17
REMARK H PARENT
REMARK Flexibility Score: 80.00
ROOT
ATOM      1  C   UNL     1      -1.962  -9.371  14.280  1.00  0.00    -0.067 C 
ATOM      2  C   UNL     1      -3.147  -9.967  14.407  1.00  0.00    -0.068 C 
ATOM      3  C   UNL     1      -3.426 -10.321  15.834  1.00  0.00     0.032 C 
ATOM      4  C   UNL     1      -2.283  -9.683  16.625  1.00  0.00     0.012 C 
ATOM      5  C   UNL     1      -1.244  -9.240  15.585  1.00  0.00     0.012 C 
ATOM      6  C   UNL     1       0.004 -10.130  15.615  1.00  0.00     0.012 C 
ENDROOT
BRANCH   2   7
ATOM      7  C   UNL     1      -4.057 -10.299  13.231  1.00  0.00     0.012 C 
ATOM      8  C   UNL     1      -5.409 -10.866  13.691  1.00  0.00     0.012 C 
BRANCH   7   9
ATOM      9  C   UNL     1      -3.363 -11.293  12.272  1.00  0.00     0.008 CG0
ATOM     10  G   UNL     1      -2.360 -10.615  11.321  1.00  0.00     0.000 G0
ENDBRANCH   7   9
ENDBRANCH   2   7
BRANCH   1  11
ATOM     11  C   UNL     1      -1.378  -8.906  12.969  1.00  0.00     0.039 C 
BRANCH  11  12
ATOM     12  C   UNL     1      -1.082 -10.094  12.029  1.00  0.00     0.018 C 
BRANCH  12  13
ATOM     13  C   UNL     1      -2.352 -10.607  11.316  1.00  0.00     0.009 CG0
ATOM     14  G   UNL     1      -3.358 -11.295  12.255  1.00  0.00     0.000 G0
ENDBRANCH  12  13
BRANCH  12  15
ATOM     15  C   UNL     1      -0.034  -9.697  10.996  1.00  0.00    -0.077 C 
ATOM     16  C   UNL     1      -0.371  -9.575   9.702  1.00  0.00     0.008 C 
ATOM     17  C   UNL     1       1.394  -9.428  11.400  1.00  0.00     0.039 C 
ENDBRANCH  12  15
ENDBRANCH  11  12
ENDBRANCH   1  11
TORSDOF 1
ENDMDL
