MODEL 1
REMARK VINA RESULT:    -4.482      0.000      0.000
REMARK INTER + INTRA:          -6.920
REMARK INTER:                  -6.840
REMARK INTRA:                  -0.080
REMARK UNBOUND:                -0.080
REMARK SMILES CC1=CCC[C@H](C)C(=O)C[C@@H](C(C)C)C(=O)C1
REMARK SMILES IDX 8 1 9 2 6 3 7 4 5 5 4 6 3 7 2 8 1 9 10 11 11 12 15 13 16 14
REMARK SMILES IDX 17 15 12 17 13 18 14 19
REMARK H PARENT
REMARK Flexibility Score: 70.00
ROOT
ATOM      1  C   UNL     1      -2.074 -13.091  31.547  1.00  0.00     0.136 C 
ATOM      2  O   UNL     1      -1.784 -14.038  32.261  1.00  0.00    -0.299 OA
ENDROOT
BRANCH   1   3
ATOM      3  C   UNL     1      -0.936 -12.302  30.915  1.00  0.00     0.053 C 
ATOM      4  C   UNL     1       0.362 -12.324  31.736  1.00  0.00     0.016 C 
BRANCH   3   5
ATOM      5  C   UNL     1      -0.776 -12.604  29.399  1.00  0.00     0.015 C 
BRANCH   5   6
ATOM      6  C   UNL     1      -1.876 -12.125  28.430  1.00  0.00     0.028 C 
BRANCH   6   7
ATOM      7  C   UNL     1      -2.597 -13.180  27.624  1.00  0.00    -0.028 C 
ATOM      8  C   UNL     1      -3.921 -13.448  27.659  1.00  0.00    -0.070 CG0
ATOM      9  C   UNL     1      -4.481 -14.375  26.609  1.00  0.00     0.039 C 
ATOM     10  G   UNL     1      -4.855 -12.893  28.717  1.00  0.00     0.000 G0
ENDBRANCH   6   7
ENDBRANCH   5   6
ENDBRANCH   3   5
ENDBRANCH   1   3
BRANCH   1  11
ATOM     11  C   UNL     1      -3.540 -12.766  31.330  1.00  0.00     0.087 C 
BRANCH  11  12
ATOM     12  C   UNL     1      -4.465 -14.000  31.098  1.00  0.00     0.066 C 
BRANCH  12  13
ATOM     13  C   UNL     1      -5.223 -13.924  29.776  1.00  0.00     0.140 C 
ATOM     14  O   UNL     1      -6.118 -14.722  29.548  1.00  0.00    -0.299 OA
BRANCH  13  15
ATOM     15  C   UNL     1      -4.879 -12.907  28.709  1.00  0.00     0.106 CG0
ATOM     16  G   UNL     1      -3.910 -13.448  27.675  1.00  0.00     0.000 G0
ENDBRANCH  13  15
ENDBRANCH  12  13
BRANCH  12  17
ATOM     17  C   UNL     1      -5.379 -14.405  32.303  1.00  0.00    -0.006 C 
ATOM     18  C   UNL     1      -5.172 -15.876  32.703  1.00  0.00     0.008 C 
ATOM     19  C   UNL     1      -5.238 -13.510  33.544  1.00  0.00     0.008 C 
ENDBRANCH  12  17
ENDBRANCH  11  12
ENDBRANCH   1  11
TORSDOF 1
ENDMDL
MODEL 2
REMARK VINA RESULT:    -4.423      2.037      2.793
REMARK INTER + INTRA:          -6.830
REMARK INTER:                  -7.440
REMARK INTRA:                   0.610
REMARK UNBOUND:                -0.080
REMARK SMILES CC1=CCC[C@H](C)C(=O)C[C@@H](C(C)C)C(=O)C1
REMARK SMILES IDX 8 1 9 2 6 3 7 4 5 5 4 6 3 7 2 8 1 9 10 11 11 12 15 13 16 14
REMARK SMILES IDX 17 15 12 17 13 18 14 19
REMARK H PARENT
REMARK Flexibility Score: 70.00
ROOT
ATOM      1  C   UNL     1      -1.007 -12.900  30.782  1.00  0.00     0.136 C 
ATOM      2  O   UNL     1      -0.302 -12.098  31.374  1.00  0.00    -0.299 OA
ENDROOT
BRANCH   1   3
ATOM      3  C   UNL     1      -0.783 -13.075  29.286  1.00  0.00     0.053 C 
ATOM      4  C   UNL     1       0.274 -14.133  28.939  1.00  0.00     0.016 C 
BRANCH   3   5
ATOM      5  C   UNL     1      -2.118 -13.175  28.496  1.00  0.00     0.015 C 
BRANCH   5   6
ATOM      6  C   UNL     1      -2.586 -11.953  27.678  1.00  0.00     0.028 C 
BRANCH   6   7
ATOM      7  C   UNL     1      -3.910 -11.332  28.058  1.00  0.00    -0.028 C 
ATOM      8  C   UNL     1      -4.194 -10.703  29.220  1.00  0.00    -0.070 CG0
ATOM      9  C   UNL     1      -5.495  -9.945  29.311  1.00  0.00     0.039 C 
ATOM     10  G   UNL     1      -3.291 -10.753  30.437  1.00  0.00     0.000 G0
ENDBRANCH   6   7
ENDBRANCH   5   6
ENDBRANCH   3   5
ENDBRANCH   1   3
BRANCH   1  11
ATOM     11  C   UNL     1      -2.050 -13.671  31.569  1.00  0.00     0.087 C 
BRANCH  11  12
ATOM     12  C   UNL     1      -3.527 -13.244  31.308  1.00  0.00     0.066 C 
BRANCH  12  13
ATOM     13  C   UNL     1      -3.743 -11.744  31.493  1.00  0.00     0.140 C 
ATOM     14  O   UNL     1      -4.316 -11.337  32.491  1.00  0.00    -0.299 OA
BRANCH  13  15
ATOM     15  C   UNL     1      -3.302 -10.733  30.456  1.00  0.00     0.106 CG0
ATOM     16  G   UNL     1      -4.192 -10.728  29.228  1.00  0.00     0.000 G0
ENDBRANCH  13  15
ENDBRANCH  12  13
BRANCH  12  17
ATOM     17  C   UNL     1      -4.623 -14.110  32.014  1.00  0.00    -0.006 C 
ATOM     18  C   UNL     1      -5.624 -14.693  31.001  1.00  0.00     0.008 C 
ATOM     19  C   UNL     1      -4.076 -15.237  32.903  1.00  0.00     0.008 C 
ENDBRANCH  12  17
ENDBRANCH  11  12
ENDBRANCH   1  11
TORSDOF 1
ENDMDL
MODEL 3
REMARK VINA RESULT:    -4.363      2.449      4.269
REMARK INTER + INTRA:          -6.739
REMARK INTER:                  -6.622
REMARK INTRA:                  -0.117
REMARK UNBOUND:                -0.080
REMARK SMILES CC1=CCC[C@H](C)C(=O)C[C@@H](C(C)C)C(=O)C1
REMARK SMILES IDX 8 1 9 2 6 3 7 4 5 5 4 6 3 7 2 8 1 9 10 11 11 12 15 13 16 14
REMARK SMILES IDX 17 15 12 17 13 18 14 19
REMARK H PARENT
REMARK Flexibility Score: 70.00
ROOT
ATOM      1  C   UNL     1      -2.143 -13.558  30.339  1.00  0.00     0.136 C 
ATOM      2  O   UNL     1      -2.890 -13.632  31.302  1.00  0.00    -0.299 OA
ENDROOT
BRANCH   1   3
ATOM      3  C   UNL     1      -0.668 -13.288  30.602  1.00  0.00     0.053 C 
ATOM      4  C   UNL     1       0.247 -13.655  29.424  1.00  0.00     0.016 C 
BRANCH   3   5
ATOM      5  C   UNL     1      -0.426 -11.886  31.228  1.00  0.00     0.015 C 
BRANCH   5   6
ATOM      6  C   UNL     1      -1.172 -10.673  30.636  1.00  0.00     0.028 C 
BRANCH   6   7
ATOM      7  C   UNL     1      -2.452 -10.247  31.316  1.00  0.00    -0.028 C 
ATOM      8  C   UNL     1      -3.669 -10.141  30.738  1.00  0.00    -0.070 CG0
ATOM      9  C   UNL     1      -4.861  -9.931  31.638  1.00  0.00     0.039 C 
ATOM     10  G   UNL     1      -3.885 -10.190  29.237  1.00  0.00     0.000 G0
ENDBRANCH   6   7
ENDBRANCH   5   6
ENDBRANCH   3   5
ENDBRANCH   1   3
BRANCH   1  11
ATOM     11  C   UNL     1      -2.726 -13.747  28.951  1.00  0.00     0.087 C 
BRANCH  11  12
ATOM     12  C   UNL     1      -2.954 -12.432  28.144  1.00  0.00     0.066 C 
BRANCH  12  13
ATOM     13  C   UNL     1      -4.106 -11.598  28.697  1.00  0.00     0.140 C 
ATOM     14  O   UNL     1      -5.237 -12.057  28.695  1.00  0.00    -0.299 OA
BRANCH  13  15
ATOM     15  C   UNL     1      -3.902 -10.193  29.223  1.00  0.00     0.106 CG0
ATOM     16  G   UNL     1      -3.662 -10.157  30.720  1.00  0.00     0.000 G0
ENDBRANCH  13  15
ENDBRANCH  12  13
BRANCH  12  17
ATOM     17  C   UNL     1      -3.005 -12.587  26.587  1.00  0.00    -0.006 C 
ATOM     18  C   UNL     1      -4.108 -13.567  26.151  1.00  0.00     0.008 C 
ATOM     19  C   UNL     1      -3.156 -11.266  25.816  1.00  0.00     0.008 C 
ENDBRANCH  12  17
ENDBRANCH  11  12
ENDBRANCH   1  11
TORSDOF 1
ENDMDL
MODEL 4
REMARK VINA RESULT:    -4.352      2.114      4.179
REMARK INTER + INTRA:          -6.722
REMARK INTER:                  -7.136
REMARK INTRA:                   0.414
REMARK UNBOUND:                -0.080
REMARK SMILES CC1=CCC[C@H](C)C(=O)C[C@@H](C(C)C)C(=O)C1
REMARK SMILES IDX 8 1 9 2 6 3 7 4 5 5 4 6 3 7 2 8 1 9 10 11 11 12 15 13 16 14
REMARK SMILES IDX 17 15 12 17 13 18 14 19
REMARK H PARENT
REMARK Flexibility Score: 70.00
ROOT
ATOM      1  C   UNL     1      -4.136 -12.165  31.212  1.00  0.00     0.136 C 
ATOM      2  O   UNL     1      -3.646 -11.189  31.757  1.00  0.00    -0.299 OA
ENDROOT
BRANCH   1   3
ATOM      3  C   UNL     1      -4.226 -13.456  32.013  1.00  0.00     0.053 C 
ATOM      4  C   UNL     1      -5.255 -14.456  31.462  1.00  0.00     0.016 C 
BRANCH   3   5
ATOM      5  C   UNL     1      -2.827 -14.047  32.343  1.00  0.00     0.015 C 
BRANCH   5   6
ATOM      6  C   UNL     1      -1.575 -13.342  31.781  1.00  0.00     0.028 C 
BRANCH   6   7
ATOM      7  C   UNL     1      -0.937 -13.941  30.550  1.00  0.00    -0.028 C 
ATOM      8  C   UNL     1      -0.712 -13.308  29.377  1.00  0.00    -0.070 CG0
ATOM      9  C   UNL     1       0.149 -14.006  28.353  1.00  0.00     0.039 C 
ATOM     10  G   UNL     1      -1.308 -11.957  29.032  1.00  0.00     0.000 G0
ENDBRANCH   6   7
ENDBRANCH   5   6
ENDBRANCH   3   5
ENDBRANCH   1   3
BRANCH   1  11
ATOM     11  C   UNL     1      -4.627 -12.030  29.783  1.00  0.00     0.087 C 
BRANCH  11  12
ATOM     12  C   UNL     1      -3.823 -12.847  28.726  1.00  0.00     0.066 C 
BRANCH  12  13
ATOM     13  C   UNL     1      -2.602 -12.092  28.209  1.00  0.00     0.140 C 
ATOM     14  O   UNL     1      -2.624 -11.604  27.089  1.00  0.00    -0.299 OA
BRANCH  13  15
ATOM     15  C   UNL     1      -1.335 -11.954  29.026  1.00  0.00     0.106 CG0
ATOM     16  G   UNL     1      -0.699 -13.292  29.350  1.00  0.00     0.000 G0
ENDBRANCH  13  15
ENDBRANCH  12  13
BRANCH  12  17
ATOM     17  C   UNL     1      -4.668 -13.499  27.581  1.00  0.00    -0.006 C 
ATOM     18  C   UNL     1      -3.798 -14.380  26.666  1.00  0.00     0.008 C 
ATOM     19  C   UNL     1      -5.887 -14.302  28.060  1.00  0.00     0.008 C 
ENDBRANCH  12  17
ENDBRANCH  11  12
ENDBRANCH   1  11
TORSDOF 1
ENDMDL
MODEL 5
REMARK VINA RESULT:    -4.297      1.889      4.070
REMARK INTER + INTRA:          -6.638
REMARK INTER:                  -7.071
REMARK INTRA:                   0.433
REMARK UNBOUND:                -0.080
REMARK SMILES CC1=CCC[C@H](C)C(=O)C[C@@H](C(C)C)C(=O)C1
REMARK SMILES IDX 8 1 9 2 6 3 7 4 5 5 4 6 3 7 2 8 1 9 10 11 11 12 15 13 16 14
REMARK SMILES IDX 17 15 12 17 13 18 14 19
REMARK H PARENT
REMARK Flexibility Score: 70.00
ROOT
ATOM      1  C   UNL     1      -4.791 -13.222  28.227  1.00  0.00     0.136 C 
ATOM      2  O   UNL     1      -5.736 -13.995  28.208  1.00  0.00    -0.299 OA
ENDROOT
BRANCH   1   3
ATOM      3  C   UNL     1      -3.596 -13.537  27.339  1.00  0.00     0.053 C 
ATOM      4  C   UNL     1      -3.278 -12.436  26.316  1.00  0.00     0.016 C 
BRANCH   3   5
ATOM      5  C   UNL     1      -2.381 -14.073  28.148  1.00  0.00     0.015 C 
BRANCH   5   6
ATOM      6  C   UNL     1      -1.072 -13.258  28.141  1.00  0.00     0.028 C 
BRANCH   6   7
ATOM      7  C   UNL     1      -0.449 -12.937  29.479  1.00  0.00    -0.028 C 
ATOM      8  C   UNL     1      -0.924 -12.063  30.394  1.00  0.00    -0.070 CG0
ATOM      9  C   UNL     1      -0.289 -12.061  31.763  1.00  0.00     0.039 C 
ATOM     10  G   UNL     1      -2.032 -11.071  30.101  1.00  0.00     0.000 G0
ENDBRANCH   6   7
ENDBRANCH   5   6
ENDBRANCH   3   5
ENDBRANCH   1   3
BRANCH   1  11
ATOM     11  C   UNL     1      -4.870 -12.001  29.124  1.00  0.00     0.087 C 
BRANCH  11  12
ATOM     12  C   UNL     1      -4.404 -12.227  30.594  1.00  0.00     0.066 C 
BRANCH  12  13
ATOM     13  C   UNL     1      -3.267 -11.294  30.999  1.00  0.00     0.140 C 
ATOM     14  O   UNL     1      -3.337 -10.680  32.053  1.00  0.00    -0.299 OA
BRANCH  13  15
ATOM     15  C   UNL     1      -2.057 -11.069  30.117  1.00  0.00     0.106 CG0
ATOM     16  G   UNL     1      -0.939 -12.055  30.394  1.00  0.00     0.000 G0
ENDBRANCH  13  15
ENDBRANCH  12  13
BRANCH  12  17
ATOM     17  C   UNL     1      -4.149 -13.715  31.008  1.00  0.00    -0.006 C 
ATOM     18  C   UNL     1      -3.126 -13.818  32.153  1.00  0.00     0.008 C 
ATOM     19  C   UNL     1      -5.414 -14.505  31.376  1.00  0.00     0.008 C 
ENDBRANCH  12  17
ENDBRANCH  11  12
ENDBRANCH   1  11
TORSDOF 1
ENDMDL
MODEL 6
REMARK VINA RESULT:    -4.163      1.882      4.482
REMARK INTER + INTRA:          -6.433
REMARK INTER:                  -6.979
REMARK INTRA:                   0.546
REMARK UNBOUND:                -0.080
REMARK SMILES CC1=CCC[C@H](C)C(=O)C[C@@H](C(C)C)C(=O)C1
REMARK SMILES IDX 8 1 9 2 6 3 7 4 5 5 4 6 3 7 2 8 1 9 10 11 11 12 15 13 16 14
REMARK SMILES IDX 17 15 12 17 13 18 14 19
REMARK H PARENT
REMARK Flexibility Score: 70.00
ROOT
ATOM      1  C   UNL     1      -3.364 -10.952  28.827  1.00  0.00     0.136 C 
ATOM      2  O   UNL     1      -3.958  -9.923  29.107  1.00  0.00    -0.299 OA
ENDROOT
BRANCH   1   3
ATOM      3  C   UNL     1      -3.848 -11.749  27.625  1.00  0.00     0.053 C 
ATOM      4  C   UNL     1      -2.990 -11.551  26.365  1.00  0.00     0.016 C 
BRANCH   3   5
ATOM      5  C   UNL     1      -4.178 -13.225  27.986  1.00  0.00     0.015 C 
BRANCH   5   6
ATOM      6  C   UNL     1      -5.571 -13.550  28.564  1.00  0.00     0.028 C 
BRANCH   6   7
ATOM      7  C   UNL     1      -5.628 -14.487  29.747  1.00  0.00    -0.028 C 
ATOM      8  C   UNL     1      -5.245 -14.203  31.012  1.00  0.00    -0.070 CG0
ATOM      9  C   UNL     1      -5.602 -15.191  32.095  1.00  0.00     0.039 C 
ATOM     10  G   UNL     1      -4.450 -12.967  31.383  1.00  0.00     0.000 G0
ENDBRANCH   6   7
ENDBRANCH   5   6
ENDBRANCH   3   5
ENDBRANCH   1   3
BRANCH   1  11
ATOM     11  C   UNL     1      -2.184 -11.366  29.687  1.00  0.00     0.087 C 
BRANCH  11  12
ATOM     12  C   UNL     1      -2.131 -12.880  30.055  1.00  0.00     0.066 C 
BRANCH  12  13
ATOM     13  C   UNL     1      -2.935 -13.206  31.311  1.00  0.00     0.140 C 
ATOM     14  O   UNL     1      -2.371 -13.692  32.278  1.00  0.00    -0.299 OA
BRANCH  13  15
ATOM     15  C   UNL     1      -4.430 -12.980  31.391  1.00  0.00     0.106 CG0
ATOM     16  G   UNL     1      -5.229 -14.210  31.005  1.00  0.00     0.000 G0
ENDBRANCH  13  15
ENDBRANCH  12  13
BRANCH  12  17
ATOM     17  C   UNL     1      -0.709 -13.534  30.054  1.00  0.00    -0.006 C 
ATOM     18  C   UNL     1      -0.201 -13.786  28.624  1.00  0.00     0.008 C 
ATOM     19  C   UNL     1       0.354 -12.758  30.848  1.00  0.00     0.008 C 
ENDBRANCH  12  17
ENDBRANCH  11  12
ENDBRANCH   1  11
TORSDOF 1
ENDMDL
MODEL 7
REMARK VINA RESULT:    -4.018      1.980      4.416
REMARK INTER + INTRA:          -6.213
REMARK INTER:                  -6.192
REMARK INTRA:                  -0.021
REMARK UNBOUND:                -0.080
REMARK SMILES CC1=CCC[C@H](C)C(=O)C[C@@H](C(C)C)C(=O)C1
REMARK SMILES IDX 8 1 9 2 6 3 7 4 5 5 4 6 3 7 2 8 1 9 10 11 11 12 15 13 16 14
REMARK SMILES IDX 17 15 12 17 13 18 14 19
REMARK H PARENT
REMARK Flexibility Score: 70.00
ROOT
ATOM      1  C   UNL     1      -4.901 -13.758  31.009  1.00  0.00     0.136 C 
ATOM      2  O   UNL     1      -5.528 -14.797  30.868  1.00  0.00    -0.299 OA
ENDROOT
BRANCH   1   3
ATOM      3  C   UNL     1      -4.134 -13.561  32.309  1.00  0.00     0.053 C 
ATOM      4  C   UNL     1      -4.990 -13.767  33.568  1.00  0.00     0.016 C 
BRANCH   3   5
ATOM      5  C   UNL     1      -2.761 -14.290  32.304  1.00  0.00     0.015 C 
BRANCH   5   6
ATOM      6  C   UNL     1      -1.576 -13.628  31.571  1.00  0.00     0.028 C 
BRANCH   6   7
ATOM      7  C   UNL     1      -1.555 -12.119  31.510  1.00  0.00    -0.028 C 
ATOM      8  C   UNL     1      -1.689 -11.361  30.399  1.00  0.00    -0.070 CG0
ATOM      9  C   UNL     1      -1.878  -9.875  30.579  1.00  0.00     0.039 C 
ATOM     10  G   UNL     1      -1.626 -11.925  28.993  1.00  0.00     0.000 G0
ENDBRANCH   6   7
ENDBRANCH   5   6
ENDBRANCH   3   5
ENDBRANCH   1   3
BRANCH   1  11
ATOM     11  C   UNL     1      -4.919 -12.741  29.884  1.00  0.00     0.087 C 
BRANCH  11  12
ATOM     12  C   UNL     1      -4.011 -13.085  28.664  1.00  0.00     0.066 C 
BRANCH  12  13
ATOM     13  C   UNL     1      -3.016 -11.974  28.342  1.00  0.00     0.140 C 
ATOM     14  O   UNL     1      -3.313 -11.118  27.523  1.00  0.00    -0.299 OA
BRANCH  13  15
ATOM     15  C   UNL     1      -1.645 -11.910  28.981  1.00  0.00     0.106 CG0
ATOM     16  G   UNL     1      -1.683 -11.364  30.396  1.00  0.00     0.000 G0
ENDBRANCH  13  15
ENDBRANCH  12  13
BRANCH  12  17
ATOM     17  C   UNL     1      -4.749 -13.629  27.395  1.00  0.00    -0.006 C 
ATOM     18  C   UNL     1      -3.756 -14.147  26.340  1.00  0.00     0.008 C 
ATOM     19  C   UNL     1      -5.805 -14.708  27.680  1.00  0.00     0.008 C 
ENDBRANCH  12  17
ENDBRANCH  11  12
ENDBRANCH   1  11
TORSDOF 1
ENDMDL
MODEL 8
REMARK VINA RESULT:    -3.853      2.155      4.163
REMARK INTER + INTRA:          -5.960
REMARK INTER:                  -6.725
REMARK INTRA:                   0.765
REMARK UNBOUND:                -0.080
REMARK SMILES CC1=CCC[C@H](C)C(=O)C[C@@H](C(C)C)C(=O)C1
REMARK SMILES IDX 8 1 9 2 6 3 7 4 5 5 4 6 3 7 2 8 1 9 10 11 11 12 15 13 16 14
REMARK SMILES IDX 17 15 12 17 13 18 14 19
REMARK H PARENT
REMARK Flexibility Score: 70.00
ROOT
ATOM      1  C   UNL     1      -0.550 -13.347  29.446  1.00  0.00     0.136 C 
ATOM      2  O   UNL     1       0.532 -13.283  28.885  1.00  0.00    -0.299 OA
ENDROOT
BRANCH   1   3
ATOM      3  C   UNL     1      -0.572 -13.229  30.964  1.00  0.00     0.053 C 
ATOM      4  C   UNL     1      -0.368 -11.795  31.475  1.00  0.00     0.016 C 
BRANCH   3   5
ATOM      5  C   UNL     1      -1.758 -14.006  31.601  1.00  0.00     0.015 C 
BRANCH   5   6
ATOM      6  C   UNL     1      -3.091 -13.264  31.828  1.00  0.00     0.028 C 
BRANCH   6   7
ATOM      7  C   UNL     1      -4.274 -13.694  30.993  1.00  0.00    -0.028 C 
ATOM      8  C   UNL     1      -4.815 -13.010  29.961  1.00  0.00    -0.070 CG0
ATOM      9  C   UNL     1      -5.839 -13.716  29.107  1.00  0.00     0.039 C 
ATOM     10  G   UNL     1      -4.471 -11.567  29.646  1.00  0.00     0.000 G0
ENDBRANCH   6   7
ENDBRANCH   5   6
ENDBRANCH   3   5
ENDBRANCH   1   3
BRANCH   1  11
ATOM     11  C   UNL     1      -1.797 -13.533  28.602  1.00  0.00     0.087 C 
BRANCH  11  12
ATOM     12  C   UNL     1      -2.430 -12.217  28.057  1.00  0.00     0.066 C 
BRANCH  12  13
ATOM     13  C   UNL     1      -3.048 -11.364  29.160  1.00  0.00     0.140 C 
ATOM     14  O   UNL     1      -2.370 -10.512  29.714  1.00  0.00    -0.299 OA
BRANCH  13  15
ATOM     15  C   UNL     1      -4.475 -11.558  29.626  1.00  0.00     0.106 CG0
ATOM     16  G   UNL     1      -4.789 -13.003  29.963  1.00  0.00     0.000 G0
ENDBRANCH  13  15
ENDBRANCH  12  13
BRANCH  12  17
ATOM     17  C   UNL     1      -3.365 -12.375  26.811  1.00  0.00    -0.006 C 
ATOM     18  C   UNL     1      -2.989 -11.390  25.691  1.00  0.00     0.008 C 
ATOM     19  C   UNL     1      -3.439 -13.799  26.240  1.00  0.00     0.008 C 
ENDBRANCH  12  17
ENDBRANCH  11  12
ENDBRANCH   1  11
TORSDOF 1
ENDMDL
MODEL 9
REMARK VINA RESULT:    -3.836      1.647      3.971
REMARK INTER + INTRA:          -5.934
REMARK INTER:                  -5.973
REMARK INTRA:                   0.039
REMARK UNBOUND:                -0.080
REMARK SMILES CC1=CCC[C@H](C)C(=O)C[C@@H](C(C)C)C(=O)C1
REMARK SMILES IDX 8 1 9 2 6 3 7 4 5 5 4 6 3 7 2 8 1 9 10 11 11 12 15 13 16 14
REMARK SMILES IDX 17 15 12 17 13 18 14 19
REMARK H PARENT
REMARK Flexibility Score: 70.00
ROOT
ATOM      1  C   UNL     1      -3.973 -13.526  31.769  1.00  0.00     0.136 C 
ATOM      2  O   UNL     1      -4.210 -12.574  32.497  1.00  0.00    -0.299 OA
ENDROOT
BRANCH   1   3
ATOM      3  C   UNL     1      -4.949 -14.694  31.788  1.00  0.00     0.053 C 
ATOM      4  C   UNL     1      -5.688 -14.861  33.124  1.00  0.00     0.016 C 
BRANCH   3   5
ATOM      5  C   UNL     1      -5.842 -14.740  30.516  1.00  0.00     0.015 C 
BRANCH   5   6
ATOM      6  C   UNL     1      -5.651 -13.652  29.439  1.00  0.00     0.028 C 
BRANCH   6   7
ATOM      7  C   UNL     1      -5.199 -14.104  28.071  1.00  0.00    -0.028 C 
ATOM      8  C   UNL     1      -4.205 -13.558  27.336  1.00  0.00    -0.070 CG0
ATOM      9  C   UNL     1      -3.751 -14.299  26.103  1.00  0.00     0.039 C 
ATOM     10  G   UNL     1      -3.554 -12.230  27.670  1.00  0.00     0.000 G0
ENDBRANCH   6   7
ENDBRANCH   5   6
ENDBRANCH   3   5
ENDBRANCH   1   3
BRANCH   1  11
ATOM     11  C   UNL     1      -2.735 -13.482  30.895  1.00  0.00     0.087 C 
BRANCH  11  12
ATOM     12  C   UNL     1      -2.518 -12.146  30.120  1.00  0.00     0.066 C 
BRANCH  12  13
ATOM     13  C   UNL     1      -2.370 -12.358  28.617  1.00  0.00     0.140 C 
ATOM     14  O   UNL     1      -1.272 -12.619  28.150  1.00  0.00    -0.299 OA
BRANCH  13  15
ATOM     15  C   UNL     1      -3.540 -12.221  27.665  1.00  0.00     0.106 CG0
ATOM     16  G   UNL     1      -4.188 -13.553  27.339  1.00  0.00     0.000 G0
ENDBRANCH  13  15
ENDBRANCH  12  13
BRANCH  12  17
ATOM     17  C   UNL     1      -1.433 -11.183  30.710  1.00  0.00    -0.006 C 
ATOM     18  C   UNL     1      -2.071 -10.000  31.458  1.00  0.00     0.008 C 
ATOM     19  C   UNL     1      -0.395 -11.864  31.615  1.00  0.00     0.008 C 
ENDBRANCH  12  17
ENDBRANCH  11  12
ENDBRANCH   1  11
TORSDOF 1
ENDMDL
