MODEL 1
REMARK VINA RESULT:    -5.014      0.000      0.000
REMARK INTER + INTRA:          -5.795
REMARK INTER:                  -5.747
REMARK INTRA:                  -0.049
REMARK UNBOUND:                -0.049
REMARK SMILES O=C([O-])c1cc(O)c(O)c(O)c1
REMARK SMILES IDX 4 1 5 2 12 3 6 4 10 5 8 6 2 7 1 8 3 9 7 10 11 12 9 14
REMARK H PARENT 7 11 11 13 9 15
REMARK Flexibility Score: inf
ROOT
ATOM      1  C   UNL     1       9.577 -12.151  13.086  1.00  0.00     0.005 A 
ATOM      2  C   UNL     1       9.396 -11.286  14.177  1.00  0.00     0.060 A 
ATOM      3  C   UNL     1       8.466 -12.489  12.292  1.00  0.00     0.060 A 
ATOM      4  C   UNL     1       8.129 -10.765  14.472  1.00  0.00     0.162 A 
ATOM      5  C   UNL     1       7.196 -11.972  12.583  1.00  0.00     0.162 A 
ATOM      6  C   UNL     1       7.027 -11.106  13.677  1.00  0.00     0.200 A 
ENDROOT
BRANCH   1   7
ATOM      7  C   UNL     1      10.917 -12.698  12.779  1.00  0.00     0.072 C 
ATOM      8  O   UNL     1      11.058 -13.909  12.460  1.00  0.00    -0.545 OA
ATOM      9  O   UNL     1      12.041 -11.882  12.838  1.00  0.00    -0.545 OA
ENDBRANCH   1   7
BRANCH   4  10
ATOM     10  O   UNL     1       7.955  -9.906  15.556  1.00  0.00    -0.504 OA
ATOM     11  H   UNL     1       7.445 -10.192  16.384  1.00  0.00     0.293 HD
ENDBRANCH   4  10
BRANCH   5  12
ATOM     12  O   UNL     1       6.102 -12.314  11.790  1.00  0.00    -0.504 OA
ATOM     13  H   UNL     1       6.019 -11.992  10.832  1.00  0.00     0.293 HD
ENDBRANCH   5  12
BRANCH   6  14
ATOM     14  O   UNL     1       5.774 -10.578  13.987  1.00  0.00    -0.502 OA
ATOM     15  H   UNL     1       5.295 -10.798  14.852  1.00  0.00     0.293 HD
ENDBRANCH   6  14
TORSDOF 4
ENDMDL
MODEL 2
REMARK VINA RESULT:    -5.006      0.049      2.421
REMARK INTER + INTRA:          -5.787
REMARK INTER:                  -5.738
REMARK INTRA:                  -0.049
REMARK UNBOUND:                -0.049
REMARK SMILES O=C([O-])c1cc(O)c(O)c(O)c1
REMARK SMILES IDX 4 1 5 2 12 3 6 4 10 5 8 6 2 7 1 8 3 9 7 10 11 12 9 14
REMARK H PARENT 7 11 11 13 9 15
REMARK Flexibility Score: inf
ROOT
ATOM      1  C   UNL     1       9.585 -12.158  13.078  1.00  0.00     0.005 A 
ATOM      2  C   UNL     1       8.484 -12.509  12.281  1.00  0.00     0.060 A 
ATOM      3  C   UNL     1       9.392 -11.274  14.155  1.00  0.00     0.060 A 
ATOM      4  C   UNL     1       7.211 -11.989  12.552  1.00  0.00     0.162 A 
ATOM      5  C   UNL     1       8.122 -10.750  14.430  1.00  0.00     0.162 A 
ATOM      6  C   UNL     1       7.027 -11.110  13.626  1.00  0.00     0.200 A 
ENDROOT
BRANCH   1   7
ATOM      7  C   UNL     1      10.927 -12.710  12.786  1.00  0.00     0.072 C 
ATOM      8  O   UNL     1      11.065 -13.918  12.456  1.00  0.00    -0.545 OA
ATOM      9  O   UNL     1      12.055 -11.901  12.870  1.00  0.00    -0.545 OA
ENDBRANCH   1   7
BRANCH   4  10
ATOM     10  O   UNL     1       6.122 -12.342  11.757  1.00  0.00    -0.504 OA
ATOM     11  H   UNL     1       5.794 -11.742  11.008  1.00  0.00     0.293 HD
ENDBRANCH   4  10
BRANCH   5  12
ATOM     12  O   UNL     1       7.942  -9.875  15.500  1.00  0.00    -0.504 OA
ATOM     13  H   UNL     1       7.604 -10.197  16.400  1.00  0.00     0.293 HD
ENDBRANCH   5  12
BRANCH   6  14
ATOM     14  O   UNL     1       5.753 -10.602  13.880  1.00  0.00    -0.502 OA
ATOM     15  H   UNL     1       5.524 -10.129  14.746  1.00  0.00     0.293 HD
ENDBRANCH   6  14
TORSDOF 4
ENDMDL
MODEL 3
REMARK VINA RESULT:    -4.918      2.015      2.318
REMARK INTER + INTRA:          -5.686
REMARK INTER:                  -5.633
REMARK INTRA:                  -0.053
REMARK UNBOUND:                -0.049
REMARK SMILES O=C([O-])c1cc(O)c(O)c(O)c1
REMARK SMILES IDX 4 1 5 2 12 3 6 4 10 5 8 6 2 7 1 8 3 9 7 10 11 12 9 14
REMARK H PARENT 7 11 11 13 9 15
REMARK Flexibility Score: inf
ROOT
ATOM      1  C   UNL     1       8.174 -13.247  14.447  1.00  0.00     0.005 A 
ATOM      2  C   UNL     1       7.603 -12.492  15.484  1.00  0.00     0.060 A 
ATOM      3  C   UNL     1       7.904 -12.889  13.115  1.00  0.00     0.060 A 
ATOM      4  C   UNL     1       6.776 -11.398  15.198  1.00  0.00     0.162 A 
ATOM      5  C   UNL     1       7.077 -11.795  12.822  1.00  0.00     0.162 A 
ATOM      6  C   UNL     1       6.511 -11.047  13.869  1.00  0.00     0.200 A 
ENDROOT
BRANCH   1   7
ATOM      7  C   UNL     1       9.046 -14.402  14.756  1.00  0.00     0.072 C 
ATOM      8  O   UNL     1       9.146 -14.833  15.936  1.00  0.00    -0.545 OA
ATOM      9  O   UNL     1       9.767 -15.031  13.747  1.00  0.00    -0.545 OA
ENDBRANCH   1   7
BRANCH   4  10
ATOM     10  O   UNL     1       6.212 -10.651  16.232  1.00  0.00    -0.504 OA
ATOM     11  H   UNL     1       5.398 -10.065  16.081  1.00  0.00     0.293 HD
ENDBRANCH   4  10
BRANCH   5  12
ATOM     12  O   UNL     1       6.816 -11.450  11.498  1.00  0.00    -0.504 OA
ATOM     13  H   UNL     1       6.158 -10.716  11.259  1.00  0.00     0.293 HD
ENDBRANCH   5  12
BRANCH   6  14
ATOM     14  O   UNL     1       5.686  -9.954  13.603  1.00  0.00    -0.502 OA
ATOM     15  H   UNL     1       5.812  -9.369  12.786  1.00  0.00     0.293 HD
ENDBRANCH   6  14
TORSDOF 4
ENDMDL
MODEL 4
REMARK VINA RESULT:    -4.674      7.193      8.771
REMARK INTER + INTRA:          -5.406
REMARK INTER:                  -5.361
REMARK INTRA:                  -0.045
REMARK UNBOUND:                -0.049
REMARK SMILES O=C([O-])c1cc(O)c(O)c(O)c1
REMARK SMILES IDX 4 1 5 2 12 3 6 4 10 5 8 6 2 7 1 8 3 9 7 10 11 12 9 14
REMARK H PARENT 7 11 11 13 9 15
REMARK Flexibility Score: inf
ROOT
ATOM      1  C   UNL     1       4.727 -14.776   7.359  1.00  0.00     0.005 A 
ATOM      2  C   UNL     1       5.679 -15.593   7.990  1.00  0.00     0.060 A 
ATOM      3  C   UNL     1       5.109 -14.032   6.229  1.00  0.00     0.060 A 
ATOM      4  C   UNL     1       6.991 -15.667   7.503  1.00  0.00     0.162 A 
ATOM      5  C   UNL     1       6.420 -14.102   5.737  1.00  0.00     0.162 A 
ATOM      6  C   UNL     1       7.364 -14.923   6.377  1.00  0.00     0.200 A 
ENDROOT
BRANCH   1   7
ATOM      7  C   UNL     1       3.343 -14.702   7.879  1.00  0.00     0.072 C 
ATOM      8  O   UNL     1       2.982 -13.738   8.605  1.00  0.00    -0.545 OA
ATOM      9  O   UNL     1       2.420 -15.696   7.571  1.00  0.00    -0.545 OA
ENDBRANCH   1   7
BRANCH   4  10
ATOM     10  O   UNL     1       7.931 -16.480   8.133  1.00  0.00    -0.504 OA
ATOM     11  H   UNL     1       8.927 -16.325   8.021  1.00  0.00     0.293 HD
ENDBRANCH   4  10
BRANCH   5  12
ATOM     12  O   UNL     1       6.788 -13.359   4.617  1.00  0.00    -0.504 OA
ATOM     13  H   UNL     1       6.997 -12.370   4.680  1.00  0.00     0.293 HD
ENDBRANCH   5  12
BRANCH   6  14
ATOM     14  O   UNL     1       8.675 -15.009   5.907  1.00  0.00    -0.502 OA
ATOM     15  H   UNL     1       9.393 -14.354   6.190  1.00  0.00     0.293 HD
ENDBRANCH   6  14
TORSDOF 4
ENDMDL
MODEL 5
REMARK VINA RESULT:    -4.657      6.979      7.871
REMARK INTER + INTRA:          -5.387
REMARK INTER:                  -5.335
REMARK INTRA:                  -0.051
REMARK UNBOUND:                -0.049
REMARK SMILES O=C([O-])c1cc(O)c(O)c(O)c1
REMARK SMILES IDX 4 1 5 2 12 3 6 4 10 5 8 6 2 7 1 8 3 9 7 10 11 12 9 14
REMARK H PARENT 7 11 11 13 9 15
REMARK Flexibility Score: inf
ROOT
ATOM      1  C   UNL     1       8.679 -15.686   6.553  1.00  0.00     0.005 A 
ATOM      2  C   UNL     1       8.227 -14.829   5.536  1.00  0.00     0.060 A 
ATOM      3  C   UNL     1       7.883 -15.863   7.699  1.00  0.00     0.060 A 
ATOM      4  C   UNL     1       7.002 -14.160   5.659  1.00  0.00     0.162 A 
ATOM      5  C   UNL     1       6.657 -15.197   7.827  1.00  0.00     0.162 A 
ATOM      6  C   UNL     1       6.214 -14.342   6.802  1.00  0.00     0.200 A 
ENDROOT
BRANCH   1   7
ATOM      7  C   UNL     1       9.974 -16.389   6.418  1.00  0.00     0.072 C 
ATOM      8  O   UNL     1      10.879 -15.929   5.671  1.00  0.00    -0.545 OA
ATOM      9  O   UNL     1      10.213 -17.567   7.117  1.00  0.00    -0.545 OA
ENDBRANCH   1   7
BRANCH   4  10
ATOM     10  O   UNL     1       6.559 -13.311   4.646  1.00  0.00    -0.504 OA
ATOM     11  H   UNL     1       6.265 -12.360   4.841  1.00  0.00     0.293 HD
ENDBRANCH   4  10
BRANCH   5  12
ATOM     12  O   UNL     1       5.876 -15.380   8.967  1.00  0.00    -0.504 OA
ATOM     13  H   UNL     1       4.864 -15.325   8.933  1.00  0.00     0.293 HD
ENDBRANCH   5  12
BRANCH   6  14
ATOM     14  O   UNL     1       4.998 -13.667   6.907  1.00  0.00    -0.502 OA
ATOM     15  H   UNL     1       4.304 -13.912   7.603  1.00  0.00     0.293 HD
ENDBRANCH   6  14
TORSDOF 4
ENDMDL
MODEL 6
REMARK VINA RESULT:    -4.655      6.984      7.693
REMARK INTER + INTRA:          -5.385
REMARK INTER:                  -5.333
REMARK INTRA:                  -0.051
REMARK UNBOUND:                -0.049
REMARK SMILES O=C([O-])c1cc(O)c(O)c(O)c1
REMARK SMILES IDX 4 1 5 2 12 3 6 4 10 5 8 6 2 7 1 8 3 9 7 10 11 12 9 14
REMARK H PARENT 7 11 11 13 9 15
REMARK Flexibility Score: inf
ROOT
ATOM      1  C   UNL     1       8.629 -15.656   6.564  1.00  0.00     0.005 A 
ATOM      2  C   UNL     1       7.836 -15.842   7.708  1.00  0.00     0.060 A 
ATOM      3  C   UNL     1       8.169 -14.802   5.547  1.00  0.00     0.060 A 
ATOM      4  C   UNL     1       6.604 -15.186   7.836  1.00  0.00     0.162 A 
ATOM      5  C   UNL     1       6.937 -14.143   5.670  1.00  0.00     0.162 A 
ATOM      6  C   UNL     1       6.152 -14.336   6.820  1.00  0.00     0.200 A 
ENDROOT
BRANCH   1   7
ATOM      7  C   UNL     1       9.928 -16.353   6.434  1.00  0.00     0.072 C 
ATOM      8  O   UNL     1      10.829 -15.895   5.681  1.00  0.00    -0.545 OA
ATOM      9  O   UNL     1      10.175 -17.523   7.143  1.00  0.00    -0.545 OA
ENDBRANCH   1   7
BRANCH   4  10
ATOM     10  O   UNL     1       5.822 -15.374   8.974  1.00  0.00    -0.504 OA
ATOM     11  H   UNL     1       4.968 -14.847   9.125  1.00  0.00     0.293 HD
ENDBRANCH   4  10
BRANCH   5  12
ATOM     12  O   UNL     1       6.491 -13.298   4.655  1.00  0.00    -0.504 OA
ATOM     13  H   UNL     1       6.068 -12.399   4.859  1.00  0.00     0.293 HD
ENDBRANCH   5  12
BRANCH   6  14
ATOM     14  O   UNL     1       4.924 -13.692   6.965  1.00  0.00    -0.502 OA
ATOM     15  H   UNL     1       4.759 -13.004   7.690  1.00  0.00     0.293 HD
ENDBRANCH   6  14
TORSDOF 4
ENDMDL
MODEL 7
REMARK VINA RESULT:    -4.645      7.211      8.850
REMARK INTER + INTRA:          -5.372
REMARK INTER:                  -5.328
REMARK INTRA:                  -0.045
REMARK UNBOUND:                -0.049
REMARK SMILES O=C([O-])c1cc(O)c(O)c(O)c1
REMARK SMILES IDX 4 1 5 2 12 3 6 4 10 5 8 6 2 7 1 8 3 9 7 10 11 12 9 14
REMARK H PARENT 7 11 11 13 9 15
REMARK Flexibility Score: inf
ROOT
ATOM      1  C   UNL     1       4.757 -14.805   7.303  1.00  0.00     0.005 A 
ATOM      2  C   UNL     1       5.131 -14.037   6.188  1.00  0.00     0.060 A 
ATOM      3  C   UNL     1       5.722 -15.615   7.927  1.00  0.00     0.060 A 
ATOM      4  C   UNL     1       6.445 -14.075   5.703  1.00  0.00     0.162 A 
ATOM      5  C   UNL     1       7.038 -15.658   7.446  1.00  0.00     0.162 A 
ATOM      6  C   UNL     1       7.401 -14.885   6.329  1.00  0.00     0.200 A 
ENDROOT
BRANCH   1   7
ATOM      7  C   UNL     1       3.368 -14.760   7.810  1.00  0.00     0.072 C 
ATOM      8  O   UNL     1       2.544 -15.664   7.505  1.00  0.00    -0.545 OA
ATOM      9  O   UNL     1       2.951 -13.720   8.633  1.00  0.00    -0.545 OA
ENDBRANCH   1   7
BRANCH   4  10
ATOM     10  O   UNL     1       6.810 -13.310   4.597  1.00  0.00    -0.504 OA
ATOM     11  H   UNL     1       6.263 -12.509   4.301  1.00  0.00     0.293 HD
ENDBRANCH   4  10
BRANCH   5  12
ATOM     12  O   UNL     1       7.986 -16.465   8.072  1.00  0.00    -0.504 OA
ATOM     13  H   UNL     1       8.735 -16.071   8.630  1.00  0.00     0.293 HD
ENDBRANCH   5  12
BRANCH   6  14
ATOM     14  O   UNL     1       8.703 -14.910   5.832  1.00  0.00    -0.502 OA
ATOM     15  H   UNL     1       9.486 -15.235   6.387  1.00  0.00     0.293 HD
ENDBRANCH   6  14
TORSDOF 4
ENDMDL
MODEL 8
REMARK VINA RESULT:    -4.453      2.160      4.792
REMARK INTER + INTRA:          -5.152
REMARK INTER:                  -5.099
REMARK INTRA:                  -0.053
REMARK UNBOUND:                -0.049
REMARK SMILES O=C([O-])c1cc(O)c(O)c(O)c1
REMARK SMILES IDX 4 1 5 2 12 3 6 4 10 5 8 6 2 7 1 8 3 9 7 10 11 12 9 14
REMARK H PARENT 7 11 11 13 9 15
REMARK Flexibility Score: inf
ROOT
ATOM      1  C   UNL     1       9.101 -12.801  14.558  1.00  0.00     0.005 A 
ATOM      2  C   UNL     1       9.905 -13.881  14.156  1.00  0.00     0.060 A 
ATOM      3  C   UNL     1       9.472 -11.499  14.181  1.00  0.00     0.060 A 
ATOM      4  C   UNL     1      11.059 -13.665  13.391  1.00  0.00     0.162 A 
ATOM      5  C   UNL     1      10.625 -11.277  13.416  1.00  0.00     0.162 A 
ATOM      6  C   UNL     1      11.421 -12.365  13.019  1.00  0.00     0.200 A 
ENDROOT
BRANCH   1   7
ATOM      7  C   UNL     1       7.884 -13.036  15.367  1.00  0.00     0.072 C 
ATOM      8  O   UNL     1       7.160 -12.071  15.730  1.00  0.00    -0.545 OA
ATOM      9  O   UNL     1       7.521 -14.326  15.737  1.00  0.00    -0.545 OA
ENDBRANCH   1   7
BRANCH   4  10
ATOM     10  O   UNL     1      11.852 -14.741  12.995  1.00  0.00    -0.504 OA
ATOM     11  H   UNL     1      11.452 -15.651  12.793  1.00  0.00     0.293 HD
ENDBRANCH   4  10
BRANCH   5  12
ATOM     12  O   UNL     1      10.982  -9.981  13.048  1.00  0.00    -0.504 OA
ATOM     13  H   UNL     1      10.288  -9.296  12.770  1.00  0.00     0.293 HD
ENDBRANCH   5  12
BRANCH   6  14
ATOM     14  O   UNL     1      12.573 -12.170  12.257  1.00  0.00    -0.502 OA
ATOM     15  H   UNL     1      13.127 -11.325  12.324  1.00  0.00     0.293 HD
ENDBRANCH   6  14
TORSDOF 4
ENDMDL
