MODEL 1
REMARK VINA RESULT:    -6.894      0.000      0.000
REMARK INTER + INTRA:         -13.293
REMARK INTER:                 -10.925
REMARK INTRA:                  -2.368
REMARK UNBOUND:                -2.368
REMARK SMILES C[C@H]1O[C@@H](O[C@@H]2[C@@H](Oc3cc(O)c4c(c3)O[C@H](c3ccc(O)cc3)CC4=O)O[C@@H](CO)[C@H](O)[C@H]2O)[C@H](O)[C@@H](O)[C@H]1O
REMARK SMILES IDX 6 1 34 2 32 3 29 4 28 5 7 6 5 7 4 8 1 9 2 10 40 11 3 12
REMARK SMILES IDX 38 13 36 14 41 15 39 17 37 19 35 21 8 23 9 24 10 25 15 26
REMARK SMILES IDX 11 27 14 28 13 29 16 30 26 31 17 32 27 33 25 34 12 35 18 37
REMARK SMILES IDX 19 38 24 39 20 40 23 41 21 42 22 43 33 45 30 47 31 48
REMARK H PARENT 41 16 39 18 37 20 35 22 12 36 22 44 33 46 31 49
REMARK Flexibility Score: inf
ROOT
ATOM      1  C   UNL     1       1.936 -29.506   5.413  1.00  0.00     0.221 C 
ATOM      2  C   UNL     1       0.572 -29.456   4.688  1.00  0.00     0.181 C 
ATOM      3  C   UNL     1      -0.531 -30.237   5.442  1.00  0.00     0.177 C 
ATOM      4  C   UNL     1       0.043 -31.038   6.635  1.00  0.00     0.179 C 
ATOM      5  O   UNL     1       0.729 -30.187   7.533  1.00  0.00    -0.332 OA
ATOM      6  C   UNL     1       1.755 -29.394   6.946  1.00  0.00     0.339 C 
ENDROOT
BRANCH   1   7
ATOM      7  O   UNL     1       2.624 -30.713   5.101  1.00  0.00    -0.337 OA
BRANCH   7   8
ATOM      8  C   UNL     1       2.889 -30.851   3.706  1.00  0.00     0.282 C 
ATOM      9  C   UNL     1       3.889 -33.364   5.293  1.00  0.00     0.041 C 
ATOM     10  C   UNL     1       4.066 -32.938   3.825  1.00  0.00     0.150 C 
ATOM     11  C   UNL     1       5.420 -32.244   3.511  1.00  0.00     0.174 C 
ATOM     12  O   UNL     1       2.940 -32.219   3.332  1.00  0.00    -0.344 OA
ATOM     13  C   UNL     1       5.415 -30.761   3.896  1.00  0.00     0.179 C 
ATOM     14  C   UNL     1       4.169 -30.079   3.328  1.00  0.00     0.202 C 
BRANCH  11  15
ATOM     15  O   UNL     1       6.487 -32.891   4.152  1.00  0.00    -0.388 OA
ATOM     16  H   UNL     1       6.897 -32.223   4.761  1.00  0.00     0.211 HD
ENDBRANCH  11  15
BRANCH  13  17
ATOM     17  O   UNL     1       5.467 -30.612   5.290  1.00  0.00    -0.387 OA
ATOM     18  H   UNL     1       4.534 -30.691   5.620  1.00  0.00     0.211 HD
ENDBRANCH  13  17
BRANCH  14  19
ATOM     19  O   UNL     1       4.279 -30.015   1.923  1.00  0.00    -0.385 OA
ATOM     20  H   UNL     1       5.195 -30.324   1.689  1.00  0.00     0.211 HD
ENDBRANCH  14  19
ENDBRANCH   7   8
ENDBRANCH   1   7
BRANCH   2  21
ATOM     21  O   UNL     1       0.162 -28.121   4.529  1.00  0.00    -0.387 OA
ATOM     22  H   UNL     1      -0.403 -28.087   3.713  1.00  0.00     0.211 HD
ENDBRANCH   2  21
BRANCH   6  23
ATOM     23  O   UNL     1       1.504 -28.026   7.259  1.00  0.00    -0.462 OA
BRANCH  23  24
ATOM     24  C   UNL     1       2.474 -27.021   7.358  1.00  0.00     0.130 A 
ATOM     25  C   UNL     1       3.438 -26.994   8.378  1.00  0.00     0.093 A 
ATOM     26  C   UNL     1       2.495 -26.031   6.375  1.00  0.00     0.094 A 
ATOM     27  C   UNL     1       4.438 -26.017   8.401  1.00  0.00     0.133 A 
ATOM     28  C   UNL     1       3.488 -25.054   6.367  1.00  0.00     0.138 A 
ATOM     29  C   UNL     1       4.467 -25.014   7.387  1.00  0.00     0.102 A 
ATOM     30  O   UNL     1       3.505 -24.135   5.311  1.00  0.00    -0.484 OA
ATOM     31  C   UNL     1       5.470 -23.915   7.310  1.00  0.00     0.174 C 
ATOM     32  C   UNL     1       4.589 -23.240   5.056  1.00  0.00     0.211 C 
ATOM     33  O   UNL     1       6.513 -23.907   8.012  1.00  0.00    -0.294 OA
ATOM     34  C   UNL     1       5.234 -22.766   6.373  1.00  0.00     0.131 C 
BRANCH  27  35
ATOM     35  O   UNL     1       5.366 -26.101   9.444  1.00  0.00    -0.507 OA
ATOM     36  H   UNL     1       5.587 -26.936   9.957  1.00  0.00     0.293 HD
ENDBRANCH  27  35
BRANCH  32  37
ATOM     37  C   UNL     1       5.603 -23.864   4.111  1.00  0.00    -0.007 A 
ATOM     38  C   UNL     1       6.948 -23.437   4.084  1.00  0.00     0.011 A 
ATOM     39  C   UNL     1       5.195 -24.873   3.219  1.00  0.00     0.011 A 
ATOM     40  C   UNL     1       7.858 -24.015   3.195  1.00  0.00     0.046 A 
ATOM     41  C   UNL     1       6.114 -25.454   2.337  1.00  0.00     0.046 A 
ATOM     42  C   UNL     1       7.447 -25.030   2.325  1.00  0.00     0.115 A 
BRANCH  42  43
ATOM     43  O   UNL     1       8.356 -25.623   1.448  1.00  0.00    -0.508 OA
ATOM     44  H   UNL     1       8.408 -25.346   0.474  1.00  0.00     0.293 HD
ENDBRANCH  42  43
ENDBRANCH  32  37
ENDBRANCH  23  24
ENDBRANCH   6  23
BRANCH   3  45
ATOM     45  O   UNL     1      -1.172 -31.109   4.540  1.00  0.00    -0.387 OA
ATOM     46  H   UNL     1      -2.123 -30.833   4.480  1.00  0.00     0.211 HD
ENDBRANCH   3  45
BRANCH   4  47
ATOM     47  C   UNL     1      -1.077 -31.741   7.422  1.00  0.00     0.191 C 
BRANCH  47  48
ATOM     48  O   UNL     1      -1.360 -32.990   6.848  1.00  0.00    -0.394 OA
ATOM     49  H   UNL     1      -2.183 -33.322   7.300  1.00  0.00     0.210 HD
ENDBRANCH  47  48
ENDBRANCH   4  47
TORSDOF 14
ENDMDL
MODEL 2
REMARK VINA RESULT:    -6.569      2.900      6.703
REMARK INTER + INTRA:         -12.777
REMARK INTER:                 -11.035
REMARK INTRA:                  -1.742
REMARK UNBOUND:                -2.368
REMARK SMILES C[C@H]1O[C@@H](O[C@@H]2[C@@H](Oc3cc(O)c4c(c3)O[C@H](c3ccc(O)cc3)CC4=O)O[C@@H](CO)[C@H](O)[C@H]2O)[C@H](O)[C@@H](O)[C@H]1O
REMARK SMILES IDX 6 1 34 2 32 3 29 4 28 5 7 6 5 7 4 8 1 9 2 10 40 11 3 12
REMARK SMILES IDX 38 13 36 14 41 15 39 17 37 19 35 21 8 23 9 24 10 25 15 26
REMARK SMILES IDX 11 27 14 28 13 29 16 30 26 31 17 32 27 33 25 34 12 35 18 37
REMARK SMILES IDX 19 38 24 39 20 40 23 41 21 42 22 43 33 45 30 47 31 48
REMARK H PARENT 41 16 39 18 37 20 35 22 12 36 22 44 33 46 31 49
REMARK Flexibility Score: inf
ROOT
ATOM      1  C   UNL     1       5.065 -32.432   2.133  1.00  0.00     0.221 C 
ATOM      2  C   UNL     1       6.260 -32.655   3.087  1.00  0.00     0.181 C 
ATOM      3  C   UNL     1       6.631 -31.381   3.884  1.00  0.00     0.177 C 
ATOM      4  C   UNL     1       5.842 -30.143   3.392  1.00  0.00     0.179 C 
ATOM      5  O   UNL     1       4.447 -30.369   3.467  1.00  0.00    -0.332 OA
ATOM      6  C   UNL     1       3.989 -31.534   2.790  1.00  0.00     0.339 C 
ENDROOT
BRANCH   1   7
ATOM      7  O   UNL     1       5.502 -31.837   0.915  1.00  0.00    -0.337 OA
BRANCH   7   8
ATOM      8  C   UNL     1       6.062 -32.787   0.009  1.00  0.00     0.282 C 
ATOM      9  C   UNL     1       7.824 -30.197   0.154  1.00  0.00     0.041 C 
ATOM     10  C   UNL     1       7.885 -31.432  -0.762  1.00  0.00     0.150 C 
ATOM     11  C   UNL     1       7.215 -31.241  -2.151  1.00  0.00     0.174 C 
ATOM     12  O   UNL     1       7.467 -32.618  -0.097  1.00  0.00    -0.344 OA
ATOM     13  C   UNL     1       5.693 -31.415  -2.090  1.00  0.00     0.179 C 
ATOM     14  C   UNL     1       5.346 -32.710  -1.355  1.00  0.00     0.202 C 
BRANCH  11  15
ATOM     15  O   UNL     1       7.522 -29.987  -2.699  1.00  0.00    -0.388 OA
ATOM     16  H   UNL     1       7.300 -30.040  -3.666  1.00  0.00     0.211 HD
ENDBRANCH  11  15
BRANCH  13  17
ATOM     17  O   UNL     1       5.096 -30.313  -1.460  1.00  0.00    -0.387 OA
ATOM     18  H   UNL     1       5.581 -30.175  -0.604  1.00  0.00     0.211 HD
ENDBRANCH  13  17
BRANCH  14  19
ATOM     19  O   UNL     1       5.733 -33.809  -2.149  1.00  0.00    -0.385 OA
ATOM     20  H   UNL     1       4.952 -34.044  -2.719  1.00  0.00     0.211 HD
ENDBRANCH  14  19
ENDBRANCH   7   8
ENDBRANCH   1   7
BRANCH   2  21
ATOM     21  O   UNL     1       5.966 -33.691   3.990  1.00  0.00    -0.387 OA
ATOM     22  H   UNL     1       5.413 -34.354   3.500  1.00  0.00     0.211 HD
ENDBRANCH   2  21
BRANCH   6  23
ATOM     23  O   UNL     1       3.255 -32.335   3.715  1.00  0.00    -0.462 OA
BRANCH  23  24
ATOM     24  C   UNL     1       2.941 -31.978   5.032  1.00  0.00     0.130 A 
ATOM     25  C   UNL     1       3.331 -32.746   6.140  1.00  0.00     0.093 A 
ATOM     26  C   UNL     1       2.242 -30.789   5.239  1.00  0.00     0.094 A 
ATOM     27  C   UNL     1       3.065 -32.320   7.445  1.00  0.00     0.133 A 
ATOM     28  C   UNL     1       1.975 -30.334   6.529  1.00  0.00     0.138 A 
ATOM     29  C   UNL     1       2.363 -31.096   7.656  1.00  0.00     0.102 A 
ATOM     30  O   UNL     1       1.341 -29.095   6.676  1.00  0.00    -0.484 OA
ATOM     31  C   UNL     1       2.009 -30.542   8.993  1.00  0.00     0.174 C 
ATOM     32  C   UNL     1       1.220 -28.409   7.924  1.00  0.00     0.211 C 
ATOM     33  O   UNL     1       2.493 -30.999  10.059  1.00  0.00    -0.294 OA
ATOM     34  C   UNL     1       1.032 -29.405   9.084  1.00  0.00     0.131 C 
BRANCH  27  35
ATOM     35  O   UNL     1       3.525 -33.145   8.476  1.00  0.00    -0.507 OA
ATOM     36  H   UNL     1       3.933 -32.824   9.336  1.00  0.00     0.293 HD
ENDBRANCH  27  35
BRANCH  32  37
ATOM     37  C   UNL     1       2.399 -27.477   8.152  1.00  0.00    -0.007 A 
ATOM     38  C   UNL     1       2.982 -27.321   9.429  1.00  0.00     0.011 A 
ATOM     39  C   UNL     1       2.911 -26.726   7.079  1.00  0.00     0.011 A 
ATOM     40  C   UNL     1       4.055 -26.447   9.617  1.00  0.00     0.046 A 
ATOM     41  C   UNL     1       3.992 -25.857   7.272  1.00  0.00     0.046 A 
ATOM     42  C   UNL     1       4.568 -25.718   8.539  1.00  0.00     0.115 A 
BRANCH  42  43
ATOM     43  O   UNL     1       5.651 -24.856   8.718  1.00  0.00    -0.508 OA
ATOM     44  H   UNL     1       5.746 -24.006   8.173  1.00  0.00     0.293 HD
ENDBRANCH  42  43
ENDBRANCH  32  37
ENDBRANCH  23  24
ENDBRANCH   6  23
BRANCH   3  45
ATOM     45  O   UNL     1       8.015 -31.150   3.760  1.00  0.00    -0.387 OA
ATOM     46  H   UNL     1       8.336 -30.786   4.625  1.00  0.00     0.211 HD
ENDBRANCH   3  45
BRANCH   4  47
ATOM     47  C   UNL     1       6.160 -28.905   4.248  1.00  0.00     0.191 C 
BRANCH  47  48
ATOM     48  O   UNL     1       6.859 -29.286   5.405  1.00  0.00    -0.394 OA
ATOM     49  H   UNL     1       7.388 -28.489   5.684  1.00  0.00     0.210 HD
ENDBRANCH  47  48
ENDBRANCH   4  47
TORSDOF 14
ENDMDL
MODEL 3
REMARK VINA RESULT:    -6.486      2.475      5.892
REMARK INTER + INTRA:         -12.645
REMARK INTER:                 -10.371
REMARK INTRA:                  -2.275
REMARK UNBOUND:                -2.368
REMARK SMILES C[C@H]1O[C@@H](O[C@@H]2[C@@H](Oc3cc(O)c4c(c3)O[C@H](c3ccc(O)cc3)CC4=O)O[C@@H](CO)[C@H](O)[C@H]2O)[C@H](O)[C@@H](O)[C@H]1O
REMARK SMILES IDX 6 1 34 2 32 3 29 4 28 5 7 6 5 7 4 8 1 9 2 10 40 11 3 12
REMARK SMILES IDX 38 13 36 14 41 15 39 17 37 19 35 21 8 23 9 24 10 25 15 26
REMARK SMILES IDX 11 27 14 28 13 29 16 30 26 31 17 32 27 33 25 34 12 35 18 37
REMARK SMILES IDX 19 38 24 39 20 40 23 41 21 42 22 43 33 45 30 47 31 48
REMARK H PARENT 41 16 39 18 37 20 35 22 12 36 22 44 33 46 31 49
REMARK Flexibility Score: inf
ROOT
ATOM      1  C   UNL     1       2.081 -31.113   6.369  1.00  0.00     0.221 C 
ATOM      2  C   UNL     1       1.961 -32.394   7.224  1.00  0.00     0.181 C 
ATOM      3  C   UNL     1       0.622 -33.136   6.999  1.00  0.00     0.177 C 
ATOM      4  C   UNL     1      -0.352 -32.314   6.120  1.00  0.00     0.179 C 
ATOM      5  O   UNL     1       0.237 -31.996   4.873  1.00  0.00    -0.332 OA
ATOM      6  C   UNL     1       1.493 -31.331   4.954  1.00  0.00     0.339 C 
ENDROOT
BRANCH   1   7
ATOM      7  O   UNL     1       1.412 -30.026   7.000  1.00  0.00    -0.337 OA
BRANCH   7   8
ATOM      8  C   UNL     1       2.309 -29.004   7.432  1.00  0.00     0.282 C 
ATOM      9  C   UNL     1      -0.652 -28.290   8.179  1.00  0.00     0.041 C 
ATOM     10  C   UNL     1       0.654 -27.481   8.268  1.00  0.00     0.150 C 
ATOM     11  C   UNL     1       0.891 -26.503   7.084  1.00  0.00     0.174 C 
ATOM     12  O   UNL     1       1.781 -28.305   8.549  1.00  0.00    -0.344 OA
ATOM     13  C   UNL     1       1.464 -27.211   5.852  1.00  0.00     0.179 C 
ATOM     14  C   UNL     1       2.662 -28.072   6.255  1.00  0.00     0.202 C 
BRANCH  11  15
ATOM     15  O   UNL     1      -0.288 -25.830   6.733  1.00  0.00    -0.388 OA
ATOM     16  H   UNL     1      -1.040 -26.390   7.060  1.00  0.00     0.211 HD
ENDBRANCH  11  15
BRANCH  13  17
ATOM     17  O   UNL     1       0.480 -27.994   5.230  1.00  0.00    -0.387 OA
ATOM     18  H   UNL     1      -0.100 -27.371   4.718  1.00  0.00     0.211 HD
ENDBRANCH  13  17
BRANCH  14  19
ATOM     19  O   UNL     1       3.730 -27.230   6.630  1.00  0.00    -0.385 OA
ATOM     20  H   UNL     1       3.335 -26.346   6.859  1.00  0.00     0.211 HD
ENDBRANCH  14  19
ENDBRANCH   7   8
ENDBRANCH   1   7
BRANCH   2  21
ATOM     21  O   UNL     1       3.023 -33.267   6.931  1.00  0.00    -0.387 OA
ATOM     22  H   UNL     1       2.884 -33.592   6.003  1.00  0.00     0.211 HD
ENDBRANCH   2  21
BRANCH   6  23
ATOM     23  O   UNL     1       2.446 -32.072   4.193  1.00  0.00    -0.462 OA
BRANCH  23  24
ATOM     24  C   UNL     1       3.397 -31.525   3.323  1.00  0.00     0.130 A 
ATOM     25  C   UNL     1       3.399 -31.780   1.943  1.00  0.00     0.093 A 
ATOM     26  C   UNL     1       4.354 -30.663   3.858  1.00  0.00     0.094 A 
ATOM     27  C   UNL     1       4.319 -31.157   1.094  1.00  0.00     0.133 A 
ATOM     28  C   UNL     1       5.274 -30.018   3.033  1.00  0.00     0.138 A 
ATOM     29  C   UNL     1       5.288 -30.264   1.640  1.00  0.00     0.102 A 
ATOM     30  O   UNL     1       6.159 -29.104   3.616  1.00  0.00    -0.484 OA
ATOM     31  C   UNL     1       6.326 -29.550   0.845  1.00  0.00     0.174 C 
ATOM     32  C   UNL     1       6.984 -28.210   2.866  1.00  0.00     0.211 C 
ATOM     33  O   UNL     1       6.297 -29.504  -0.411  1.00  0.00    -0.294 OA
ATOM     34  C   UNL     1       7.459 -28.867   1.556  1.00  0.00     0.131 C 
BRANCH  27  35
ATOM     35  O   UNL     1       4.213 -31.457  -0.267  1.00  0.00    -0.507 OA
ATOM     36  H   UNL     1       4.577 -32.284  -0.708  1.00  0.00     0.293 HD
ENDBRANCH  27  35
BRANCH  32  37
ATOM     37  C   UNL     1       6.276 -26.887   2.622  1.00  0.00    -0.007 A 
ATOM     38  C   UNL     1       6.682 -26.010   1.592  1.00  0.00     0.011 A 
ATOM     39  C   UNL     1       5.209 -26.504   3.454  1.00  0.00     0.011 A 
ATOM     40  C   UNL     1       6.026 -24.792   1.397  1.00  0.00     0.046 A 
ATOM     41  C   UNL     1       4.550 -25.286   3.248  1.00  0.00     0.046 A 
ATOM     42  C   UNL     1       4.954 -24.430   2.219  1.00  0.00     0.115 A 
BRANCH  42  43
ATOM     43  O   UNL     1       4.284 -23.222   2.017  1.00  0.00    -0.508 OA
ATOM     44  H   UNL     1       3.719 -23.063   1.191  1.00  0.00     0.293 HD
ENDBRANCH  42  43
ENDBRANCH  32  37
ENDBRANCH  23  24
ENDBRANCH   6  23
BRANCH   3  45
ATOM     45  O   UNL     1       0.031 -33.404   8.249  1.00  0.00    -0.387 OA
ATOM     46  H   UNL     1       0.752 -33.695   8.865  1.00  0.00     0.211 HD
ENDBRANCH   3  45
BRANCH   4  47
ATOM     47  C   UNL     1      -1.644 -33.100   5.838  1.00  0.00     0.191 C 
BRANCH  47  48
ATOM     48  O   UNL     1      -2.482 -33.072   6.963  1.00  0.00    -0.394 OA
ATOM     49  H   UNL     1      -3.375 -33.383   6.652  1.00  0.00     0.210 HD
ENDBRANCH  47  48
ENDBRANCH   4  47
TORSDOF 14
ENDMDL
MODEL 4
REMARK VINA RESULT:    -6.384      2.097      7.551
REMARK INTER + INTRA:         -12.483
REMARK INTER:                 -10.501
REMARK INTRA:                  -1.982
REMARK UNBOUND:                -2.368
REMARK SMILES C[C@H]1O[C@@H](O[C@@H]2[C@@H](Oc3cc(O)c4c(c3)O[C@H](c3ccc(O)cc3)CC4=O)O[C@@H](CO)[C@H](O)[C@H]2O)[C@H](O)[C@@H](O)[C@H]1O
REMARK SMILES IDX 6 1 34 2 32 3 29 4 28 5 7 6 5 7 4 8 1 9 2 10 40 11 3 12
REMARK SMILES IDX 38 13 36 14 41 15 39 17 37 19 35 21 8 23 9 24 10 25 15 26
REMARK SMILES IDX 11 27 14 28 13 29 16 30 26 31 17 32 27 33 25 34 12 35 18 37
REMARK SMILES IDX 19 38 24 39 20 40 23 41 21 42 22 43 33 45 30 47 31 48
REMARK H PARENT 41 16 39 18 37 20 35 22 12 36 22 44 33 46 31 49
REMARK Flexibility Score: inf
ROOT
ATOM      1  C   UNL     1       5.610 -26.105   5.040  1.00  0.00     0.221 C 
ATOM      2  C   UNL     1       6.249 -25.597   6.352  1.00  0.00     0.181 C 
ATOM      3  C   UNL     1       6.017 -24.084   6.581  1.00  0.00     0.177 C 
ATOM      4  C   UNL     1       5.370 -23.407   5.348  1.00  0.00     0.179 C 
ATOM      5  O   UNL     1       4.148 -24.035   5.008  1.00  0.00    -0.332 OA
ATOM      6  C   UNL     1       4.232 -25.441   4.800  1.00  0.00     0.339 C 
ENDROOT
BRANCH   1   7
ATOM      7  O   UNL     1       6.465 -25.840   3.933  1.00  0.00    -0.337 OA
BRANCH   7   8
ATOM      8  C   UNL     1       5.759 -25.784   2.694  1.00  0.00     0.282 C 
ATOM      9  C   UNL     1       7.363 -28.467   2.953  1.00  0.00     0.041 C 
ATOM     10  C   UNL     1       6.583 -27.844   1.781  1.00  0.00     0.150 C 
ATOM     11  C   UNL     1       7.463 -27.087   0.748  1.00  0.00     0.174 C 
ATOM     12  O   UNL     1       5.460 -27.089   2.221  1.00  0.00    -0.344 OA
ATOM     13  C   UNL     1       7.813 -25.669   1.212  1.00  0.00     0.179 C 
ATOM     14  C   UNL     1       6.547 -24.942   1.669  1.00  0.00     0.202 C 
BRANCH  11  15
ATOM     15  O   UNL     1       8.642 -27.792   0.466  1.00  0.00    -0.388 OA
ATOM     16  H   UNL     1       9.135 -27.871   1.324  1.00  0.00     0.211 HD
ENDBRANCH  11  15
BRANCH  13  17
ATOM     17  O   UNL     1       8.760 -25.708   2.247  1.00  0.00    -0.387 OA
ATOM     18  H   UNL     1       9.204 -24.820   2.262  1.00  0.00     0.211 HD
ENDBRANCH  13  17
BRANCH  14  19
ATOM     19  O   UNL     1       5.731 -24.688   0.547  1.00  0.00    -0.385 OA
ATOM     20  H   UNL     1       5.947 -25.383  -0.132  1.00  0.00     0.211 HD
ENDBRANCH  14  19
ENDBRANCH   7   8
ENDBRANCH   1   7
BRANCH   2  21
ATOM     21  O   UNL     1       5.729 -26.310   7.446  1.00  0.00    -0.387 OA
ATOM     22  H   UNL     1       6.501 -26.709   7.925  1.00  0.00     0.211 HD
ENDBRANCH   2  21
BRANCH   6  23
ATOM     23  O   UNL     1       3.283 -26.082   5.650  1.00  0.00    -0.462 OA
BRANCH  23  24
ATOM     24  C   UNL     1       2.848 -27.408   5.533  1.00  0.00     0.130 A 
ATOM     25  C   UNL     1       1.490 -27.764   5.523  1.00  0.00     0.093 A 
ATOM     26  C   UNL     1       3.814 -28.403   5.385  1.00  0.00     0.094 A 
ATOM     27  C   UNL     1       1.092 -29.090   5.329  1.00  0.00     0.133 A 
ATOM     28  C   UNL     1       3.445 -29.730   5.177  1.00  0.00     0.138 A 
ATOM     29  C   UNL     1       2.081 -30.104   5.163  1.00  0.00     0.102 A 
ATOM     30  O   UNL     1       4.456 -30.672   4.955  1.00  0.00    -0.484 OA
ATOM     31  C   UNL     1       1.786 -31.551   4.962  1.00  0.00     0.174 C 
ATOM     32  C   UNL     1       4.213 -32.005   4.501  1.00  0.00     0.211 C 
ATOM     33  O   UNL     1       0.629 -31.971   4.702  1.00  0.00    -0.294 OA
ATOM     34  C   UNL     1       2.897 -32.554   5.083  1.00  0.00     0.131 C 
BRANCH  27  35
ATOM     35  O   UNL     1      -0.285 -29.329   5.304  1.00  0.00    -0.507 OA
ATOM     36  H   UNL     1      -0.935 -29.046   6.016  1.00  0.00     0.293 HD
ENDBRANCH  27  35
BRANCH  32  37
ATOM     37  C   UNL     1       4.246 -32.080   2.983  1.00  0.00    -0.007 A 
ATOM     38  C   UNL     1       4.624 -30.970   2.197  1.00  0.00     0.011 A 
ATOM     39  C   UNL     1       3.866 -33.270   2.336  1.00  0.00     0.011 A 
ATOM     40  C   UNL     1       4.631 -31.058   0.802  1.00  0.00     0.046 A 
ATOM     41  C   UNL     1       3.884 -33.354   0.939  1.00  0.00     0.046 A 
ATOM     42  C   UNL     1       4.269 -32.252   0.169  1.00  0.00     0.115 A 
BRANCH  42  43
ATOM     43  O   UNL     1       4.292 -32.350  -1.223  1.00  0.00    -0.508 OA
ATOM     44  H   UNL     1       5.015 -32.874  -1.704  1.00  0.00     0.293 HD
ENDBRANCH  42  43
ENDBRANCH  32  37
ENDBRANCH  23  24
ENDBRANCH   6  23
BRANCH   3  45
ATOM     45  O   UNL     1       7.251 -23.471   6.874  1.00  0.00    -0.387 OA
ATOM     46  H   UNL     1       7.058 -22.617   7.340  1.00  0.00     0.211 HD
ENDBRANCH   3  45
BRANCH   4  47
ATOM     47  C   UNL     1       5.071 -21.923   5.622  1.00  0.00     0.191 C 
BRANCH  47  48
ATOM     48  O   UNL     1       6.187 -21.138   5.296  1.00  0.00    -0.394 OA
ATOM     49  H   UNL     1       6.976 -21.598   5.694  1.00  0.00     0.210 HD
ENDBRANCH  47  48
ENDBRANCH   4  47
TORSDOF 14
ENDMDL
MODEL 5
REMARK VINA RESULT:    -6.286      2.292      8.899
REMARK INTER + INTRA:         -12.329
REMARK INTER:                 -10.374
REMARK INTRA:                  -1.955
REMARK UNBOUND:                -2.368
REMARK SMILES C[C@H]1O[C@@H](O[C@@H]2[C@@H](Oc3cc(O)c4c(c3)O[C@H](c3ccc(O)cc3)CC4=O)O[C@@H](CO)[C@H](O)[C@H]2O)[C@H](O)[C@@H](O)[C@H]1O
REMARK SMILES IDX 6 1 34 2 32 3 29 4 28 5 7 6 5 7 4 8 1 9 2 10 40 11 3 12
REMARK SMILES IDX 38 13 36 14 41 15 39 17 37 19 35 21 8 23 9 24 10 25 15 26
REMARK SMILES IDX 11 27 14 28 13 29 16 30 26 31 17 32 27 33 25 34 12 35 18 37
REMARK SMILES IDX 19 38 24 39 20 40 23 41 21 42 22 43 33 45 30 47 31 48
REMARK H PARENT 41 16 39 18 37 20 35 22 12 36 22 44 33 46 31 49
REMARK Flexibility Score: inf
ROOT
ATOM      1  C   UNL     1       5.280 -25.629   3.698  1.00  0.00     0.221 C 
ATOM      2  C   UNL     1       5.092 -24.643   2.524  1.00  0.00     0.181 C 
ATOM      3  C   UNL     1       6.430 -24.267   1.842  1.00  0.00     0.177 C 
ATOM      4  C   UNL     1       7.648 -24.817   2.622  1.00  0.00     0.179 C 
ATOM      5  O   UNL     1       7.562 -26.222   2.772  1.00  0.00    -0.332 OA
ATOM      6  C   UNL     1       6.357 -26.690   3.367  1.00  0.00     0.339 C 
ENDROOT
BRANCH   1   7
ATOM      7  O   UNL     1       5.650 -24.930   4.883  1.00  0.00    -0.337 OA
BRANCH   7   8
ATOM      8  C   UNL     1       4.522 -24.450   5.613  1.00  0.00     0.282 C 
ATOM      9  C   UNL     1       6.982 -24.887   7.508  1.00  0.00     0.041 C 
ATOM     10  C   UNL     1       5.510 -24.544   7.797  1.00  0.00     0.150 C 
ATOM     11  C   UNL     1       4.628 -25.759   8.194  1.00  0.00     0.174 C 
ATOM     12  O   UNL     1       4.932 -23.742   6.773  1.00  0.00    -0.344 OA
ATOM     13  C   UNL     1       4.156 -26.558   6.973  1.00  0.00     0.179 C 
ATOM     14  C   UNL     1       3.558 -25.612   5.931  1.00  0.00     0.202 C 
BRANCH  11  15
ATOM     15  O   UNL     1       5.301 -26.612   9.081  1.00  0.00    -0.388 OA
ATOM     16  H   UNL     1       4.754 -26.647   9.908  1.00  0.00     0.211 HD
ENDBRANCH  11  15
BRANCH  13  17
ATOM     17  O   UNL     1       5.219 -27.291   6.423  1.00  0.00    -0.387 OA
ATOM     18  H   UNL     1       5.890 -27.407   7.146  1.00  0.00     0.211 HD
ENDBRANCH  13  17
BRANCH  14  19
ATOM     19  O   UNL     1       2.344 -25.090   6.424  1.00  0.00    -0.385 OA
ATOM     20  H   UNL     1       1.639 -25.766   6.233  1.00  0.00     0.211 HD
ENDBRANCH  14  19
ENDBRANCH   7   8
ENDBRANCH   1   7
BRANCH   2  21
ATOM     21  O   UNL     1       4.229 -25.199   1.564  1.00  0.00    -0.387 OA
ATOM     22  H   UNL     1       4.792 -25.730   0.941  1.00  0.00     0.211 HD
ENDBRANCH   2  21
BRANCH   6  23
ATOM     23  O   UNL     1       5.768 -27.654   2.495  1.00  0.00    -0.462 OA
BRANCH  23  24
ATOM     24  C   UNL     1       5.725 -29.036   2.719  1.00  0.00     0.130 A 
ATOM     25  C   UNL     1       6.871 -29.846   2.690  1.00  0.00     0.093 A 
ATOM     26  C   UNL     1       4.491 -29.613   3.017  1.00  0.00     0.094 A 
ATOM     27  C   UNL     1       6.801 -31.209   2.992  1.00  0.00     0.133 A 
ATOM     28  C   UNL     1       4.394 -30.966   3.334  1.00  0.00     0.138 A 
ATOM     29  C   UNL     1       5.540 -31.795   3.311  1.00  0.00     0.102 A 
ATOM     30  O   UNL     1       3.142 -31.472   3.703  1.00  0.00    -0.484 OA
ATOM     31  C   UNL     1       5.332 -33.234   3.638  1.00  0.00     0.174 C 
ATOM     32  C   UNL     1       2.946 -32.768   4.273  1.00  0.00     0.211 C 
ATOM     33  O   UNL     1       6.289 -34.013   3.875  1.00  0.00    -0.294 OA
ATOM     34  C   UNL     1       3.937 -33.787   3.676  1.00  0.00     0.131 C 
BRANCH  27  35
ATOM     35  O   UNL     1       8.007 -31.916   2.965  1.00  0.00    -0.507 OA
ATOM     36  H   UNL     1       8.299 -32.589   3.651  1.00  0.00     0.293 HD
ENDBRANCH  27  35
BRANCH  32  37
ATOM     37  C   UNL     1       3.019 -32.715   5.790  1.00  0.00    -0.007 A 
ATOM     38  C   UNL     1       3.521 -33.798   6.544  1.00  0.00     0.011 A 
ATOM     39  C   UNL     1       2.552 -31.576   6.471  1.00  0.00     0.011 A 
ATOM     40  C   UNL     1       3.563 -33.733   7.939  1.00  0.00     0.046 A 
ATOM     41  C   UNL     1       2.605 -31.513   7.868  1.00  0.00     0.046 A 
ATOM     42  C   UNL     1       3.113 -32.588   8.605  1.00  0.00     0.115 A 
BRANCH  42  43
ATOM     43  O   UNL     1       3.170 -32.510   9.998  1.00  0.00    -0.508 OA
ATOM     44  H   UNL     1       2.597 -33.107  10.583  1.00  0.00     0.293 HD
ENDBRANCH  42  43
ENDBRANCH  32  37
ENDBRANCH  23  24
ENDBRANCH   6  23
BRANCH   3  45
ATOM     45  O   UNL     1       6.516 -22.865   1.742  1.00  0.00    -0.387 OA
ATOM     46  H   UNL     1       6.957 -22.532   2.566  1.00  0.00     0.211 HD
ENDBRANCH   3  45
BRANCH   4  47
ATOM     47  C   UNL     1       8.964 -24.507   1.887  1.00  0.00     0.191 C 
BRANCH  47  48
ATOM     48  O   UNL     1       8.710 -24.252   0.530  1.00  0.00    -0.394 OA
ATOM     49  H   UNL     1       9.553 -24.466   0.046  1.00  0.00     0.210 HD
ENDBRANCH  47  48
ENDBRANCH   4  47
TORSDOF 14
ENDMDL
MODEL 6
REMARK VINA RESULT:    -6.181      2.646      6.136
REMARK INTER + INTRA:         -12.162
REMARK INTER:                 -10.455
REMARK INTRA:                  -1.706
REMARK UNBOUND:                -2.368
REMARK SMILES C[C@H]1O[C@@H](O[C@@H]2[C@@H](Oc3cc(O)c4c(c3)O[C@H](c3ccc(O)cc3)CC4=O)O[C@@H](CO)[C@H](O)[C@H]2O)[C@H](O)[C@@H](O)[C@H]1O
REMARK SMILES IDX 6 1 34 2 32 3 29 4 28 5 7 6 5 7 4 8 1 9 2 10 40 11 3 12
REMARK SMILES IDX 38 13 36 14 41 15 39 17 37 19 35 21 8 23 9 24 10 25 15 26
REMARK SMILES IDX 11 27 14 28 13 29 16 30 26 31 17 32 27 33 25 34 12 35 18 37
REMARK SMILES IDX 19 38 24 39 20 40 23 41 21 42 22 43 33 45 30 47 31 48
REMARK H PARENT 41 16 39 18 37 20 35 22 12 36 22 44 33 46 31 49
REMARK Flexibility Score: inf
ROOT
ATOM      1  C   UNL     1       1.477 -31.149   6.145  1.00  0.00     0.221 C 
ATOM      2  C   UNL     1       0.336 -31.935   5.461  1.00  0.00     0.181 C 
ATOM      3  C   UNL     1      -0.335 -31.136   4.318  1.00  0.00     0.177 C 
ATOM      4  C   UNL     1       0.169 -29.674   4.264  1.00  0.00     0.179 C 
ATOM      5  O   UNL     1       1.576 -29.628   4.121  1.00  0.00    -0.332 OA
ATOM      6  C   UNL     1       2.304 -30.353   5.106  1.00  0.00     0.339 C 
ENDROOT
BRANCH   1   7
ATOM      7  O   UNL     1       0.953 -30.254   7.122  1.00  0.00    -0.337 OA
BRANCH   7   8
ATOM      8  C   UNL     1       1.975 -29.567   7.841  1.00  0.00     0.282 C 
ATOM      9  C   UNL     1      -0.543 -30.047   9.648  1.00  0.00     0.041 C 
ATOM     10  C   UNL     1       0.743 -29.232   9.872  1.00  0.00     0.150 C 
ATOM     11  C   UNL     1       0.603 -27.711   9.591  1.00  0.00     0.174 C 
ATOM     12  O   UNL     1       1.872 -29.819   9.235  1.00  0.00    -0.344 OA
ATOM     13  C   UNL     1       0.709 -27.385   8.097  1.00  0.00     0.179 C 
ATOM     14  C   UNL     1       1.945 -28.062   7.503  1.00  0.00     0.202 C 
BRANCH  11  15
ATOM     15  O   UNL     1      -0.604 -27.206  10.096  1.00  0.00    -0.388 OA
ATOM     16  H   UNL     1      -0.470 -26.231  10.226  1.00  0.00     0.211 HD
ENDBRANCH  11  15
BRANCH  13  17
ATOM     17  O   UNL     1      -0.450 -27.791   7.420  1.00  0.00    -0.387 OA
ATOM     18  H   UNL     1      -0.764 -28.622   7.863  1.00  0.00     0.211 HD
ENDBRANCH  13  17
BRANCH  14  19
ATOM     19  O   UNL     1       3.103 -27.444   8.019  1.00  0.00    -0.385 OA
ATOM     20  H   UNL     1       2.895 -26.476   8.117  1.00  0.00     0.211 HD
ENDBRANCH  14  19
ENDBRANCH   7   8
ENDBRANCH   1   7
BRANCH   2  21
ATOM     21  O   UNL     1       0.830 -33.146   4.946  1.00  0.00    -0.387 OA
ATOM     22  H   UNL     1       0.309 -33.876   5.373  1.00  0.00     0.211 HD
ENDBRANCH   2  21
BRANCH   6  23
ATOM     23  O   UNL     1       3.172 -31.270   4.442  1.00  0.00    -0.462 OA
BRANCH  23  24
ATOM     24  C   UNL     1       4.071 -30.946   3.419  1.00  0.00     0.130 A 
ATOM     25  C   UNL     1       3.901 -31.378   2.094  1.00  0.00     0.093 A 
ATOM     26  C   UNL     1       5.156 -30.128   3.734  1.00  0.00     0.094 A 
ATOM     27  C   UNL     1       4.778 -30.972   1.083  1.00  0.00     0.133 A 
ATOM     28  C   UNL     1       6.038 -29.698   2.744  1.00  0.00     0.138 A 
ATOM     29  C   UNL     1       5.879 -30.125   1.405  1.00  0.00     0.102 A 
ATOM     30  O   UNL     1       7.061 -28.815   3.107  1.00  0.00    -0.484 OA
ATOM     31  C   UNL     1       6.887 -29.635   0.423  1.00  0.00     0.174 C 
ATOM     32  C   UNL     1       7.880 -28.120   2.164  1.00  0.00     0.211 C 
ATOM     33  O   UNL     1       6.727 -29.751  -0.819  1.00  0.00    -0.294 OA
ATOM     34  C   UNL     1       8.148 -28.989   0.921  1.00  0.00     0.131 C 
BRANCH  27  35
ATOM     35  O   UNL     1       4.499 -31.436  -0.206  1.00  0.00    -0.507 OA
ATOM     36  H   UNL     1       5.022 -32.142  -0.694  1.00  0.00     0.293 HD
ENDBRANCH  27  35
BRANCH  32  37
ATOM     37  C   UNL     1       7.275 -26.772   1.803  1.00  0.00    -0.007 A 
ATOM     38  C   UNL     1       7.884 -25.918   0.859  1.00  0.00     0.011 A 
ATOM     39  C   UNL     1       6.097 -26.344   2.441  1.00  0.00     0.011 A 
ATOM     40  C   UNL     1       7.318 -24.677   0.555  1.00  0.00     0.046 A 
ATOM     41  C   UNL     1       5.530 -25.103   2.127  1.00  0.00     0.046 A 
ATOM     42  C   UNL     1       6.136 -24.269   1.182  1.00  0.00     0.115 A 
BRANCH  42  43
ATOM     43  O   UNL     1       5.557 -23.038   0.870  1.00  0.00    -0.508 OA
ATOM     44  H   UNL     1       4.720 -22.977   0.301  1.00  0.00     0.293 HD
ENDBRANCH  42  43
ENDBRANCH  32  37
ENDBRANCH  23  24
ENDBRANCH   6  23
BRANCH   3  45
ATOM     45  O   UNL     1      -1.731 -31.157   4.502  1.00  0.00    -0.387 OA
ATOM     46  H   UNL     1      -2.015 -30.239   4.747  1.00  0.00     0.211 HD
ENDBRANCH   3  45
BRANCH   4  47
ATOM     47  C   UNL     1      -0.445 -28.919   3.071  1.00  0.00     0.191 C 
BRANCH  47  48
ATOM     48  O   UNL     1      -0.274 -29.660   1.892  1.00  0.00    -0.394 OA
ATOM     49  H   UNL     1      -0.935 -29.300   1.240  1.00  0.00     0.210 HD
ENDBRANCH  47  48
ENDBRANCH   4  47
TORSDOF 14
ENDMDL
MODEL 7
REMARK VINA RESULT:    -6.087      1.638      4.222
REMARK INTER + INTRA:         -12.013
REMARK INTER:                  -9.935
REMARK INTRA:                  -2.078
REMARK UNBOUND:                -2.368
REMARK SMILES C[C@H]1O[C@@H](O[C@@H]2[C@@H](Oc3cc(O)c4c(c3)O[C@H](c3ccc(O)cc3)CC4=O)O[C@@H](CO)[C@H](O)[C@H]2O)[C@H](O)[C@@H](O)[C@H]1O
REMARK SMILES IDX 6 1 34 2 32 3 29 4 28 5 7 6 5 7 4 8 1 9 2 10 40 11 3 12
REMARK SMILES IDX 38 13 36 14 41 15 39 17 37 19 35 21 8 23 9 24 10 25 15 26
REMARK SMILES IDX 11 27 14 28 13 29 16 30 26 31 17 32 27 33 25 34 12 35 18 37
REMARK SMILES IDX 19 38 24 39 20 40 23 41 21 42 22 43 33 45 30 47 31 48
REMARK H PARENT 41 16 39 18 37 20 35 22 12 36 22 44 33 46 31 49
REMARK Flexibility Score: inf
ROOT
ATOM      1  C   UNL     1       0.058 -29.657   7.133  1.00  0.00     0.221 C 
ATOM      2  C   UNL     1       1.175 -30.420   7.879  1.00  0.00     0.181 C 
ATOM      3  C   UNL     1       2.468 -30.553   7.040  1.00  0.00     0.177 C 
ATOM      4  C   UNL     1       2.265 -30.061   5.586  1.00  0.00     0.179 C 
ATOM      5  O   UNL     1       1.813 -28.720   5.564  1.00  0.00    -0.332 OA
ATOM      6  C   UNL     1       0.638 -28.469   6.328  1.00  0.00     0.339 C 
ENDROOT
BRANCH   1   7
ATOM      7  O   UNL     1      -0.643 -30.531   6.253  1.00  0.00    -0.337 OA
BRANCH   7   8
ATOM      8  C   UNL     1      -1.681 -31.256   6.910  1.00  0.00     0.282 C 
ATOM      9  C   UNL     1       0.142 -33.177   5.230  1.00  0.00     0.041 C 
ATOM     10  C   UNL     1      -1.180 -33.411   5.982  1.00  0.00     0.150 C 
ATOM     11  C   UNL     1      -2.450 -33.371   5.087  1.00  0.00     0.174 C 
ATOM     12  O   UNL     1      -1.290 -32.600   7.146  1.00  0.00    -0.344 OA
ATOM     13  C   UNL     1      -2.915 -31.939   4.803  1.00  0.00     0.179 C 
ATOM     14  C   UNL     1      -2.995 -31.148   6.110  1.00  0.00     0.202 C 
BRANCH  11  15
ATOM     15  O   UNL     1      -2.242 -34.046   3.875  1.00  0.00    -0.388 OA
ATOM     16  H   UNL     1      -1.263 -34.039   3.713  1.00  0.00     0.211 HD
ENDBRANCH  11  15
BRANCH  13  17
ATOM     17  O   UNL     1      -2.048 -31.309   3.897  1.00  0.00    -0.387 OA
ATOM     18  H   UNL     1      -1.530 -30.639   4.416  1.00  0.00     0.211 HD
ENDBRANCH  13  17
BRANCH  14  19
ATOM     19  O   UNL     1      -4.059 -31.650   6.888  1.00  0.00    -0.385 OA
ATOM     20  H   UNL     1      -4.170 -31.033   7.660  1.00  0.00     0.211 HD
ENDBRANCH  14  19
ENDBRANCH   7   8
ENDBRANCH   1   7
BRANCH   2  21
ATOM     21  O   UNL     1       1.477 -29.767   9.086  1.00  0.00    -0.387 OA
ATOM     22  H   UNL     1       1.386 -28.793   8.919  1.00  0.00     0.211 HD
ENDBRANCH   2  21
BRANCH   6  23
ATOM     23  O   UNL     1       0.912 -27.411   7.244  1.00  0.00    -0.462 OA
BRANCH  23  24
ATOM     24  C   UNL     1       2.097 -26.667   7.299  1.00  0.00     0.130 A 
ATOM     25  C   UNL     1       3.148 -26.975   8.177  1.00  0.00     0.093 A 
ATOM     26  C   UNL     1       2.241 -25.599   6.413  1.00  0.00     0.094 A 
ATOM     27  C   UNL     1       4.346 -26.255   8.151  1.00  0.00     0.133 A 
ATOM     28  C   UNL     1       3.429 -24.873   6.357  1.00  0.00     0.138 A 
ATOM     29  C   UNL     1       4.497 -25.173   7.234  1.00  0.00     0.102 A 
ATOM     30  O   UNL     1       3.544 -23.865   5.393  1.00  0.00    -0.484 OA
ATOM     31  C   UNL     1       5.716 -24.323   7.118  1.00  0.00     0.174 C 
ATOM     32  C   UNL     1       4.773 -23.210   5.072  1.00  0.00     0.211 C 
ATOM     33  O   UNL     1       6.803 -24.630   7.671  1.00  0.00    -0.294 OA
ATOM     34  C   UNL     1       5.654 -23.049   6.326  1.00  0.00     0.131 C 
BRANCH  27  35
ATOM     35  O   UNL     1       5.339 -26.665   9.046  1.00  0.00    -0.507 OA
ATOM     36  H   UNL     1       6.295 -26.358   9.031  1.00  0.00     0.293 HD
ENDBRANCH  27  35
BRANCH  32  37
ATOM     37  C   UNL     1       5.499 -23.931   3.948  1.00  0.00    -0.007 A 
ATOM     38  C   UNL     1       6.904 -23.873   3.819  1.00  0.00     0.011 A 
ATOM     39  C   UNL     1       4.762 -24.651   2.991  1.00  0.00     0.011 A 
ATOM     40  C   UNL     1       7.548 -24.530   2.767  1.00  0.00     0.046 A 
ATOM     41  C   UNL     1       5.413 -25.314   1.944  1.00  0.00     0.046 A 
ATOM     42  C   UNL     1       6.806 -25.259   1.832  1.00  0.00     0.115 A 
BRANCH  42  43
ATOM     43  O   UNL     1       7.446 -25.932   0.790  1.00  0.00    -0.508 OA
ATOM     44  H   UNL     1       7.083 -25.907  -0.156  1.00  0.00     0.293 HD
ENDBRANCH  42  43
ENDBRANCH  32  37
ENDBRANCH  23  24
ENDBRANCH   6  23
BRANCH   3  45
ATOM     45  O   UNL     1       2.877 -31.901   7.038  1.00  0.00    -0.387 OA
ATOM     46  H   UNL     1       3.511 -32.023   7.791  1.00  0.00     0.211 HD
ENDBRANCH   3  45
BRANCH   4  47
ATOM     47  C   UNL     1       3.581 -30.122   4.791  1.00  0.00     0.191 C 
BRANCH  47  48
ATOM     48  O   UNL     1       4.652 -30.407   5.651  1.00  0.00    -0.394 OA
ATOM     49  H   UNL     1       4.246 -30.711   6.508  1.00  0.00     0.210 HD
ENDBRANCH  47  48
ENDBRANCH   4  47
TORSDOF 14
ENDMDL
MODEL 8
REMARK VINA RESULT:    -5.900      2.131      7.847
REMARK INTER + INTRA:         -11.716
REMARK INTER:                  -9.630
REMARK INTRA:                  -2.086
REMARK UNBOUND:                -2.368
REMARK SMILES C[C@H]1O[C@@H](O[C@@H]2[C@@H](Oc3cc(O)c4c(c3)O[C@H](c3ccc(O)cc3)CC4=O)O[C@@H](CO)[C@H](O)[C@H]2O)[C@H](O)[C@@H](O)[C@H]1O
REMARK SMILES IDX 6 1 34 2 32 3 29 4 28 5 7 6 5 7 4 8 1 9 2 10 40 11 3 12
REMARK SMILES IDX 38 13 36 14 41 15 39 17 37 19 35 21 8 23 9 24 10 25 15 26
REMARK SMILES IDX 11 27 14 28 13 29 16 30 26 31 17 32 27 33 25 34 12 35 18 37
REMARK SMILES IDX 19 38 24 39 20 40 23 41 21 42 22 43 33 45 30 47 31 48
REMARK H PARENT 41 16 39 18 37 20 35 22 12 36 22 44 33 46 31 49
REMARK Flexibility Score: inf
ROOT
ATOM      1  C   UNL     1       5.197 -27.112   5.693  1.00  0.00     0.221 C 
ATOM      2  C   UNL     1       6.050 -26.243   6.644  1.00  0.00     0.181 C 
ATOM      3  C   UNL     1       6.002 -24.740   6.280  1.00  0.00     0.177 C 
ATOM      4  C   UNL     1       5.270 -24.495   4.938  1.00  0.00     0.179 C 
ATOM      5  O   UNL     1       3.957 -25.023   4.973  1.00  0.00    -0.332 OA
ATOM      6  C   UNL     1       3.873 -26.400   5.326  1.00  0.00     0.339 C 
ENDROOT
BRANCH   1   7
ATOM      7  O   UNL     1       5.922 -27.411   4.504  1.00  0.00    -0.337 OA
BRANCH   7   8
ATOM      8  C   UNL     1       6.540 -28.696   4.546  1.00  0.00     0.282 C 
ATOM      9  C   UNL     1       6.526 -27.550   1.626  1.00  0.00     0.041 C 
ATOM     10  C   UNL     1       6.916 -28.929   2.188  1.00  0.00     0.150 C 
ATOM     11  C   UNL     1       5.808 -30.012   2.072  1.00  0.00     0.174 C 
ATOM     12  O   UNL     1       7.480 -28.841   3.491  1.00  0.00    -0.344 OA
ATOM     13  C   UNL     1       4.767 -29.899   3.191  1.00  0.00     0.179 C 
ATOM     14  C   UNL     1       5.468 -29.805   4.547  1.00  0.00     0.202 C 
BRANCH  11  15
ATOM     15  O   UNL     1       5.166 -29.955   0.826  1.00  0.00    -0.388 OA
ATOM     16  H   UNL     1       5.688 -30.536   0.213  1.00  0.00     0.211 HD
ENDBRANCH  11  15
BRANCH  13  17
ATOM     17  O   UNL     1       3.939 -28.785   2.984  1.00  0.00    -0.387 OA
ATOM     18  H   UNL     1       4.157 -28.431   2.082  1.00  0.00     0.211 HD
ENDBRANCH  13  17
BRANCH  14  19
ATOM     19  O   UNL     1       6.076 -31.043   4.839  1.00  0.00    -0.385 OA
ATOM     20  H   UNL     1       5.938 -31.212   5.810  1.00  0.00     0.211 HD
ENDBRANCH  14  19
ENDBRANCH   7   8
ENDBRANCH   1   7
BRANCH   2  21
ATOM     21  O   UNL     1       5.609 -26.408   7.968  1.00  0.00    -0.387 OA
ATOM     22  H   UNL     1       6.241 -27.035   8.408  1.00  0.00     0.211 HD
ENDBRANCH   2  21
BRANCH   6  23
ATOM     23  O   UNL     1       2.984 -26.529   6.434  1.00  0.00    -0.462 OA
BRANCH  23  24
ATOM     24  C   UNL     1       2.530 -27.737   6.977  1.00  0.00     0.130 A 
ATOM     25  C   UNL     1       2.096 -27.855   8.307  1.00  0.00     0.093 A 
ATOM     26  C   UNL     1       2.477 -28.853   6.142  1.00  0.00     0.094 A 
ATOM     27  C   UNL     1       1.578 -29.059   8.794  1.00  0.00     0.133 A 
ATOM     28  C   UNL     1       1.953 -30.061   6.598  1.00  0.00     0.138 A 
ATOM     29  C   UNL     1       1.511 -30.195   7.935  1.00  0.00     0.102 A 
ATOM     30  O   UNL     1       1.852 -31.123   5.691  1.00  0.00    -0.484 OA
ATOM     31  C   UNL     1       0.993 -31.534   8.337  1.00  0.00     0.174 C 
ATOM     32  C   UNL     1       1.127 -32.326   5.957  1.00  0.00     0.211 C 
ATOM     33  O   UNL     1       0.366 -31.716   9.411  1.00  0.00    -0.294 OA
ATOM     34  C   UNL     1       1.234 -32.716   7.443  1.00  0.00     0.131 C 
BRANCH  27  35
ATOM     35  O   UNL     1       1.146 -29.059  10.124  1.00  0.00    -0.507 OA
ATOM     36  H   UNL     1       0.654 -29.811  10.574  1.00  0.00     0.293 HD
ENDBRANCH  27  35
BRANCH  32  37
ATOM     37  C   UNL     1      -0.316 -32.209   5.495  1.00  0.00    -0.007 A 
ATOM     38  C   UNL     1      -1.315 -33.091   5.960  1.00  0.00     0.011 A 
ATOM     39  C   UNL     1      -0.670 -31.219   4.559  1.00  0.00     0.011 A 
ATOM     40  C   UNL     1      -2.632 -32.974   5.508  1.00  0.00     0.046 A 
ATOM     41  C   UNL     1      -1.993 -31.101   4.117  1.00  0.00     0.046 A 
ATOM     42  C   UNL     1      -2.977 -31.974   4.592  1.00  0.00     0.115 A 
BRANCH  42  43
ATOM     43  O   UNL     1      -4.295 -31.842   4.152  1.00  0.00    -0.508 OA
ATOM     44  H   UNL     1      -5.060 -32.304   4.629  1.00  0.00     0.293 HD
ENDBRANCH  42  43
ENDBRANCH  32  37
ENDBRANCH  23  24
ENDBRANCH   6  23
BRANCH   3  45
ATOM     45  O   UNL     1       7.318 -24.244   6.206  1.00  0.00    -0.387 OA
ATOM     46  H   UNL     1       7.431 -23.584   6.938  1.00  0.00     0.211 HD
ENDBRANCH   3  45
BRANCH   4  47
ATOM     47  C   UNL     1       5.158 -22.991   4.633  1.00  0.00     0.191 C 
BRANCH  47  48
ATOM     48  O   UNL     1       6.363 -22.518   4.091  1.00  0.00    -0.394 OA
ATOM     49  H   UNL     1       6.440 -21.566   4.375  1.00  0.00     0.210 HD
ENDBRANCH  47  48
ENDBRANCH   4  47
TORSDOF 14
ENDMDL
MODEL 9
REMARK VINA RESULT:    -5.783      2.850      5.991
REMARK INTER + INTRA:         -11.531
REMARK INTER:                  -9.854
REMARK INTRA:                  -1.677
REMARK UNBOUND:                -2.368
REMARK SMILES C[C@H]1O[C@@H](O[C@@H]2[C@@H](Oc3cc(O)c4c(c3)O[C@H](c3ccc(O)cc3)CC4=O)O[C@@H](CO)[C@H](O)[C@H]2O)[C@H](O)[C@@H](O)[C@H]1O
REMARK SMILES IDX 6 1 34 2 32 3 29 4 28 5 7 6 5 7 4 8 1 9 2 10 40 11 3 12
REMARK SMILES IDX 38 13 36 14 41 15 39 17 37 19 35 21 8 23 9 24 10 25 15 26
REMARK SMILES IDX 11 27 14 28 13 29 16 30 26 31 17 32 27 33 25 34 12 35 18 37
REMARK SMILES IDX 19 38 24 39 20 40 23 41 21 42 22 43 33 45 30 47 31 48
REMARK H PARENT 41 16 39 18 37 20 35 22 12 36 22 44 33 46 31 49
REMARK Flexibility Score: inf
ROOT
ATOM      1  C   UNL     1       1.750 -31.095   6.525  1.00  0.00     0.221 C 
ATOM      2  C   UNL     1       1.783 -30.233   7.806  1.00  0.00     0.181 C 
ATOM      3  C   UNL     1       2.093 -31.063   9.075  1.00  0.00     0.177 C 
ATOM      4  C   UNL     1       2.102 -32.583   8.780  1.00  0.00     0.179 C 
ATOM      5  O   UNL     1       3.033 -32.896   7.761  1.00  0.00    -0.332 OA
ATOM      6  C   UNL     1       2.863 -32.169   6.548  1.00  0.00     0.339 C 
ENDROOT
BRANCH   1   7
ATOM      7  O   UNL     1       0.482 -31.726   6.380  1.00  0.00    -0.337 OA
BRANCH   7   8
ATOM      8  C   UNL     1      -0.469 -30.902   5.706  1.00  0.00     0.282 C 
ATOM      9  C   UNL     1      -1.720 -32.192   8.277  1.00  0.00     0.041 C 
ATOM     10  C   UNL     1      -2.340 -31.371   7.133  1.00  0.00     0.150 C 
ATOM     11  C   UNL     1      -3.029 -32.218   6.027  1.00  0.00     0.174 C 
ATOM     12  O   UNL     1      -1.438 -30.400   6.615  1.00  0.00    -0.344 OA
ATOM     13  C   UNL     1      -2.023 -32.783   5.018  1.00  0.00     0.179 C 
ATOM     14  C   UNL     1      -1.097 -31.670   4.525  1.00  0.00     0.202 C 
BRANCH  11  15
ATOM     15  O   UNL     1      -3.779 -33.267   6.579  1.00  0.00    -0.388 OA
ATOM     16  H   UNL     1      -4.063 -32.965   7.482  1.00  0.00     0.211 HD
ENDBRANCH  11  15
BRANCH  13  17
ATOM     17  O   UNL     1      -1.280 -33.825   5.593  1.00  0.00    -0.387 OA
ATOM     18  H   UNL     1      -0.623 -33.403   6.206  1.00  0.00     0.211 HD
ENDBRANCH  13  17
BRANCH  14  19
ATOM     19  O   UNL     1      -1.838 -30.773   3.727  1.00  0.00    -0.385 OA
ATOM     20  H   UNL     1      -2.744 -31.170   3.610  1.00  0.00     0.211 HD
ENDBRANCH  14  19
ENDBRANCH   7   8
ENDBRANCH   1   7
BRANCH   2  21
ATOM     21  O   UNL     1       2.748 -29.218   7.677  1.00  0.00    -0.387 OA
ATOM     22  H   UNL     1       3.132 -29.067   8.580  1.00  0.00     0.211 HD
ENDBRANCH   2  21
BRANCH   6  23
ATOM     23  O   UNL     1       4.097 -31.529   6.229  1.00  0.00    -0.462 OA
BRANCH  23  24
ATOM     24  C   UNL     1       4.515 -31.159   4.945  1.00  0.00     0.130 A 
ATOM     25  C   UNL     1       3.886 -31.623   3.778  1.00  0.00     0.093 A 
ATOM     26  C   UNL     1       5.578 -30.262   4.835  1.00  0.00     0.094 A 
ATOM     27  C   UNL     1       4.283 -31.173   2.516  1.00  0.00     0.133 A 
ATOM     28  C   UNL     1       5.984 -29.787   3.589  1.00  0.00     0.138 A 
ATOM     29  C   UNL     1       5.360 -30.245   2.406  1.00  0.00     0.102 A 
ATOM     30  O   UNL     1       7.004 -28.828   3.547  1.00  0.00    -0.484 OA
ATOM     31  C   UNL     1       5.883 -29.701   1.120  1.00  0.00     0.174 C 
ATOM     32  C   UNL     1       7.352 -28.092   2.372  1.00  0.00     0.211 C 
ATOM     33  O   UNL     1       5.272 -29.848   0.031  1.00  0.00    -0.294 OA
ATOM     34  C   UNL     1       7.189 -28.961   1.110  1.00  0.00     0.131 C 
BRANCH  27  35
ATOM     35  O   UNL     1       3.569 -31.675   1.423  1.00  0.00    -0.507 OA
ATOM     36  H   UNL     1       2.766 -32.276   1.483  1.00  0.00     0.293 HD
ENDBRANCH  27  35
BRANCH  32  37
ATOM     37  C   UNL     1       6.561 -26.797   2.285  1.00  0.00    -0.007 A 
ATOM     38  C   UNL     1       5.544 -26.487   3.214  1.00  0.00     0.011 A 
ATOM     39  C   UNL     1       6.821 -25.891   1.240  1.00  0.00     0.011 A 
ATOM     40  C   UNL     1       4.820 -25.298   3.104  1.00  0.00     0.046 A 
ATOM     41  C   UNL     1       6.098 -24.697   1.140  1.00  0.00     0.046 A 
ATOM     42  C   UNL     1       5.100 -24.395   2.072  1.00  0.00     0.115 A 
BRANCH  42  43
ATOM     43  O   UNL     1       4.391 -23.197   1.968  1.00  0.00    -0.508 OA
ATOM     44  H   UNL     1       4.355 -22.679   1.097  1.00  0.00     0.293 HD
ENDBRANCH  42  43
ENDBRANCH  32  37
ENDBRANCH  23  24
ENDBRANCH   6  23
BRANCH   3  45
ATOM     45  O   UNL     1       1.130 -30.771  10.061  1.00  0.00    -0.387 OA
ATOM     46  H   UNL     1       1.497 -31.065  10.934  1.00  0.00     0.211 HD
ENDBRANCH   3  45
BRANCH   4  47
ATOM     47  C   UNL     1       2.493 -33.389  10.031  1.00  0.00     0.191 C 
BRANCH  47  48
ATOM     48  O   UNL     1       3.675 -34.107   9.792  1.00  0.00    -0.394 OA
ATOM     49  H   UNL     1       3.423 -35.070   9.813  1.00  0.00     0.210 HD
ENDBRANCH  47  48
ENDBRANCH   4  47
TORSDOF 14
ENDMDL
