MODEL 1
REMARK VINA RESULT:    -5.067      0.000      0.000
REMARK INTER + INTRA:          -5.539
REMARK INTER:                  -5.363
REMARK INTRA:                  -0.175
REMARK UNBOUND:                -0.175
REMARK SMILES CC(C)[C@@H]1CC[C@@H](C)CC1=O
REMARK SMILES IDX 8 1 7 2 6 3 5 4 4 5 10 6 11 7 9 8 2 9 1 10 3 11
REMARK H PARENT
REMARK Flexibility Score: inf
ROOT
ATOM      1  C   UNL     1     -32.694  -2.279 -10.299  1.00  0.00     0.008 C 
ATOM      2  C   UNL     1     -34.214  -2.448 -10.397  1.00  0.00    -0.007 C 
ATOM      3  C   UNL     1     -34.878  -2.191  -9.028  1.00  0.00     0.004 C 
ATOM      4  C   UNL     1     -36.406  -2.370  -9.095  1.00  0.00     0.012 C 
ATOM      5  C   UNL     1     -36.797  -3.782  -9.596  1.00  0.00     0.058 C 
ATOM      6  C   UNL     1     -36.060  -4.021 -10.904  1.00  0.00     0.136 C 
ATOM      7  O   UNL     1     -36.653  -4.263 -11.946  1.00  0.00    -0.299 OA
ATOM      8  C   UNL     1     -34.569  -3.852 -10.917  1.00  0.00     0.079 C 
ENDROOT
BRANCH   5   9
ATOM      9  C   UNL     1     -38.343  -3.988  -9.723  1.00  0.00    -0.007 C 
ATOM     10  C   UNL     1     -39.112  -2.659  -9.844  1.00  0.00     0.008 C 
ATOM     11  C   UNL     1     -38.895  -4.762  -8.511  1.00  0.00     0.008 C 
ENDBRANCH   5   9
TORSDOF 1
ENDMDL
MODEL 2
REMARK VINA RESULT:    -4.999      2.216      3.245
REMARK INTER + INTRA:          -5.466
REMARK INTER:                  -5.299
REMARK INTRA:                  -0.167
REMARK UNBOUND:                -0.175
REMARK SMILES CC(C)[C@@H]1CC[C@@H](C)CC1=O
REMARK SMILES IDX 8 1 7 2 6 3 5 4 4 5 10 6 11 7 9 8 2 9 1 10 3 11
REMARK H PARENT
REMARK Flexibility Score: inf
ROOT
ATOM      1  C   UNL     1     -33.955  -3.533 -14.046  1.00  0.00     0.008 C 
ATOM      2  C   UNL     1     -34.238  -2.783 -12.739  1.00  0.00    -0.007 C 
ATOM      3  C   UNL     1     -33.514  -3.461 -11.557  1.00  0.00     0.004 C 
ATOM      4  C   UNL     1     -33.796  -2.736 -10.227  1.00  0.00     0.012 C 
ATOM      5  C   UNL     1     -35.313  -2.662  -9.924  1.00  0.00     0.058 C 
ATOM      6  C   UNL     1     -35.992  -2.061 -11.144  1.00  0.00     0.136 C 
ATOM      7  O   UNL     1     -36.650  -1.033 -11.078  1.00  0.00    -0.299 OA
ATOM      8  C   UNL     1     -35.753  -2.708 -12.477  1.00  0.00     0.079 C 
ENDROOT
BRANCH   5   9
ATOM      9  C   UNL     1     -35.643  -1.890  -8.604  1.00  0.00    -0.007 C 
ATOM     10  C   UNL     1     -34.381  -1.487  -7.819  1.00  0.00     0.008 C 
ATOM     11  C   UNL     1     -36.540  -2.738  -7.682  1.00  0.00     0.008 C 
ENDBRANCH   5   9
TORSDOF 1
ENDMDL
MODEL 3
REMARK VINA RESULT:    -4.958      1.565      2.354
REMARK INTER + INTRA:          -5.423
REMARK INTER:                  -5.273
REMARK INTRA:                  -0.150
REMARK UNBOUND:                -0.175
REMARK SMILES CC(C)[C@@H]1CC[C@@H](C)CC1=O
REMARK SMILES IDX 8 1 7 2 6 3 5 4 4 5 10 6 11 7 9 8 2 9 1 10 3 11
REMARK H PARENT
REMARK Flexibility Score: inf
ROOT
ATOM      1  C   UNL     1     -32.376  -1.985 -10.563  1.00  0.00     0.008 C 
ATOM      2  C   UNL     1     -33.630  -2.700 -10.048  1.00  0.00    -0.007 C 
ATOM      3  C   UNL     1     -34.367  -3.406 -11.205  1.00  0.00     0.004 C 
ATOM      4  C   UNL     1     -35.642  -4.120 -10.716  1.00  0.00     0.012 C 
ATOM      5  C   UNL     1     -36.613  -3.141 -10.012  1.00  0.00     0.058 C 
ATOM      6  C   UNL     1     -35.825  -2.415  -8.934  1.00  0.00     0.136 C 
ATOM      7  O   UNL     1     -36.146  -2.462  -7.755  1.00  0.00    -0.299 OA
ATOM      8  C   UNL     1     -34.565  -1.706  -9.335  1.00  0.00     0.079 C 
ENDROOT
BRANCH   5   9
ATOM      9  C   UNL     1     -37.900  -3.838  -9.459  1.00  0.00    -0.007 C 
ATOM     10  C   UNL     1     -38.213  -5.165 -10.175  1.00  0.00     0.008 C 
ATOM     11  C   UNL     1     -39.125  -2.913  -9.590  1.00  0.00     0.008 C 
ENDBRANCH   5   9
TORSDOF 1
ENDMDL
MODEL 4
REMARK VINA RESULT:    -4.920      1.574      4.563
REMARK INTER + INTRA:          -5.383
REMARK INTER:                  -5.252
REMARK INTRA:                  -0.131
REMARK UNBOUND:                -0.175
REMARK SMILES CC(C)[C@@H]1CC[C@@H](C)CC1=O
REMARK SMILES IDX 8 1 7 2 6 3 5 4 4 5 10 6 11 7 9 8 2 9 1 10 3 11
REMARK H PARENT
REMARK Flexibility Score: inf
ROOT
ATOM      1  C   UNL     1     -38.913  -4.629  -8.435  1.00  0.00     0.008 C 
ATOM      2  C   UNL     1     -37.906  -3.822  -9.262  1.00  0.00    -0.007 C 
ATOM      3  C   UNL     1     -37.148  -4.741 -10.242  1.00  0.00     0.004 C 
ATOM      4  C   UNL     1     -36.117  -3.957 -11.075  1.00  0.00     0.012 C 
ATOM      5  C   UNL     1     -35.097  -3.216 -10.176  1.00  0.00     0.058 C 
ATOM      6  C   UNL     1     -35.889  -2.385  -9.179  1.00  0.00     0.136 C 
ATOM      7  O   UNL     1     -35.763  -1.172  -9.104  1.00  0.00    -0.299 OA
ATOM      8  C   UNL     1     -36.921  -3.081  -8.340  1.00  0.00     0.079 C 
ENDROOT
BRANCH   5   9
ATOM      9  C   UNL     1     -34.061  -2.368 -10.985  1.00  0.00    -0.007 C 
ATOM     10  C   UNL     1     -33.818  -2.920 -12.402  1.00  0.00     0.008 C 
ATOM     11  C   UNL     1     -32.709  -2.304 -10.249  1.00  0.00     0.008 C 
ENDBRANCH   5   9
TORSDOF 1
ENDMDL
MODEL 5
REMARK VINA RESULT:    -4.859      2.673      4.332
REMARK INTER + INTRA:          -5.319
REMARK INTER:                  -5.144
REMARK INTRA:                  -0.175
REMARK UNBOUND:                -0.175
REMARK SMILES CC(C)[C@@H]1CC[C@@H](C)CC1=O
REMARK SMILES IDX 8 1 7 2 6 3 5 4 4 5 10 6 11 7 9 8 2 9 1 10 3 11
REMARK H PARENT
REMARK Flexibility Score: inf
ROOT
ATOM      1  C   UNL     1     -34.428  -1.368  -7.375  1.00  0.00     0.008 C 
ATOM      2  C   UNL     1     -34.547  -1.981  -8.774  1.00  0.00    -0.007 C 
ATOM      3  C   UNL     1     -33.173  -2.004  -9.475  1.00  0.00     0.004 C 
ATOM      4  C   UNL     1     -33.267  -2.601 -10.892  1.00  0.00     0.012 C 
ATOM      5  C   UNL     1     -34.279  -1.829 -11.774  1.00  0.00     0.058 C 
ATOM      6  C   UNL     1     -35.592  -1.765 -11.011  1.00  0.00     0.136 C 
ATOM      7  O   UNL     1     -36.628  -2.226 -11.467  1.00  0.00    -0.299 OA
ATOM      8  C   UNL     1     -35.574  -1.206  -9.618  1.00  0.00     0.079 C 
ENDROOT
BRANCH   5   9
ATOM      9  C   UNL     1     -34.438  -2.435 -13.208  1.00  0.00    -0.007 C 
ATOM     10  C   UNL     1     -33.892  -3.871 -13.310  1.00  0.00     0.008 C 
ATOM     11  C   UNL     1     -33.719  -1.564 -14.255  1.00  0.00     0.008 C 
ENDBRANCH   5   9
TORSDOF 1
ENDMDL
MODEL 6
REMARK VINA RESULT:    -4.840     14.823     15.825
REMARK INTER + INTRA:          -5.298
REMARK INTER:                  -5.140
REMARK INTRA:                  -0.158
REMARK UNBOUND:                -0.175
REMARK SMILES CC(C)[C@@H]1CC[C@@H](C)CC1=O
REMARK SMILES IDX 8 1 7 2 6 3 5 4 4 5 10 6 11 7 9 8 2 9 1 10 3 11
REMARK H PARENT
REMARK Flexibility Score: inf
ROOT
ATOM      1  C   UNL     1     -18.977  -0.875  -9.930  1.00  0.00     0.008 C 
ATOM      2  C   UNL     1     -19.814  -2.061  -9.440  1.00  0.00    -0.007 C 
ATOM      3  C   UNL     1     -18.906  -3.160  -8.850  1.00  0.00     0.004 C 
ATOM      4  C   UNL     1     -19.723  -4.373  -8.365  1.00  0.00     0.012 C 
ATOM      5  C   UNL     1     -20.585  -4.976  -9.500  1.00  0.00     0.058 C 
ATOM      6  C   UNL     1     -21.403  -3.844 -10.101  1.00  0.00     0.136 C 
ATOM      7  O   UNL     1     -22.625  -3.870 -10.123  1.00  0.00    -0.299 OA
ATOM      8  C   UNL     1     -20.675  -2.625 -10.585  1.00  0.00     0.079 C 
ENDROOT
BRANCH   5   9
ATOM      9  C   UNL     1     -21.466  -6.182  -9.034  1.00  0.00    -0.007 C 
ATOM     10  C   UNL     1     -21.877  -6.081  -7.554  1.00  0.00     0.008 C 
ATOM     11  C   UNL     1     -20.726  -7.516  -9.245  1.00  0.00     0.008 C 
ENDBRANCH   5   9
TORSDOF 1
ENDMDL
MODEL 7
REMARK VINA RESULT:    -4.713      2.310      3.655
REMARK INTER + INTRA:          -5.163
REMARK INTER:                  -4.999
REMARK INTRA:                  -0.165
REMARK UNBOUND:                -0.175
REMARK SMILES CC(C)[C@@H]1CC[C@@H](C)CC1=O
REMARK SMILES IDX 8 1 7 2 6 3 5 4 4 5 10 6 11 7 9 8 2 9 1 10 3 11
REMARK H PARENT
REMARK Flexibility Score: inf
ROOT
ATOM      1  C   UNL     1     -32.762  -2.323 -10.219  1.00  0.00     0.008 C 
ATOM      2  C   UNL     1     -33.649  -3.319 -10.975  1.00  0.00    -0.007 C 
ATOM      3  C   UNL     1     -33.548  -3.089 -12.497  1.00  0.00     0.004 C 
ATOM      4  C   UNL     1     -34.444  -4.068 -13.280  1.00  0.00     0.012 C 
ATOM      5  C   UNL     1     -35.926  -3.965 -12.844  1.00  0.00     0.058 C 
ATOM      6  C   UNL     1     -35.967  -4.119 -11.332  1.00  0.00     0.136 C 
ATOM      7  O   UNL     1     -36.608  -5.007 -10.789  1.00  0.00    -0.299 OA
ATOM      8  C   UNL     1     -35.110  -3.206 -10.504  1.00  0.00     0.079 C 
ENDROOT
BRANCH   5   9
ATOM      9  C   UNL     1     -36.861  -4.977 -13.584  1.00  0.00    -0.007 C 
ATOM     10  C   UNL     1     -36.162  -5.680 -14.762  1.00  0.00     0.008 C 
ATOM     11  C   UNL     1     -38.123  -4.272 -14.115  1.00  0.00     0.008 C 
ENDBRANCH   5   9
TORSDOF 1
ENDMDL
MODEL 8
REMARK VINA RESULT:    -4.699      2.018      3.148
REMARK INTER + INTRA:          -5.149
REMARK INTER:                  -5.053
REMARK INTRA:                  -0.096
REMARK UNBOUND:                -0.175
REMARK SMILES CC(C)[C@@H]1CC[C@@H](C)CC1=O
REMARK SMILES IDX 8 1 7 2 6 3 5 4 4 5 10 6 11 7 9 8 2 9 1 10 3 11
REMARK H PARENT
REMARK Flexibility Score: inf
ROOT
ATOM      1  C   UNL     1     -34.254  -0.942  -6.646  1.00  0.00     0.008 C 
ATOM      2  C   UNL     1     -34.773  -1.331  -8.035  1.00  0.00    -0.007 C 
ATOM      3  C   UNL     1     -35.914  -2.362  -7.919  1.00  0.00     0.004 C 
ATOM      4  C   UNL     1     -36.443  -2.783  -9.304  1.00  0.00     0.012 C 
ATOM      5  C   UNL     1     -35.318  -3.361 -10.196  1.00  0.00     0.058 C 
ATOM      6  C   UNL     1     -34.186  -2.347 -10.217  1.00  0.00     0.136 C 
ATOM      7  O   UNL     1     -33.782  -1.849 -11.258  1.00  0.00    -0.299 OA
ATOM      8  C   UNL     1     -33.628  -1.882  -8.904  1.00  0.00     0.079 C 
ENDROOT
BRANCH   5   9
ATOM      9  C   UNL     1     -35.807  -3.756 -11.629  1.00  0.00    -0.007 C 
ATOM     10  C   UNL     1     -37.268  -4.240 -11.647  1.00  0.00     0.008 C 
ATOM     11  C   UNL     1     -34.919  -4.865 -12.226  1.00  0.00     0.008 C 
ENDBRANCH   5   9
TORSDOF 1
ENDMDL
MODEL 9
REMARK VINA RESULT:    -4.480     14.922     16.399
REMARK INTER + INTRA:          -4.918
REMARK INTER:                  -4.777
REMARK INTRA:                  -0.140
REMARK UNBOUND:                -0.175
REMARK SMILES CC(C)[C@@H]1CC[C@@H](C)CC1=O
REMARK SMILES IDX 8 1 7 2 6 3 5 4 4 5 10 6 11 7 9 8 2 9 1 10 3 11
REMARK H PARENT
REMARK Flexibility Score: inf
ROOT
ATOM      1  C   UNL     1     -19.859  -8.024  -7.907  1.00  0.00     0.008 C 
ATOM      2  C   UNL     1     -19.787  -6.777  -8.796  1.00  0.00    -0.007 C 
ATOM      3  C   UNL     1     -19.044  -5.636  -8.071  1.00  0.00     0.004 C 
ATOM      4  C   UNL     1     -18.972  -4.364  -8.937  1.00  0.00     0.012 C 
ATOM      5  C   UNL     1     -20.379  -3.875  -9.356  1.00  0.00     0.058 C 
ATOM      6  C   UNL     1     -21.100  -5.051  -9.994  1.00  0.00     0.136 C 
ATOM      7  O   UNL     1     -21.521  -5.008 -11.141  1.00  0.00    -0.299 OA
ATOM      8  C   UNL     1     -21.199  -6.328  -9.212  1.00  0.00     0.079 C 
ENDROOT
BRANCH   5   9
ATOM      9  C   UNL     1     -20.346  -2.610 -10.278  1.00  0.00    -0.007 C 
ATOM     10  C   UNL     1     -19.069  -1.771 -10.089  1.00  0.00     0.008 C 
ATOM     11  C   UNL     1     -21.566  -1.708 -10.017  1.00  0.00     0.008 C 
ENDBRANCH   5   9
TORSDOF 1
ENDMDL
