MODEL 1
REMARK VINA RESULT:    -6.004      0.000      0.000
REMARK INTER + INTRA:          -6.451
REMARK INTER:                  -6.355
REMARK INTRA:                  -0.096
REMARK UNBOUND:                -0.096
REMARK SMILES C=C(C)[C@@H]1CC=C(C)C(=O)C1
REMARK SMILES IDX 8 1 7 2 6 3 5 4 4 5 11 6 9 7 10 8 2 9 1 10 3 11
REMARK H PARENT
REMARK Flexibility Score: inf
ROOT
ATOM      1  C   UNL     1       7.885  18.862  24.262  1.00  0.00     0.048 C 
ATOM      2  C   UNL     1       9.121  19.717  24.206  1.00  0.00    -0.012 C 
ATOM      3  C   UNL     1      10.277  19.204  23.752  1.00  0.00    -0.019 C 
ATOM      4  C   UNL     1      11.519  20.043  23.601  1.00  0.00     0.036 C 
ATOM      5  C   UNL     1      11.555  21.178  24.643  1.00  0.00     0.025 C 
ATOM      6  C   UNL     1      10.268  22.020  24.561  1.00  0.00     0.089 C 
ATOM      7  C   UNL     1       9.052  21.138  24.628  1.00  0.00     0.158 C 
ATOM      8  O   UNL     1       7.956  21.632  25.008  1.00  0.00    -0.295 OA
ENDROOT
BRANCH   5   9
ATOM      9  C   UNL     1      12.801  22.040  24.493  1.00  0.00    -0.077 C 
ATOM     10  C   UNL     1      13.729  21.772  23.558  1.00  0.00     0.008 C 
ATOM     11  C   UNL     1      13.017  23.222  25.403  1.00  0.00     0.039 C 
ENDBRANCH   5   9
TORSDOF 1
ENDMDL
MODEL 2
REMARK VINA RESULT:    -5.637      1.861      4.721
REMARK INTER + INTRA:          -6.063
REMARK INTER:                  -5.967
REMARK INTRA:                  -0.096
REMARK UNBOUND:                -0.096
REMARK SMILES C=C(C)[C@@H]1CC=C(C)C(=O)C1
REMARK SMILES IDX 8 1 7 2 6 3 5 4 4 5 11 6 9 7 10 8 2 9 1 10 3 11
REMARK H PARENT
REMARK Flexibility Score: inf
ROOT
ATOM      1  C   UNL     1      13.134  22.765  24.655  1.00  0.00     0.048 C 
ATOM      2  C   UNL     1      11.875  21.967  24.456  1.00  0.00    -0.012 C 
ATOM      3  C   UNL     1      10.722  22.588  24.154  1.00  0.00    -0.019 C 
ATOM      4  C   UNL     1       9.455  21.826  23.867  1.00  0.00     0.036 C 
ATOM      5  C   UNL     1       9.415  20.498  24.647  1.00  0.00     0.025 C 
ATOM      6  C   UNL     1      10.677  19.665  24.352  1.00  0.00     0.089 C 
ATOM      7  C   UNL     1      11.917  20.488  24.568  1.00  0.00     0.158 C 
ATOM      8  O   UNL     1      13.009  19.902  24.802  1.00  0.00    -0.295 OA
ENDROOT
BRANCH   5   9
ATOM      9  C   UNL     1       8.143  19.712  24.355  1.00  0.00    -0.077 C 
ATOM     10  C   UNL     1       7.182  20.209  23.556  1.00  0.00     0.008 C 
ATOM     11  C   UNL     1       7.939  18.349  24.966  1.00  0.00     0.039 C 
ENDBRANCH   5   9
TORSDOF 1
ENDMDL
MODEL 3
REMARK VINA RESULT:    -4.665      1.340      2.005
REMARK INTER + INTRA:          -5.034
REMARK INTER:                  -4.938
REMARK INTRA:                  -0.096
REMARK UNBOUND:                -0.096
REMARK SMILES C=C(C)[C@@H]1CC=C(C)C(=O)C1
REMARK SMILES IDX 8 1 7 2 6 3 5 4 4 5 11 6 9 7 10 8 2 9 1 10 3 11
REMARK H PARENT
REMARK Flexibility Score: inf
ROOT
ATOM      1  C   UNL     1       7.442  19.829  24.113  1.00  0.00     0.048 C 
ATOM      2  C   UNL     1       8.827  20.394  24.264  1.00  0.00    -0.012 C 
ATOM      3  C   UNL     1       8.997  21.674  24.637  1.00  0.00    -0.019 C 
ATOM      4  C   UNL     1      10.364  22.260  24.880  1.00  0.00     0.036 C 
ATOM      5  C   UNL     1      11.426  21.586  23.989  1.00  0.00     0.025 C 
ATOM      6  C   UNL     1      11.401  20.059  24.190  1.00  0.00     0.089 C 
ATOM      7  C   UNL     1      10.006  19.525  24.025  1.00  0.00     0.158 C 
ATOM      8  O   UNL     1       9.846  18.311  23.722  1.00  0.00    -0.295 OA
ENDROOT
BRANCH   5   9
ATOM      9  C   UNL     1      12.814  22.164  24.234  1.00  0.00    -0.077 C 
ATOM     10  C   UNL     1      13.876  21.757  23.518  1.00  0.00     0.008 C 
ATOM     11  C   UNL     1      13.020  23.212  25.297  1.00  0.00     0.039 C 
ENDBRANCH   5   9
TORSDOF 1
ENDMDL
MODEL 4
REMARK VINA RESULT:    -4.199     10.923     11.529
REMARK INTER + INTRA:          -4.540
REMARK INTER:                  -4.443
REMARK INTRA:                  -0.097
REMARK UNBOUND:                -0.096
REMARK SMILES C=C(C)[C@@H]1CC=C(C)C(=O)C1
REMARK SMILES IDX 8 1 7 2 6 3 5 4 4 5 11 6 9 7 10 8 2 9 1 10 3 11
REMARK H PARENT
REMARK Flexibility Score: inf
ROOT
ATOM      1  C   UNL     1       4.070  24.975  16.567  1.00  0.00     0.048 C 
ATOM      2  C   UNL     1       4.829  26.270  16.668  1.00  0.00    -0.012 C 
ATOM      3  C   UNL     1       6.172  26.263  16.728  1.00  0.00    -0.019 C 
ATOM      4  C   UNL     1       6.978  27.535  16.748  1.00  0.00     0.036 C 
ATOM      5  C   UNL     1       6.199  28.678  17.429  1.00  0.00     0.025 C 
ATOM      6  C   UNL     1       4.827  28.866  16.754  1.00  0.00     0.089 C 
ATOM      7  C   UNL     1       4.090  27.557  16.675  1.00  0.00     0.158 C 
ATOM      8  O   UNL     1       2.834  27.565  16.570  1.00  0.00    -0.295 OA
ENDROOT
BRANCH   5   9
ATOM      9  C   UNL     1       6.999  29.973  17.445  1.00  0.00    -0.077 C 
ATOM     10  C   UNL     1       6.459  31.123  17.884  1.00  0.00     0.008 C 
ATOM     11  C   UNL     1       8.427  29.986  16.962  1.00  0.00     0.039 C 
ENDBRANCH   5   9
TORSDOF 1
ENDMDL
MODEL 5
REMARK VINA RESULT:    -4.194     10.863     11.996
REMARK INTER + INTRA:          -4.535
REMARK INTER:                  -4.439
REMARK INTRA:                  -0.096
REMARK UNBOUND:                -0.096
REMARK SMILES C=C(C)[C@@H]1CC=C(C)C(=O)C1
REMARK SMILES IDX 8 1 7 2 6 3 5 4 4 5 11 6 9 7 10 8 2 9 1 10 3 11
REMARK H PARENT
REMARK Flexibility Score: inf
ROOT
ATOM      1  C   UNL     1       6.628  31.125  18.074  1.00  0.00     0.048 C 
ATOM      2  C   UNL     1       6.274  29.775  17.513  1.00  0.00    -0.012 C 
ATOM      3  C   UNL     1       4.987  29.404  17.408  1.00  0.00    -0.019 C 
ATOM      4  C   UNL     1       4.582  28.096  16.779  1.00  0.00     0.036 C 
ATOM      5  C   UNL     1       5.663  27.019  16.986  1.00  0.00     0.025 C 
ATOM      6  C   UNL     1       7.024  27.520  16.466  1.00  0.00     0.089 C 
ATOM      7  C   UNL     1       7.352  28.866  17.051  1.00  0.00     0.158 C 
ATOM      8  O   UNL     1       8.557  29.235  17.104  1.00  0.00    -0.295 OA
ENDROOT
BRANCH   5   9
ATOM      9  C   UNL     1       5.269  25.695  16.343  1.00  0.00    -0.077 C 
ATOM     10  C   UNL     1       5.977  25.174  15.326  1.00  0.00     0.008 C 
ATOM     11  C   UNL     1       4.064  24.941  16.844  1.00  0.00     0.039 C 
ENDBRANCH   5   9
TORSDOF 1
ENDMDL
MODEL 6
REMARK VINA RESULT:    -4.123     11.630     12.863
REMARK INTER + INTRA:          -4.460
REMARK INTER:                  -4.363
REMARK INTRA:                  -0.097
REMARK UNBOUND:                -0.096
REMARK SMILES C=C(C)[C@@H]1CC=C(C)C(=O)C1
REMARK SMILES IDX 8 1 7 2 6 3 5 4 4 5 11 6 9 7 10 8 2 9 1 10 3 11
REMARK H PARENT
REMARK Flexibility Score: inf
ROOT
ATOM      1  C   UNL     1      13.376  16.251  15.925  1.00  0.00     0.048 C 
ATOM      2  C   UNL     1      14.453  15.209  15.798  1.00  0.00    -0.012 C 
ATOM      3  C   UNL     1      15.723  15.577  15.552  1.00  0.00    -0.019 C 
ATOM      4  C   UNL     1      16.847  14.576  15.497  1.00  0.00     0.036 C 
ATOM      5  C   UNL     1      16.350  13.204  15.004  1.00  0.00     0.025 C 
ATOM      6  C   UNL     1      15.176  12.716  15.873  1.00  0.00     0.089 C 
ATOM      7  C   UNL     1      14.113  13.775  15.973  1.00  0.00     0.158 C 
ATOM      8  O   UNL     1      12.932  13.435  16.253  1.00  0.00    -0.295 OA
ENDROOT
BRANCH   5   9
ATOM      9  C   UNL     1      17.477  12.181  14.955  1.00  0.00    -0.077 C 
ATOM     10  C   UNL     1      17.228  10.875  14.755  1.00  0.00     0.008 C 
ATOM     11  C   UNL     1      18.907  12.622  15.134  1.00  0.00     0.039 C 
ENDBRANCH   5   9
TORSDOF 1
ENDMDL
MODEL 7
REMARK VINA RESULT:    -4.076     12.104     13.597
REMARK INTER + INTRA:          -4.411
REMARK INTER:                  -4.313
REMARK INTRA:                  -0.098
REMARK UNBOUND:                -0.096
REMARK SMILES C=C(C)[C@@H]1CC=C(C)C(=O)C1
REMARK SMILES IDX 8 1 7 2 6 3 5 4 4 5 11 6 9 7 10 8 2 9 1 10 3 11
REMARK H PARENT
REMARK Flexibility Score: inf
ROOT
ATOM      1  C   UNL     1      19.523  12.778  15.046  1.00  0.00     0.048 C 
ATOM      2  C   UNL     1      18.067  13.117  15.213  1.00  0.00    -0.012 C 
ATOM      3  C   UNL     1      17.693  14.383  15.468  1.00  0.00    -0.019 C 
ATOM      4  C   UNL     1      16.244  14.783  15.563  1.00  0.00     0.036 C 
ATOM      5  C   UNL     1      15.377  13.621  16.082  1.00  0.00     0.025 C 
ATOM      6  C   UNL     1      15.581  12.369  15.207  1.00  0.00     0.089 C 
ATOM      7  C   UNL     1      17.044  12.053  15.067  1.00  0.00     0.158 C 
ATOM      8  O   UNL     1      17.392  10.876  14.779  1.00  0.00    -0.295 OA
ENDROOT
BRANCH   5   9
ATOM      9  C   UNL     1      13.907  14.011  16.171  1.00  0.00    -0.077 C 
ATOM     10  C   UNL     1      12.933  13.089  16.085  1.00  0.00     0.008 C 
ATOM     11  C   UNL     1      13.519  15.455  16.358  1.00  0.00     0.039 C 
ENDBRANCH   5   9
TORSDOF 1
ENDMDL
MODEL 8
REMARK VINA RESULT:    -4.031     10.939     11.988
REMARK INTER + INTRA:          -4.363
REMARK INTER:                  -4.266
REMARK INTRA:                  -0.096
REMARK UNBOUND:                -0.096
REMARK SMILES C=C(C)[C@@H]1CC=C(C)C(=O)C1
REMARK SMILES IDX 8 1 7 2 6 3 5 4 4 5 11 6 9 7 10 8 2 9 1 10 3 11
REMARK H PARENT
REMARK Flexibility Score: inf
ROOT
ATOM      1  C   UNL     1       3.617  16.954  15.398  1.00  0.00     0.048 C 
ATOM      2  C   UNL     1       5.028  16.502  15.138  1.00  0.00    -0.012 C 
ATOM      3  C   UNL     1       6.064  17.229  15.591  1.00  0.00    -0.019 C 
ATOM      4  C   UNL     1       7.490  16.775  15.425  1.00  0.00     0.036 C 
ATOM      5  C   UNL     1       7.662  15.930  14.148  1.00  0.00     0.025 C 
ATOM      6  C   UNL     1       6.670  14.751  14.150  1.00  0.00     0.089 C 
ATOM      7  C   UNL     1       5.270  15.236  14.404  1.00  0.00     0.158 C 
ATOM      8  O   UNL     1       4.298  14.530  14.023  1.00  0.00    -0.295 OA
ENDROOT
BRANCH   5   9
ATOM      9  C   UNL     1       9.099  15.455  13.976  1.00  0.00    -0.077 C 
ATOM     10  C   UNL     1       9.396  14.148  13.870  1.00  0.00     0.008 C 
ATOM     11  C   UNL     1      10.224  16.457  13.923  1.00  0.00     0.039 C 
ENDBRANCH   5   9
TORSDOF 1
ENDMDL
MODEL 9
REMARK VINA RESULT:    -3.988      9.782     11.632
REMARK INTER + INTRA:          -4.317
REMARK INTER:                  -4.220
REMARK INTRA:                  -0.098
REMARK UNBOUND:                -0.096
REMARK SMILES C=C(C)[C@@H]1CC=C(C)C(=O)C1
REMARK SMILES IDX 8 1 7 2 6 3 5 4 4 5 11 6 9 7 10 8 2 9 1 10 3 11
REMARK H PARENT
REMARK Flexibility Score: inf
ROOT
ATOM      1  C   UNL     1      16.675  28.150  15.149  1.00  0.00     0.048 C 
ATOM      2  C   UNL     1      15.489  27.228  15.218  1.00  0.00    -0.012 C 
ATOM      3  C   UNL     1      14.304  27.613  14.714  1.00  0.00    -0.019 C 
ATOM      4  C   UNL     1      13.111  26.694  14.688  1.00  0.00     0.036 C 
ATOM      5  C   UNL     1      13.142  25.705  15.869  1.00  0.00     0.025 C 
ATOM      6  C   UNL     1      14.474  24.932  15.884  1.00  0.00     0.089 C 
ATOM      7  C   UNL     1      15.639  25.880  15.822  1.00  0.00     0.158 C 
ATOM      8  O   UNL     1      16.763  25.501  16.250  1.00  0.00    -0.295 OA
ENDROOT
BRANCH   5   9
ATOM      9  C   UNL     1      11.946  24.763  15.846  1.00  0.00    -0.077 C 
ATOM     10  C   UNL     1      11.949  23.612  16.541  1.00  0.00     0.008 C 
ATOM     11  C   UNL     1      10.725  25.111  15.034  1.00  0.00     0.039 C 
ENDBRANCH   5   9
TORSDOF 1
ENDMDL
