MODEL 1
REMARK VINA RESULT:    -3.237      0.000      0.000
REMARK INTER + INTRA:          -5.972
REMARK INTER:                  -4.939
REMARK INTRA:                  -1.033
REMARK UNBOUND:                -1.033
REMARK SMILES CCCCCCCCCCC(=O)[O-]
REMARK SMILES IDX 7 1 8 2 9 3 10 4 11 5 12 6 13 7 6 8 5 9 4 10 3 11 2 12 1 13
REMARK H PARENT
REMARK Flexibility Score: inf
ROOT
ATOM      1  C   UNL     1      64.535  34.491  60.293  1.00  0.00     0.000 C 
ENDROOT
BRANCH   1   2
ATOM      2  C   UNL     1      64.009  33.093  60.667  1.00  0.00     0.000 C 
BRANCH   2   3
ATOM      3  C   UNL     1      62.475  32.991  60.607  1.00  0.00     0.006 C 
BRANCH   3   4
ATOM      4  C   UNL     1      62.003  31.588  60.207  1.00  0.00     0.053 C 
BRANCH   4   5
ATOM      5  C   UNL     1      61.643  30.758  61.402  1.00  0.00     0.041 C 
ATOM      6  O   UNL     1      60.513  30.883  61.943  1.00  0.00    -0.550 OA
ATOM      7  O   UNL     1      62.546  29.828  61.900  1.00  0.00    -0.550 OA
ENDBRANCH   4   5
ENDBRANCH   3   4
ENDBRANCH   2   3
ENDBRANCH   1   2
BRANCH   1   8
ATOM      8  C   UNL     1      64.915  35.386  61.486  1.00  0.00     0.000 C 
BRANCH   8   9
ATOM      9  C   UNL     1      63.958  36.574  61.673  1.00  0.00    -0.000 C 
BRANCH   9  10
ATOM     10  C   UNL     1      63.007  36.708  60.473  1.00  0.00    -0.000 C 
BRANCH  10  11
ATOM     11  C   UNL     1      61.527  36.663  60.883  1.00  0.00    -0.000 C 
BRANCH  11  12
ATOM     12  C   UNL     1      60.622  36.102  59.776  1.00  0.00    -0.003 C 
ATOM     13  C   UNL     1      61.419  35.821  58.505  1.00  0.00     0.004 C 
ENDBRANCH  11  12
ENDBRANCH  10  11
ENDBRANCH   9  10
ENDBRANCH   8   9
ENDBRANCH   1   8
TORSDOF 9
ENDMDL
MODEL 2
REMARK VINA RESULT:    -3.179      3.135      5.696
REMARK INTER + INTRA:          -5.885
REMARK INTER:                  -4.692
REMARK INTRA:                  -1.193
REMARK UNBOUND:                -1.033
REMARK SMILES CCCCCCCCCCC(=O)[O-]
REMARK SMILES IDX 7 1 8 2 9 3 10 4 11 5 12 6 13 7 6 8 5 9 4 10 3 11 2 12 1 13
REMARK H PARENT
REMARK Flexibility Score: inf
ROOT
ATOM      1  C   UNL     1      61.243  32.537  59.533  1.00  0.00     0.000 C 
ENDROOT
BRANCH   1   2
ATOM      2  C   UNL     1      62.400  33.541  59.375  1.00  0.00     0.000 C 
BRANCH   2   3
ATOM      3  C   UNL     1      62.745  34.270  60.685  1.00  0.00     0.006 C 
BRANCH   3   4
ATOM      4  C   UNL     1      64.213  34.076  61.086  1.00  0.00     0.053 C 
BRANCH   4   5
ATOM      5  C   UNL     1      64.941  35.382  61.188  1.00  0.00     0.041 C 
ATOM      6  O   UNL     1      64.906  36.045  62.257  1.00  0.00    -0.550 OA
ATOM      7  O   UNL     1      65.682  35.851  60.111  1.00  0.00    -0.550 OA
ENDBRANCH   4   5
ENDBRANCH   3   4
ENDBRANCH   2   3
ENDBRANCH   1   2
BRANCH   1   8
ATOM      8  C   UNL     1      61.149  31.860  60.912  1.00  0.00     0.000 C 
BRANCH   8   9
ATOM      9  C   UNL     1      61.223  30.327  60.833  1.00  0.00    -0.000 C 
BRANCH   9  10
ATOM     10  C   UNL     1      62.283  29.778  61.800  1.00  0.00    -0.000 C 
BRANCH  10  11
ATOM     11  C   UNL     1      63.705  30.239  61.442  1.00  0.00    -0.000 C 
BRANCH  11  12
ATOM     12  C   UNL     1      64.118  29.834  60.019  1.00  0.00    -0.003 C 
ATOM     13  C   UNL     1      65.048  30.874  59.400  1.00  0.00     0.004 C 
ENDBRANCH  11  12
ENDBRANCH  10  11
ENDBRANCH   9  10
ENDBRANCH   8   9
ENDBRANCH   1   8
TORSDOF 9
ENDMDL
MODEL 3
REMARK VINA RESULT:    -3.172     12.734     13.929
REMARK INTER + INTRA:          -5.873
REMARK INTER:                  -4.881
REMARK INTRA:                  -0.993
REMARK UNBOUND:                -1.033
REMARK SMILES CCCCCCCCCCC(=O)[O-]
REMARK SMILES IDX 7 1 8 2 9 3 10 4 11 5 12 6 13 7 6 8 5 9 4 10 3 11 2 12 1 13
REMARK H PARENT
REMARK Flexibility Score: inf
ROOT
ATOM      1  C   UNL     1      60.092  27.790  49.194  1.00  0.00     0.000 C 
ENDROOT
BRANCH   1   2
ATOM      2  C   UNL     1      59.536  26.364  49.355  1.00  0.00     0.000 C 
BRANCH   2   3
ATOM      3  C   UNL     1      60.102  25.634  50.585  1.00  0.00     0.006 C 
BRANCH   3   4
ATOM      4  C   UNL     1      59.900  24.115  50.500  1.00  0.00     0.053 C 
BRANCH   4   5
ATOM      5  C   UNL     1      61.082  23.428  49.887  1.00  0.00     0.041 C 
ATOM      6  O   UNL     1      62.249  23.833  50.135  1.00  0.00    -0.550 OA
ATOM      7  O   UNL     1      60.896  22.324  49.066  1.00  0.00    -0.550 OA
ENDBRANCH   4   5
ENDBRANCH   3   4
ENDBRANCH   2   3
ENDBRANCH   1   2
BRANCH   1   8
ATOM      8  C   UNL     1      59.480  28.842  50.137  1.00  0.00     0.000 C 
BRANCH   8   9
ATOM      9  C   UNL     1      58.021  29.177  49.795  1.00  0.00    -0.000 C 
BRANCH   9  10
ATOM     10  C   UNL     1      57.071  28.690  50.900  1.00  0.00    -0.000 C 
BRANCH  10  11
ATOM     11  C   UNL     1      55.781  28.068  50.341  1.00  0.00    -0.000 C 
BRANCH  11  12
ATOM     12  C   UNL     1      55.907  26.556  50.103  1.00  0.00    -0.003 C 
ATOM     13  C   UNL     1      56.434  25.847  51.347  1.00  0.00     0.004 C 
ENDBRANCH  11  12
ENDBRANCH  10  11
ENDBRANCH   9  10
ENDBRANCH   8   9
ENDBRANCH   1   8
TORSDOF 9
ENDMDL
MODEL 4
REMARK VINA RESULT:    -3.171      1.959      3.572
REMARK INTER + INTRA:          -5.872
REMARK INTER:                  -5.149
REMARK INTRA:                  -0.722
REMARK UNBOUND:                -1.033
REMARK SMILES CCCCCCCCCCC(=O)[O-]
REMARK SMILES IDX 7 1 8 2 9 3 10 4 11 5 12 6 13 7 6 8 5 9 4 10 3 11 2 12 1 13
REMARK H PARENT
REMARK Flexibility Score: inf
ROOT
ATOM      1  C   UNL     1      61.107  31.678  60.352  1.00  0.00     0.000 C 
ENDROOT
BRANCH   1   2
ATOM      2  C   UNL     1      60.946  30.741  61.563  1.00  0.00     0.000 C 
BRANCH   2   3
ATOM      3  C   UNL     1      62.223  29.943  61.879  1.00  0.00     0.006 C 
BRANCH   3   4
ATOM      4  C   UNL     1      62.948  29.482  60.608  1.00  0.00     0.053 C 
BRANCH   4   5
ATOM      5  C   UNL     1      64.412  29.796  60.655  1.00  0.00     0.041 C 
ATOM      6  O   UNL     1      64.801  30.990  60.751  1.00  0.00    -0.550 OA
ATOM      7  O   UNL     1      65.345  28.769  60.620  1.00  0.00    -0.550 OA
ENDBRANCH   4   5
ENDBRANCH   3   4
ENDBRANCH   2   3
ENDBRANCH   1   2
BRANCH   1   8
ATOM      8  C   UNL     1      61.870  32.984  60.633  1.00  0.00     0.000 C 
BRANCH   8   9
ATOM      9  C   UNL     1      62.722  33.449  59.441  1.00  0.00    -0.000 C 
BRANCH   9  10
ATOM     10  C   UNL     1      63.046  34.947  59.549  1.00  0.00    -0.000 C 
BRANCH  10  11
ATOM     11  C   UNL     1      62.609  35.551  60.893  1.00  0.00    -0.000 C 
BRANCH  11  12
ATOM     12  C   UNL     1      63.677  36.471  61.504  1.00  0.00    -0.003 C 
ATOM     13  C   UNL     1      64.945  35.691  61.843  1.00  0.00     0.004 C 
ENDBRANCH  11  12
ENDBRANCH  10  11
ENDBRANCH   9  10
ENDBRANCH   8   9
ENDBRANCH   1   8
TORSDOF 9
ENDMDL
MODEL 5
REMARK VINA RESULT:    -3.169      1.345      2.406
REMARK INTER + INTRA:          -5.868
REMARK INTER:                  -4.801
REMARK INTRA:                  -1.068
REMARK UNBOUND:                -1.033
REMARK SMILES CCCCCCCCCCC(=O)[O-]
REMARK SMILES IDX 7 1 8 2 9 3 10 4 11 5 12 6 13 7 6 8 5 9 4 10 3 11 2 12 1 13
REMARK H PARENT
REMARK Flexibility Score: inf
ROOT
ATOM      1  C   UNL     1      62.665  32.648  59.323  1.00  0.00     0.000 C 
ENDROOT
BRANCH   1   2
ATOM      2  C   UNL     1      61.617  32.913  60.419  1.00  0.00     0.000 C 
BRANCH   2   3
ATOM      3  C   UNL     1      61.119  31.625  61.097  1.00  0.00     0.006 C 
BRANCH   3   4
ATOM      4  C   UNL     1      61.674  30.363  60.423  1.00  0.00     0.053 C 
BRANCH   4   5
ATOM      5  C   UNL     1      62.528  29.561  61.356  1.00  0.00     0.041 C 
ATOM      6  O   UNL     1      63.625  30.023  61.767  1.00  0.00    -0.550 OA
ATOM      7  O   UNL     1      62.099  28.315  61.794  1.00  0.00    -0.550 OA
ENDBRANCH   4   5
ENDBRANCH   3   4
ENDBRANCH   2   3
ENDBRANCH   1   2
BRANCH   1   8
ATOM      8  C   UNL     1      64.104  33.067  59.679  1.00  0.00     0.000 C 
BRANCH   8   9
ATOM      9  C   UNL     1      64.242  33.568  61.125  1.00  0.00    -0.000 C 
BRANCH   9  10
ATOM     10  C   UNL     1      64.733  35.023  61.157  1.00  0.00    -0.000 C 
BRANCH  10  11
ATOM     11  C   UNL     1      63.622  36.014  61.539  1.00  0.00    -0.000 C 
BRANCH  11  12
ATOM     12  C   UNL     1      62.769  36.441  60.336  1.00  0.00    -0.003 C 
ATOM     13  C   UNL     1      61.304  36.605  60.732  1.00  0.00     0.004 C 
ENDBRANCH  11  12
ENDBRANCH  10  11
ENDBRANCH   9  10
ENDBRANCH   8   9
ENDBRANCH   1   8
TORSDOF 9
ENDMDL
MODEL 6
REMARK VINA RESULT:    -3.160      1.638      2.844
REMARK INTER + INTRA:          -5.856
REMARK INTER:                  -5.139
REMARK INTRA:                  -0.717
REMARK UNBOUND:                -1.033
REMARK SMILES CCCCCCCCCCC(=O)[O-]
REMARK SMILES IDX 7 1 8 2 9 3 10 4 11 5 12 6 13 7 6 8 5 9 4 10 3 11 2 12 1 13
REMARK H PARENT
REMARK Flexibility Score: inf
ROOT
ATOM      1  C   UNL     1      64.877  31.068  60.101  1.00  0.00     0.000 C 
ENDROOT
BRANCH   1   2
ATOM      2  C   UNL     1      64.590  29.788  60.907  1.00  0.00     0.000 C 
BRANCH   2   3
ATOM      3  C   UNL     1      63.206  29.188  60.609  1.00  0.00     0.006 C 
BRANCH   3   4
ATOM      4  C   UNL     1      62.216  29.417  61.759  1.00  0.00     0.053 C 
BRANCH   4   5
ATOM      5  C   UNL     1      60.988  30.143  61.302  1.00  0.00     0.041 C 
ATOM      6  O   UNL     1      60.557  31.131  61.953  1.00  0.00    -0.550 OA
ATOM      7  O   UNL     1      60.335  29.745  60.143  1.00  0.00    -0.550 OA
ENDBRANCH   4   5
ENDBRANCH   3   4
ENDBRANCH   2   3
ENDBRANCH   1   2
BRANCH   1   8
ATOM      8  C   UNL     1      64.225  32.348  60.654  1.00  0.00     0.000 C 
BRANCH   8   9
ATOM      9  C   UNL     1      63.055  32.847  59.792  1.00  0.00    -0.000 C 
BRANCH   9  10
ATOM     10  C   UNL     1      62.246  33.923  60.532  1.00  0.00    -0.000 C 
BRANCH  10  11
ATOM     11  C   UNL     1      63.107  35.125  60.952  1.00  0.00    -0.000 C 
BRANCH  11  12
ATOM     12  C   UNL     1      62.293  36.422  61.074  1.00  0.00    -0.003 C 
ATOM     13  C   UNL     1      60.885  36.242  60.514  1.00  0.00     0.004 C 
ENDBRANCH  11  12
ENDBRANCH  10  11
ENDBRANCH   9  10
ENDBRANCH   8   9
ENDBRANCH   1   8
TORSDOF 9
ENDMDL
MODEL 7
REMARK VINA RESULT:    -3.145     12.259     13.951
REMARK INTER + INTRA:          -5.832
REMARK INTER:                  -4.664
REMARK INTRA:                  -1.168
REMARK UNBOUND:                -1.033
REMARK SMILES CCCCCCCCCCC(=O)[O-]
REMARK SMILES IDX 7 1 8 2 9 3 10 4 11 5 12 6 13 7 6 8 5 9 4 10 3 11 2 12 1 13
REMARK H PARENT
REMARK Flexibility Score: inf
ROOT
ATOM      1  C   UNL     1      58.417  29.362  50.828  1.00  0.00     0.000 C 
ENDROOT
BRANCH   1   2
ATOM      2  C   UNL     1      57.220  28.561  51.371  1.00  0.00     0.000 C 
BRANCH   2   3
ATOM      3  C   UNL     1      56.172  28.242  50.291  1.00  0.00     0.006 C 
BRANCH   3   4
ATOM      4  C   UNL     1      55.886  26.738  50.187  1.00  0.00     0.053 C 
BRANCH   4   5
ATOM      5  C   UNL     1      54.531  26.465  49.611  1.00  0.00     0.041 C 
ATOM      6  O   UNL     1      53.721  27.411  49.421  1.00  0.00    -0.550 OA
ATOM      7  O   UNL     1      54.172  25.171  49.259  1.00  0.00    -0.550 OA
ENDBRANCH   4   5
ENDBRANCH   3   4
ENDBRANCH   2   3
ENDBRANCH   1   2
BRANCH   1   8
ATOM      8  C   UNL     1      58.828  29.026  49.383  1.00  0.00     0.000 C 
BRANCH   8   9
ATOM      9  C   UNL     1      59.998  28.033  49.307  1.00  0.00    -0.000 C 
BRANCH   9  10
ATOM     10  C   UNL     1      59.488  26.584  49.279  1.00  0.00    -0.000 C 
BRANCH  10  11
ATOM     11  C   UNL     1      60.105  25.718  50.389  1.00  0.00    -0.000 C 
BRANCH  11  12
ATOM     12  C   UNL     1      60.781  26.554  51.485  1.00  0.00    -0.003 C 
ATOM     13  C   UNL     1      59.982  26.507  52.784  1.00  0.00     0.004 C 
ENDBRANCH  11  12
ENDBRANCH  10  11
ENDBRANCH   9  10
ENDBRANCH   8   9
ENDBRANCH   1   8
TORSDOF 9
ENDMDL
MODEL 8
REMARK VINA RESULT:    -3.123     12.509     14.117
REMARK INTER + INTRA:          -5.799
REMARK INTER:                  -4.908
REMARK INTRA:                  -0.891
REMARK UNBOUND:                -1.033
REMARK SMILES CCCCCCCCCCC(=O)[O-]
REMARK SMILES IDX 7 1 8 2 9 3 10 4 11 5 12 6 13 7 6 8 5 9 4 10 3 11 2 12 1 13
REMARK H PARENT
REMARK Flexibility Score: inf
ROOT
ATOM      1  C   UNL     1      56.705  27.565  51.478  1.00  0.00     0.000 C 
ENDROOT
BRANCH   1   2
ATOM      2  C   UNL     1      57.570  28.798  51.158  1.00  0.00     0.000 C 
BRANCH   2   3
ATOM      3  C   UNL     1      58.055  28.830  49.699  1.00  0.00     0.006 C 
BRANCH   3   4
ATOM      4  C   UNL     1      59.567  29.068  49.596  1.00  0.00     0.053 C 
BRANCH   4   5
ATOM      5  C   UNL     1      60.315  27.797  49.332  1.00  0.00     0.041 C 
ATOM      6  O   UNL     1      59.689  26.735  49.071  1.00  0.00    -0.550 OA
ATOM      7  O   UNL     1      61.704  27.791  49.347  1.00  0.00    -0.550 OA
ENDBRANCH   4   5
ENDBRANCH   3   4
ENDBRANCH   2   3
ENDBRANCH   1   2
BRANCH   1   8
ATOM      8  C   UNL     1      56.652  26.499  50.369  1.00  0.00     0.000 C 
BRANCH   8   9
ATOM      9  C   UNL     1      55.225  26.218  49.875  1.00  0.00    -0.000 C 
BRANCH   9  10
ATOM     10  C   UNL     1      54.207  27.112  50.600  1.00  0.00    -0.000 C 
BRANCH  10  11
ATOM     11  C   UNL     1      53.387  27.980  49.632  1.00  0.00    -0.000 C 
BRANCH  11  12
ATOM     12  C   UNL     1      52.876  29.273  50.285  1.00  0.00    -0.003 C 
ATOM     13  C   UNL     1      54.001  30.001  51.016  1.00  0.00     0.004 C 
ENDBRANCH  11  12
ENDBRANCH  10  11
ENDBRANCH   9  10
ENDBRANCH   8   9
ENDBRANCH   1   8
TORSDOF 9
ENDMDL
MODEL 9
REMARK VINA RESULT:    -3.116     12.519     14.051
REMARK INTER + INTRA:          -5.788
REMARK INTER:                  -5.058
REMARK INTRA:                  -0.730
REMARK UNBOUND:                -1.033
REMARK SMILES CCCCCCCCCCC(=O)[O-]
REMARK SMILES IDX 7 1 8 2 9 3 10 4 11 5 12 6 13 7 6 8 5 9 4 10 3 11 2 12 1 13
REMARK H PARENT
REMARK Flexibility Score: inf
ROOT
ATOM      1  C   UNL     1      58.759  29.207  49.707  1.00  0.00     0.000 C 
ENDROOT
BRANCH   1   2
ATOM      2  C   UNL     1      59.579  28.100  49.020  1.00  0.00     0.000 C 
BRANCH   2   3
ATOM      3  C   UNL     1      60.165  27.081  50.012  1.00  0.00     0.006 C 
BRANCH   3   4
ATOM      4  C   UNL     1      59.643  25.660  49.759  1.00  0.00     0.053 C 
BRANCH   4   5
ATOM      5  C   UNL     1      60.610  24.619  50.233  1.00  0.00     0.041 C 
ATOM      6  O   UNL     1      60.417  23.404  49.960  1.00  0.00    -0.550 OA
ATOM      7  O   UNL     1      61.739  24.992  50.951  1.00  0.00    -0.550 OA
ENDBRANCH   4   5
ENDBRANCH   3   4
ENDBRANCH   2   3
ENDBRANCH   1   2
BRANCH   1   8
ATOM      8  C   UNL     1      57.872  28.734  50.873  1.00  0.00     0.000 C 
BRANCH   8   9
ATOM      9  C   UNL     1      56.375  28.971  50.622  1.00  0.00    -0.000 C 
BRANCH   9  10
ATOM     10  C   UNL     1      55.565  27.692  50.886  1.00  0.00    -0.000 C 
BRANCH  10  11
ATOM     11  C   UNL     1      55.934  26.550  49.926  1.00  0.00    -0.000 C 
BRANCH  11  12
ATOM     12  C   UNL     1      54.700  25.838  49.351  1.00  0.00    -0.003 C 
ATOM     13  C   UNL     1      53.474  26.747  49.389  1.00  0.00     0.004 C 
ENDBRANCH  11  12
ENDBRANCH  10  11
ENDBRANCH   9  10
ENDBRANCH   8   9
ENDBRANCH   1   8
TORSDOF 9
ENDMDL
