MODEL 1
REMARK VINA RESULT:    -1.175      0.000      0.000
REMARK INTER + INTRA:          -1.489
REMARK INTER:                  -1.381
REMARK INTRA:                  -0.108
REMARK UNBOUND:                -0.108
REMARK SMILES O=C([O-])CCC(=O)[O-]
REMARK SMILES IDX 4 1 2 2 1 3 3 4 5 5 6 6 7 7 8 8
REMARK H PARENT
REMARK Flexibility Score: inf
ROOT
ATOM      1  C   UNL     1     153.386 137.886  96.371  1.00  0.00     0.059 C 
ENDROOT
BRANCH   1   2
ATOM      2  C   UNL     1     153.872 136.833  97.319  1.00  0.00     0.042 C 
ATOM      3  O   UNL     1     154.744 137.111  98.183  1.00  0.00    -0.550 OA
ATOM      4  O   UNL     1     153.329 135.555  97.276  1.00  0.00    -0.550 OA
ENDBRANCH   1   2
BRANCH   1   5
ATOM      5  C   UNL     1     153.666 137.505  94.914  1.00  0.00     0.059 C 
BRANCH   5   6
ATOM      6  C   UNL     1     152.431 137.010  94.225  1.00  0.00     0.042 C 
ATOM      7  O   UNL     1     151.533 137.821  93.875  1.00  0.00    -0.550 OA
ATOM      8  O   UNL     1     152.253 135.650  94.007  1.00  0.00    -0.550 OA
ENDBRANCH   5   6
ENDBRANCH   1   5
TORSDOF 3
ENDMDL
MODEL 2
REMARK VINA RESULT:    -1.150      1.623      4.130
REMARK INTER + INTRA:          -1.460
REMARK INTER:                  -1.347
REMARK INTRA:                  -0.113
REMARK UNBOUND:                -0.108
REMARK SMILES O=C([O-])CCC(=O)[O-]
REMARK SMILES IDX 4 1 2 2 1 3 3 4 5 5 6 6 7 7 8 8
REMARK H PARENT
REMARK Flexibility Score: inf
ROOT
ATOM      1  C   UNL     1     151.737 136.027  96.004  1.00  0.00     0.059 C 
ENDROOT
BRANCH   1   2
ATOM      2  C   UNL     1     152.131 135.861  94.568  1.00  0.00     0.042 C 
ATOM      3  O   UNL     1     151.652 134.918  93.884  1.00  0.00    -0.550 OA
ATOM      4  O   UNL     1     152.995 136.772  93.974  1.00  0.00    -0.550 OA
ENDBRANCH   1   2
BRANCH   1   5
ATOM      5  C   UNL     1     152.607 135.172  96.930  1.00  0.00     0.059 C 
BRANCH   5   6
ATOM      6  C   UNL     1     153.553 136.013  97.732  1.00  0.00     0.042 C 
ATOM      7  O   UNL     1     154.416 136.723  97.152  1.00  0.00    -0.550 OA
ATOM      8  O   UNL     1     153.508 135.981  99.120  1.00  0.00    -0.550 OA
ENDBRANCH   5   6
ENDBRANCH   1   5
TORSDOF 3
ENDMDL
MODEL 3
REMARK VINA RESULT:    -1.130      0.789      1.727
REMARK INTER + INTRA:          -1.437
REMARK INTER:                  -1.340
REMARK INTRA:                  -0.097
REMARK UNBOUND:                -0.108
REMARK SMILES O=C([O-])CCC(=O)[O-]
REMARK SMILES IDX 4 1 2 2 1 3 3 4 5 5 6 6 7 7 8 8
REMARK H PARENT
REMARK Flexibility Score: inf
ROOT
ATOM      1  C   UNL     1     153.373 138.453  96.173  1.00  0.00     0.059 C 
ENDROOT
BRANCH   1   2
ATOM      2  C   UNL     1     153.981 137.761  97.354  1.00  0.00     0.042 C 
ATOM      3  O   UNL     1     154.336 136.555  97.270  1.00  0.00    -0.550 OA
ATOM      4  O   UNL     1     154.195 138.459  98.535  1.00  0.00    -0.550 OA
ENDBRANCH   1   2
BRANCH   1   5
ATOM      5  C   UNL     1     153.635 137.687  94.873  1.00  0.00     0.059 C 
BRANCH   5   6
ATOM      6  C   UNL     1     152.387 137.040  94.352  1.00  0.00     0.042 C 
ATOM      7  O   UNL     1     152.300 135.785  94.297  1.00  0.00    -0.550 OA
ATOM      8  O   UNL     1     151.338 137.824  93.890  1.00  0.00    -0.550 OA
ENDBRANCH   5   6
ENDBRANCH   1   5
TORSDOF 3
ENDMDL
MODEL 4
REMARK VINA RESULT:    -1.057      1.052      3.948
REMARK INTER + INTRA:          -1.351
REMARK INTER:                  -1.230
REMARK INTRA:                  -0.121
REMARK UNBOUND:                -0.108
REMARK SMILES O=C([O-])CCC(=O)[O-]
REMARK SMILES IDX 4 1 2 2 1 3 3 4 5 5 6 6 7 7 8 8
REMARK H PARENT
REMARK Flexibility Score: inf
ROOT
ATOM      1  C   UNL     1     152.245 137.114  96.169  1.00  0.00     0.059 C 
ENDROOT
BRANCH   1   2
ATOM      2  C   UNL     1     151.910 136.187  95.042  1.00  0.00     0.042 C 
ATOM      3  O   UNL     1     152.103 134.948  95.161  1.00  0.00    -0.550 OA
ATOM      4  O   UNL     1     151.345 136.686  93.875  1.00  0.00    -0.550 OA
ENDBRANCH   1   2
BRANCH   1   5
ATOM      5  C   UNL     1     153.760 137.269  96.342  1.00  0.00     0.059 C 
BRANCH   5   6
ATOM      6  C   UNL     1     154.237 136.644  97.617  1.00  0.00     0.042 C 
ATOM      7  O   UNL     1     154.096 135.407  97.807  1.00  0.00    -0.550 OA
ATOM      8  O   UNL     1     154.799 137.434  98.612  1.00  0.00    -0.550 OA
ENDBRANCH   5   6
ENDBRANCH   1   5
TORSDOF 3
ENDMDL
MODEL 5
REMARK VINA RESULT:    -1.028      2.053      2.513
REMARK INTER + INTRA:          -1.317
REMARK INTER:                  -1.197
REMARK INTRA:                  -0.120
REMARK UNBOUND:                -0.108
REMARK SMILES O=C([O-])CCC(=O)[O-]
REMARK SMILES IDX 4 1 2 2 1 3 3 4 5 5 6 6 7 7 8 8
REMARK H PARENT
REMARK Flexibility Score: inf
ROOT
ATOM      1  C   UNL     1     152.379 136.423  97.418  1.00  0.00     0.059 C 
ENDROOT
BRANCH   1   2
ATOM      2  C   UNL     1     153.719 136.890  96.939  1.00  0.00     0.042 C 
ATOM      3  O   UNL     1     154.742 136.726  97.655  1.00  0.00    -0.550 OA
ATOM      4  O   UNL     1     153.845 137.469  95.682  1.00  0.00    -0.550 OA
ENDBRANCH   1   2
BRANCH   1   5
ATOM      5  C   UNL     1     152.109 134.971  97.010  1.00  0.00     0.059 C 
BRANCH   5   6
ATOM      6  C   UNL     1     151.364 134.891  95.712  1.00  0.00     0.042 C 
ATOM      7  O   UNL     1     151.993 134.875  94.621  1.00  0.00    -0.550 OA
ATOM      8  O   UNL     1     149.975 134.875  95.706  1.00  0.00    -0.550 OA
ENDBRANCH   5   6
ENDBRANCH   1   5
TORSDOF 3
ENDMDL
MODEL 6
REMARK VINA RESULT:    -1.025      1.737      3.425
REMARK INTER + INTRA:          -1.313
REMARK INTER:                  -1.191
REMARK INTRA:                  -0.123
REMARK UNBOUND:                -0.108
REMARK SMILES O=C([O-])CCC(=O)[O-]
REMARK SMILES IDX 4 1 2 2 1 3 3 4 5 5 6 6 7 7 8 8
REMARK H PARENT
REMARK Flexibility Score: inf
ROOT
ATOM      1  C   UNL     1     152.314 137.176  94.634  1.00  0.00     0.059 C 
ENDROOT
BRANCH   1   2
ATOM      2  C   UNL     1     152.058 135.714  94.835  1.00  0.00     0.042 C 
ATOM      3  O   UNL     1     151.663 135.001  93.876  1.00  0.00    -0.550 OA
ATOM      4  O   UNL     1     152.296 135.131  96.073  1.00  0.00    -0.550 OA
ENDBRANCH   1   2
BRANCH   1   5
ATOM      5  C   UNL     1     153.586 137.631  95.355  1.00  0.00     0.059 C 
BRANCH   5   6
ATOM      6  C   UNL     1     153.276 138.563  96.487  1.00  0.00     0.042 C 
ATOM      7  O   UNL     1     153.915 139.641  96.613  1.00  0.00    -0.550 OA
ATOM      8  O   UNL     1     152.310 138.222  97.425  1.00  0.00    -0.550 OA
ENDBRANCH   5   6
ENDBRANCH   1   5
TORSDOF 3
ENDMDL
MODEL 7
REMARK VINA RESULT:    -0.964      1.776      2.574
REMARK INTER + INTRA:          -1.242
REMARK INTER:                  -1.163
REMARK INTRA:                  -0.079
REMARK UNBOUND:                -0.108
REMARK SMILES O=C([O-])CCC(=O)[O-]
REMARK SMILES IDX 4 1 2 2 1 3 3 4 5 5 6 6 7 7 8 8
REMARK H PARENT
REMARK Flexibility Score: inf
ROOT
ATOM      1  C   UNL     1     153.245 137.176  96.361  1.00  0.00     0.059 C 
ENDROOT
BRANCH   1   2
ATOM      2  C   UNL     1     152.514 135.872  96.443  1.00  0.00     0.042 C 
ATOM      3  O   UNL     1     151.607 135.599  95.612  1.00  0.00    -0.550 OA
ATOM      4  O   UNL     1     152.862 134.939  97.411  1.00  0.00    -0.550 OA
ENDBRANCH   1   2
BRANCH   1   5
ATOM      5  C   UNL     1     153.606 137.531  94.915  1.00  0.00     0.059 C 
BRANCH   5   6
ATOM      6  C   UNL     1     153.302 138.966  94.607  1.00  0.00     0.042 C 
ATOM      7  O   UNL     1     152.212 139.476  94.977  1.00  0.00    -0.550 OA
ATOM      8  O   UNL     1     154.204 139.727  93.876  1.00  0.00    -0.550 OA
ENDBRANCH   5   6
ENDBRANCH   1   5
TORSDOF 3
ENDMDL
MODEL 8
REMARK VINA RESULT:    -0.384      1.404      3.679
REMARK INTER + INTRA:          -0.559
REMARK INTER:                  -0.439
REMARK INTRA:                  -0.120
REMARK UNBOUND:                -0.108
REMARK SMILES O=C([O-])CCC(=O)[O-]
REMARK SMILES IDX 4 1 2 2 1 3 3 4 5 5 6 6 7 7 8 8
REMARK H PARENT
REMARK Flexibility Score: inf
ROOT
ATOM      1  C   UNL     1     153.098 138.046  96.000  1.00  0.00     0.059 C 
ENDROOT
BRANCH   1   2
ATOM      2  C   UNL     1     153.453 137.996  94.546  1.00  0.00     0.042 C 
ATOM      3  O   UNL     1     153.236 136.953  93.875  1.00  0.00    -0.550 OA
ATOM      4  O   UNL     1     153.983 139.118  93.920  1.00  0.00    -0.550 OA
ENDBRANCH   1   2
BRANCH   1   5
ATOM      5  C   UNL     1     153.996 137.124  96.831  1.00  0.00     0.059 C 
BRANCH   5   6
ATOM      6  C   UNL     1     153.243 135.933  97.341  1.00  0.00     0.042 C 
ATOM      7  O   UNL     1     153.665 135.299  98.343  1.00  0.00    -0.550 OA
ATOM      8  O   UNL     1     152.099 135.500  96.684  1.00  0.00    -0.550 OA
ENDBRANCH   5   6
ENDBRANCH   1   5
TORSDOF 3
ENDMDL
MODEL 9
REMARK VINA RESULT:     0.959      1.856      4.116
REMARK INTER + INTRA:           1.019
REMARK INTER:                   1.135
REMARK INTRA:                  -0.117
REMARK UNBOUND:                -0.108
REMARK SMILES O=C([O-])CCC(=O)[O-]
REMARK SMILES IDX 4 1 2 2 1 3 3 4 5 5 6 6 7 7 8 8
REMARK H PARENT
REMARK Flexibility Score: inf
ROOT
ATOM      1  C   UNL     1     153.630 137.510  95.009  1.00  0.00     0.059 C 
ENDROOT
BRANCH   1   2
ATOM      2  C   UNL     1     153.256 138.928  94.704  1.00  0.00     0.042 C 
ATOM      3  O   UNL     1     152.230 139.440  95.225  1.00  0.00    -0.550 OA
ATOM      4  O   UNL     1     154.063 139.697  93.875  1.00  0.00    -0.550 OA
ENDBRANCH   1   2
BRANCH   1   5
ATOM      5  C   UNL     1     153.036 137.044  96.342  1.00  0.00     0.059 C 
BRANCH   5   6
ATOM      6  C   UNL     1     154.026 137.166  97.460  1.00  0.00     0.042 C 
ATOM      7  O   UNL     1     154.660 136.153  97.858  1.00  0.00    -0.550 OA
ATOM      8  O   UNL     1     154.219 138.389  98.089  1.00  0.00    -0.550 OA
ENDBRANCH   5   6
ENDBRANCH   1   5
TORSDOF 3
ENDMDL
