MODEL 1
REMARK VINA RESULT:    -4.550      0.000      0.000
REMARK INTER + INTRA:          -5.300
REMARK INTER:                  -5.215
REMARK INTRA:                  -0.085
REMARK UNBOUND:                -0.085
REMARK SMILES C=Cc1ccc(O)c(OC)c1
REMARK SMILES IDX 8 1 6 2 5 3 4 4 3 5 11 6 9 7 10 8 7 9 2 11 1 12
REMARK H PARENT 7 10
REMARK Flexibility Score: inf
ROOT
ATOM      1  C   UNL     1      87.438  30.611  65.556  1.00  0.00     0.161 A 
ATOM      2  C   UNL     1      87.775  31.279  66.746  1.00  0.00     0.157 A 
ATOM      3  C   UNL     1      86.807  32.022  67.427  1.00  0.00     0.051 A 
ATOM      4  C   UNL     1      85.501  32.104  66.940  1.00  0.00     0.012 A 
ATOM      5  C   UNL     1      85.140  31.432  65.757  1.00  0.00    -0.022 A 
ATOM      6  C   UNL     1      86.119  30.697  65.067  1.00  0.00     0.058 A 
ENDROOT
BRANCH   1   7
ATOM      7  O   UNL     1      88.433  29.876  64.889  1.00  0.00    -0.493 OA
ATOM      8  C   UNL     1      88.389  28.469  64.674  1.00  0.00     0.278 C 
ENDBRANCH   1   7
BRANCH   2   9
ATOM      9  O   UNL     1      89.068  31.220  67.267  1.00  0.00    -0.504 OA
ATOM     10  H   UNL     1      89.249  30.972  68.231  1.00  0.00     0.293 HD
ENDBRANCH   2   9
BRANCH   5  11
ATOM     11  C   UNL     1      83.769  31.494  65.190  1.00  0.00     0.000 C 
ATOM     12  C   UNL     1      83.088  30.433  64.757  1.00  0.00     0.009 C 
ENDBRANCH   5  11
TORSDOF 3
ENDMDL
MODEL 2
REMARK VINA RESULT:    -4.319      2.400      3.891
REMARK INTER + INTRA:          -5.035
REMARK INTER:                  -4.948
REMARK INTRA:                  -0.087
REMARK UNBOUND:                -0.085
REMARK SMILES C=Cc1ccc(O)c(OC)c1
REMARK SMILES IDX 8 1 6 2 5 3 4 4 3 5 11 6 9 7 10 8 7 9 2 11 1 12
REMARK H PARENT 7 10
REMARK Flexibility Score: inf
ROOT
ATOM      1  C   UNL     1      85.028  31.771  65.773  1.00  0.00     0.161 A 
ATOM      2  C   UNL     1      85.403  31.985  67.110  1.00  0.00     0.157 A 
ATOM      3  C   UNL     1      86.753  32.126  67.442  1.00  0.00     0.051 A 
ATOM      4  C   UNL     1      87.738  32.060  66.455  1.00  0.00     0.012 A 
ATOM      5  C   UNL     1      87.383  31.858  65.108  1.00  0.00    -0.022 A 
ATOM      6  C   UNL     1      86.025  31.705  64.779  1.00  0.00     0.058 A 
ENDROOT
BRANCH   1   7
ATOM      7  O   UNL     1      83.664  31.629  65.468  1.00  0.00    -0.493 OA
ATOM      8  C   UNL     1      83.103  30.522  64.770  1.00  0.00     0.278 C 
ENDBRANCH   1   7
BRANCH   2   9
ATOM      9  O   UNL     1      84.449  32.060  68.125  1.00  0.00    -0.504 OA
ATOM     10  H   UNL     1      83.459  32.137  67.929  1.00  0.00     0.293 HD
ENDBRANCH   2   9
BRANCH   5  11
ATOM     11  C   UNL     1      88.390  31.771  64.021  1.00  0.00     0.000 C 
ATOM     12  C   UNL     1      89.097  30.676  63.738  1.00  0.00     0.009 C 
ENDBRANCH   5  11
TORSDOF 3
ENDMDL
MODEL 3
REMARK VINA RESULT:    -4.240      1.323      1.323
REMARK INTER + INTRA:          -4.945
REMARK INTER:                  -4.861
REMARK INTRA:                  -0.084
REMARK UNBOUND:                -0.085
REMARK SMILES C=Cc1ccc(O)c(OC)c1
REMARK SMILES IDX 8 1 6 2 5 3 4 4 3 5 11 6 9 7 10 8 7 9 2 11 1 12
REMARK H PARENT 7 10
REMARK Flexibility Score: inf
ROOT
ATOM      1  C   UNL     1      87.348  32.059  65.457  1.00  0.00     0.161 A 
ATOM      2  C   UNL     1      87.547  32.239  66.836  1.00  0.00     0.157 A 
ATOM      3  C   UNL     1      86.455  32.224  67.708  1.00  0.00     0.051 A 
ATOM      4  C   UNL     1      85.162  32.027  67.221  1.00  0.00     0.012 A 
ATOM      5  C   UNL     1      84.941  31.833  65.845  1.00  0.00    -0.022 A 
ATOM      6  C   UNL     1      86.040  31.860  64.970  1.00  0.00     0.058 A 
ENDROOT
BRANCH   1   7
ATOM      7  O   UNL     1      88.464  32.083  64.604  1.00  0.00    -0.493 OA
ATOM      8  C   UNL     1      88.845  31.016  63.742  1.00  0.00     0.278 C 
ENDBRANCH   1   7
BRANCH   2   9
ATOM      9  O   UNL     1      88.825  32.436  67.362  1.00  0.00    -0.504 OA
ATOM     10  H   UNL     1      89.044  33.218  67.967  1.00  0.00     0.293 HD
ENDBRANCH   2   9
BRANCH   5  11
ATOM     11  C   UNL     1      83.586  31.628  65.275  1.00  0.00     0.000 C 
ATOM     12  C   UNL     1      83.163  30.484  64.736  1.00  0.00     0.009 C 
ENDBRANCH   5  11
TORSDOF 3
ENDMDL
MODEL 4
REMARK VINA RESULT:    -4.237      2.834      4.148
REMARK INTER + INTRA:          -4.942
REMARK INTER:                  -4.841
REMARK INTRA:                  -0.101
REMARK UNBOUND:                -0.085
REMARK SMILES C=Cc1ccc(O)c(OC)c1
REMARK SMILES IDX 8 1 6 2 5 3 4 4 3 5 11 6 9 7 10 8 7 9 2 11 1 12
REMARK H PARENT 7 10
REMARK Flexibility Score: inf
ROOT
ATOM      1  C   UNL     1      84.719  31.947  65.770  1.00  0.00     0.161 A 
ATOM      2  C   UNL     1      84.808  31.925  67.172  1.00  0.00     0.157 A 
ATOM      3  C   UNL     1      86.020  32.221  67.800  1.00  0.00     0.051 A 
ATOM      4  C   UNL     1      87.150  32.545  67.047  1.00  0.00     0.012 A 
ATOM      5  C   UNL     1      87.080  32.586  65.641  1.00  0.00    -0.022 A 
ATOM      6  C   UNL     1      85.862  32.275  65.013  1.00  0.00     0.058 A 
ENDROOT
BRANCH   1   7
ATOM      7  O   UNL     1      83.489  31.641  65.165  1.00  0.00    -0.493 OA
ATOM      8  C   UNL     1      83.103  30.340  64.733  1.00  0.00     0.278 C 
ENDBRANCH   1   7
BRANCH   2   9
ATOM      9  O   UNL     1      83.701  31.607  67.960  1.00  0.00    -0.504 OA
ATOM     10  H   UNL     1      83.315  32.257  68.634  1.00  0.00     0.293 HD
ENDBRANCH   2   9
BRANCH   5  11
ATOM     11  C   UNL     1      88.252  32.916  64.793  1.00  0.00     0.000 C 
ATOM     12  C   UNL     1      89.125  33.887  65.063  1.00  0.00     0.009 C 
ENDBRANCH   5  11
TORSDOF 3
ENDMDL
MODEL 5
REMARK VINA RESULT:    -4.120      2.557      4.334
REMARK INTER + INTRA:          -4.807
REMARK INTER:                  -4.719
REMARK INTRA:                  -0.088
REMARK UNBOUND:                -0.085
REMARK SMILES C=Cc1ccc(O)c(OC)c1
REMARK SMILES IDX 8 1 6 2 5 3 4 4 3 5 11 6 9 7 10 8 7 9 2 11 1 12
REMARK H PARENT 7 10
REMARK Flexibility Score: inf
ROOT
ATOM      1  C   UNL     1      85.953  31.666  65.501  1.00  0.00     0.161 A 
ATOM      2  C   UNL     1      86.567  30.474  65.081  1.00  0.00     0.157 A 
ATOM      3  C   UNL     1      87.901  30.486  64.663  1.00  0.00     0.051 A 
ATOM      4  C   UNL     1      88.635  31.673  64.663  1.00  0.00     0.012 A 
ATOM      5  C   UNL     1      88.042  32.876  65.091  1.00  0.00    -0.022 A 
ATOM      6  C   UNL     1      86.697  32.863  65.499  1.00  0.00     0.058 A 
ENDROOT
BRANCH   1   7
ATOM      7  O   UNL     1      84.610  31.626  65.911  1.00  0.00    -0.493 OA
ATOM      8  C   UNL     1      83.497  31.875  65.058  1.00  0.00     0.278 C 
ENDBRANCH   1   7
BRANCH   2   9
ATOM      9  O   UNL     1      85.869  29.267  65.068  1.00  0.00    -0.504 OA
ATOM     10  H   UNL     1      85.121  29.083  64.411  1.00  0.00     0.293 HD
ENDBRANCH   2   9
BRANCH   5  11
ATOM     11  C   UNL     1      88.774  34.167  65.102  1.00  0.00     0.000 C 
ATOM     12  C   UNL     1      88.194  35.361  64.973  1.00  0.00     0.009 C 
ENDBRANCH   5  11
TORSDOF 3
ENDMDL
MODEL 6
REMARK VINA RESULT:    -3.880      2.187      3.491
REMARK INTER + INTRA:          -4.533
REMARK INTER:                  -4.428
REMARK INTRA:                  -0.105
REMARK UNBOUND:                -0.085
REMARK SMILES C=Cc1ccc(O)c(OC)c1
REMARK SMILES IDX 8 1 6 2 5 3 4 4 3 5 11 6 9 7 10 8 7 9 2 11 1 12
REMARK H PARENT 7 10
REMARK Flexibility Score: inf
ROOT
ATOM      1  C   UNL     1      87.825  30.514  65.290  1.00  0.00     0.161 A 
ATOM      2  C   UNL     1      86.433  30.477  65.101  1.00  0.00     0.157 A 
ATOM      3  C   UNL     1      85.712  31.669  64.986  1.00  0.00     0.051 A 
ATOM      4  C   UNL     1      86.363  32.902  65.051  1.00  0.00     0.012 A 
ATOM      5  C   UNL     1      87.758  32.961  65.227  1.00  0.00    -0.022 A 
ATOM      6  C   UNL     1      88.478  31.761  65.355  1.00  0.00     0.058 A 
ENDROOT
BRANCH   1   7
ATOM      7  O   UNL     1      88.523  29.300  65.408  1.00  0.00    -0.493 OA
ATOM      8  C   UNL     1      89.123  28.605  64.319  1.00  0.00     0.278 C 
ENDBRANCH   1   7
BRANCH   2   9
ATOM      9  O   UNL     1      85.745  29.265  65.029  1.00  0.00    -0.504 OA
ATOM     10  H   UNL     1      84.735  29.220  64.986  1.00  0.00     0.293 HD
ENDBRANCH   2   9
BRANCH   5  11
ATOM     11  C   UNL     1      88.499  34.245  65.312  1.00  0.00     0.000 C 
ATOM     12  C   UNL     1      88.007  35.422  64.924  1.00  0.00     0.009 C 
ENDBRANCH   5  11
TORSDOF 3
ENDMDL
MODEL 7
REMARK VINA RESULT:    -3.781      1.497      1.846
REMARK INTER + INTRA:          -4.419
REMARK INTER:                  -4.342
REMARK INTRA:                  -0.077
REMARK UNBOUND:                -0.085
REMARK SMILES C=Cc1ccc(O)c(OC)c1
REMARK SMILES IDX 8 1 6 2 5 3 4 4 3 5 11 6 9 7 10 8 7 9 2 11 1 12
REMARK H PARENT 7 10
REMARK Flexibility Score: inf
ROOT
ATOM      1  C   UNL     1      87.452  30.825  64.877  1.00  0.00     0.161 A 
ATOM      2  C   UNL     1      87.796  32.097  64.389  1.00  0.00     0.157 A 
ATOM      3  C   UNL     1      86.802  33.055  64.172  1.00  0.00     0.051 A 
ATOM      4  C   UNL     1      85.464  32.763  64.441  1.00  0.00     0.012 A 
ATOM      5  C   UNL     1      85.099  31.499  64.943  1.00  0.00    -0.022 A 
ATOM      6  C   UNL     1      86.099  30.534  65.147  1.00  0.00     0.058 A 
ENDROOT
BRANCH   1   7
ATOM      7  O   UNL     1      88.471  29.880  65.081  1.00  0.00    -0.493 OA
ATOM      8  C   UNL     1      88.394  28.512  64.693  1.00  0.00     0.278 C 
ENDBRANCH   1   7
BRANCH   2   9
ATOM      9  O   UNL     1      89.123  32.428  64.109  1.00  0.00    -0.504 OA
ATOM     10  H   UNL     1      89.637  31.999  63.350  1.00  0.00     0.293 HD
ENDBRANCH   2   9
BRANCH   5  11
ATOM     11  C   UNL     1      83.690  31.134  65.237  1.00  0.00     0.000 C 
ATOM     12  C   UNL     1      83.039  30.125  64.658  1.00  0.00     0.009 C 
ENDBRANCH   5  11
TORSDOF 3
ENDMDL
MODEL 8
REMARK VINA RESULT:    -3.708      2.630      4.019
REMARK INTER + INTRA:          -4.335
REMARK INTER:                  -4.264
REMARK INTRA:                  -0.071
REMARK UNBOUND:                -0.085
REMARK SMILES C=Cc1ccc(O)c(OC)c1
REMARK SMILES IDX 8 1 6 2 5 3 4 4 3 5 11 6 9 7 10 8 7 9 2 11 1 12
REMARK H PARENT 7 10
REMARK Flexibility Score: inf
ROOT
ATOM      1  C   UNL     1      85.074  30.353  64.763  1.00  0.00     0.161 A 
ATOM      2  C   UNL     1      84.468  31.621  64.796  1.00  0.00     0.157 A 
ATOM      3  C   UNL     1      85.224  32.748  65.127  1.00  0.00     0.051 A 
ATOM      4  C   UNL     1      86.584  32.629  65.422  1.00  0.00     0.012 A 
ATOM      5  C   UNL     1      87.213  31.371  65.382  1.00  0.00    -0.022 A 
ATOM      6  C   UNL     1      86.446  30.238  65.061  1.00  0.00     0.058 A 
ENDROOT
BRANCH   1   7
ATOM      7  O   UNL     1      84.288  29.237  64.432  1.00  0.00    -0.493 OA
ATOM      8  C   UNL     1      84.621  27.891  64.754  1.00  0.00     0.278 C 
ENDBRANCH   1   7
BRANCH   2   9
ATOM      9  O   UNL     1      83.113  31.781  64.506  1.00  0.00    -0.504 OA
ATOM     10  H   UNL     1      82.675  32.693  64.461  1.00  0.00     0.293 HD
ENDBRANCH   2   9
BRANCH   5  11
ATOM     11  C   UNL     1      88.653  31.188  65.695  1.00  0.00     0.000 C 
ATOM     12  C   UNL     1      89.124  30.301  66.573  1.00  0.00     0.009 C 
ENDBRANCH   5  11
TORSDOF 3
ENDMDL
