MODEL 1
REMARK VINA RESULT:    -3.993      0.000      0.000
REMARK INTER + INTRA:          -5.765
REMARK INTER:                  -5.393
REMARK INTRA:                  -0.372
REMARK UNBOUND:                -0.372
REMARK SMILES CCCCCCC=CC(=O)[O-]
REMARK SMILES IDX 5 1 6 2 7 3 8 4 9 5 10 6 11 7 4 8 3 9 2 10 1 11
REMARK H PARENT
REMARK Flexibility Score: inf
ROOT
ATOM      1  C   UNL     1      46.556  27.631   5.349  1.00  0.00     0.004 C 
ENDROOT
BRANCH   1   2
ATOM      2  C   UNL     1      46.327  26.201   4.837  1.00  0.00     0.027 C 
BRANCH   2   3
ATOM      3  C   UNL     1      45.230  26.162   3.813  1.00  0.00    -0.025 C 
ATOM      4  C   UNL     1      44.752  27.282   3.259  1.00  0.00     0.020 C 
BRANCH   4   5
ATOM      5  C   UNL     1      43.688  27.267   2.243  1.00  0.00     0.064 C 
ATOM      6  O   UNL     1      43.844  26.672   1.144  1.00  0.00    -0.545 OA
ATOM      7  O   UNL     1      42.490  27.921   2.501  1.00  0.00    -0.545 OA
ENDBRANCH   4   5
ENDBRANCH   2   3
ENDBRANCH   1   2
BRANCH   1   8
ATOM      8  C   UNL     1      46.303  27.773   6.861  1.00  0.00     0.000 C 
BRANCH   8   9
ATOM      9  C   UNL     1      46.083  26.446   7.611  1.00  0.00    -0.000 C 
BRANCH   9  10
ATOM     10  C   UNL     1      45.636  26.648   9.067  1.00  0.00    -0.003 C 
ATOM     11  C   UNL     1      45.229  28.096   9.321  1.00  0.00     0.004 C 
ENDBRANCH   9  10
ENDBRANCH   8   9
ENDBRANCH   1   8
TORSDOF 6
ENDMDL
MODEL 2
REMARK VINA RESULT:    -3.975      0.462      1.042
REMARK INTER + INTRA:          -5.741
REMARK INTER:                  -5.391
REMARK INTRA:                  -0.350
REMARK UNBOUND:                -0.372
REMARK SMILES CCCCCCC=CC(=O)[O-]
REMARK SMILES IDX 5 1 6 2 7 3 8 4 9 5 10 6 11 7 4 8 3 9 2 10 1 11
REMARK H PARENT
REMARK Flexibility Score: inf
ROOT
ATOM      1  C   UNL     1      46.352  27.860   5.605  1.00  0.00     0.004 C 
ENDROOT
BRANCH   1   2
ATOM      2  C   UNL     1      46.309  26.429   5.047  1.00  0.00     0.027 C 
BRANCH   2   3
ATOM      3  C   UNL     1      45.377  26.334   3.873  1.00  0.00    -0.025 C 
ATOM      4  C   UNL     1      45.016  27.420   3.179  1.00  0.00     0.020 C 
BRANCH   4   5
ATOM      5  C   UNL     1      44.117  27.349   2.018  1.00  0.00     0.064 C 
ATOM      6  O   UNL     1      42.874  27.512   2.144  1.00  0.00    -0.545 OA
ATOM      7  O   UNL     1      44.646  27.099   0.758  1.00  0.00    -0.545 OA
ENDBRANCH   4   5
ENDBRANCH   2   3
ENDBRANCH   1   2
BRANCH   1   8
ATOM      8  C   UNL     1      46.340  27.902   7.144  1.00  0.00     0.000 C 
BRANCH   8   9
ATOM      9  C   UNL     1      46.071  26.551   7.830  1.00  0.00    -0.000 C 
BRANCH   9  10
ATOM     10  C   UNL     1      45.452  26.701   9.228  1.00  0.00    -0.003 C 
ATOM     11  C   UNL     1      45.204  28.168   9.564  1.00  0.00     0.004 C 
ENDBRANCH   9  10
ENDBRANCH   8   9
ENDBRANCH   1   8
TORSDOF 6
ENDMDL
MODEL 3
REMARK VINA RESULT:    -3.931      3.343      5.788
REMARK INTER + INTRA:          -5.682
REMARK INTER:                  -5.485
REMARK INTRA:                  -0.197
REMARK UNBOUND:                -0.372
REMARK SMILES CCCCCCC=CC(=O)[O-]
REMARK SMILES IDX 5 1 6 2 7 3 8 4 9 5 10 6 11 7 4 8 3 9 2 10 1 11
REMARK H PARENT
REMARK Flexibility Score: inf
ROOT
ATOM      1  C   UNL     1      45.638  26.220   4.201  1.00  0.00     0.004 C 
ENDROOT
BRANCH   1   2
ATOM      2  C   UNL     1      46.838  26.709   5.027  1.00  0.00     0.027 C 
BRANCH   2   3
ATOM      3  C   UNL     1      46.395  27.244   6.359  1.00  0.00    -0.025 C 
ATOM      4  C   UNL     1      46.039  26.426   7.356  1.00  0.00     0.020 C 
BRANCH   4   5
ATOM      5  C   UNL     1      45.617  26.927   8.673  1.00  0.00     0.064 C 
ATOM      6  O   UNL     1      45.259  28.124   8.831  1.00  0.00    -0.545 OA
ATOM      7  O   UNL     1      45.611  26.065   9.761  1.00  0.00    -0.545 OA
ENDBRANCH   4   5
ENDBRANCH   2   3
ENDBRANCH   1   2
BRANCH   1   8
ATOM      8  C   UNL     1      45.164  27.254   3.164  1.00  0.00     0.000 C 
BRANCH   8   9
ATOM      9  C   UNL     1      43.758  26.999   2.589  1.00  0.00    -0.000 C 
BRANCH   9  10
ATOM     10  C   UNL     1      43.000  28.296   2.265  1.00  0.00    -0.003 C 
ATOM     11  C   UNL     1      41.514  28.157   2.580  1.00  0.00     0.004 C 
ENDBRANCH   9  10
ENDBRANCH   8   9
ENDBRANCH   1   8
TORSDOF 6
ENDMDL
MODEL 4
REMARK VINA RESULT:    -3.283      2.098      2.593
REMARK INTER + INTRA:          -4.806
REMARK INTER:                  -4.619
REMARK INTRA:                  -0.188
REMARK UNBOUND:                -0.372
REMARK SMILES CCCCCCC=CC(=O)[O-]
REMARK SMILES IDX 5 1 6 2 7 3 8 4 9 5 10 6 11 7 4 8 3 9 2 10 1 11
REMARK H PARENT
REMARK Flexibility Score: inf
ROOT
ATOM      1  C   UNL     1      45.588  26.022   4.374  1.00  0.00     0.004 C 
ENDROOT
BRANCH   1   2
ATOM      2  C   UNL     1      44.736  26.701   3.291  1.00  0.00     0.027 C 
BRANCH   2   3
ATOM      3  C   UNL     1      45.601  27.411   2.289  1.00  0.00    -0.025 C 
ATOM      4  C   UNL     1      45.107  27.845   1.124  1.00  0.00     0.020 C 
BRANCH   4   5
ATOM      5  C   UNL     1      45.931  28.555   0.134  1.00  0.00     0.064 C 
ATOM      6  O   UNL     1      46.979  28.037  -0.334  1.00  0.00    -0.545 OA
ATOM      7  O   UNL     1      45.548  29.820  -0.292  1.00  0.00    -0.545 OA
ENDBRANCH   4   5
ENDBRANCH   2   3
ENDBRANCH   1   2
BRANCH   1   8
ATOM      8  C   UNL     1      46.323  27.030   5.277  1.00  0.00     0.000 C 
BRANCH   8   9
ATOM      9  C   UNL     1      46.659  26.514   6.688  1.00  0.00    -0.000 C 
BRANCH   9  10
ATOM     10  C   UNL     1      45.954  27.306   7.799  1.00  0.00    -0.003 C 
ATOM     11  C   UNL     1      45.671  26.422   9.009  1.00  0.00     0.004 C 
ENDBRANCH   9  10
ENDBRANCH   8   9
ENDBRANCH   1   8
TORSDOF 6
ENDMDL
MODEL 5
REMARK VINA RESULT:    -3.242      4.737      6.432
REMARK INTER + INTRA:          -4.750
REMARK INTER:                  -4.457
REMARK INTRA:                  -0.293
REMARK UNBOUND:                -0.372
REMARK SMILES CCCCCCC=CC(=O)[O-]
REMARK SMILES IDX 5 1 6 2 7 3 8 4 9 5 10 6 11 7 4 8 3 9 2 10 1 11
REMARK H PARENT
REMARK Flexibility Score: inf
ROOT
ATOM      1  C   UNL     1      45.446  28.162   0.280  1.00  0.00     0.004 C 
ENDROOT
BRANCH   1   2
ATOM      2  C   UNL     1      46.510  28.967  -0.483  1.00  0.00     0.027 C 
BRANCH   2   3
ATOM      3  C   UNL     1      46.393  28.751  -1.964  1.00  0.00    -0.025 C 
ATOM      4  C   UNL     1      46.053  27.560  -2.472  1.00  0.00     0.020 C 
BRANCH   4   5
ATOM      5  C   UNL     1      45.919  27.329  -3.918  1.00  0.00     0.064 C 
ATOM      6  O   UNL     1      44.857  26.861  -4.408  1.00  0.00    -0.545 OA
ATOM      7  O   UNL     1      46.981  27.633  -4.760  1.00  0.00    -0.545 OA
ENDBRANCH   4   5
ENDBRANCH   2   3
ENDBRANCH   1   2
BRANCH   1   8
ATOM      8  C   UNL     1      45.816  27.927   1.755  1.00  0.00     0.000 C 
BRANCH   8   9
ATOM      9  C   UNL     1      44.673  27.389   2.634  1.00  0.00    -0.000 C 
BRANCH   9  10
ATOM     10  C   UNL     1      43.366  27.177   1.854  1.00  0.00    -0.003 C 
ATOM     11  C   UNL     1      42.246  28.050   2.410  1.00  0.00     0.004 C 
ENDBRANCH   9  10
ENDBRANCH   8   9
ENDBRANCH   1   8
TORSDOF 6
ENDMDL
MODEL 6
REMARK VINA RESULT:    -3.212      4.062      5.413
REMARK INTER + INTRA:          -4.710
REMARK INTER:                  -4.258
REMARK INTRA:                  -0.452
REMARK UNBOUND:                -0.372
REMARK SMILES CCCCCCC=CC(=O)[O-]
REMARK SMILES IDX 5 1 6 2 7 3 8 4 9 5 10 6 11 7 4 8 3 9 2 10 1 11
REMARK H PARENT
REMARK Flexibility Score: inf
ROOT
ATOM      1  C   UNL     1      44.994  29.481   2.544  1.00  0.00     0.004 C 
ENDROOT
BRANCH   1   2
ATOM      2  C   UNL     1      46.168  29.671   1.571  1.00  0.00     0.027 C 
BRANCH   2   3
ATOM      3  C   UNL     1      45.756  29.362   0.160  1.00  0.00    -0.025 C 
ATOM      4  C   UNL     1      46.495  28.570  -0.625  1.00  0.00     0.020 C 
BRANCH   4   5
ATOM      5  C   UNL     1      46.104  28.242  -2.004  1.00  0.00     0.064 C 
ATOM      6  O   UNL     1      46.009  27.046  -2.388  1.00  0.00    -0.545 OA
ATOM      7  O   UNL     1      45.835  29.268  -2.900  1.00  0.00    -0.545 OA
ENDBRANCH   4   5
ENDBRANCH   2   3
ENDBRANCH   1   2
BRANCH   1   8
ATOM      8  C   UNL     1      45.065  28.150   3.314  1.00  0.00     0.000 C 
BRANCH   8   9
ATOM      9  C   UNL     1      44.059  27.078   2.854  1.00  0.00    -0.000 C 
BRANCH   9  10
ATOM     10  C   UNL     1      43.002  27.627   1.883  1.00  0.00    -0.003 C 
ATOM     11  C   UNL     1      41.732  28.031   2.625  1.00  0.00     0.004 C 
ENDBRANCH   9  10
ENDBRANCH   8   9
ENDBRANCH   1   8
TORSDOF 6
ENDMDL
MODEL 7
REMARK VINA RESULT:    -3.197      2.433      3.651
REMARK INTER + INTRA:          -4.690
REMARK INTER:                  -4.200
REMARK INTRA:                  -0.490
REMARK UNBOUND:                -0.372
REMARK SMILES CCCCCCC=CC(=O)[O-]
REMARK SMILES IDX 5 1 6 2 7 3 8 4 9 5 10 6 11 7 4 8 3 9 2 10 1 11
REMARK H PARENT
REMARK Flexibility Score: inf
ROOT
ATOM      1  C   UNL     1      44.310  26.880   3.001  1.00  0.00     0.004 C 
ENDROOT
BRANCH   1   2
ATOM      2  C   UNL     1      44.725  28.359   3.022  1.00  0.00     0.027 C 
BRANCH   2   3
ATOM      3  C   UNL     1      45.035  28.853   1.638  1.00  0.00    -0.025 C 
ATOM      4  C   UNL     1      45.718  28.103   0.765  1.00  0.00     0.020 C 
BRANCH   4   5
ATOM      5  C   UNL     1      46.020  28.561  -0.599  1.00  0.00     0.064 C 
ATOM      6  O   UNL     1      46.212  29.780  -0.851  1.00  0.00    -0.545 OA
ATOM      7  O   UNL     1      46.096  27.633  -1.630  1.00  0.00    -0.545 OA
ENDBRANCH   4   5
ENDBRANCH   2   3
ENDBRANCH   1   2
BRANCH   1   8
ATOM      8  C   UNL     1      45.206  25.994   3.885  1.00  0.00     0.000 C 
BRANCH   8   9
ATOM      9  C   UNL     1      46.395  26.720   4.539  1.00  0.00    -0.000 C 
BRANCH   9  10
ATOM     10  C   UNL     1      46.330  26.713   6.075  1.00  0.00    -0.003 C 
ATOM     11  C   UNL     1      46.265  28.132   6.628  1.00  0.00     0.004 C 
ENDBRANCH   9  10
ENDBRANCH   8   9
ENDBRANCH   1   8
TORSDOF 6
ENDMDL
MODEL 8
REMARK VINA RESULT:    -3.158      3.364      5.315
REMARK INTER + INTRA:          -4.637
REMARK INTER:                  -4.282
REMARK INTRA:                  -0.355
REMARK UNBOUND:                -0.372
REMARK SMILES CCCCCCC=CC(=O)[O-]
REMARK SMILES IDX 5 1 6 2 7 3 8 4 9 5 10 6 11 7 4 8 3 9 2 10 1 11
REMARK H PARENT
REMARK Flexibility Score: inf
ROOT
ATOM      1  C   UNL     1      45.062  29.239   1.984  1.00  0.00     0.004 C 
ENDROOT
BRANCH   1   2
ATOM      2  C   UNL     1      45.822  29.639   3.258  1.00  0.00     0.027 C 
BRANCH   2   3
ATOM      3  C   UNL     1      46.503  28.452   3.877  1.00  0.00    -0.025 C 
ATOM      4  C   UNL     1      45.933  27.242   3.879  1.00  0.00     0.020 C 
BRANCH   4   5
ATOM      5  C   UNL     1      46.587  26.063   4.467  1.00  0.00     0.064 C 
ATOM      6  O   UNL     1      47.119  26.113   5.608  1.00  0.00    -0.545 OA
ATOM      7  O   UNL     1      46.621  24.874   3.751  1.00  0.00    -0.545 OA
ENDBRANCH   4   5
ENDBRANCH   2   3
ENDBRANCH   1   2
BRANCH   1   8
ATOM      8  C   UNL     1      43.536  29.379   2.127  1.00  0.00     0.000 C 
BRANCH   8   9
ATOM      9  C   UNL     1      42.772  28.051   2.272  1.00  0.00    -0.000 C 
BRANCH   9  10
ATOM     10  C   UNL     1      41.289  28.248   2.624  1.00  0.00    -0.003 C 
ATOM     11  C   UNL     1      41.007  29.693   3.023  1.00  0.00     0.004 C 
ENDBRANCH   9  10
ENDBRANCH   8   9
ENDBRANCH   1   8
TORSDOF 6
ENDMDL
MODEL 9
REMARK VINA RESULT:    -3.097      5.730      9.289
REMARK INTER + INTRA:          -4.555
REMARK INTER:                  -4.288
REMARK INTRA:                  -0.267
REMARK UNBOUND:                -0.372
REMARK SMILES CCCCCCC=CC(=O)[O-]
REMARK SMILES IDX 5 1 6 2 7 3 8 4 9 5 10 6 11 7 4 8 3 9 2 10 1 11
REMARK H PARENT
REMARK Flexibility Score: inf
ROOT
ATOM      1  C   UNL     1      46.944  27.401  -3.757  1.00  0.00     0.004 C 
ENDROOT
BRANCH   1   2
ATOM      2  C   UNL     1      47.042  28.517  -2.706  1.00  0.00     0.027 C 
BRANCH   2   3
ATOM      3  C   UNL     1      46.061  28.297  -1.590  1.00  0.00    -0.025 C 
ATOM      4  C   UNL     1      46.375  28.576  -0.320  1.00  0.00     0.020 C 
BRANCH   4   5
ATOM      5  C   UNL     1      45.426  28.382   0.787  1.00  0.00     0.064 C 
ATOM      6  O   UNL     1      45.096  27.228   1.169  1.00  0.00    -0.545 OA
ATOM      7  O   UNL     1      44.883  29.491   1.423  1.00  0.00    -0.545 OA
ENDBRANCH   4   5
ENDBRANCH   2   3
ENDBRANCH   1   2
BRANCH   1   8
ATOM      8  C   UNL     1      45.490  27.008  -4.079  1.00  0.00     0.000 C 
BRANCH   8   9
ATOM      9  C   UNL     1      44.751  27.971  -5.026  1.00  0.00    -0.000 C 
BRANCH   9  10
ATOM     10  C   UNL     1      43.408  27.411  -5.519  1.00  0.00    -0.003 C 
ATOM     11  C   UNL     1      42.352  28.510  -5.602  1.00  0.00     0.004 C 
ENDBRANCH   9  10
ENDBRANCH   8   9
ENDBRANCH   1   8
TORSDOF 6
ENDMDL
