MODEL 1
REMARK VINA RESULT:    -3.456      0.000      0.000
REMARK INTER + INTRA:          -3.674
REMARK INTER:                  -3.658
REMARK INTRA:                  -0.016
REMARK UNBOUND:                -0.016
REMARK SMILES O=C([O-])c1cccnc1
REMARK SMILES IDX 4 1 5 2 9 3 6 4 8 5 7 6 2 7 1 8 3 9
REMARK H PARENT
REMARK Flexibility Score: inf
ROOT
ATOM      1  C   UNL     1    -109.367  43.747  -0.982  1.00  0.00     0.016 A 
ATOM      2  C   UNL     1    -109.166  44.687  -2.007  1.00  0.00     0.013 A 
ATOM      3  C   UNL     1    -110.669  43.268  -0.760  1.00  0.00     0.120 A 
ATOM      4  C   UNL     1    -110.245  45.124  -2.778  1.00  0.00     0.021 A 
ATOM      5  N   UNL     1    -111.703  43.710  -1.526  1.00  0.00    -0.264 NA
ATOM      6  C   UNL     1    -111.519  44.618  -2.520  1.00  0.00     0.111 A 
ENDROOT
BRANCH   1   7
ATOM      7  C   UNL     1    -108.238  43.271  -0.154  1.00  0.00     0.073 C 
ATOM      8  O   UNL     1    -107.760  44.000   0.757  1.00  0.00    -0.545 OA
ATOM      9  O   UNL     1    -107.688  42.012  -0.368  1.00  0.00    -0.545 OA
ENDBRANCH   1   7
TORSDOF 1
ENDMDL
MODEL 2
REMARK VINA RESULT:    -3.327     13.716     14.222
REMARK INTER + INTRA:          -3.537
REMARK INTER:                  -3.519
REMARK INTRA:                  -0.019
REMARK UNBOUND:                -0.016
REMARK SMILES O=C([O-])c1cccnc1
REMARK SMILES IDX 4 1 5 2 9 3 6 4 8 5 7 6 2 7 1 8 3 9
REMARK H PARENT
REMARK Flexibility Score: inf
ROOT
ATOM      1  C   UNL     1    -106.529  30.715   3.230  1.00  0.00     0.016 A 
ATOM      2  C   UNL     1    -106.931  29.924   2.140  1.00  0.00     0.013 A 
ATOM      3  C   UNL     1    -107.522  31.311   4.025  1.00  0.00     0.120 A 
ATOM      4  C   UNL     1    -108.288  29.744   1.868  1.00  0.00     0.021 A 
ATOM      5  N   UNL     1    -108.838  31.120   3.738  1.00  0.00    -0.264 NA
ATOM      6  C   UNL     1    -109.237  30.356   2.687  1.00  0.00     0.111 A 
ENDROOT
BRANCH   1   7
ATOM      7  C   UNL     1    -105.096  30.918   3.535  1.00  0.00     0.073 C 
ATOM      8  O   UNL     1    -104.317  29.933   3.634  1.00  0.00    -0.545 OA
ATOM      9  O   UNL     1    -104.589  32.200   3.716  1.00  0.00    -0.545 OA
ENDBRANCH   1   7
TORSDOF 1
ENDMDL
MODEL 3
REMARK VINA RESULT:    -3.277     12.428     13.697
REMARK INTER + INTRA:          -3.485
REMARK INTER:                  -3.468
REMARK INTRA:                  -0.017
REMARK UNBOUND:                -0.016
REMARK SMILES O=C([O-])c1cccnc1
REMARK SMILES IDX 4 1 5 2 9 3 6 4 8 5 7 6 2 7 1 8 3 9
REMARK H PARENT
REMARK Flexibility Score: inf
ROOT
ATOM      1  C   UNL     1    -106.385  31.976   3.167  1.00  0.00     0.016 A 
ATOM      2  C   UNL     1    -107.361  31.107   2.651  1.00  0.00     0.013 A 
ATOM      3  C   UNL     1    -105.165  31.430   3.600  1.00  0.00     0.120 A 
ATOM      4  C   UNL     1    -107.108  29.736   2.575  1.00  0.00     0.021 A 
ATOM      5  N   UNL     1    -104.944  30.090   3.516  1.00  0.00    -0.264 NA
ATOM      6  C   UNL     1    -105.881  29.242   3.017  1.00  0.00     0.111 A 
ENDROOT
BRANCH   1   7
ATOM      7  C   UNL     1    -106.633  33.432   3.255  1.00  0.00     0.073 C 
ATOM      8  O   UNL     1    -107.418  33.896   4.125  1.00  0.00    -0.545 OA
ATOM      9  O   UNL     1    -106.000  34.309   2.381  1.00  0.00    -0.545 OA
ENDBRANCH   1   7
TORSDOF 1
ENDMDL
MODEL 4
REMARK VINA RESULT:    -3.273     13.641     14.662
REMARK INTER + INTRA:          -3.481
REMARK INTER:                  -3.464
REMARK INTRA:                  -0.016
REMARK UNBOUND:                -0.016
REMARK SMILES O=C([O-])c1cccnc1
REMARK SMILES IDX 4 1 5 2 9 3 6 4 8 5 7 6 2 7 1 8 3 9
REMARK H PARENT
REMARK Flexibility Score: inf
ROOT
ATOM      1  C   UNL     1    -107.229  30.400   2.815  1.00  0.00     0.016 A 
ATOM      2  C   UNL     1    -106.159  29.489   2.840  1.00  0.00     0.013 A 
ATOM      3  C   UNL     1    -106.999  31.713   3.260  1.00  0.00     0.120 A 
ATOM      4  C   UNL     1    -104.904  29.894   3.297  1.00  0.00     0.021 A 
ATOM      5  N   UNL     1    -105.766  32.082   3.702  1.00  0.00    -0.264 NA
ATOM      6  C   UNL     1    -104.725  31.208   3.728  1.00  0.00     0.111 A 
ENDROOT
BRANCH   1   7
ATOM      7  C   UNL     1    -108.566  29.991   2.334  1.00  0.00     0.073 C 
ATOM      8  O   UNL     1    -108.799  29.891   1.100  1.00  0.00    -0.545 OA
ATOM      9  O   UNL     1    -109.585  29.712   3.238  1.00  0.00    -0.545 OA
ENDBRANCH   1   7
TORSDOF 1
ENDMDL
MODEL 5
REMARK VINA RESULT:    -3.164     12.525     13.847
REMARK INTER + INTRA:          -3.366
REMARK INTER:                  -3.348
REMARK INTRA:                  -0.017
REMARK UNBOUND:                -0.016
REMARK SMILES O=C([O-])c1cccnc1
REMARK SMILES IDX 4 1 5 2 9 3 6 4 8 5 7 6 2 7 1 8 3 9
REMARK H PARENT
REMARK Flexibility Score: inf
ROOT
ATOM      1  C   UNL     1    -106.209  31.857   3.267  1.00  0.00     0.016 A 
ATOM      2  C   UNL     1    -104.936  31.422   3.672  1.00  0.00     0.013 A 
ATOM      3  C   UNL     1    -107.119  30.903   2.780  1.00  0.00     0.120 A 
ATOM      4  C   UNL     1    -104.599  30.070   3.587  1.00  0.00     0.021 A 
ATOM      5  N   UNL     1    -106.765  29.592   2.707  1.00  0.00    -0.264 NA
ATOM      6  C   UNL     1    -105.536  29.160   3.097  1.00  0.00     0.111 A 
ENDROOT
BRANCH   1   7
ATOM      7  C   UNL     1    -106.587  33.285   3.349  1.00  0.00     0.073 C 
ATOM      8  O   UNL     1    -107.507  33.660   4.124  1.00  0.00    -0.545 OA
ATOM      9  O   UNL     1    -105.931  34.233   2.572  1.00  0.00    -0.545 OA
ENDBRANCH   1   7
TORSDOF 1
ENDMDL
MODEL 6
REMARK VINA RESULT:    -3.105      1.220      2.174
REMARK INTER + INTRA:          -3.303
REMARK INTER:                  -3.286
REMARK INTRA:                  -0.017
REMARK UNBOUND:                -0.016
REMARK SMILES O=C([O-])c1cccnc1
REMARK SMILES IDX 4 1 5 2 9 3 6 4 8 5 7 6 2 7 1 8 3 9
REMARK H PARENT
REMARK Flexibility Score: inf
ROOT
ATOM      1  C   UNL     1    -110.208  43.978  -1.499  1.00  0.00     0.016 A 
ATOM      2  C   UNL     1    -111.494  43.593  -1.086  1.00  0.00     0.013 A 
ATOM      3  C   UNL     1    -110.084  44.757  -2.662  1.00  0.00     0.120 A 
ATOM      4  C   UNL     1    -112.613  43.985  -1.823  1.00  0.00     0.021 A 
ATOM      5  N   UNL     1    -111.191  45.125  -3.363  1.00  0.00    -0.264 NA
ATOM      6  C   UNL     1    -112.439  44.759  -2.970  1.00  0.00     0.111 A 
ENDROOT
BRANCH   1   7
ATOM      7  C   UNL     1    -109.009  43.574  -0.732  1.00  0.00     0.073 C 
ATOM      8  O   UNL     1    -108.636  42.370  -0.715  1.00  0.00    -0.545 OA
ATOM      9  O   UNL     1    -108.277  44.517  -0.020  1.00  0.00    -0.545 OA
ENDBRANCH   1   7
TORSDOF 1
ENDMDL
MODEL 7
REMARK VINA RESULT:    -3.089      2.970      3.910
REMARK INTER + INTRA:          -3.287
REMARK INTER:                  -3.268
REMARK INTRA:                  -0.018
REMARK UNBOUND:                -0.016
REMARK SMILES O=C([O-])c1cccnc1
REMARK SMILES IDX 4 1 5 2 9 3 6 4 8 5 7 6 2 7 1 8 3 9
REMARK H PARENT
REMARK Flexibility Score: inf
ROOT
ATOM      1  C   UNL     1    -110.283  43.967  -1.088  1.00  0.00     0.016 A 
ATOM      2  C   UNL     1    -109.766  42.707  -0.742  1.00  0.00     0.013 A 
ATOM      3  C   UNL     1    -109.540  45.111  -0.749  1.00  0.00     0.120 A 
ATOM      4  C   UNL     1    -108.541  42.611  -0.079  1.00  0.00     0.021 A 
ATOM      5  N   UNL     1    -108.349  44.989  -0.103  1.00  0.00    -0.264 NA
ATOM      6  C   UNL     1    -107.840  43.775   0.235  1.00  0.00     0.111 A 
ENDROOT
BRANCH   1   7
ATOM      7  C   UNL     1    -111.579  44.092  -1.790  1.00  0.00     0.073 C 
ATOM      8  O   UNL     1    -112.625  43.589  -1.298  1.00  0.00    -0.545 OA
ATOM      9  O   UNL     1    -111.661  44.766  -3.003  1.00  0.00    -0.545 OA
ENDBRANCH   1   7
TORSDOF 1
ENDMDL
MODEL 8
REMARK VINA RESULT:    -3.018     12.369     13.359
REMARK INTER + INTRA:          -3.211
REMARK INTER:                  -3.194
REMARK INTRA:                  -0.017
REMARK UNBOUND:                -0.016
REMARK SMILES O=C([O-])c1cccnc1
REMARK SMILES IDX 4 1 5 2 9 3 6 4 8 5 7 6 2 7 1 8 3 9
REMARK H PARENT
REMARK Flexibility Score: inf
ROOT
ATOM      1  C   UNL     1    -106.466  31.894   3.168  1.00  0.00     0.016 A 
ATOM      2  C   UNL     1    -106.519  33.199   2.650  1.00  0.00     0.013 A 
ATOM      3  C   UNL     1    -105.330  31.511   3.901  1.00  0.00     0.120 A 
ATOM      4  C   UNL     1    -105.460  34.082   2.868  1.00  0.00     0.021 A 
ATOM      5  N   UNL     1    -104.312  32.391   4.098  1.00  0.00    -0.264 NA
ATOM      6  C   UNL     1    -104.354  33.656   3.602  1.00  0.00     0.111 A 
ENDROOT
BRANCH   1   7
ATOM      7  C   UNL     1    -107.577  30.942   2.949  1.00  0.00     0.073 C 
ATOM      8  O   UNL     1    -108.687  31.110   3.522  1.00  0.00    -0.545 OA
ATOM      9  O   UNL     1    -107.412  29.848   2.106  1.00  0.00    -0.545 OA
ENDBRANCH   1   7
TORSDOF 1
ENDMDL
MODEL 9
REMARK VINA RESULT:    -2.912      3.020      3.692
REMARK INTER + INTRA:          -3.099
REMARK INTER:                  -3.080
REMARK INTRA:                  -0.019
REMARK UNBOUND:                -0.016
REMARK SMILES O=C([O-])c1cccnc1
REMARK SMILES IDX 4 1 5 2 9 3 6 4 8 5 7 6 2 7 1 8 3 9
REMARK H PARENT
REMARK Flexibility Score: inf
ROOT
ATOM      1  C   UNL     1    -110.542  43.916  -1.094  1.00  0.00     0.016 A 
ATOM      2  C   UNL     1    -109.759  45.066  -0.898  1.00  0.00     0.013 A 
ATOM      3  C   UNL     1    -110.012  42.672  -0.711  1.00  0.00     0.120 A 
ATOM      4  C   UNL     1    -108.487  44.959  -0.333  1.00  0.00     0.021 A 
ATOM      5  N   UNL     1    -108.769  42.596  -0.162  1.00  0.00    -0.264 NA
ATOM      6  C   UNL     1    -108.004  43.702   0.033  1.00  0.00     0.111 A 
ENDROOT
BRANCH   1   7
ATOM      7  C   UNL     1    -111.892  44.007  -1.691  1.00  0.00     0.073 C 
ATOM      8  O   UNL     1    -112.070  44.613  -2.782  1.00  0.00    -0.545 OA
ATOM      9  O   UNL     1    -112.984  43.426  -1.056  1.00  0.00    -0.545 OA
ENDBRANCH   1   7
TORSDOF 1
ENDMDL
