MODEL 1
REMARK VINA RESULT:    21.592      0.000      0.000
REMARK INTER + INTRA:          24.431
REMARK INTER:                  24.747
REMARK INTRA:                  -0.316
REMARK UNBOUND:                -0.316
REMARK SMILES O=C1C[C@@H](c2ccc(O)cc2)Oc2cc(O)cc(O)c21
REMARK SMILES IDX 3 1 4 2 12 3 13 4 14 5 15 6 17 7 18 8 20 9 2 10 1 11 5 12
REMARK SMILES IDX 6 13 11 14 7 15 10 16 8 17 9 18 19 20 16 22
REMARK H PARENT 9 19 19 21 16 23
REMARK Flexibility Score: inf
ROOT
ATOM      1  C   UNL     1      -7.224  -6.956  15.088  1.00  0.00     0.131 C 
ATOM      2  C   UNL     1      -6.622  -6.798  16.491  1.00  0.00     0.211 C 
ATOM      3  O   UNL     1      -6.775  -8.005  17.243  1.00  0.00    -0.484 OA
ATOM      4  C   UNL     1      -6.620  -9.276  16.672  1.00  0.00     0.138 A 
ATOM      5  C   UNL     1      -6.510 -10.387  17.513  1.00  0.00     0.093 A 
ATOM      6  C   UNL     1      -6.340 -11.665  16.974  1.00  0.00     0.123 A 
ATOM      7  C   UNL     1      -6.309 -11.835  15.588  1.00  0.00     0.093 A 
ATOM      8  C   UNL     1      -6.457 -10.741  14.727  1.00  0.00     0.133 A 
ATOM      9  C   UNL     1      -6.583  -9.435  15.270  1.00  0.00     0.102 A 
ATOM     10  C   UNL     1      -6.676  -8.199  14.454  1.00  0.00     0.174 C 
ATOM     11  O   UNL     1      -6.258  -8.155  13.267  1.00  0.00    -0.294 OA
ENDROOT
BRANCH   2  12
ATOM     12  C   UNL     1      -7.267  -5.647  17.224  1.00  0.00    -0.007 A 
ATOM     13  C   UNL     1      -7.285  -4.364  16.649  1.00  0.00     0.011 A 
ATOM     14  C   UNL     1      -7.906  -5.854  18.460  1.00  0.00     0.011 A 
ATOM     15  C   UNL     1      -7.909  -3.303  17.311  1.00  0.00     0.046 A 
ATOM     16  C   UNL     1      -8.529  -4.790  19.119  1.00  0.00     0.046 A 
ATOM     17  C   UNL     1      -8.531  -3.513  18.550  1.00  0.00     0.115 A 
BRANCH  17  18
ATOM     18  O   UNL     1      -9.154  -2.463  19.219  1.00  0.00    -0.508 OA
ATOM     19  H   UNL     1     -10.017  -2.600  19.732  1.00  0.00     0.293 HD
ENDBRANCH  17  18
ENDBRANCH   2  12
BRANCH   8  20
ATOM     20  O   UNL     1      -6.511 -11.005  13.357  1.00  0.00    -0.507 OA
ATOM     21  H   UNL     1      -5.958 -10.519  12.665  1.00  0.00     0.293 HD
ENDBRANCH   8  20
BRANCH   6  22
ATOM     22  O   UNL     1      -6.207 -12.774  17.806  1.00  0.00    -0.508 OA
ATOM     23  H   UNL     1      -6.336 -13.717  17.458  1.00  0.00     0.293 HD
ENDBRANCH   6  22
TORSDOF 4
ENDMDL
MODEL 2
REMARK VINA RESULT:    23.718      2.036      3.401
REMARK INTER + INTRA:          26.868
REMARK INTER:                  27.154
REMARK INTRA:                  -0.287
REMARK UNBOUND:                -0.316
REMARK SMILES O=C1C[C@@H](c2ccc(O)cc2)Oc2cc(O)cc(O)c21
REMARK SMILES IDX 3 1 4 2 12 3 13 4 14 5 15 6 17 7 18 8 20 9 2 10 1 11 5 12
REMARK SMILES IDX 6 13 11 14 7 15 10 16 8 17 9 18 19 20 16 22
REMARK H PARENT 9 19 19 21 16 23
REMARK Flexibility Score: inf
ROOT
ATOM      1  C   UNL     1      -5.490  -8.306  17.403  1.00  0.00     0.131 C 
ATOM      2  C   UNL     1      -6.549  -7.368  16.804  1.00  0.00     0.211 C 
ATOM      3  O   UNL     1      -6.949  -7.823  15.508  1.00  0.00    -0.484 OA
ATOM      4  C   UNL     1      -7.120  -9.180  15.203  1.00  0.00     0.138 A 
ATOM      5  C   UNL     1      -7.772  -9.530  14.017  1.00  0.00     0.093 A 
ATOM      6  C   UNL     1      -7.970 -10.875  13.693  1.00  0.00     0.123 A 
ATOM      7  C   UNL     1      -7.490 -11.873  14.544  1.00  0.00     0.093 A 
ATOM      8  C   UNL     1      -6.799 -11.545  15.716  1.00  0.00     0.133 A 
ATOM      9  C   UNL     1      -6.637 -10.180  16.074  1.00  0.00     0.102 A 
ATOM     10  C   UNL     1      -5.984  -9.719  17.325  1.00  0.00     0.174 C 
ATOM     11  O   UNL     1      -5.886 -10.464  18.335  1.00  0.00    -0.294 OA
ENDROOT
BRANCH   2  12
ATOM     12  C   UNL     1      -6.026  -5.956  16.718  1.00  0.00    -0.007 A 
ATOM     13  C   UNL     1      -6.874  -4.869  16.991  1.00  0.00     0.011 A 
ATOM     14  C   UNL     1      -4.673  -5.711  16.422  1.00  0.00     0.011 A 
ATOM     15  C   UNL     1      -6.384  -3.560  16.942  1.00  0.00     0.046 A 
ATOM     16  C   UNL     1      -4.185  -4.402  16.374  1.00  0.00     0.046 A 
ATOM     17  C   UNL     1      -5.038  -3.324  16.632  1.00  0.00     0.115 A 
BRANCH  17  18
ATOM     18  O   UNL     1      -4.539  -2.025  16.580  1.00  0.00    -0.508 OA
ATOM     19  H   UNL     1      -4.951  -1.323  15.976  1.00  0.00     0.293 HD
ENDBRANCH  17  18
ENDBRANCH   2  12
BRANCH   8  20
ATOM     20  O   UNL     1      -6.268 -12.598  16.464  1.00  0.00    -0.507 OA
ATOM     21  H   UNL     1      -5.345 -12.591  16.874  1.00  0.00     0.293 HD
ENDBRANCH   8  20
BRANCH   6  22
ATOM     22  O   UNL     1      -8.639 -11.231  12.523  1.00  0.00    -0.508 OA
ATOM     23  H   UNL     1      -9.367 -10.647  12.130  1.00  0.00     0.293 HD
ENDBRANCH   6  22
TORSDOF 4
ENDMDL
