MODEL 1
REMARK VINA RESULT:    -2.043      0.000      0.000
REMARK INTER + INTRA:          -2.932
REMARK INTER:                  -3.535
REMARK INTRA:                   0.603
REMARK UNBOUND:                 0.603
REMARK SMILES OC[C@@H]1O[C@@H](O[C@@H]2[C@@H](O)[C@H](O)[C@@H](O)O[C@@H]2CO)[C@@H](O)[C@H](O)[C@@H]1O[C@H]1O[C@H](CO)[C@H](O)[C@H](O)[C@H]1O
REMARK SMILES IDX 22 1 3 2 4 3 5 4 18 5 20 6 23 7 24 8 26 9 29 10 25 11 31 12
REMARK SMILES IDX 33 13 27 14 28 15 30 17 32 19 34 21 2 23 1 24 21 26 19 28
REMARK SMILES IDX 6 30 7 31 15 32 8 33 14 34 10 35 12 36 16 37 17 38 9 40
REMARK SMILES IDX 11 42 13 44
REMARK H PARENT 28 16 30 18 32 20 34 22 1 25 21 27 19 29 17 39 9 41 11 43
REMARK H PARENT 13 45
REMARK Flexibility Score: inf
ROOT
ATOM      1  C   UNL     1      14.592  -8.334   5.805  1.00  0.00     0.184 C 
ATOM      2  C   UNL     1      13.245  -8.133   6.578  1.00  0.00     0.178 C 
ATOM      3  O   UNL     1      12.227  -9.065   6.229  1.00  0.00    -0.341 OA
ATOM      4  C   UNL     1      12.047  -9.292   4.830  1.00  0.00     0.282 C 
ATOM      5  C   UNL     1      12.920  -8.441   3.879  1.00  0.00     0.202 C 
ATOM      6  C   UNL     1      14.402  -8.546   4.281  1.00  0.00     0.180 C 
ENDROOT
BRANCH   1   7
ATOM      7  O   UNL     1      15.613  -9.161   6.381  1.00  0.00    -0.341 OA
BRANCH   7   8
ATOM      8  C   UNL     1      16.991  -8.927   6.082  1.00  0.00     0.282 C 
ATOM      9  C   UNL     1      18.887  -9.542   4.797  1.00  0.00     0.178 C 
ATOM     10  C   UNL     1      19.174  -8.090   4.281  1.00  0.00     0.177 C 
ATOM     11  O   UNL     1      17.501  -9.753   5.047  1.00  0.00    -0.341 OA
ATOM     12  C   UNL     1      17.933  -7.195   4.443  1.00  0.00     0.179 C 
ATOM     13  C   UNL     1      17.263  -7.413   5.820  1.00  0.00     0.202 C 
BRANCH   9  14
ATOM     14  C   UNL     1      19.788  -9.987   5.982  1.00  0.00     0.191 C 
BRANCH  14  15
ATOM     15  O   UNL     1      19.974  -8.940   6.901  1.00  0.00    -0.394 OA
ATOM     16  H   UNL     1      19.657  -8.109   6.456  1.00  0.00     0.210 HD
ENDBRANCH  14  15
ENDBRANCH   9  14
BRANCH  10  17
ATOM     17  O   UNL     1      20.280  -7.517   4.948  1.00  0.00    -0.387 OA
ATOM     18  H   UNL     1      19.963  -6.679   5.380  1.00  0.00     0.211 HD
ENDBRANCH  10  17
BRANCH  12  19
ATOM     19  O   UNL     1      18.232  -5.837   4.222  1.00  0.00    -0.387 OA
ATOM     20  H   UNL     1      18.161  -5.654   3.249  1.00  0.00     0.211 HD
ENDBRANCH  12  19
BRANCH  13  21
ATOM     21  O   UNL     1      16.082  -6.654   5.906  1.00  0.00    -0.385 OA
ATOM     22  H   UNL     1      16.096  -6.010   5.152  1.00  0.00     0.211 HD
ENDBRANCH  13  21
ENDBRANCH   7   8
ENDBRANCH   1   7
BRANCH   2  23
ATOM     23  C   UNL     1      13.423  -8.043   8.103  1.00  0.00     0.191 C 
BRANCH  23  24
ATOM     24  O   UNL     1      14.729  -7.640   8.410  1.00  0.00    -0.394 OA
ATOM     25  H   UNL     1      14.843  -6.724   8.052  1.00  0.00     0.210 HD
ENDBRANCH  23  24
ENDBRANCH   2  23
BRANCH   6  26
ATOM     26  O   UNL     1      14.921  -9.782   3.875  1.00  0.00    -0.387 OA
ATOM     27  H   UNL     1      15.030 -10.334   4.687  1.00  0.00     0.211 HD
ENDBRANCH   6  26
BRANCH   5  28
ATOM     28  O   UNL     1      12.495  -7.100   3.904  1.00  0.00    -0.385 OA
ATOM     29  H   UNL     1      13.141  -6.573   3.360  1.00  0.00     0.211 HD
ENDBRANCH   5  28
BRANCH   4  30
ATOM     30  O   UNL     1      10.682  -9.092   4.511  1.00  0.00    -0.341 OA
BRANCH  30  31
ATOM     31  C   UNL     1       9.939  -8.635   5.635  1.00  0.00     0.184 C 
ATOM     32  C   UNL     1       9.206  -7.288   5.334  1.00  0.00     0.178 C 
ATOM     33  C   UNL     1       8.954  -9.732   6.076  1.00  0.00     0.180 C 
ATOM     34  O   UNL     1       7.859  -7.270   5.795  1.00  0.00    -0.342 OA
ATOM     35  C   UNL     1       7.670  -9.700   5.234  1.00  0.00     0.201 C 
ATOM     36  C   UNL     1       7.041  -8.276   5.213  1.00  0.00     0.279 C 
BRANCH  32  37
ATOM     37  C   UNL     1       9.374  -6.729   3.895  1.00  0.00     0.191 C 
BRANCH  37  38
ATOM     38  O   UNL     1       9.989  -5.472   3.891  1.00  0.00    -0.394 OA
ATOM     39  H   UNL     1       9.989  -5.131   4.823  1.00  0.00     0.210 HD
ENDBRANCH  37  38
ENDBRANCH  32  37
BRANCH  33  40
ATOM     40  O   UNL     1       8.619  -9.562   7.431  1.00  0.00    -0.387 OA
ATOM     41  H   UNL     1       7.673  -9.839   7.531  1.00  0.00     0.211 HD
ENDBRANCH  33  40
BRANCH  35  42
ATOM     42  O   UNL     1       7.943 -10.120   3.917  1.00  0.00    -0.385 OA
ATOM     43  H   UNL     1       8.871 -10.485   3.923  1.00  0.00     0.211 HD
ENDBRANCH  35  42
BRANCH  36  44
ATOM     44  O   UNL     1       5.805  -8.286   5.877  1.00  0.00    -0.366 OA
ATOM     45  H   UNL     1       5.390  -9.175   5.719  1.00  0.00     0.213 HD
ENDBRANCH  36  44
ENDBRANCH  30  31
ENDBRANCH   4  30
TORSDOF 18
ENDMDL
MODEL 2
REMARK VINA RESULT:    -1.695      1.290      2.346
REMARK INTER + INTRA:          -2.330
REMARK INTER:                  -4.135
REMARK INTRA:                   1.805
REMARK UNBOUND:                 0.603
REMARK SMILES OC[C@@H]1O[C@@H](O[C@@H]2[C@@H](O)[C@H](O)[C@@H](O)O[C@@H]2CO)[C@@H](O)[C@H](O)[C@@H]1O[C@H]1O[C@H](CO)[C@H](O)[C@H](O)[C@H]1O
REMARK SMILES IDX 22 1 3 2 4 3 5 4 18 5 20 6 23 7 24 8 26 9 29 10 25 11 31 12
REMARK SMILES IDX 33 13 27 14 28 15 30 17 32 19 34 21 2 23 1 24 21 26 19 28
REMARK SMILES IDX 6 30 7 31 15 32 8 33 14 34 10 35 12 36 16 37 17 38 9 40
REMARK SMILES IDX 11 42 13 44
REMARK H PARENT 28 16 30 18 32 20 34 22 1 25 21 27 19 29 17 39 9 41 11 43
REMARK H PARENT 13 45
REMARK Flexibility Score: inf
ROOT
ATOM      1  C   UNL     1      13.794  -8.453   5.540  1.00  0.00     0.184 C 
ATOM      2  C   UNL     1      13.058  -8.041   6.860  1.00  0.00     0.178 C 
ATOM      3  O   UNL     1      11.926  -8.846   7.173  1.00  0.00    -0.341 OA
ATOM      4  C   UNL     1      11.035  -9.112   6.089  1.00  0.00     0.282 C 
ATOM      5  C   UNL     1      11.369  -8.428   4.743  1.00  0.00     0.202 C 
ATOM      6  C   UNL     1      12.832  -8.710   4.353  1.00  0.00     0.180 C 
ENDROOT
BRANCH   1   7
ATOM      7  O   UNL     1      14.887  -9.381   5.609  1.00  0.00    -0.341 OA
BRANCH   7   8
ATOM      8  C   UNL     1      16.204  -8.926   5.928  1.00  0.00     0.282 C 
ATOM      9  C   UNL     1      18.521  -9.422   6.012  1.00  0.00     0.178 C 
ATOM     10  C   UNL     1      18.958  -8.157   5.198  1.00  0.00     0.177 C 
ATOM     11  O   UNL     1      17.222  -9.871   5.641  1.00  0.00    -0.341 OA
ATOM     12  C   UNL     1      17.769  -7.571   4.416  1.00  0.00     0.179 C 
ATOM     13  C   UNL     1      16.492  -7.533   5.288  1.00  0.00     0.202 C 
BRANCH   9  14
ATOM     14  C   UNL     1      18.694  -9.282   7.550  1.00  0.00     0.191 C 
BRANCH  14  15
ATOM     15  O   UNL     1      20.030  -9.495   7.933  1.00  0.00    -0.394 OA
ATOM     16  H   UNL     1      20.379  -8.619   8.248  1.00  0.00     0.210 HD
ENDBRANCH  14  15
ENDBRANCH   9  14
BRANCH  10  17
ATOM     17  O   UNL     1      19.521  -7.172   6.041  1.00  0.00    -0.387 OA
ATOM     18  H   UNL     1      20.384  -7.532   6.381  1.00  0.00     0.211 HD
ENDBRANCH  10  17
BRANCH  12  19
ATOM     19  O   UNL     1      18.067  -6.304   3.878  1.00  0.00    -0.387 OA
ATOM     20  H   UNL     1      18.948  -6.354   3.425  1.00  0.00     0.211 HD
ENDBRANCH  12  19
BRANCH  13  21
ATOM     21  O   UNL     1      15.400  -7.081   4.523  1.00  0.00    -0.385 OA
ATOM     22  H   UNL     1      15.710  -6.284   4.020  1.00  0.00     0.211 HD
ENDBRANCH  13  21
ENDBRANCH   7   8
ENDBRANCH   1   7
BRANCH   2  23
ATOM     23  C   UNL     1      14.000  -7.905   8.068  1.00  0.00     0.191 C 
BRANCH  23  24
ATOM     24  O   UNL     1      15.225  -7.361   7.661  1.00  0.00    -0.394 OA
ATOM     25  H   UNL     1      15.458  -6.650   8.309  1.00  0.00     0.210 HD
ENDBRANCH  23  24
ENDBRANCH   2  23
BRANCH   6  26
ATOM     26  O   UNL     1      12.956 -10.020   3.875  1.00  0.00    -0.387 OA
ATOM     27  H   UNL     1      12.959  -9.972   2.888  1.00  0.00     0.211 HD
ENDBRANCH   6  26
BRANCH   5  28
ATOM     28  O   UNL     1      11.139  -7.044   4.834  1.00  0.00    -0.385 OA
ATOM     29  H   UNL     1      11.055  -6.694   3.906  1.00  0.00     0.211 HD
ENDBRANCH   5  28
BRANCH   4  30
ATOM     30  O   UNL     1       9.723  -8.749   6.481  1.00  0.00    -0.341 OA
BRANCH  30  31
ATOM     31  C   UNL     1       8.751  -9.653   5.968  1.00  0.00     0.184 C 
ATOM     32  C   UNL     1       7.636  -9.960   7.020  1.00  0.00     0.178 C 
ATOM     33  C   UNL     1       8.163  -9.083   4.665  1.00  0.00     0.180 C 
ATOM     34  O   UNL     1       6.324  -9.924   6.468  1.00  0.00    -0.342 OA
ATOM     35  C   UNL     1       7.046  -8.069   4.954  1.00  0.00     0.201 C 
ATOM     36  C   UNL     1       5.971  -8.666   5.909  1.00  0.00     0.279 C 
BRANCH  32  37
ATOM     37  C   UNL     1       7.757  -9.213   8.376  1.00  0.00     0.191 C 
BRANCH  37  38
ATOM     38  O   UNL     1       6.900  -9.746   9.344  1.00  0.00    -0.394 OA
ATOM     39  H   UNL     1       6.126 -10.154   8.874  1.00  0.00     0.210 HD
ENDBRANCH  37  38
ENDBRANCH  32  37
BRANCH  33  40
ATOM     40  O   UNL     1       7.644 -10.125   3.875  1.00  0.00    -0.387 OA
ATOM     41  H   UNL     1       8.411 -10.683   3.595  1.00  0.00     0.211 HD
ENDBRANCH  33  40
BRANCH  35  42
ATOM     42  O   UNL     1       7.588  -6.899   5.519  1.00  0.00    -0.385 OA
ATOM     43  H   UNL     1       7.752  -6.268   4.763  1.00  0.00     0.211 HD
ENDBRANCH  35  42
BRANCH  36  44
ATOM     44  O   UNL     1       4.750  -8.805   5.232  1.00  0.00    -0.366 OA
ATOM     45  H   UNL     1       4.312  -9.627   5.577  1.00  0.00     0.213 HD
ENDBRANCH  36  44
ENDBRANCH  30  31
ENDBRANCH   4  30
TORSDOF 18
ENDMDL
MODEL 3
REMARK VINA RESULT:    -1.084      1.328      8.611
REMARK INTER + INTRA:          -1.274
REMARK INTER:                  -3.567
REMARK INTRA:                   2.293
REMARK UNBOUND:                 0.603
REMARK SMILES OC[C@@H]1O[C@@H](O[C@@H]2[C@@H](O)[C@H](O)[C@@H](O)O[C@@H]2CO)[C@@H](O)[C@H](O)[C@@H]1O[C@H]1O[C@H](CO)[C@H](O)[C@H](O)[C@H]1O
REMARK SMILES IDX 22 1 3 2 4 3 5 4 18 5 20 6 23 7 24 8 26 9 29 10 25 11 31 12
REMARK SMILES IDX 33 13 27 14 28 15 30 17 32 19 34 21 2 23 1 24 21 26 19 28
REMARK SMILES IDX 6 30 7 31 15 32 8 33 14 34 10 35 12 36 16 37 17 38 9 40
REMARK SMILES IDX 11 42 13 44
REMARK H PARENT 28 16 30 18 32 20 34 22 1 25 21 27 19 29 17 39 9 41 11 43
REMARK H PARENT 13 45
REMARK Flexibility Score: inf
ROOT
ATOM      1  C   UNL     1      12.569  -8.188   5.772  1.00  0.00     0.184 C 
ATOM      2  C   UNL     1      13.789  -8.282   6.751  1.00  0.00     0.178 C 
ATOM      3  O   UNL     1      14.729  -7.222   6.615  1.00  0.00    -0.341 OA
ATOM      4  C   UNL     1      15.103  -6.892   5.276  1.00  0.00     0.282 C 
ATOM      5  C   UNL     1      14.504  -7.778   4.159  1.00  0.00     0.202 C 
ATOM      6  C   UNL     1      12.974  -7.864   4.312  1.00  0.00     0.180 C 
ENDROOT
BRANCH   1   7
ATOM      7  O   UNL     1      11.376  -7.516   6.204  1.00  0.00    -0.341 OA
BRANCH   7   8
ATOM      8  C   UNL     1      10.092  -7.972   5.772  1.00  0.00     0.282 C 
ATOM      9  C   UNL     1       7.917  -8.688   6.388  1.00  0.00     0.178 C 
ATOM     10  C   UNL     1       7.173  -7.667   5.462  1.00  0.00     0.177 C 
ATOM     11  O   UNL     1       9.173  -8.186   6.832  1.00  0.00    -0.341 OA
ATOM     12  C   UNL     1       8.108  -6.515   5.053  1.00  0.00     0.179 C 
ATOM     13  C   UNL     1       9.507  -7.046   4.661  1.00  0.00     0.202 C 
BRANCH   9  14
ATOM     14  C   UNL     1       8.013 -10.125   5.805  1.00  0.00     0.191 C 
BRANCH  14  15
ATOM     15  O   UNL     1       8.659 -10.125   4.557  1.00  0.00    -0.394 OA
ATOM     16  H   UNL     1       9.479  -9.571   4.659  1.00  0.00     0.210 HD
ENDBRANCH  14  15
ENDBRANCH   9  14
BRANCH  10  17
ATOM     17  O   UNL     1       6.649  -8.302   4.313  1.00  0.00    -0.387 OA
ATOM     18  H   UNL     1       7.291  -9.014   4.050  1.00  0.00     0.211 HD
ENDBRANCH  10  17
BRANCH  12  19
ATOM     19  O   UNL     1       7.550  -5.722   4.031  1.00  0.00    -0.387 OA
ATOM     20  H   UNL     1       6.698  -5.337   4.364  1.00  0.00     0.211 HD
ENDBRANCH  12  19
BRANCH  13  21
ATOM     21  O   UNL     1      10.369  -5.969   4.381  1.00  0.00    -0.385 OA
ATOM     22  H   UNL     1       9.831  -5.139   4.462  1.00  0.00     0.211 HD
ENDBRANCH  13  21
ENDBRANCH   7   8
ENDBRANCH   1   7
BRANCH   2  23
ATOM     23  C   UNL     1      13.380  -8.483   8.220  1.00  0.00     0.191 C 
BRANCH  23  24
ATOM     24  O   UNL     1      14.334  -7.903   9.067  1.00  0.00    -0.394 OA
ATOM     25  H   UNL     1      14.588  -8.590   9.733  1.00  0.00     0.210 HD
ENDBRANCH  23  24
ENDBRANCH   2  23
BRANCH   6  26
ATOM     26  O   UNL     1      12.382  -6.672   3.876  1.00  0.00    -0.387 OA
ATOM     27  H   UNL     1      11.565  -6.538   4.415  1.00  0.00     0.211 HD
ENDBRANCH   6  26
BRANCH   5  28
ATOM     28  O   UNL     1      15.078  -9.061   4.200  1.00  0.00    -0.385 OA
ATOM     29  H   UNL     1      15.864  -9.055   3.589  1.00  0.00     0.211 HD
ENDBRANCH   5  28
BRANCH   4  30
ATOM     30  O   UNL     1      16.516  -6.918   5.181  1.00  0.00    -0.341 OA
BRANCH  30  31
ATOM     31  C   UNL     1      17.027  -8.241   5.287  1.00  0.00     0.184 C 
ATOM     32  C   UNL     1      18.391  -8.395   4.539  1.00  0.00     0.178 C 
ATOM     33  C   UNL     1      17.147  -8.625   6.773  1.00  0.00     0.180 C 
ATOM     34  O   UNL     1      19.362  -9.113   5.293  1.00  0.00    -0.342 OA
ATOM     35  C   UNL     1      18.449  -8.089   7.384  1.00  0.00     0.201 C 
ATOM     36  C   UNL     1      19.687  -8.505   6.537  1.00  0.00     0.279 C 
BRANCH  32  37
ATOM     37  C   UNL     1      18.951  -7.108   3.875  1.00  0.00     0.191 C 
BRANCH  37  38
ATOM     38  O   UNL     1      19.556  -6.259   4.808  1.00  0.00    -0.394 OA
ATOM     39  H   UNL     1      19.741  -5.394   4.356  1.00  0.00     0.210 HD
ENDBRANCH  37  38
ENDBRANCH  32  37
BRANCH  33  40
ATOM     40  O   UNL     1      17.115 -10.024   6.913  1.00  0.00    -0.387 OA
ATOM     41  H   UNL     1      17.939 -10.283   7.397  1.00  0.00     0.211 HD
ENDBRANCH  33  40
BRANCH  35  42
ATOM     42  O   UNL     1      18.395  -6.686   7.489  1.00  0.00    -0.385 OA
ATOM     43  H   UNL     1      19.331  -6.376   7.644  1.00  0.00     0.211 HD
ENDBRANCH  35  42
BRANCH  36  44
ATOM     44  O   UNL     1      20.496  -9.389   7.267  1.00  0.00    -0.366 OA
ATOM     45  H   UNL     1      21.341  -8.913   7.478  1.00  0.00     0.213 HD
ENDBRANCH  36  44
ENDBRANCH  30  31
ENDBRANCH   4  30
TORSDOF 18
ENDMDL
MODEL 4
REMARK VINA RESULT:    -0.743      1.824      3.234
REMARK INTER + INTRA:          -0.683
REMARK INTER:                  -2.749
REMARK INTRA:                   2.066
REMARK UNBOUND:                 0.603
REMARK SMILES OC[C@@H]1O[C@@H](O[C@@H]2[C@@H](O)[C@H](O)[C@@H](O)O[C@@H]2CO)[C@@H](O)[C@H](O)[C@@H]1O[C@H]1O[C@H](CO)[C@H](O)[C@H](O)[C@H]1O
REMARK SMILES IDX 22 1 3 2 4 3 5 4 18 5 20 6 23 7 24 8 26 9 29 10 25 11 31 12
REMARK SMILES IDX 33 13 27 14 28 15 30 17 32 19 34 21 2 23 1 24 21 26 19 28
REMARK SMILES IDX 6 30 7 31 15 32 8 33 14 34 10 35 12 36 16 37 17 38 9 40
REMARK SMILES IDX 11 42 13 44
REMARK H PARENT 28 16 30 18 32 20 34 22 1 25 21 27 19 29 17 39 9 41 11 43
REMARK H PARENT 13 45
REMARK Flexibility Score: inf
ROOT
ATOM      1  C   UNL     1      16.688  -8.755   5.328  1.00  0.00     0.184 C 
ATOM      2  C   UNL     1      16.080  -7.727   4.314  1.00  0.00     0.178 C 
ATOM      3  O   UNL     1      14.841  -7.162   4.727  1.00  0.00    -0.341 OA
ATOM      4  C   UNL     1      13.879  -8.084   5.242  1.00  0.00     0.282 C 
ATOM      5  C   UNL     1      14.275  -9.578   5.207  1.00  0.00     0.202 C 
ATOM      6  C   UNL     1      15.654  -9.778   5.862  1.00  0.00     0.180 C 
ENDROOT
BRANCH   1   7
ATOM      7  O   UNL     1      17.611  -8.291   6.325  1.00  0.00    -0.341 OA
BRANCH   7   8
ATOM      8  C   UNL     1      18.973  -8.029   5.984  1.00  0.00     0.282 C 
ATOM      9  C   UNL     1      20.544  -7.533   4.278  1.00  0.00     0.178 C 
ATOM     10  C   UNL     1      21.138  -6.278   5.005  1.00  0.00     0.177 C 
ATOM     11  O   UNL     1      19.175  -7.741   4.609  1.00  0.00    -0.341 OA
ATOM     12  C   UNL     1      20.175  -5.766   6.091  1.00  0.00     0.179 C 
ATOM     13  C   UNL     1      19.590  -6.938   6.914  1.00  0.00     0.202 C 
BRANCH   9  14
ATOM     14  C   UNL     1      21.403  -8.820   4.424  1.00  0.00     0.191 C 
BRANCH  14  15
ATOM     15  O   UNL     1      20.649  -9.970   4.134  1.00  0.00    -0.394 OA
ATOM     16  H   UNL     1      21.079 -10.723   4.621  1.00  0.00     0.210 HD
ENDBRANCH  14  15
ENDBRANCH   9  14
BRANCH  10  17
ATOM     17  O   UNL     1      22.403  -6.560   5.568  1.00  0.00    -0.387 OA
ATOM     18  H   UNL     1      23.077  -6.469   4.842  1.00  0.00     0.211 HD
ENDBRANCH  10  17
BRANCH  12  19
ATOM     19  O   UNL     1      20.781  -4.803   6.920  1.00  0.00    -0.387 OA
ATOM     20  H   UNL     1      21.072  -4.041   6.355  1.00  0.00     0.211 HD
ENDBRANCH  12  19
BRANCH  13  21
ATOM     21  O   UNL     1      18.644  -6.453   7.836  1.00  0.00    -0.385 OA
ATOM     22  H   UNL     1      17.907  -6.049   7.309  1.00  0.00     0.211 HD
ENDBRANCH  13  21
ENDBRANCH   7   8
ENDBRANCH   1   7
BRANCH   2  23
ATOM     23  C   UNL     1      17.074  -6.639   3.876  1.00  0.00     0.191 C 
BRANCH  23  24
ATOM     24  O   UNL     1      16.510  -5.370   4.065  1.00  0.00    -0.394 OA
ATOM     25  H   UNL     1      15.573  -5.418   3.747  1.00  0.00     0.210 HD
ENDBRANCH  23  24
ENDBRANCH   2  23
BRANCH   6  26
ATOM     26  O   UNL     1      15.538  -9.699   7.255  1.00  0.00    -0.387 OA
ATOM     27  H   UNL     1      14.672  -9.265   7.452  1.00  0.00     0.211 HD
ENDBRANCH   6  26
BRANCH   5  28
ATOM     28  O   UNL     1      14.285 -10.045   3.881  1.00  0.00    -0.385 OA
ATOM     29  H   UNL     1      13.370  -9.914   3.512  1.00  0.00     0.211 HD
ENDBRANCH   5  28
BRANCH   4  30
ATOM     30  O   UNL     1      12.662  -7.910   4.538  1.00  0.00    -0.341 OA
BRANCH  30  31
ATOM     31  C   UNL     1      11.706  -8.905   4.884  1.00  0.00     0.184 C 
ATOM     32  C   UNL     1      11.272  -8.793   6.381  1.00  0.00     0.178 C 
ATOM     33  C   UNL     1      10.500  -8.806   3.933  1.00  0.00     0.180 C 
ATOM     34  O   UNL     1       9.865  -8.912   6.564  1.00  0.00    -0.342 OA
ATOM     35  C   UNL     1       9.515  -7.721   4.393  1.00  0.00     0.201 C 
ATOM     36  C   UNL     1       9.112  -7.916   5.884  1.00  0.00     0.279 C 
BRANCH  32  37
ATOM     37  C   UNL     1      11.904  -7.626   7.187  1.00  0.00     0.191 C 
BRANCH  37  38
ATOM     38  O   UNL     1      13.062  -8.025   7.863  1.00  0.00    -0.394 OA
ATOM     39  H   UNL     1      12.940  -7.813   8.826  1.00  0.00     0.210 HD
ENDBRANCH  37  38
ENDBRANCH  32  37
BRANCH  33  40
ATOM     40  O   UNL     1       9.829 -10.041   3.875  1.00  0.00    -0.387 OA
ATOM     41  H   UNL     1      10.217 -10.613   4.584  1.00  0.00     0.211 HD
ENDBRANCH  33  40
BRANCH  35  42
ATOM     42  O   UNL     1      10.082  -6.444   4.216  1.00  0.00    -0.385 OA
ATOM     43  H   UNL     1       9.354  -5.856   3.871  1.00  0.00     0.211 HD
ENDBRANCH  35  42
BRANCH  36  44
ATOM     44  O   UNL     1       7.751  -8.245   5.976  1.00  0.00    -0.366 OA
ATOM     45  H   UNL     1       7.402  -7.832   6.809  1.00  0.00     0.213 HD
ENDBRANCH  36  44
ENDBRANCH  30  31
ENDBRANCH   4  30
TORSDOF 18
ENDMDL
MODEL 5
REMARK VINA RESULT:    -0.655      1.777      3.713
REMARK INTER + INTRA:          -0.531
REMARK INTER:                  -0.220
REMARK INTRA:                  -0.311
REMARK UNBOUND:                 0.603
REMARK SMILES OC[C@@H]1O[C@@H](O[C@@H]2[C@@H](O)[C@H](O)[C@@H](O)O[C@@H]2CO)[C@@H](O)[C@H](O)[C@@H]1O[C@H]1O[C@H](CO)[C@H](O)[C@H](O)[C@H]1O
REMARK SMILES IDX 22 1 3 2 4 3 5 4 18 5 20 6 23 7 24 8 26 9 29 10 25 11 31 12
REMARK SMILES IDX 33 13 27 14 28 15 30 17 32 19 34 21 2 23 1 24 21 26 19 28
REMARK SMILES IDX 6 30 7 31 15 32 8 33 14 34 10 35 12 36 16 37 17 38 9 40
REMARK SMILES IDX 11 42 13 44
REMARK H PARENT 28 16 30 18 32 20 34 22 1 25 21 27 19 29 17 39 9 41 11 43
REMARK H PARENT 13 45
REMARK Flexibility Score: inf
ROOT
ATOM      1  C   UNL     1      12.322  -8.702   6.084  1.00  0.00     0.184 C 
ATOM      2  C   UNL     1      11.598  -9.557   4.988  1.00  0.00     0.178 C 
ATOM      3  O   UNL     1      10.431  -8.947   4.449  1.00  0.00    -0.341 OA
ATOM      4  C   UNL     1       9.534  -8.374   5.401  1.00  0.00     0.282 C 
ATOM      5  C   UNL     1       9.904  -8.560   6.890  1.00  0.00     0.202 C 
ATOM      6  C   UNL     1      11.354  -8.106   7.138  1.00  0.00     0.180 C 
ENDROOT
BRANCH   1   7
ATOM      7  O   UNL     1      13.372  -7.806   5.691  1.00  0.00    -0.341 OA
BRANCH   7   8
ATOM      8  C   UNL     1      14.741  -8.194   5.822  1.00  0.00     0.282 C 
ATOM      9  C   UNL     1      16.921  -8.166   4.890  1.00  0.00     0.178 C 
ATOM     10  C   UNL     1      17.610  -7.598   6.179  1.00  0.00     0.177 C 
ATOM     11  O   UNL     1      15.572  -7.728   4.771  1.00  0.00    -0.341 OA
ATOM     12  C   UNL     1      16.574  -6.949   7.113  1.00  0.00     0.179 C 
ATOM     13  C   UNL     1      15.303  -7.823   7.230  1.00  0.00     0.202 C 
BRANCH   9  14
ATOM     14  C   UNL     1      17.075  -9.701   4.709  1.00  0.00     0.191 C 
BRANCH  14  15
ATOM     15  O   UNL     1      18.258 -10.016   4.017  1.00  0.00    -0.394 OA
ATOM     16  H   UNL     1      18.331  -9.367   3.267  1.00  0.00     0.210 HD
ENDBRANCH  14  15
ENDBRANCH   9  14
BRANCH  10  17
ATOM     17  O   UNL     1      18.324  -8.605   6.866  1.00  0.00    -0.387 OA
ATOM     18  H   UNL     1      18.724  -9.205   6.180  1.00  0.00     0.211 HD
ENDBRANCH  10  17
BRANCH  12  19
ATOM     19  O   UNL     1      17.118  -6.654   8.378  1.00  0.00    -0.387 OA
ATOM     20  H   UNL     1      17.946  -7.189   8.495  1.00  0.00     0.211 HD
ENDBRANCH  12  19
BRANCH  13  21
ATOM     21  O   UNL     1      14.337  -7.165   8.013  1.00  0.00    -0.385 OA
ATOM     22  H   UNL     1      13.800  -6.601   7.398  1.00  0.00     0.211 HD
ENDBRANCH  13  21
ENDBRANCH   7   8
ENDBRANCH   1   7
BRANCH   2  23
ATOM     23  C   UNL     1      12.540 -10.047   3.875  1.00  0.00     0.191 C 
BRANCH  23  24
ATOM     24  O   UNL     1      13.873  -9.809   4.236  1.00  0.00    -0.394 OA
ATOM     25  H   UNL     1      14.334  -9.459   3.433  1.00  0.00     0.210 HD
ENDBRANCH  23  24
ENDBRANCH   2  23
BRANCH   6  26
ATOM     26  O   UNL     1      11.422  -6.708   7.153  1.00  0.00    -0.387 OA
ATOM     27  H   UNL     1      10.858  -6.380   6.412  1.00  0.00     0.211 HD
ENDBRANCH   6  26
BRANCH   5  28
ATOM     28  O   UNL     1       9.736  -9.905   7.266  1.00  0.00    -0.385 OA
ATOM     29  H   UNL     1      10.268 -10.051   8.094  1.00  0.00     0.211 HD
ENDBRANCH   5  28
BRANCH   4  30
ATOM     30  O   UNL     1       8.238  -8.899   5.176  1.00  0.00    -0.341 OA
BRANCH  30  31
ATOM     31  C   UNL     1       7.492  -8.091   4.273  1.00  0.00     0.184 C 
ATOM     32  C   UNL     1       6.135  -8.763   3.883  1.00  0.00     0.178 C 
ATOM     33  C   UNL     1       7.280  -6.698   4.890  1.00  0.00     0.180 C 
ATOM     34  O   UNL     1       5.037  -7.857   3.910  1.00  0.00    -0.342 OA
ATOM     35  C   UNL     1       6.087  -6.691   5.857  1.00  0.00     0.201 C 
ATOM     36  C   UNL     1       4.808  -7.270   5.185  1.00  0.00     0.279 C 
BRANCH  32  37
ATOM     37  C   UNL     1       5.830 -10.124   4.564  1.00  0.00     0.191 C 
BRANCH  37  38
ATOM     38  O   UNL     1       5.716 -10.001   5.952  1.00  0.00    -0.394 OA
ATOM     39  H   UNL     1       6.620  -9.808   6.315  1.00  0.00     0.210 HD
ENDBRANCH  37  38
ENDBRANCH  32  37
BRANCH  33  40
ATOM     40  O   UNL     1       7.054  -5.750   3.875  1.00  0.00    -0.387 OA
ATOM     41  H   UNL     1       7.299  -4.866   4.247  1.00  0.00     0.211 HD
ENDBRANCH  33  40
BRANCH  35  42
ATOM     42  O   UNL     1       6.396  -7.435   7.013  1.00  0.00    -0.385 OA
ATOM     43  H   UNL     1       6.799  -8.292   6.699  1.00  0.00     0.211 HD
ENDBRANCH  35  42
BRANCH  36  44
ATOM     44  O   UNL     1       3.840  -6.263   5.046  1.00  0.00    -0.366 OA
ATOM     45  H   UNL     1       4.010  -5.806   4.180  1.00  0.00     0.213 HD
ENDBRANCH  36  44
ENDBRANCH  30  31
ENDBRANCH   4  30
TORSDOF 18
ENDMDL
MODEL 6
REMARK VINA RESULT:    -0.467      1.576      8.759
REMARK INTER + INTRA:          -0.206
REMARK INTER:                   0.545
REMARK INTRA:                  -0.750
REMARK UNBOUND:                 0.603
REMARK SMILES OC[C@@H]1O[C@@H](O[C@@H]2[C@@H](O)[C@H](O)[C@@H](O)O[C@@H]2CO)[C@@H](O)[C@H](O)[C@@H]1O[C@H]1O[C@H](CO)[C@H](O)[C@H](O)[C@H]1O
REMARK SMILES IDX 22 1 3 2 4 3 5 4 18 5 20 6 23 7 24 8 26 9 29 10 25 11 31 12
REMARK SMILES IDX 33 13 27 14 28 15 30 17 32 19 34 21 2 23 1 24 21 26 19 28
REMARK SMILES IDX 6 30 7 31 15 32 8 33 14 34 10 35 12 36 16 37 17 38 9 40
REMARK SMILES IDX 11 42 13 44
REMARK H PARENT 28 16 30 18 32 20 34 22 1 25 21 27 19 29 17 39 9 41 11 43
REMARK H PARENT 13 45
REMARK Flexibility Score: inf
ROOT
ATOM      1  C   UNL     1      13.929  -8.683   5.186  1.00  0.00     0.184 C 
ATOM      2  C   UNL     1      14.623  -9.495   6.332  1.00  0.00     0.178 C 
ATOM      3  O   UNL     1      15.835  -8.919   6.805  1.00  0.00    -0.341 OA
ATOM      4  C   UNL     1      16.745  -8.473   5.797  1.00  0.00     0.282 C 
ATOM      5  C   UNL     1      16.334  -8.748   4.332  1.00  0.00     0.202 C 
ATOM      6  C   UNL     1      14.908  -8.227   4.074  1.00  0.00     0.180 C 
ENDROOT
BRANCH   1   7
ATOM      7  O   UNL     1      12.941  -7.698   5.526  1.00  0.00    -0.341 OA
BRANCH   7   8
ATOM      8  C   UNL     1      11.556  -7.945   5.274  1.00  0.00     0.282 C 
ATOM      9  C   UNL     1       9.404  -8.349   6.184  1.00  0.00     0.178 C 
ATOM     10  C   UNL     1       8.702  -7.201   5.380  1.00  0.00     0.177 C 
ATOM     11  O   UNL     1      10.771  -8.053   6.451  1.00  0.00    -0.341 OA
ATOM     12  C   UNL     1       9.735  -6.189   4.855  1.00  0.00     0.179 C 
ATOM     13  C   UNL     1      10.971  -6.909   4.265  1.00  0.00     0.202 C 
BRANCH   9  14
ATOM     14  C   UNL     1       9.201  -9.766   5.579  1.00  0.00     0.191 C 
BRANCH  14  15
ATOM     15  O   UNL     1       9.688  -9.832   4.262  1.00  0.00    -0.394 OA
ATOM     16  H   UNL     1      10.570  -9.373   4.261  1.00  0.00     0.210 HD
ENDBRANCH  14  15
ENDBRANCH   9  14
BRANCH  10  17
ATOM     17  O   UNL     1       7.935  -7.717   4.311  1.00  0.00    -0.387 OA
ATOM     18  H   UNL     1       8.572  -8.054   3.626  1.00  0.00     0.211 HD
ENDBRANCH  10  17
BRANCH  12  19
ATOM     19  O   UNL     1       9.168  -5.292   3.929  1.00  0.00    -0.387 OA
ATOM     20  H   UNL     1       8.439  -5.760   3.445  1.00  0.00     0.211 HD
ENDBRANCH  12  19
BRANCH  13  21
ATOM     21  O   UNL     1      11.939  -5.964   3.876  1.00  0.00    -0.385 OA
ATOM     22  H   UNL     1      12.206  -6.189   2.948  1.00  0.00     0.211 HD
ENDBRANCH  13  21
ENDBRANCH   7   8
ENDBRANCH   1   7
BRANCH   2  23
ATOM     23  C   UNL     1      13.677  -9.843   7.494  1.00  0.00     0.191 C 
BRANCH  23  24
ATOM     24  O   UNL     1      13.406  -8.695   8.251  1.00  0.00    -0.394 OA
ATOM     25  H   UNL     1      12.566  -8.864   8.746  1.00  0.00     0.210 HD
ENDBRANCH  23  24
ENDBRANCH   2  23
BRANCH   6  26
ATOM     26  O   UNL     1      14.922  -6.832   3.953  1.00  0.00    -0.387 OA
ATOM     27  H   UNL     1      15.664  -6.498   4.514  1.00  0.00     0.211 HD
ENDBRANCH   6  26
BRANCH   5  28
ATOM     28  O   UNL     1      16.415 -10.125   4.058  1.00  0.00    -0.385 OA
ATOM     29  H   UNL     1      16.002 -10.275   3.164  1.00  0.00     0.211 HD
ENDBRANCH   5  28
BRANCH   4  30
ATOM     30  O   UNL     1      18.012  -9.057   6.041  1.00  0.00    -0.341 OA
BRANCH  30  31
ATOM     31  C   UNL     1      18.898  -8.146   6.680  1.00  0.00     0.184 C 
ATOM     32  C   UNL     1      20.393  -8.481   6.370  1.00  0.00     0.178 C 
ATOM     33  C   UNL     1      18.539  -6.709   6.262  1.00  0.00     0.180 C 
ATOM     34  O   UNL     1      21.166  -7.330   6.045  1.00  0.00    -0.342 OA
ATOM     35  C   UNL     1      19.167  -6.347   4.909  1.00  0.00     0.201 C 
ATOM     36  C   UNL     1      20.698  -6.629   4.900  1.00  0.00     0.279 C 
BRANCH  32  37
ATOM     37  C   UNL     1      20.638  -9.680   5.415  1.00  0.00     0.191 C 
BRANCH  37  38
ATOM     38  O   UNL     1      19.845  -9.603   4.265  1.00  0.00    -0.394 OA
ATOM     39  H   UNL     1      19.275 -10.416   4.234  1.00  0.00     0.210 HD
ENDBRANCH  37  38
ENDBRANCH  32  37
BRANCH  33  40
ATOM     40  O   UNL     1      18.989  -5.798   7.235  1.00  0.00    -0.387 OA
ATOM     41  H   UNL     1      19.016  -4.907   6.805  1.00  0.00     0.211 HD
ENDBRANCH  33  40
BRANCH  35  42
ATOM     42  O   UNL     1      18.544  -7.073   3.875  1.00  0.00    -0.385 OA
ATOM     43  H   UNL     1      17.965  -6.426   3.383  1.00  0.00     0.211 HD
ENDBRANCH  35  42
BRANCH  36  44
ATOM     44  O   UNL     1      21.409  -5.424   4.793  1.00  0.00    -0.366 OA
ATOM     45  H   UNL     1      20.796  -4.753   4.393  1.00  0.00     0.213 HD
ENDBRANCH  36  44
ENDBRANCH  30  31
ENDBRANCH   4  30
TORSDOF 18
ENDMDL
MODEL 7
REMARK VINA RESULT:     0.435      1.589      3.126
REMARK INTER + INTRA:           1.357
REMARK INTER:                   3.450
REMARK INTRA:                  -2.094
REMARK UNBOUND:                 0.603
REMARK SMILES OC[C@@H]1O[C@@H](O[C@@H]2[C@@H](O)[C@H](O)[C@@H](O)O[C@@H]2CO)[C@@H](O)[C@H](O)[C@@H]1O[C@H]1O[C@H](CO)[C@H](O)[C@H](O)[C@H]1O
REMARK SMILES IDX 22 1 3 2 4 3 5 4 18 5 20 6 23 7 24 8 26 9 29 10 25 11 31 12
REMARK SMILES IDX 33 13 27 14 28 15 30 17 32 19 34 21 2 23 1 24 21 26 19 28
REMARK SMILES IDX 6 30 7 31 15 32 8 33 14 34 10 35 12 36 16 37 17 38 9 40
REMARK SMILES IDX 11 42 13 44
REMARK H PARENT 28 16 30 18 32 20 34 22 1 25 21 27 19 29 17 39 9 41 11 43
REMARK H PARENT 13 45
REMARK Flexibility Score: inf
ROOT
ATOM      1  C   UNL     1      14.141  -8.393   6.438  1.00  0.00     0.184 C 
ATOM      2  C   UNL     1      13.128  -8.436   5.244  1.00  0.00     0.178 C 
ATOM      3  O   UNL     1      11.974  -7.625   5.428  1.00  0.00    -0.341 OA
ATOM      4  C   UNL     1      11.344  -7.722   6.706  1.00  0.00     0.282 C 
ATOM      5  C   UNL     1      11.946  -8.752   7.690  1.00  0.00     0.202 C 
ATOM      6  C   UNL     1      13.464  -8.533   7.825  1.00  0.00     0.180 C 
ENDROOT
BRANCH   1   7
ATOM      7  O   UNL     1      15.213  -7.440   6.412  1.00  0.00    -0.341 OA
BRANCH   7   8
ATOM      8  C   UNL     1      16.573  -7.879   6.393  1.00  0.00     0.282 C 
ATOM      9  C   UNL     1      18.595  -8.059   5.167  1.00  0.00     0.178 C 
ATOM     10  C   UNL     1      19.481  -7.393   6.275  1.00  0.00     0.177 C 
ATOM     11  O   UNL     1      17.259  -7.569   5.190  1.00  0.00    -0.341 OA
ATOM     12  C   UNL     1      18.614  -6.597   7.266  1.00  0.00     0.179 C 
ATOM     13  C   UNL     1      17.344  -7.389   7.657  1.00  0.00     0.202 C 
BRANCH   9  14
ATOM     14  C   UNL     1      18.669  -9.611   5.140  1.00  0.00     0.191 C 
BRANCH  14  15
ATOM     15  O   UNL     1      19.768 -10.054   4.384  1.00  0.00    -0.394 OA
ATOM     16  H   UNL     1      20.539  -9.480   4.636  1.00  0.00     0.210 HD
ENDBRANCH  14  15
ENDBRANCH   9  14
BRANCH  10  17
ATOM     17  O   UNL     1      20.252  -8.356   6.965  1.00  0.00    -0.387 OA
ATOM     18  H   UNL     1      19.922  -9.252   6.688  1.00  0.00     0.211 HD
ENDBRANCH  10  17
BRANCH  12  19
ATOM     19  O   UNL     1      19.345  -6.197   8.402  1.00  0.00    -0.387 OA
ATOM     20  H   UNL     1      20.305  -6.388   8.239  1.00  0.00     0.211 HD
ENDBRANCH  12  19
BRANCH  13  21
ATOM     21  O   UNL     1      16.524  -6.604   8.489  1.00  0.00    -0.385 OA
ATOM     22  H   UNL     1      15.730  -6.347   7.953  1.00  0.00     0.211 HD
ENDBRANCH  13  21
ENDBRANCH   7   8
ENDBRANCH   1   7
BRANCH   2  23
ATOM     23  C   UNL     1      13.783  -8.177   3.877  1.00  0.00     0.191 C 
BRANCH  23  24
ATOM     24  O   UNL     1      14.583  -7.028   3.940  1.00  0.00    -0.394 OA
ATOM     25  H   UNL     1      15.401  -7.214   3.414  1.00  0.00     0.210 HD
ENDBRANCH  23  24
ENDBRANCH   2  23
BRANCH   6  26
ATOM     26  O   UNL     1      13.717  -7.413   8.626  1.00  0.00    -0.387 OA
ATOM     27  H   UNL     1      13.425  -7.637   9.543  1.00  0.00     0.211 HD
ENDBRANCH   6  26
BRANCH   5  28
ATOM     28  O   UNL     1      11.671 -10.059   7.250  1.00  0.00    -0.385 OA
ATOM     29  H   UNL     1      12.373 -10.654   7.630  1.00  0.00     0.211 HD
ENDBRANCH   5  28
BRANCH   4  30
ATOM     30  O   UNL     1       9.971  -8.012   6.514  1.00  0.00    -0.341 OA
BRANCH  30  31
ATOM     31  C   UNL     1       9.552  -7.722   5.185  1.00  0.00     0.184 C 
ATOM     32  C   UNL     1       8.736  -8.903   4.567  1.00  0.00     0.178 C 
ATOM     33  C   UNL     1       8.748  -6.410   5.179  1.00  0.00     0.180 C 
ATOM     34  O   UNL     1       7.565  -8.472   3.880  1.00  0.00    -0.342 OA
ATOM     35  C   UNL     1       7.283  -6.651   5.571  1.00  0.00     0.201 C 
ATOM     36  C   UNL     1       6.641  -7.775   4.705  1.00  0.00     0.279 C 
BRANCH  32  37
ATOM     37  C   UNL     1       8.494 -10.123   5.496  1.00  0.00     0.191 C 
BRANCH  37  38
ATOM     38  O   UNL     1       7.850  -9.758   6.682  1.00  0.00    -0.394 OA
ATOM     39  H   UNL     1       7.309 -10.534   6.985  1.00  0.00     0.210 HD
ENDBRANCH  37  38
ENDBRANCH  32  37
BRANCH  33  40
ATOM     40  O   UNL     1       8.790  -5.826   3.900  1.00  0.00    -0.387 OA
ATOM     41  H   UNL     1       9.586  -6.194   3.441  1.00  0.00     0.211 HD
ENDBRANCH  33  40
BRANCH  35  42
ATOM     42  O   UNL     1       7.196  -6.994   6.934  1.00  0.00    -0.385 OA
ATOM     43  H   UNL     1       7.833  -6.397   7.418  1.00  0.00     0.211 HD
ENDBRANCH  35  42
BRANCH  36  44
ATOM     44  O   UNL     1       5.633  -7.237   3.890  1.00  0.00    -0.366 OA
ATOM     45  H   UNL     1       5.982  -7.220   2.960  1.00  0.00     0.213 HD
ENDBRANCH  36  44
ENDBRANCH  30  31
ENDBRANCH   4  30
TORSDOF 18
ENDMDL
