MODEL 1
REMARK VINA RESULT:    -6.881      0.000      0.000
REMARK INTER + INTRA:         -11.208
REMARK INTER:                  -9.696
REMARK INTRA:                  -1.511
REMARK UNBOUND:                -1.511
REMARK SMILES COc1c(O[C@@H]2O[C@H](C(=O)[O-])[C@H](O)[C@H](O)[C@@H]2O)cc(O)c2c(=O)cc(-c3ccccc3)oc12
REMARK SMILES IDX 5 1 6 2 8 3 12 4 7 5 14 6 16 7 9 8 10 9 11 10 13 11 15 13
REMARK SMILES IDX 17 15 4 17 3 18 18 19 33 20 19 21 21 22 32 23 22 24 25 25
REMARK SMILES IDX 24 26 23 27 2 28 1 29 20 30 26 32 27 33 31 34 28 35 30 36
REMARK SMILES IDX 29 37
REMARK H PARENT 13 12 15 14 17 16 20 31
REMARK Flexibility Score: inf
ROOT
ATOM      1  O   UNL     1       7.568  -0.973   6.087  1.00  0.00    -0.458 OA
ENDROOT
BRANCH   1   2
ATOM      2  C   UNL     1       6.629  -0.668   7.122  1.00  0.00     0.339 C 
ATOM      3  C   UNL     1       5.919  -2.903   7.595  1.00  0.00     0.199 C 
ATOM      4  C   UNL     1       4.513  -2.619   7.026  1.00  0.00     0.180 C 
ATOM      5  O   UNL     1       6.546  -1.720   8.085  1.00  0.00    -0.328 OA
ATOM      6  C   UNL     1       4.539  -1.516   5.956  1.00  0.00     0.181 C 
ATOM      7  C   UNL     1       5.259  -0.287   6.525  1.00  0.00     0.214 C 
BRANCH   3   8
ATOM      8  C   UNL     1       6.800  -3.655   6.636  1.00  0.00     0.073 C 
ATOM      9  O   UNL     1       6.689  -4.900   6.507  1.00  0.00    -0.547 OA
ATOM     10  O   UNL     1       6.680  -5.039   6.489  1.00  0.00    -0.547 OA
ENDBRANCH   3   8
BRANCH   4  11
ATOM     11  O   UNL     1       3.880  -3.790   6.564  1.00  0.00    -0.387 OA
ATOM     12  H   UNL     1       4.135  -4.540   7.160  1.00  0.00     0.211 HD
ENDBRANCH   4  11
BRANCH   6  13
ATOM     13  O   UNL     1       5.191  -1.959   4.790  1.00  0.00    -0.387 OA
ATOM     14  H   UNL     1       5.907  -2.591   5.077  1.00  0.00     0.211 HD
ENDBRANCH   6  13
BRANCH   7  15
ATOM     15  O   UNL     1       5.416   0.677   5.520  1.00  0.00    -0.384 OA
ATOM     16  H   UNL     1       5.416   0.197   4.651  1.00  0.00     0.211 HD
ENDBRANCH   7  15
ENDBRANCH   1   2
BRANCH   1  17
ATOM     17  C   UNL     1       8.835  -0.384   5.946  1.00  0.00     0.172 A 
ATOM     18  C   UNL     1       9.089   0.368   4.793  1.00  0.00     0.205 A 
ATOM     19  C   UNL     1       9.837  -0.533   6.921  1.00  0.00     0.097 A 
ATOM     20  C   UNL     1      10.369   0.933   4.589  1.00  0.00     0.188 A 
ATOM     21  C   UNL     1      11.104   0.024   6.737  1.00  0.00     0.134 A 
ATOM     22  C   UNL     1      11.387   0.753   5.562  1.00  0.00     0.111 A 
ATOM     23  O   UNL     1      10.633   1.607   3.474  1.00  0.00    -0.452 OA
ATOM     24  C   UNL     1      12.656   1.305   5.295  1.00  0.00     0.197 A 
ATOM     25  C   UNL     1      11.816   2.150   3.199  1.00  0.00     0.138 A 
ATOM     26  C   UNL     1      12.868   2.006   4.109  1.00  0.00     0.100 A 
ATOM     27  O   UNL     1      13.613   1.172   6.102  1.00  0.00    -0.289 OA
BRANCH  18  28
ATOM     28  O   UNL     1       8.038   0.500   3.870  1.00  0.00    -0.490 OA
ATOM     29  C   UNL     1       7.639   1.719   3.243  1.00  0.00     0.278 C 
ENDBRANCH  18  28
BRANCH  21  30
ATOM     30  O   UNL     1      12.074  -0.153   7.725  1.00  0.00    -0.507 OA
ATOM     31  H   UNL     1      12.188  -1.037   8.208  1.00  0.00     0.293 HD
ENDBRANCH  21  30
BRANCH  25  32
ATOM     32  C   UNL     1      11.996   2.873   1.917  1.00  0.00     0.017 A 
ATOM     33  C   UNL     1      11.039   3.834   1.522  1.00  0.00     0.012 A 
ATOM     34  C   UNL     1      13.110   2.629   1.086  1.00  0.00     0.012 A 
ATOM     35  C   UNL     1      11.183   4.519   0.314  1.00  0.00     0.001 A 
ATOM     36  C   UNL     1      13.260   3.333  -0.114  1.00  0.00     0.001 A 
ATOM     37  C   UNL     1      12.294   4.273  -0.502  1.00  0.00     0.000 A 
ENDBRANCH  25  32
ENDBRANCH   1  17
TORSDOF 9
ENDMDL
MODEL 2
REMARK VINA RESULT:    -6.823      2.365      3.865
REMARK INTER + INTRA:         -11.126
REMARK INTER:                  -9.554
REMARK INTRA:                  -1.572
REMARK UNBOUND:                -1.511
REMARK SMILES COc1c(O[C@@H]2O[C@H](C(=O)[O-])[C@H](O)[C@H](O)[C@@H]2O)cc(O)c2c(=O)cc(-c3ccccc3)oc12
REMARK SMILES IDX 5 1 6 2 8 3 12 4 7 5 14 6 16 7 9 8 10 9 11 10 13 11 15 13
REMARK SMILES IDX 17 15 4 17 3 18 18 19 33 20 19 21 21 22 32 23 22 24 25 25
REMARK SMILES IDX 24 26 23 27 2 28 1 29 20 30 26 32 27 33 31 34 28 35 30 36
REMARK SMILES IDX 29 37
REMARK H PARENT 13 12 15 14 17 16 20 31
REMARK Flexibility Score: inf
ROOT
ATOM      1  O   UNL     1       6.485   2.055   5.455  1.00  0.00    -0.458 OA
ENDROOT
BRANCH   1   2
ATOM      2  C   UNL     1       6.357   1.827   6.860  1.00  0.00     0.339 C 
ATOM      3  C   UNL     1       5.377  -0.353   6.755  1.00  0.00     0.199 C 
ATOM      4  C   UNL     1       4.035   0.180   7.302  1.00  0.00     0.180 C 
ATOM      5  O   UNL     1       6.480   0.441   7.183  1.00  0.00    -0.328 OA
ATOM      6  C   UNL     1       3.824   1.663   6.957  1.00  0.00     0.181 C 
ATOM      7  C   UNL     1       5.058   2.458   7.403  1.00  0.00     0.214 C 
BRANCH   3   8
ATOM      8  C   UNL     1       5.367  -0.553   5.265  1.00  0.00     0.073 C 
ATOM      9  O   UNL     1       4.983  -1.641   4.767  1.00  0.00    -0.547 OA
ATOM     10  O   UNL     1       4.941  -1.761   4.708  1.00  0.00    -0.547 OA
ENDBRANCH   3   8
BRANCH   4  11
ATOM     11  O   UNL     1       2.944  -0.616   6.901  1.00  0.00    -0.387 OA
ATOM     12  H   UNL     1       2.794  -0.476   5.931  1.00  0.00     0.211 HD
ENDBRANCH   4  11
BRANCH   6  13
ATOM     13  O   UNL     1       3.614   1.836   5.576  1.00  0.00    -0.387 OA
ATOM     14  H   UNL     1       3.624   0.928   5.163  1.00  0.00     0.211 HD
ENDBRANCH   6  13
BRANCH   7  15
ATOM     15  O   UNL     1       4.945   3.787   6.973  1.00  0.00    -0.384 OA
ATOM     16  H   UNL     1       4.308   3.796   6.211  1.00  0.00     0.211 HD
ENDBRANCH   7  15
ENDBRANCH   1   2
BRANCH   1  17
ATOM     17  C   UNL     1       7.575   2.686   4.835  1.00  0.00     0.172 A 
ATOM     18  C   UNL     1       8.607   1.882   4.336  1.00  0.00     0.205 A 
ATOM     19  C   UNL     1       7.652   4.084   4.709  1.00  0.00     0.097 A 
ATOM     20  C   UNL     1       9.746   2.481   3.751  1.00  0.00     0.188 A 
ATOM     21  C   UNL     1       8.767   4.691   4.129  1.00  0.00     0.134 A 
ATOM     22  C   UNL     1       9.833   3.895   3.655  1.00  0.00     0.111 A 
ATOM     23  O   UNL     1      10.752   1.727   3.319  1.00  0.00    -0.452 OA
ATOM     24  C   UNL     1      11.005   4.445   3.097  1.00  0.00     0.197 A 
ATOM     25  C   UNL     1      11.864   2.215   2.777  1.00  0.00     0.138 A 
ATOM     26  C   UNL     1      12.022   3.600   2.657  1.00  0.00     0.100 A 
ATOM     27  O   UNL     1      11.161   5.690   2.994  1.00  0.00    -0.289 OA
BRANCH  18  28
ATOM     28  O   UNL     1       8.457   0.492   4.470  1.00  0.00    -0.490 OA
ATOM     29  C   UNL     1       9.159  -0.327   5.404  1.00  0.00     0.278 C 
ENDBRANCH  18  28
BRANCH  21  30
ATOM     30  O   UNL     1       8.809   6.082   4.029  1.00  0.00    -0.507 OA
ATOM     31  H   UNL     1       8.270   6.678   4.648  1.00  0.00     0.293 HD
ENDBRANCH  21  30
BRANCH  25  32
ATOM     32  C   UNL     1      12.924   1.276   2.338  1.00  0.00     0.017 A 
ATOM     33  C   UNL     1      13.285   0.196   3.174  1.00  0.00     0.012 A 
ATOM     34  C   UNL     1      13.574   1.431   1.095  1.00  0.00     0.012 A 
ATOM     35  C   UNL     1      14.288  -0.694   2.785  1.00  0.00     0.001 A 
ATOM     36  C   UNL     1      14.565   0.524   0.701  1.00  0.00     0.001 A 
ATOM     37  C   UNL     1      14.924  -0.533   1.548  1.00  0.00     0.000 A 
ENDBRANCH  25  32
ENDBRANCH   1  17
TORSDOF 9
ENDMDL
MODEL 3
REMARK VINA RESULT:    -6.493      3.461      8.391
REMARK INTER + INTRA:         -10.661
REMARK INTER:                  -9.225
REMARK INTRA:                  -1.436
REMARK UNBOUND:                -1.511
REMARK SMILES COc1c(O[C@@H]2O[C@H](C(=O)[O-])[C@H](O)[C@H](O)[C@@H]2O)cc(O)c2c(=O)cc(-c3ccccc3)oc12
REMARK SMILES IDX 5 1 6 2 8 3 12 4 7 5 14 6 16 7 9 8 10 9 11 10 13 11 15 13
REMARK SMILES IDX 17 15 4 17 3 18 18 19 33 20 19 21 21 22 32 23 22 24 25 25
REMARK SMILES IDX 24 26 23 27 2 28 1 29 20 30 26 32 27 33 31 34 28 35 30 36
REMARK SMILES IDX 29 37
REMARK H PARENT 13 12 15 14 17 16 20 31
REMARK Flexibility Score: inf
ROOT
ATOM      1  O   UNL     1       6.856   0.250   6.184  1.00  0.00    -0.458 OA
ENDROOT
BRANCH   1   2
ATOM      2  C   UNL     1       7.551   1.487   6.365  1.00  0.00     0.339 C 
ATOM      3  C   UNL     1       5.670   2.954   6.187  1.00  0.00     0.199 C 
ATOM      4  C   UNL     1       6.189   3.521   4.847  1.00  0.00     0.180 C 
ATOM      5  O   UNL     1       6.730   2.464   7.005  1.00  0.00    -0.328 OA
ATOM      6  C   UNL     1       7.055   2.501   4.090  1.00  0.00     0.181 C 
ATOM      7  C   UNL     1       8.149   1.981   5.032  1.00  0.00     0.214 C 
BRANCH   3   8
ATOM      8  C   UNL     1       4.575   1.939   6.010  1.00  0.00     0.073 C 
ATOM      9  O   UNL     1       3.385   2.305   5.842  1.00  0.00    -0.547 OA
ATOM     10  O   UNL     1       3.250   2.341   5.823  1.00  0.00    -0.547 OA
ENDBRANCH   3   8
BRANCH   4  11
ATOM     11  O   UNL     1       5.148   4.029   4.046  1.00  0.00    -0.387 OA
ATOM     12  H   UNL     1       4.433   3.342   3.990  1.00  0.00     0.211 HD
ENDBRANCH   4  11
BRANCH   6  13
ATOM     13  O   UNL     1       6.276   1.429   3.618  1.00  0.00    -0.387 OA
ATOM     14  H   UNL     1       5.338   1.759   3.541  1.00  0.00     0.211 HD
ENDBRANCH   6  13
BRANCH   7  15
ATOM     15  O   UNL     1       8.861   0.950   4.404  1.00  0.00    -0.384 OA
ATOM     16  H   UNL     1       9.772   0.939   4.800  1.00  0.00     0.211 HD
ENDBRANCH   7  15
ENDBRANCH   1   2
BRANCH   1  17
ATOM     17  C   UNL     1       7.363  -1.018   6.512  1.00  0.00     0.172 A 
ATOM     18  C   UNL     1       6.534  -2.129   6.322  1.00  0.00     0.205 A 
ATOM     19  C   UNL     1       8.662  -1.189   7.021  1.00  0.00     0.097 A 
ATOM     20  C   UNL     1       6.989  -3.417   6.689  1.00  0.00     0.188 A 
ATOM     21  C   UNL     1       9.128  -2.455   7.383  1.00  0.00     0.134 A 
ATOM     22  C   UNL     1       8.290  -3.581   7.232  1.00  0.00     0.111 A 
ATOM     23  O   UNL     1       6.190  -4.472   6.557  1.00  0.00    -0.452 OA
ATOM     24  C   UNL     1       8.682  -4.880   7.616  1.00  0.00     0.197 A 
ATOM     25  C   UNL     1       6.536  -5.710   6.899  1.00  0.00     0.138 A 
ATOM     26  C   UNL     1       7.801  -5.946   7.448  1.00  0.00     0.100 A 
ATOM     27  O   UNL     1       9.815  -5.101   8.121  1.00  0.00    -0.289 OA
BRANCH  18  28
ATOM     28  O   UNL     1       5.258  -1.893   5.786  1.00  0.00    -0.490 OA
ATOM     29  C   UNL     1       4.049  -1.803   6.540  1.00  0.00     0.278 C 
ENDBRANCH  18  28
BRANCH  21  30
ATOM     30  O   UNL     1      10.421  -2.584   7.892  1.00  0.00    -0.507 OA
ATOM     31  H   UNL     1      10.979  -1.775   8.143  1.00  0.00     0.293 HD
ENDBRANCH  21  30
BRANCH  25  32
ATOM     32  C   UNL     1       5.557  -6.808   6.713  1.00  0.00     0.017 A 
ATOM     33  C   UNL     1       5.935  -7.959   5.987  1.00  0.00     0.012 A 
ATOM     34  C   UNL     1       4.257  -6.732   7.256  1.00  0.00     0.012 A 
ATOM     35  C   UNL     1       5.025  -9.000   5.790  1.00  0.00     0.001 A 
ATOM     36  C   UNL     1       3.356  -7.788   7.073  1.00  0.00     0.001 A 
ATOM     37  C   UNL     1       3.739  -8.918   6.336  1.00  0.00     0.000 A 
ENDBRANCH  25  32
ENDBRANCH   1  17
TORSDOF 9
ENDMDL
MODEL 4
REMARK VINA RESULT:    -6.465      1.691      2.112
REMARK INTER + INTRA:         -10.622
REMARK INTER:                  -8.860
REMARK INTRA:                  -1.762
REMARK UNBOUND:                -1.511
REMARK SMILES COc1c(O[C@@H]2O[C@H](C(=O)[O-])[C@H](O)[C@H](O)[C@@H]2O)cc(O)c2c(=O)cc(-c3ccccc3)oc12
REMARK SMILES IDX 5 1 6 2 8 3 12 4 7 5 14 6 16 7 9 8 10 9 11 10 13 11 15 13
REMARK SMILES IDX 17 15 4 17 3 18 18 19 33 20 19 21 21 22 32 23 22 24 25 25
REMARK SMILES IDX 24 26 23 27 2 28 1 29 20 30 26 32 27 33 31 34 28 35 30 36
REMARK SMILES IDX 29 37
REMARK H PARENT 13 12 15 14 17 16 20 31
REMARK Flexibility Score: inf
ROOT
ATOM      1  O   UNL     1       8.196   0.130   5.885  1.00  0.00    -0.458 OA
ENDROOT
BRANCH   1   2
ATOM      2  C   UNL     1       7.647   0.243   7.200  1.00  0.00     0.339 C 
ATOM      3  C   UNL     1       5.767  -1.206   6.901  1.00  0.00     0.199 C 
ATOM      4  C   UNL     1       4.785  -0.020   7.011  1.00  0.00     0.180 C 
ATOM      5  O   UNL     1       6.984  -0.957   7.600  1.00  0.00    -0.328 OA
ATOM      6  C   UNL     1       5.429   1.302   6.561  1.00  0.00     0.181 C 
ATOM      7  C   UNL     1       6.750   1.493   7.315  1.00  0.00     0.214 C 
BRANCH   3   8
ATOM      8  C   UNL     1       6.008  -1.640   5.482  1.00  0.00     0.073 C 
ATOM      9  O   UNL     1       5.059  -1.694   4.660  1.00  0.00    -0.547 OA
ATOM     10  O   UNL     1       4.956  -1.701   4.564  1.00  0.00    -0.547 OA
ENDBRANCH   3   8
BRANCH   4  11
ATOM     11  O   UNL     1       3.571  -0.272   6.343  1.00  0.00    -0.387 OA
ATOM     12  H   UNL     1       2.824  -0.019   6.945  1.00  0.00     0.211 HD
ENDBRANCH   4  11
BRANCH   6  13
ATOM     13  O   UNL     1       5.661   1.302   5.173  1.00  0.00    -0.387 OA
ATOM     14  H   UNL     1       5.529   2.238   4.854  1.00  0.00     0.211 HD
ENDBRANCH   6  13
BRANCH   7  15
ATOM     15  O   UNL     1       7.419   2.620   6.818  1.00  0.00    -0.384 OA
ATOM     16  H   UNL     1       8.230   2.297   6.346  1.00  0.00     0.211 HD
ENDBRANCH   7  15
ENDBRANCH   1   2
BRANCH   1  17
ATOM     17  C   UNL     1       9.492   0.523   5.513  1.00  0.00     0.172 A 
ATOM     18  C   UNL     1       9.626   1.513   4.533  1.00  0.00     0.205 A 
ATOM     19  C   UNL     1      10.637  -0.050   6.094  1.00  0.00     0.097 A 
ATOM     20  C   UNL     1      10.914   1.899   4.095  1.00  0.00     0.188 A 
ATOM     21  C   UNL     1      11.916   0.325   5.676  1.00  0.00     0.134 A 
ATOM     22  C   UNL     1      12.067   1.295   4.661  1.00  0.00     0.111 A 
ATOM     23  O   UNL     1      11.050   2.803   3.129  1.00  0.00    -0.452 OA
ATOM     24  C   UNL     1      13.326   1.688   4.164  1.00  0.00     0.197 A 
ATOM     25  C   UNL     1      12.223   3.203   2.648  1.00  0.00     0.138 A 
ATOM     26  C   UNL     1      13.402   2.645   3.155  1.00  0.00     0.100 A 
ATOM     27  O   UNL     1      14.392   1.184   4.606  1.00  0.00    -0.289 OA
BRANCH  18  28
ATOM     28  O   UNL     1       8.444   2.063   4.012  1.00  0.00    -0.490 OA
ATOM     29  C   UNL     1       7.793   1.637   2.815  1.00  0.00     0.278 C 
ENDBRANCH  18  28
BRANCH  21  30
ATOM     30  O   UNL     1      13.028  -0.273   6.271  1.00  0.00    -0.507 OA
ATOM     31  H   UNL     1      13.197  -0.210   7.269  1.00  0.00     0.293 HD
ENDBRANCH  21  30
BRANCH  25  32
ATOM     32  C   UNL     1      12.250   4.214   1.564  1.00  0.00     0.017 A 
ATOM     33  C   UNL     1      11.058   4.524   0.873  1.00  0.00     0.012 A 
ATOM     34  C   UNL     1      13.443   4.882   1.213  1.00  0.00     0.012 A 
ATOM     35  C   UNL     1      11.063   5.464  -0.159  1.00  0.00     0.001 A 
ATOM     36  C   UNL     1      13.438   5.839   0.191  1.00  0.00     0.001 A 
ATOM     37  C   UNL     1      12.250   6.125  -0.497  1.00  0.00     0.000 A 
ENDBRANCH  25  32
ENDBRANCH   1  17
TORSDOF 9
ENDMDL
MODEL 5
REMARK VINA RESULT:    -6.387      2.851      8.609
REMARK INTER + INTRA:         -10.512
REMARK INTER:                  -9.216
REMARK INTRA:                  -1.295
REMARK UNBOUND:                -1.511
REMARK SMILES COc1c(O[C@@H]2O[C@H](C(=O)[O-])[C@H](O)[C@H](O)[C@@H]2O)cc(O)c2c(=O)cc(-c3ccccc3)oc12
REMARK SMILES IDX 5 1 6 2 8 3 12 4 7 5 14 6 16 7 9 8 10 9 11 10 13 11 15 13
REMARK SMILES IDX 17 15 4 17 3 18 18 19 33 20 19 21 21 22 32 23 22 24 25 25
REMARK SMILES IDX 24 26 23 27 2 28 1 29 20 30 26 32 27 33 31 34 28 35 30 36
REMARK SMILES IDX 29 37
REMARK H PARENT 13 12 15 14 17 16 20 31
REMARK Flexibility Score: inf
ROOT
ATOM      1  O   UNL     1      11.856   1.585   3.516  1.00  0.00    -0.458 OA
ENDROOT
BRANCH   1   2
ATOM      2  C   UNL     1      13.188   1.998   3.829  1.00  0.00     0.339 C 
ATOM      3  C   UNL     1      13.834   2.724   1.643  1.00  0.00     0.199 C 
ATOM      4  C   UNL     1      14.840   1.560   1.510  1.00  0.00     0.180 C 
ATOM      5  O   UNL     1      13.612   3.084   3.004  1.00  0.00    -0.328 OA
ATOM      6  C   UNL     1      14.421   0.342   2.350  1.00  0.00     0.181 C 
ATOM      7  C   UNL     1      14.157   0.799   3.791  1.00  0.00     0.214 C 
BRANCH   3   8
ATOM      8  C   UNL     1      12.548   2.476   0.905  1.00  0.00     0.073 C 
ATOM      9  O   UNL     1      12.559   2.009  -0.261  1.00  0.00    -0.547 OA
ATOM     10  O   UNL     1      12.555   1.957  -0.392  1.00  0.00    -0.547 OA
ENDBRANCH   3   8
BRANCH   4  11
ATOM     11  O   UNL     1      15.081   1.216   0.166  1.00  0.00    -0.387 OA
ATOM     12  H   UNL     1      16.058   1.273  -0.001  1.00  0.00     0.211 HD
ENDBRANCH   4  11
BRANCH   6  13
ATOM     13  O   UNL     1      13.269  -0.266   1.819  1.00  0.00    -0.387 OA
ATOM     14  H   UNL     1      13.552  -1.140   1.431  1.00  0.00     0.211 HD
ENDBRANCH   6  13
BRANCH   7  15
ATOM     15  O   UNL     1      13.642  -0.269   4.538  1.00  0.00    -0.384 OA
ATOM     16  H   UNL     1      12.665  -0.307   4.362  1.00  0.00     0.211 HD
ENDBRANCH   7  15
ENDBRANCH   1   2
BRANCH   1  17
ATOM     17  C   UNL     1      10.693   2.314   3.814  1.00  0.00     0.172 A 
ATOM     18  C   UNL     1       9.628   1.638   4.423  1.00  0.00     0.205 A 
ATOM     19  C   UNL     1      10.577   3.683   3.517  1.00  0.00     0.097 A 
ATOM     20  C   UNL     1       8.422   2.323   4.692  1.00  0.00     0.188 A 
ATOM     21  C   UNL     1       9.393   4.375   3.782  1.00  0.00     0.134 A 
ATOM     22  C   UNL     1       8.298   3.698   4.361  1.00  0.00     0.111 A 
ATOM     23  O   UNL     1       7.389   1.677   5.224  1.00  0.00    -0.452 OA
ATOM     24  C   UNL     1       7.062   4.327   4.615  1.00  0.00     0.197 A 
ATOM     25  C   UNL     1       6.215   2.245   5.487  1.00  0.00     0.138 A 
ATOM     26  C   UNL     1       6.019   3.596   5.181  1.00  0.00     0.100 A 
ATOM     27  O   UNL     1       6.872   5.539   4.333  1.00  0.00    -0.289 OA
BRANCH  18  28
ATOM     28  O   UNL     1       9.818   0.278   4.717  1.00  0.00    -0.490 OA
ATOM     29  C   UNL     1      10.149  -0.251   6.001  1.00  0.00     0.278 C 
ENDBRANCH  18  28
BRANCH  21  30
ATOM     30  O   UNL     1       9.315   5.732   3.465  1.00  0.00    -0.507 OA
ATOM     31  H   UNL     1       8.780   6.382   4.030  1.00  0.00     0.293 HD
ENDBRANCH  21  30
BRANCH  25  32
ATOM     32  C   UNL     1       5.132   1.421   6.076  1.00  0.00     0.017 A 
ATOM     33  C   UNL     1       3.891   2.022   6.380  1.00  0.00     0.012 A 
ATOM     34  C   UNL     1       5.312   0.045   6.331  1.00  0.00     0.012 A 
ATOM     35  C   UNL     1       2.860   1.267   6.946  1.00  0.00     0.001 A 
ATOM     36  C   UNL     1       4.270  -0.711   6.880  1.00  0.00     0.001 A 
ATOM     37  C   UNL     1       3.048  -0.098   7.191  1.00  0.00     0.000 A 
ENDBRANCH  25  32
ENDBRANCH   1  17
TORSDOF 9
ENDMDL
MODEL 6
REMARK VINA RESULT:    -6.360      3.166      9.261
REMARK INTER + INTRA:         -10.475
REMARK INTER:                  -8.821
REMARK INTRA:                  -1.653
REMARK UNBOUND:                -1.511
REMARK SMILES COc1c(O[C@@H]2O[C@H](C(=O)[O-])[C@H](O)[C@H](O)[C@@H]2O)cc(O)c2c(=O)cc(-c3ccccc3)oc12
REMARK SMILES IDX 5 1 6 2 8 3 12 4 7 5 14 6 16 7 9 8 10 9 11 10 13 11 15 13
REMARK SMILES IDX 17 15 4 17 3 18 18 19 33 20 19 21 21 22 32 23 22 24 25 25
REMARK SMILES IDX 24 26 23 27 2 28 1 29 20 30 26 32 27 33 31 34 28 35 30 36
REMARK SMILES IDX 29 37
REMARK H PARENT 13 12 15 14 17 16 20 31
REMARK Flexibility Score: inf
ROOT
ATOM      1  O   UNL     1       6.808   0.294   6.062  1.00  0.00    -0.458 OA
ENDROOT
BRANCH   1   2
ATOM      2  C   UNL     1       6.932   1.621   6.580  1.00  0.00     0.339 C 
ATOM      3  C   UNL     1       7.353   2.747   4.511  1.00  0.00     0.199 C 
ATOM      4  C   UNL     1       8.804   3.063   4.933  1.00  0.00     0.180 C 
ATOM      5  O   UNL     1       6.491   2.598   5.637  1.00  0.00    -0.328 OA
ATOM      6  C   UNL     1       9.353   2.024   5.925  1.00  0.00     0.181 C 
ATOM      7  C   UNL     1       8.365   1.879   7.089  1.00  0.00     0.214 C 
BRANCH   3   8
ATOM      8  C   UNL     1       7.256   1.581   3.566  1.00  0.00     0.073 C 
ATOM      9  O   UNL     1       8.024   1.496   2.575  1.00  0.00    -0.547 OA
ATOM     10  O   UNL     1       8.108   1.483   2.463  1.00  0.00    -0.547 OA
ENDBRANCH   3   8
BRANCH   4  11
ATOM     11  O   UNL     1       9.655   3.235   3.823  1.00  0.00    -0.387 OA
ATOM     12  H   UNL     1       9.401   2.573   3.129  1.00  0.00     0.211 HD
ENDBRANCH   4  11
BRANCH   6  13
ATOM     13  O   UNL     1       9.544   0.780   5.297  1.00  0.00    -0.387 OA
ATOM     14  H   UNL     1       9.054   0.100   5.838  1.00  0.00     0.211 HD
ENDBRANCH   6  13
BRANCH   7  15
ATOM     15  O   UNL     1       8.778   0.838   7.932  1.00  0.00    -0.384 OA
ATOM     16  H   UNL     1       8.169   0.071   7.772  1.00  0.00     0.211 HD
ENDBRANCH   7  15
ENDBRANCH   1   2
BRANCH   1  17
ATOM     17  C   UNL     1       5.798  -0.618   6.408  1.00  0.00     0.172 A 
ATOM     18  C   UNL     1       6.143  -1.969   6.536  1.00  0.00     0.205 A 
ATOM     19  C   UNL     1       4.470  -0.209   6.623  1.00  0.00     0.097 A 
ATOM     20  C   UNL     1       5.144  -2.925   6.832  1.00  0.00     0.188 A 
ATOM     21  C   UNL     1       3.474  -1.141   6.921  1.00  0.00     0.134 A 
ATOM     22  C   UNL     1       3.799  -2.511   7.017  1.00  0.00     0.111 A 
ATOM     23  O   UNL     1       5.455  -4.215   6.907  1.00  0.00    -0.452 OA
ATOM     24  C   UNL     1       2.835  -3.507   7.274  1.00  0.00     0.197 A 
ATOM     25  C   UNL     1       4.571  -5.177   7.160  1.00  0.00     0.138 A 
ATOM     26  C   UNL     1       3.225  -4.843   7.346  1.00  0.00     0.100 A 
ATOM     27  O   UNL     1       1.619  -3.219   7.432  1.00  0.00    -0.289 OA
BRANCH  18  28
ATOM     28  O   UNL     1       7.490  -2.307   6.334  1.00  0.00    -0.490 OA
ATOM     29  C   UNL     1       8.429  -2.610   7.367  1.00  0.00     0.278 C 
ENDBRANCH  18  28
BRANCH  21  30
ATOM     30  O   UNL     1       2.165  -0.697   7.120  1.00  0.00    -0.507 OA
ATOM     31  H   UNL     1       1.893  -0.196   7.958  1.00  0.00     0.293 HD
ENDBRANCH  21  30
BRANCH  25  32
ATOM     32  C   UNL     1       5.032  -6.584   7.212  1.00  0.00     0.017 A 
ATOM     33  C   UNL     1       4.128  -7.598   7.598  1.00  0.00     0.012 A 
ATOM     34  C   UNL     1       6.357  -6.936   6.875  1.00  0.00     0.012 A 
ATOM     35  C   UNL     1       4.544  -8.929   7.665  1.00  0.00     0.001 A 
ATOM     36  C   UNL     1       6.763  -8.274   6.925  1.00  0.00     0.001 A 
ATOM     37  C   UNL     1       5.859  -9.268   7.324  1.00  0.00     0.000 A 
ENDBRANCH  25  32
ENDBRANCH   1  17
TORSDOF 9
ENDMDL
MODEL 7
REMARK VINA RESULT:    -6.334      2.792      9.152
REMARK INTER + INTRA:         -10.437
REMARK INTER:                  -8.924
REMARK INTRA:                  -1.513
REMARK UNBOUND:                -1.511
REMARK SMILES COc1c(O[C@@H]2O[C@H](C(=O)[O-])[C@H](O)[C@H](O)[C@@H]2O)cc(O)c2c(=O)cc(-c3ccccc3)oc12
REMARK SMILES IDX 5 1 6 2 8 3 12 4 7 5 14 6 16 7 9 8 10 9 11 10 13 11 15 13
REMARK SMILES IDX 17 15 4 17 3 18 18 19 33 20 19 21 21 22 32 23 22 24 25 25
REMARK SMILES IDX 24 26 23 27 2 28 1 29 20 30 26 32 27 33 31 34 28 35 30 36
REMARK SMILES IDX 29 37
REMARK H PARENT 13 12 15 14 17 16 20 31
REMARK Flexibility Score: inf
ROOT
ATOM      1  O   UNL     1       6.512   0.815   5.668  1.00  0.00    -0.458 OA
ENDROOT
BRANCH   1   2
ATOM      2  C   UNL     1       6.457   1.517   4.424  1.00  0.00     0.339 C 
ATOM      3  C   UNL     1       8.762   1.301   3.819  1.00  0.00     0.199 C 
ATOM      4  C   UNL     1       8.994   2.816   4.005  1.00  0.00     0.180 C 
ATOM      5  O   UNL     1       7.407   1.006   3.488  1.00  0.00    -0.328 OA
ATOM      6  C   UNL     1       8.022   3.423   5.030  1.00  0.00     0.181 C 
ATOM      7  C   UNL     1       6.588   3.038   4.645  1.00  0.00     0.214 C 
BRANCH   3   8
ATOM      8  C   UNL     1       9.252   0.485   4.982  1.00  0.00     0.073 C 
ATOM      9  O   UNL     1      10.456   0.134   5.056  1.00  0.00    -0.547 OA
ATOM     10  O   UNL     1      10.590   0.092   5.068  1.00  0.00    -0.547 OA
ENDBRANCH   3   8
BRANCH   4  11
ATOM     11  O   UNL     1      10.337   3.115   4.308  1.00  0.00    -0.387 OA
ATOM     12  H   UNL     1      10.751   3.536   3.511  1.00  0.00     0.211 HD
ENDBRANCH   4  11
BRANCH   6  13
ATOM     13  O   UNL     1       8.310   2.969   6.330  1.00  0.00    -0.387 OA
ATOM     14  H   UNL     1       9.182   2.486   6.285  1.00  0.00     0.211 HD
ENDBRANCH   6  13
BRANCH   7  15
ATOM     15  O   UNL     1       5.700   3.464   5.642  1.00  0.00    -0.384 OA
ATOM     16  H   UNL     1       6.120   3.257   6.518  1.00  0.00     0.211 HD
ENDBRANCH   7  15
ENDBRANCH   1   2
BRANCH   1  17
ATOM     17  C   UNL     1       5.499  -0.016   6.173  1.00  0.00     0.172 A 
ATOM     18  C   UNL     1       5.757  -1.389   6.264  1.00  0.00     0.205 A 
ATOM     19  C   UNL     1       4.253   0.492   6.578  1.00  0.00     0.097 A 
ATOM     20  C   UNL     1       4.745  -2.266   6.718  1.00  0.00     0.188 A 
ATOM     21  C   UNL     1       3.246  -0.361   7.033  1.00  0.00     0.134 A 
ATOM     22  C   UNL     1       3.478  -1.751   7.096  1.00  0.00     0.111 A 
ATOM     23  O   UNL     1       4.966  -3.577   6.762  1.00  0.00    -0.452 OA
ATOM     24  C   UNL     1       2.491  -2.671   7.506  1.00  0.00     0.197 A 
ATOM     25  C   UNL     1       4.060  -4.468   7.156  1.00  0.00     0.138 A 
ATOM     26  C   UNL     1       2.785  -4.033   7.536  1.00  0.00     0.100 A 
ATOM     27  O   UNL     1       1.338  -2.291   7.840  1.00  0.00    -0.289 OA
BRANCH  18  28
ATOM     28  O   UNL     1       7.030  -1.830   5.868  1.00  0.00    -0.490 OA
ATOM     29  C   UNL     1       8.075  -2.236   6.752  1.00  0.00     0.278 C 
ENDBRANCH  18  28
BRANCH  21  30
ATOM     30  O   UNL     1       2.019   0.182   7.419  1.00  0.00    -0.507 OA
ATOM     31  H   UNL     1       1.235   0.239   6.778  1.00  0.00     0.293 HD
ENDBRANCH  21  30
BRANCH  25  32
ATOM     32  C   UNL     1       4.417  -5.906   7.156  1.00  0.00     0.017 A 
ATOM     33  C   UNL     1       3.392  -6.876   7.105  1.00  0.00     0.012 A 
ATOM     34  C   UNL     1       5.763  -6.329   7.195  1.00  0.00     0.012 A 
ATOM     35  C   UNL     1       3.705  -8.237   7.116  1.00  0.00     0.001 A 
ATOM     36  C   UNL     1       6.072  -7.694   7.185  1.00  0.00     0.001 A 
ATOM     37  C   UNL     1       5.043  -8.646   7.151  1.00  0.00     0.000 A 
ENDBRANCH  25  32
ENDBRANCH   1  17
TORSDOF 9
ENDMDL
MODEL 8
REMARK VINA RESULT:    -6.325      1.918      3.284
REMARK INTER + INTRA:         -10.425
REMARK INTER:                  -9.059
REMARK INTRA:                  -1.366
REMARK UNBOUND:                -1.511
REMARK SMILES COc1c(O[C@@H]2O[C@H](C(=O)[O-])[C@H](O)[C@H](O)[C@@H]2O)cc(O)c2c(=O)cc(-c3ccccc3)oc12
REMARK SMILES IDX 5 1 6 2 8 3 12 4 7 5 14 6 16 7 9 8 10 9 11 10 13 11 15 13
REMARK SMILES IDX 17 15 4 17 3 18 18 19 33 20 19 21 21 22 32 23 22 24 25 25
REMARK SMILES IDX 24 26 23 27 2 28 1 29 20 30 26 32 27 33 31 34 28 35 30 36
REMARK SMILES IDX 29 37
REMARK H PARENT 13 12 15 14 17 16 20 31
REMARK Flexibility Score: inf
ROOT
ATOM      1  O   UNL     1       6.145   0.502   5.872  1.00  0.00    -0.458 OA
ENDROOT
BRANCH   1   2
ATOM      2  C   UNL     1       5.555   0.637   7.167  1.00  0.00     0.339 C 
ATOM      3  C   UNL     1       5.875  -1.612   7.916  1.00  0.00     0.199 C 
ATOM      4  C   UNL     1       4.355  -1.882   7.883  1.00  0.00     0.180 C 
ATOM      5  O   UNL     1       6.167  -0.231   8.120  1.00  0.00    -0.328 OA
ATOM      6  C   UNL     1       3.638  -0.998   6.849  1.00  0.00     0.181 C 
ATOM      7  C   UNL     1       4.024   0.466   7.093  1.00  0.00     0.214 C 
BRANCH   3   8
ATOM      8  C   UNL     1       6.597  -2.174   6.723  1.00  0.00     0.073 C 
ATOM      9  O   UNL     1       6.378  -3.349   6.338  1.00  0.00    -0.547 OA
ATOM     10  O   UNL     1       6.357  -3.481   6.291  1.00  0.00    -0.547 OA
ENDBRANCH   3   8
BRANCH   4  11
ATOM     11  O   UNL     1       4.061  -3.248   7.707  1.00  0.00    -0.387 OA
ATOM     12  H   UNL     1       4.881  -3.705   7.385  1.00  0.00     0.211 HD
ENDBRANCH   4  11
BRANCH   6  13
ATOM     13  O   UNL     1       3.984  -1.375   5.538  1.00  0.00    -0.387 OA
ATOM     14  H   UNL     1       4.969  -1.530   5.527  1.00  0.00     0.211 HD
ENDBRANCH   6  13
BRANCH   7  15
ATOM     15  O   UNL     1       3.491   1.270   6.076  1.00  0.00    -0.384 OA
ATOM     16  H   UNL     1       2.598   0.902   5.847  1.00  0.00     0.211 HD
ENDBRANCH   7  15
ENDBRANCH   1   2
BRANCH   1  17
ATOM     17  C   UNL     1       6.945   1.469   5.242  1.00  0.00     0.172 A 
ATOM     18  C   UNL     1       8.198   1.076   4.759  1.00  0.00     0.205 A 
ATOM     19  C   UNL     1       6.520   2.801   5.093  1.00  0.00     0.097 A 
ATOM     20  C   UNL     1       9.054   2.032   4.165  1.00  0.00     0.188 A 
ATOM     21  C   UNL     1       7.352   3.755   4.504  1.00  0.00     0.134 A 
ATOM     22  C   UNL     1       8.634   3.383   4.045  1.00  0.00     0.111 A 
ATOM     23  O   UNL     1      10.266   1.678   3.747  1.00  0.00    -0.452 OA
ATOM     24  C   UNL     1       9.539   4.305   3.480  1.00  0.00     0.197 A 
ATOM     25  C   UNL     1      11.136   2.521   3.199  1.00  0.00     0.138 A 
ATOM     26  C   UNL     1      10.793   3.870   3.056  1.00  0.00     0.100 A 
ATOM     27  O   UNL     1       9.243   5.523   3.356  1.00  0.00    -0.289 OA
BRANCH  18  28
ATOM     28  O   UNL     1       8.551  -0.273   4.916  1.00  0.00    -0.490 OA
ATOM     29  C   UNL     1       9.420  -0.788   5.925  1.00  0.00     0.278 C 
ENDBRANCH  18  28
BRANCH  21  30
ATOM     30  O   UNL     1       6.898   5.070   4.381  1.00  0.00    -0.507 OA
ATOM     31  H   UNL     1       6.639   5.463   3.484  1.00  0.00     0.293 HD
ENDBRANCH  21  30
BRANCH  25  32
ATOM     32  C   UNL     1      12.464   2.013   2.777  1.00  0.00     0.017 A 
ATOM     33  C   UNL     1      13.232   2.759   1.856  1.00  0.00     0.012 A 
ATOM     34  C   UNL     1      12.982   0.803   3.285  1.00  0.00     0.012 A 
ATOM     35  C   UNL     1      14.479   2.293   1.435  1.00  0.00     0.001 A 
ATOM     36  C   UNL     1      14.242   0.351   2.876  1.00  0.00     0.001 A 
ATOM     37  C   UNL     1      14.986   1.093   1.948  1.00  0.00     0.000 A 
ENDBRANCH  25  32
ENDBRANCH   1  17
TORSDOF 9
ENDMDL
MODEL 9
REMARK VINA RESULT:    -6.318      2.305      8.678
REMARK INTER + INTRA:         -10.414
REMARK INTER:                  -9.075
REMARK INTRA:                  -1.339
REMARK UNBOUND:                -1.511
REMARK SMILES COc1c(O[C@@H]2O[C@H](C(=O)[O-])[C@H](O)[C@H](O)[C@@H]2O)cc(O)c2c(=O)cc(-c3ccccc3)oc12
REMARK SMILES IDX 5 1 6 2 8 3 12 4 7 5 14 6 16 7 9 8 10 9 11 10 13 11 15 13
REMARK SMILES IDX 17 15 4 17 3 18 18 19 33 20 19 21 21 22 32 23 22 24 25 25
REMARK SMILES IDX 24 26 23 27 2 28 1 29 20 30 26 32 27 33 31 34 28 35 30 36
REMARK SMILES IDX 29 37
REMARK H PARENT 13 12 15 14 17 16 20 31
REMARK Flexibility Score: inf
ROOT
ATOM      1  O   UNL     1      10.788   2.779   3.020  1.00  0.00    -0.458 OA
ENDROOT
BRANCH   1   2
ATOM      2  C   UNL     1      10.777   3.688   1.917  1.00  0.00     0.339 C 
ATOM      3  C   UNL     1      12.639   2.781   0.720  1.00  0.00     0.199 C 
ATOM      4  C   UNL     1      13.487   4.039   1.006  1.00  0.00     0.180 C 
ATOM      5  O   UNL     1      11.243   3.068   0.718  1.00  0.00    -0.328 OA
ATOM      6  C   UNL     1      13.057   4.736   2.307  1.00  0.00     0.181 C 
ATOM      7  C   UNL     1      11.544   4.981   2.263  1.00  0.00     0.214 C 
BRANCH   3   8
ATOM      8  C   UNL     1      12.979   1.626   1.621  1.00  0.00     0.073 C 
ATOM      9  O   UNL     1      13.210   0.487   1.142  1.00  0.00    -0.547 OA
ATOM     10  O   UNL     1      13.236   0.358   1.093  1.00  0.00    -0.547 OA
ENDBRANCH   3   8
BRANCH   4  11
ATOM     11  O   UNL     1      14.869   3.765   0.985  1.00  0.00    -0.387 OA
ATOM     12  H   UNL     1      14.992   2.783   0.918  1.00  0.00     0.211 HD
ENDBRANCH   4  11
BRANCH   6  13
ATOM     13  O   UNL     1      13.387   3.956   3.431  1.00  0.00    -0.387 OA
ATOM     14  H   UNL     1      12.529   3.648   3.835  1.00  0.00     0.211 HD
ENDBRANCH   6  13
BRANCH   7  15
ATOM     15  O   UNL     1      11.111   5.489   3.496  1.00  0.00    -0.384 OA
ATOM     16  H   UNL     1      11.030   4.720   4.119  1.00  0.00     0.211 HD
ENDBRANCH   7  15
ENDBRANCH   1   2
BRANCH   1  17
ATOM     17  C   UNL     1       9.647   2.282   3.670  1.00  0.00     0.172 A 
ATOM     18  C   UNL     1       9.757   1.070   4.363  1.00  0.00     0.205 A 
ATOM     19  C   UNL     1       8.417   2.962   3.636  1.00  0.00     0.097 A 
ATOM     20  C   UNL     1       8.618   0.511   4.986  1.00  0.00     0.188 A 
ATOM     21  C   UNL     1       7.285   2.425   4.252  1.00  0.00     0.134 A 
ATOM     22  C   UNL     1       7.371   1.186   4.923  1.00  0.00     0.111 A 
ATOM     23  O   UNL     1       8.702  -0.663   5.605  1.00  0.00    -0.452 OA
ATOM     24  C   UNL     1       6.258   0.569   5.528  1.00  0.00     0.197 A 
ATOM     25  C   UNL     1       7.674  -1.265   6.196  1.00  0.00     0.138 A 
ATOM     26  C   UNL     1       6.412  -0.660   6.166  1.00  0.00     0.100 A 
ATOM     27  O   UNL     1       5.116   1.099   5.498  1.00  0.00    -0.289 OA
BRANCH  18  28
ATOM     28  O   UNL     1      11.018   0.454   4.380  1.00  0.00    -0.490 OA
ATOM     29  C   UNL     1      11.970   0.550   5.440  1.00  0.00     0.278 C 
ENDBRANCH  18  28
BRANCH  21  30
ATOM     30  O   UNL     1       6.080   3.128   4.189  1.00  0.00    -0.507 OA
ATOM     31  H   UNL     1       5.817   3.665   3.371  1.00  0.00     0.293 HD
ENDBRANCH  21  30
BRANCH  25  32
ATOM     32  C   UNL     1       7.886  -2.579   6.849  1.00  0.00     0.017 A 
ATOM     33  C   UNL     1       6.854  -3.542   6.822  1.00  0.00     0.012 A 
ATOM     34  C   UNL     1       9.103  -2.892   7.490  1.00  0.00     0.012 A 
ATOM     35  C   UNL     1       7.027  -4.782   7.441  1.00  0.00     0.001 A 
ATOM     36  C   UNL     1       9.279  -4.143   8.092  1.00  0.00     0.001 A 
ATOM     37  C   UNL     1       8.241  -5.084   8.071  1.00  0.00     0.000 A 
ENDBRANCH  25  32
ENDBRANCH   1  17
TORSDOF 9
ENDMDL
