MODEL 1
REMARK VINA RESULT:    -2.483      0.000      0.000
REMARK INTER + INTRA:          -2.483
REMARK INTER:                  -2.483
REMARK INTRA:                   0.000
REMARK UNBOUND:                 0.000
REMARK SMILES CC(=O)[O-]
REMARK SMILES IDX 1 1 2 2 3 3 4 4
REMARK H PARENT
REMARK Flexibility Score: inf
ROOT
ATOM      1  C   UNL     1       8.889  48.886  29.474  1.00  0.00     0.063 C 
ATOM      2  C   UNL     1       8.458  50.294  29.241  1.00  0.00     0.038 C 
ATOM      3  O   UNL     1       8.512  50.788  28.084  1.00  0.00    -0.550 OA
ATOM      4  O   UNL     1       7.946  51.048  30.289  1.00  0.00    -0.550 OA
ENDROOT
TORSDOF 0
ENDMDL
MODEL 2
REMARK VINA RESULT:    -2.440      1.404      1.750
REMARK INTER + INTRA:          -2.440
REMARK INTER:                  -2.440
REMARK INTRA:                   0.000
REMARK UNBOUND:                 0.000
REMARK SMILES CC(=O)[O-]
REMARK SMILES IDX 1 1 2 2 3 3 4 4
REMARK H PARENT
REMARK Flexibility Score: inf
ROOT
ATOM      1  C   UNL     1       8.292  51.095  30.593  1.00  0.00     0.063 C 
ATOM      2  C   UNL     1       8.420  50.285  29.348  1.00  0.00     0.038 C 
ATOM      3  O   UNL     1       8.444  50.852  28.224  1.00  0.00    -0.550 OA
ATOM      4  O   UNL     1       8.567  48.906  29.427  1.00  0.00    -0.550 OA
ENDROOT
TORSDOF 0
ENDMDL
MODEL 3
REMARK VINA RESULT:    -2.265      2.648      2.858
REMARK INTER + INTRA:          -2.265
REMARK INTER:                  -2.265
REMARK INTRA:                   0.000
REMARK UNBOUND:                 0.000
REMARK SMILES CC(=O)[O-]
REMARK SMILES IDX 1 1 2 2 3 3 4 4
REMARK H PARENT
REMARK Flexibility Score: inf
ROOT
ATOM      1  C   UNL     1       8.601  49.663  29.542  1.00  0.00     0.063 C 
ATOM      2  C   UNL     1       9.227  48.324  29.347  1.00  0.00     0.038 C 
ATOM      3  O   UNL     1      10.466  48.228  29.148  1.00  0.00    -0.550 OA
ATOM      4  O   UNL     1       8.453  47.174  29.438  1.00  0.00    -0.550 OA
ENDROOT
TORSDOF 0
ENDMDL
MODEL 4
REMARK VINA RESULT:    -2.164     11.973     12.257
REMARK INTER + INTRA:          -2.164
REMARK INTER:                  -2.164
REMARK INTRA:                   0.000
REMARK UNBOUND:                 0.000
REMARK SMILES CC(=O)[O-]
REMARK SMILES IDX 1 1 2 2 3 3 4 4
REMARK H PARENT
REMARK Flexibility Score: inf
ROOT
ATOM      1  C   UNL     1      15.263  39.885  25.614  1.00  0.00     0.063 C 
ATOM      2  C   UNL     1      13.931  39.881  26.285  1.00  0.00     0.038 C 
ATOM      3  O   UNL     1      13.856  39.875  27.541  1.00  0.00    -0.550 OA
ATOM      4  O   UNL     1      12.770  39.939  25.525  1.00  0.00    -0.550 OA
ENDROOT
TORSDOF 0
ENDMDL
MODEL 5
REMARK VINA RESULT:    -2.164      6.662      7.263
REMARK INTER + INTRA:          -2.164
REMARK INTER:                  -2.164
REMARK INTRA:                   0.000
REMARK UNBOUND:                 0.000
REMARK SMILES CC(=O)[O-]
REMARK SMILES IDX 1 1 2 2 3 3 4 4
REMARK H PARENT
REMARK Flexibility Score: inf
ROOT
ATOM      1  C   UNL     1      11.993  45.001  28.194  1.00  0.00     0.063 C 
ATOM      2  C   UNL     1      10.990  43.898  28.194  1.00  0.00     0.038 C 
ATOM      3  O   UNL     1      10.053  43.896  29.035  1.00  0.00    -0.550 OA
ATOM      4  O   UNL     1      11.055  42.898  27.232  1.00  0.00    -0.550 OA
ENDROOT
TORSDOF 0
ENDMDL
MODEL 6
REMARK VINA RESULT:    -2.134      6.559      7.049
REMARK INTER + INTRA:          -2.134
REMARK INTER:                  -2.134
REMARK INTRA:                   0.000
REMARK UNBOUND:                 0.000
REMARK SMILES CC(=O)[O-]
REMARK SMILES IDX 1 1 2 2 3 3 4 4
REMARK H PARENT
REMARK Flexibility Score: inf
ROOT
ATOM      1  C   UNL     1      10.099  44.155  29.193  1.00  0.00     0.063 C 
ATOM      2  C   UNL     1      11.095  43.999  28.095  1.00  0.00     0.038 C 
ATOM      3  O   UNL     1      10.982  43.055  27.269  1.00  0.00    -0.550 OA
ATOM      4  O   UNL     1      12.119  44.925  27.947  1.00  0.00    -0.550 OA
ENDROOT
TORSDOF 0
ENDMDL
MODEL 7
REMARK VINA RESULT:    -2.130      8.805      9.347
REMARK INTER + INTRA:          -2.130
REMARK INTER:                  -2.130
REMARK INTRA:                   0.000
REMARK UNBOUND:                 0.000
REMARK SMILES CC(=O)[O-]
REMARK SMILES IDX 1 1 2 2 3 3 4 4
REMARK H PARENT
REMARK Flexibility Score: inf
ROOT
ATOM      1  C   UNL     1      13.453  42.498  27.989  1.00  0.00     0.063 C 
ATOM      2  C   UNL     1      12.237  42.051  27.251  1.00  0.00     0.038 C 
ATOM      3  O   UNL     1      12.228  40.936  26.666  1.00  0.00    -0.550 OA
ATOM      4  O   UNL     1      11.093  42.838  27.253  1.00  0.00    -0.550 OA
ENDROOT
TORSDOF 0
ENDMDL
MODEL 8
REMARK VINA RESULT:    -2.093      1.813      2.163
REMARK INTER + INTRA:          -2.093
REMARK INTER:                  -2.093
REMARK INTRA:                   0.000
REMARK UNBOUND:                 0.000
REMARK SMILES CC(=O)[O-]
REMARK SMILES IDX 1 1 2 2 3 3 4 4
REMARK H PARENT
REMARK Flexibility Score: inf
ROOT
ATOM      1  C   UNL     1       8.345  50.322  29.027  1.00  0.00     0.063 C 
ATOM      2  C   UNL     1       8.682  50.706  30.428  1.00  0.00     0.038 C 
ATOM      3  O   UNL     1       7.927  51.483  31.069  1.00  0.00    -0.550 OA
ATOM      4  O   UNL     1       9.801  50.166  31.047  1.00  0.00    -0.550 OA
ENDROOT
TORSDOF 0
ENDMDL
