MODEL 1
REMARK VINA RESULT:    -5.711      0.000      0.000
REMARK INTER + INTRA:          -6.855
REMARK INTER:                  -6.545
REMARK INTRA:                  -0.310
REMARK UNBOUND:                -0.310
REMARK SMILES O=C1C[C@H](c2ccc(O)cc2)Oc2cc(O)cc(O)c21
REMARK SMILES IDX 3 1 4 2 12 3 13 4 14 5 15 6 17 7 18 8 20 9 2 10 1 11 5 12
REMARK SMILES IDX 6 13 11 14 7 15 10 16 8 17 9 18 19 20 16 22
REMARK H PARENT 9 19 19 21 16 23
REMARK Flexibility Score: inf
ROOT
ATOM      1  C   UNL     1      75.690  62.673  52.872  1.00  0.00     0.131 C 
ATOM      2  C   UNL     1      76.622  63.264  53.939  1.00  0.00     0.211 C 
ATOM      3  O   UNL     1      76.077  63.069  55.247  1.00  0.00    -0.484 OA
ATOM      4  C   UNL     1      74.709  63.195  55.523  1.00  0.00     0.138 A 
ATOM      5  C   UNL     1      74.290  63.266  56.853  1.00  0.00     0.093 A 
ATOM      6  C   UNL     1      72.937  63.407  57.160  1.00  0.00     0.123 A 
ATOM      7  C   UNL     1      71.992  63.448  56.130  1.00  0.00     0.093 A 
ATOM      8  C   UNL     1      72.385  63.339  54.791  1.00  0.00     0.133 A 
ATOM      9  C   UNL     1      73.765  63.244  54.474  1.00  0.00     0.102 A 
ATOM     10  C   UNL     1      74.300  63.194  53.090  1.00  0.00     0.174 C 
ATOM     11  O   UNL     1      73.641  63.625  52.108  1.00  0.00    -0.294 OA
ENDROOT
BRANCH   2  12
ATOM     12  C   UNL     1      77.995  62.643  53.852  1.00  0.00    -0.007 A 
ATOM     13  C   UNL     1      78.452  61.793  54.871  1.00  0.00     0.011 A 
ATOM     14  C   UNL     1      78.853  62.951  52.779  1.00  0.00     0.011 A 
ATOM     15  C   UNL     1      79.736  61.240  54.807  1.00  0.00     0.046 A 
ATOM     16  C   UNL     1      80.135  62.398  52.719  1.00  0.00     0.046 A 
ATOM     17  C   UNL     1      80.579  61.538  53.732  1.00  0.00     0.115 A 
BRANCH  17  18
ATOM     18  O   UNL     1      81.854  60.980  53.682  1.00  0.00    -0.508 OA
ATOM     19  H   UNL     1      82.258  60.659  52.810  1.00  0.00     0.293 HD
ENDBRANCH  17  18
ENDBRANCH   2  12
BRANCH   8  20
ATOM     20  O   UNL     1      71.375  63.295  53.827  1.00  0.00    -0.507 OA
ATOM     21  H   UNL     1      70.655  62.587  53.795  1.00  0.00     0.293 HD
ENDBRANCH   8  20
BRANCH   6  22
ATOM     22  O   UNL     1      72.540  63.499  58.493  1.00  0.00    -0.508 OA
ATOM     23  H   UNL     1      73.004  64.124  59.142  1.00  0.00     0.293 HD
ENDBRANCH   6  22
TORSDOF 4
ENDMDL
MODEL 2
REMARK VINA RESULT:    -5.512      1.249      2.789
REMARK INTER + INTRA:          -6.628
REMARK INTER:                  -6.312
REMARK INTRA:                  -0.316
REMARK UNBOUND:                -0.310
REMARK SMILES O=C1C[C@H](c2ccc(O)cc2)Oc2cc(O)cc(O)c21
REMARK SMILES IDX 3 1 4 2 12 3 13 4 14 5 15 6 17 7 18 8 20 9 2 10 1 11 5 12
REMARK SMILES IDX 6 13 11 14 7 15 10 16 8 17 9 18 19 20 16 22
REMARK H PARENT 9 19 19 21 16 23
REMARK Flexibility Score: inf
ROOT
ATOM      1  C   UNL     1      76.362  62.074  56.552  1.00  0.00     0.131 C 
ATOM      2  C   UNL     1      76.319  61.785  55.044  1.00  0.00     0.211 C 
ATOM      3  O   UNL     1      75.457  62.715  54.380  1.00  0.00    -0.484 OA
ATOM      4  C   UNL     1      74.246  63.151  54.933  1.00  0.00     0.138 A 
ATOM      5  C   UNL     1      73.336  63.829  54.119  1.00  0.00     0.093 A 
ATOM      6  C   UNL     1      72.115  64.263  54.636  1.00  0.00     0.123 A 
ATOM      7  C   UNL     1      71.814  64.044  55.984  1.00  0.00     0.093 A 
ATOM      8  C   UNL     1      72.728  63.401  56.828  1.00  0.00     0.133 A 
ATOM      9  C   UNL     1      73.950  62.916  56.293  1.00  0.00     0.102 A 
ATOM     10  C   UNL     1      74.960  62.161  57.076  1.00  0.00     0.174 C 
ATOM     11  O   UNL     1      74.658  61.550  58.135  1.00  0.00    -0.294 OA
ENDROOT
BRANCH   2  12
ATOM     12  C   UNL     1      77.705  61.847  54.449  1.00  0.00    -0.007 A 
ATOM     13  C   UNL     1      78.727  61.025  54.951  1.00  0.00     0.011 A 
ATOM     14  C   UNL     1      78.003  62.764  53.424  1.00  0.00     0.011 A 
ATOM     15  C   UNL     1      80.019  61.101  54.421  1.00  0.00     0.046 A 
ATOM     16  C   UNL     1      79.295  62.839  52.898  1.00  0.00     0.046 A 
ATOM     17  C   UNL     1      80.307  62.005  53.393  1.00  0.00     0.115 A 
BRANCH  17  18
ATOM     18  O   UNL     1      81.598  62.070  52.875  1.00  0.00    -0.508 OA
ATOM     19  H   UNL     1      82.402  61.774  53.417  1.00  0.00     0.293 HD
ENDBRANCH  17  18
ENDBRANCH   2  12
BRANCH   8  20
ATOM     20  O   UNL     1      72.394  63.303  58.180  1.00  0.00    -0.507 OA
ATOM     21  H   UNL     1      72.829  63.849  58.911  1.00  0.00     0.293 HD
ENDBRANCH   8  20
BRANCH   6  22
ATOM     22  O   UNL     1      71.210  64.918  53.803  1.00  0.00    -0.508 OA
ATOM     23  H   UNL     1      70.454  64.421  53.347  1.00  0.00     0.293 HD
ENDBRANCH   6  22
TORSDOF 4
ENDMDL
MODEL 3
REMARK VINA RESULT:    -5.273      3.117      6.924
REMARK INTER + INTRA:          -6.354
REMARK INTER:                  -6.063
REMARK INTRA:                  -0.291
REMARK UNBOUND:                -0.310
REMARK SMILES O=C1C[C@H](c2ccc(O)cc2)Oc2cc(O)cc(O)c21
REMARK SMILES IDX 3 1 4 2 12 3 13 4 14 5 15 6 17 7 18 8 20 9 2 10 1 11 5 12
REMARK SMILES IDX 6 13 11 14 7 15 10 16 8 17 9 18 19 20 16 22
REMARK H PARENT 9 19 19 21 16 23
REMARK Flexibility Score: inf
ROOT
ATOM      1  C   UNL     1      72.530  62.400  55.504  1.00  0.00     0.131 C 
ATOM      2  C   UNL     1      72.464  62.011  54.020  1.00  0.00     0.211 C 
ATOM      3  O   UNL     1      73.774  61.730  53.517  1.00  0.00    -0.484 OA
ATOM      4  C   UNL     1      74.901  62.477  53.882  1.00  0.00     0.138 A 
ATOM      5  C   UNL     1      76.079  62.327  53.148  1.00  0.00     0.093 A 
ATOM      6  C   UNL     1      77.215  63.068  53.477  1.00  0.00     0.123 A 
ATOM      7  C   UNL     1      77.181  63.943  54.567  1.00  0.00     0.093 A 
ATOM      8  C   UNL     1      76.022  64.080  55.342  1.00  0.00     0.133 A 
ATOM      9  C   UNL     1      74.851  63.364  54.979  1.00  0.00     0.102 A 
ATOM     10  C   UNL     1      73.551  63.484  55.684  1.00  0.00     0.174 C 
ATOM     11  O   UNL     1      73.264  64.493  56.380  1.00  0.00    -0.294 OA
ENDROOT
BRANCH   2  12
ATOM     12  C   UNL     1      71.564  60.816  53.821  1.00  0.00    -0.007 A 
ATOM     13  C   UNL     1      70.383  60.938  53.071  1.00  0.00     0.011 A 
ATOM     14  C   UNL     1      71.868  59.583  54.427  1.00  0.00     0.011 A 
ATOM     15  C   UNL     1      69.531  59.839  52.911  1.00  0.00     0.046 A 
ATOM     16  C   UNL     1      71.015  58.488  54.265  1.00  0.00     0.046 A 
ATOM     17  C   UNL     1      69.845  58.613  53.504  1.00  0.00     0.115 A 
BRANCH  17  18
ATOM     18  O   UNL     1      68.989  57.527  53.334  1.00  0.00    -0.508 OA
ATOM     19  H   UNL     1      68.982  56.751  53.987  1.00  0.00     0.293 HD
ENDBRANCH  17  18
ENDBRANCH   2  12
BRANCH   8  20
ATOM     20  O   UNL     1      76.096  64.903  56.468  1.00  0.00    -0.507 OA
ATOM     21  H   UNL     1      76.962  65.176  56.912  1.00  0.00     0.293 HD
ENDBRANCH   8  20
BRANCH   6  22
ATOM     22  O   UNL     1      78.375  62.921  52.719  1.00  0.00    -0.508 OA
ATOM     23  H   UNL     1      78.990  63.705  52.536  1.00  0.00     0.293 HD
ENDBRANCH   6  22
TORSDOF 4
ENDMDL
MODEL 4
REMARK VINA RESULT:    -5.259      4.269      6.197
REMARK INTER + INTRA:          -6.337
REMARK INTER:                  -6.037
REMARK INTRA:                  -0.300
REMARK UNBOUND:                -0.310
REMARK SMILES O=C1C[C@H](c2ccc(O)cc2)Oc2cc(O)cc(O)c21
REMARK SMILES IDX 3 1 4 2 12 3 13 4 14 5 15 6 17 7 18 8 20 9 2 10 1 11 5 12
REMARK SMILES IDX 6 13 11 14 7 15 10 16 8 17 9 18 19 20 16 22
REMARK H PARENT 9 19 19 21 16 23
REMARK Flexibility Score: inf
ROOT
ATOM      1  C   UNL     1      75.461  59.728  54.503  1.00  0.00     0.131 C 
ATOM      2  C   UNL     1      74.606  59.358  55.723  1.00  0.00     0.211 C 
ATOM      3  O   UNL     1      73.893  60.503  56.202  1.00  0.00    -0.484 OA
ATOM      4  C   UNL     1      74.461  61.783  56.245  1.00  0.00     0.138 A 
ATOM      5  C   UNL     1      73.817  62.784  56.975  1.00  0.00     0.093 A 
ATOM      6  C   UNL     1      74.365  64.065  57.050  1.00  0.00     0.123 A 
ATOM      7  C   UNL     1      75.550  64.355  56.366  1.00  0.00     0.093 A 
ATOM      8  C   UNL     1      76.192  63.378  55.596  1.00  0.00     0.133 A 
ATOM      9  C   UNL     1      75.662  62.061  55.557  1.00  0.00     0.102 A 
ATOM     10  C   UNL     1      76.295  60.930  54.833  1.00  0.00     0.174 C 
ATOM     11  O   UNL     1      77.520  60.932  54.539  1.00  0.00    -0.294 OA
ENDROOT
BRANCH   2  12
ATOM     12  C   UNL     1      73.638  58.251  55.380  1.00  0.00    -0.007 A 
ATOM     13  C   UNL     1      72.412  58.551  54.764  1.00  0.00     0.011 A 
ATOM     14  C   UNL     1      73.926  56.917  55.722  1.00  0.00     0.011 A 
ATOM     15  C   UNL     1      71.500  57.530  54.473  1.00  0.00     0.046 A 
ATOM     16  C   UNL     1      73.013  55.901  55.430  1.00  0.00     0.046 A 
ATOM     17  C   UNL     1      71.798  56.204  54.803  1.00  0.00     0.115 A 
BRANCH  17  18
ATOM     18  O   UNL     1      70.880  55.199  54.506  1.00  0.00    -0.508 OA
ATOM     19  H   UNL     1      71.046  54.535  53.759  1.00  0.00     0.293 HD
ENDBRANCH  17  18
ENDBRANCH   2  12
BRANCH   8  20
ATOM     20  O   UNL     1      77.317  63.769  54.868  1.00  0.00    -0.507 OA
ATOM     21  H   UNL     1      77.587  63.364  53.983  1.00  0.00     0.293 HD
ENDBRANCH   8  20
BRANCH   6  22
ATOM     22  O   UNL     1      73.719  65.046  57.801  1.00  0.00    -0.508 OA
ATOM     23  H   UNL     1      73.132  64.806  58.591  1.00  0.00     0.293 HD
ENDBRANCH   6  22
TORSDOF 4
ENDMDL
MODEL 5
REMARK VINA RESULT:    -5.243      2.048      3.789
REMARK INTER + INTRA:          -6.319
REMARK INTER:                  -5.999
REMARK INTRA:                  -0.320
REMARK UNBOUND:                -0.310
REMARK SMILES O=C1C[C@H](c2ccc(O)cc2)Oc2cc(O)cc(O)c21
REMARK SMILES IDX 3 1 4 2 12 3 13 4 14 5 15 6 17 7 18 8 20 9 2 10 1 11 5 12
REMARK SMILES IDX 6 13 11 14 7 15 10 16 8 17 9 18 19 20 16 22
REMARK H PARENT 9 19 19 21 16 23
REMARK Flexibility Score: inf
ROOT
ATOM      1  C   UNL     1      74.021  63.706  55.321  1.00  0.00     0.131 C 
ATOM      2  C   UNL     1      74.285  62.694  54.197  1.00  0.00     0.211 C 
ATOM      3  O   UNL     1      73.409  62.935  53.090  1.00  0.00    -0.484 OA
ATOM      4  C   UNL     1      72.067  63.299  53.254  1.00  0.00     0.138 A 
ATOM      5  C   UNL     1      71.212  63.244  52.151  1.00  0.00     0.093 A 
ATOM      6  C   UNL     1      69.866  63.587  52.284  1.00  0.00     0.123 A 
ATOM      7  C   UNL     1      69.378  64.016  53.522  1.00  0.00     0.093 A 
ATOM      8  C   UNL     1      70.226  64.117  54.632  1.00  0.00     0.133 A 
ATOM      9  C   UNL     1      71.584  63.723  54.511  1.00  0.00     0.102 A 
ATOM     10  C   UNL     1      72.554  63.722  55.635  1.00  0.00     0.174 C 
ATOM     11  O   UNL     1      72.178  63.679  56.835  1.00  0.00    -0.294 OA
ENDROOT
BRANCH   2  12
ATOM     12  C   UNL     1      75.723  62.762  53.744  1.00  0.00    -0.007 A 
ATOM     13  C   UNL     1      76.754  62.907  54.686  1.00  0.00     0.011 A 
ATOM     14  C   UNL     1      76.044  62.738  52.374  1.00  0.00     0.011 A 
ATOM     15  C   UNL     1      78.086  63.000  54.267  1.00  0.00     0.046 A 
ATOM     16  C   UNL     1      77.375  62.832  51.959  1.00  0.00     0.046 A 
ATOM     17  C   UNL     1      78.400  62.961  52.905  1.00  0.00     0.115 A 
BRANCH  17  18
ATOM     18  O   UNL     1      79.730  63.055  52.503  1.00  0.00    -0.508 OA
ATOM     19  H   UNL     1      79.980  63.216  51.534  1.00  0.00     0.293 HD
ENDBRANCH  17  18
ENDBRANCH   2  12
BRANCH   8  20
ATOM     20  O   UNL     1      69.685  64.642  55.808  1.00  0.00    -0.507 OA
ATOM     21  H   UNL     1      68.902  65.280  55.834  1.00  0.00     0.293 HD
ENDBRANCH   8  20
BRANCH   6  22
ATOM     22  O   UNL     1      69.023  63.504  51.178  1.00  0.00    -0.508 OA
ATOM     23  H   UNL     1      68.025  63.360  51.282  1.00  0.00     0.293 HD
ENDBRANCH   6  22
TORSDOF 4
ENDMDL
MODEL 6
REMARK VINA RESULT:    -5.238      3.394      7.023
REMARK INTER + INTRA:          -6.313
REMARK INTER:                  -6.001
REMARK INTRA:                  -0.312
REMARK UNBOUND:                -0.310
REMARK SMILES O=C1C[C@H](c2ccc(O)cc2)Oc2cc(O)cc(O)c21
REMARK SMILES IDX 3 1 4 2 12 3 13 4 14 5 15 6 17 7 18 8 20 9 2 10 1 11 5 12
REMARK SMILES IDX 6 13 11 14 7 15 10 16 8 17 9 18 19 20 16 22
REMARK H PARENT 9 19 19 21 16 23
REMARK Flexibility Score: inf
ROOT
ATOM      1  C   UNL     1      72.941  64.443  52.891  1.00  0.00     0.131 C 
ATOM      2  C   UNL     1      72.390  63.015  53.014  1.00  0.00     0.211 C 
ATOM      3  O   UNL     1      72.483  62.556  54.366  1.00  0.00    -0.484 OA
ATOM      4  C   UNL     1      73.583  62.837  55.186  1.00  0.00     0.138 A 
ATOM      5  C   UNL     1      73.733  62.132  56.383  1.00  0.00     0.093 A 
ATOM      6  C   UNL     1      74.826  62.378  57.214  1.00  0.00     0.123 A 
ATOM      7  C   UNL     1      75.760  63.357  56.862  1.00  0.00     0.093 A 
ATOM      8  C   UNL     1      75.610  64.103  55.686  1.00  0.00     0.133 A 
ATOM      9  C   UNL     1      74.525  63.821  54.815  1.00  0.00     0.102 A 
ATOM     10  C   UNL     1      74.305  64.499  53.513  1.00  0.00     0.174 C 
ATOM     11  O   UNL     1      75.242  65.069  52.895  1.00  0.00    -0.294 OA
ENDROOT
BRANCH   2  12
ATOM     12  C   UNL     1      70.958  62.953  52.542  1.00  0.00    -0.007 A 
ATOM     13  C   UNL     1      70.433  63.978  51.739  1.00  0.00     0.011 A 
ATOM     14  C   UNL     1      70.117  61.899  52.946  1.00  0.00     0.011 A 
ATOM     15  C   UNL     1      69.097  63.939  51.326  1.00  0.00     0.046 A 
ATOM     16  C   UNL     1      68.783  61.863  52.532  1.00  0.00     0.046 A 
ATOM     17  C   UNL     1      68.270  62.882  51.719  1.00  0.00     0.115 A 
BRANCH  17  18
ATOM     18  O   UNL     1      66.942  62.855  51.299  1.00  0.00    -0.508 OA
ATOM     19  H   UNL     1      66.452  61.981  51.147  1.00  0.00     0.293 HD
ENDBRANCH  17  18
ENDBRANCH   2  12
BRANCH   8  20
ATOM     20  O   UNL     1      76.532  65.125  55.451  1.00  0.00    -0.507 OA
ATOM     21  H   UNL     1      76.484  66.039  55.877  1.00  0.00     0.293 HD
ENDBRANCH   8  20
BRANCH   6  22
ATOM     22  O   UNL     1      74.970  61.650  58.393  1.00  0.00    -0.508 OA
ATOM     23  H   UNL     1      74.684  60.680  58.455  1.00  0.00     0.293 HD
ENDBRANCH   6  22
TORSDOF 4
ENDMDL
MODEL 7
REMARK VINA RESULT:    -5.205      2.689      8.000
REMARK INTER + INTRA:          -6.276
REMARK INTER:                  -5.970
REMARK INTRA:                  -0.306
REMARK UNBOUND:                -0.310
REMARK SMILES O=C1C[C@H](c2ccc(O)cc2)Oc2cc(O)cc(O)c21
REMARK SMILES IDX 3 1 4 2 12 3 13 4 14 5 15 6 17 7 18 8 20 9 2 10 1 11 5 12
REMARK SMILES IDX 6 13 11 14 7 15 10 16 8 17 9 18 19 20 16 22
REMARK H PARENT 9 19 19 21 16 23
REMARK Flexibility Score: inf
ROOT
ATOM      1  C   UNL     1      72.169  63.757  55.866  1.00  0.00     0.131 C 
ATOM      2  C   UNL     1      71.551  64.395  54.614  1.00  0.00     0.211 C 
ATOM      3  O   UNL     1      72.282  64.015  53.444  1.00  0.00    -0.484 OA
ATOM      4  C   UNL     1      73.679  63.911  53.426  1.00  0.00     0.138 A 
ATOM      5  C   UNL     1      74.335  63.810  52.196  1.00  0.00     0.093 A 
ATOM      6  C   UNL     1      75.726  63.720  52.144  1.00  0.00     0.123 A 
ATOM      7  C   UNL     1      76.466  63.700  53.331  1.00  0.00     0.093 A 
ATOM      8  C   UNL     1      75.827  63.760  54.576  1.00  0.00     0.133 A 
ATOM      9  C   UNL     1      74.416  63.900  54.630  1.00  0.00     0.102 A 
ATOM     10  C   UNL     1      73.641  64.042  55.889  1.00  0.00     0.174 C 
ATOM     11  O   UNL     1      74.175  64.447  56.955  1.00  0.00    -0.294 OA
ENDROOT
BRANCH   2  12
ATOM     12  C   UNL     1      70.102  63.998  54.471  1.00  0.00    -0.007 A 
ATOM     13  C   UNL     1      69.735  62.971  53.587  1.00  0.00     0.011 A 
ATOM     14  C   UNL     1      69.099  64.686  55.178  1.00  0.00     0.011 A 
ATOM     15  C   UNL     1      68.389  62.621  53.431  1.00  0.00     0.046 A 
ATOM     16  C   UNL     1      67.756  64.335  55.019  1.00  0.00     0.046 A 
ATOM     17  C   UNL     1      67.397  63.299  54.146  1.00  0.00     0.115 A 
BRANCH  17  18
ATOM     18  O   UNL     1      66.062  62.940  53.981  1.00  0.00    -0.508 OA
ATOM     19  H   UNL     1      65.347  63.241  54.634  1.00  0.00     0.293 HD
ENDBRANCH  17  18
ENDBRANCH   2  12
BRANCH   8  20
ATOM     20  O   UNL     1      76.627  63.640  55.715  1.00  0.00    -0.507 OA
ATOM     21  H   UNL     1      77.436  64.217  55.900  1.00  0.00     0.293 HD
ENDBRANCH   8  20
BRANCH   6  22
ATOM     22  O   UNL     1      76.364  63.643  50.908  1.00  0.00    -0.508 OA
ATOM     23  H   UNL     1      76.558  62.752  50.467  1.00  0.00     0.293 HD
ENDBRANCH   6  22
TORSDOF 4
ENDMDL
MODEL 8
REMARK VINA RESULT:    -5.190      1.984      2.257
REMARK INTER + INTRA:          -6.258
REMARK INTER:                  -5.960
REMARK INTRA:                  -0.299
REMARK UNBOUND:                -0.310
REMARK SMILES O=C1C[C@H](c2ccc(O)cc2)Oc2cc(O)cc(O)c21
REMARK SMILES IDX 3 1 4 2 12 3 13 4 14 5 15 6 17 7 18 8 20 9 2 10 1 11 5 12
REMARK SMILES IDX 6 13 11 14 7 15 10 16 8 17 9 18 19 20 16 22
REMARK H PARENT 9 19 19 21 16 23
REMARK Flexibility Score: inf
ROOT
ATOM      1  C   UNL     1      75.320  62.040  52.801  1.00  0.00     0.131 C 
ATOM      2  C   UNL     1      76.313  61.863  53.959  1.00  0.00     0.211 C 
ATOM      3  O   UNL     1      75.617  61.757  55.205  1.00  0.00    -0.484 OA
ATOM      4  C   UNL     1      74.488  62.529  55.508  1.00  0.00     0.138 A 
ATOM      5  C   UNL     1      74.035  62.576  56.828  1.00  0.00     0.093 A 
ATOM      6  C   UNL     1      72.922  63.347  57.165  1.00  0.00     0.123 A 
ATOM      7  C   UNL     1      72.239  64.053  56.169  1.00  0.00     0.093 A 
ATOM      8  C   UNL     1      72.651  63.989  54.833  1.00  0.00     0.133 A 
ATOM      9  C   UNL     1      73.812  63.244  54.495  1.00  0.00     0.102 A 
ATOM     10  C   UNL     1      74.380  63.163  53.126  1.00  0.00     0.174 C 
ATOM     11  O   UNL     1      74.137  64.037  52.254  1.00  0.00    -0.294 OA
ENDROOT
BRANCH   2  12
ATOM     12  C   UNL     1      77.175  60.643  53.741  1.00  0.00    -0.007 A 
ATOM     13  C   UNL     1      76.988  59.840  52.605  1.00  0.00     0.011 A 
ATOM     14  C   UNL     1      78.134  60.266  54.699  1.00  0.00     0.011 A 
ATOM     15  C   UNL     1      77.766  58.692  52.416  1.00  0.00     0.046 A 
ATOM     16  C   UNL     1      78.908  59.118  54.507  1.00  0.00     0.046 A 
ATOM     17  C   UNL     1      78.727  58.329  53.364  1.00  0.00     0.115 A 
BRANCH  17  18
ATOM     18  O   UNL     1      79.494  57.183  53.162  1.00  0.00    -0.508 OA
ATOM     19  H   UNL     1      80.397  57.224  52.704  1.00  0.00     0.293 HD
ENDBRANCH  17  18
ENDBRANCH   2  12
BRANCH   8  20
ATOM     20  O   UNL     1      71.863  64.646  53.885  1.00  0.00    -0.507 OA
ATOM     21  H   UNL     1      71.036  64.246  53.463  1.00  0.00     0.293 HD
ENDBRANCH   8  20
BRANCH   6  22
ATOM     22  O   UNL     1      72.498  63.399  58.491  1.00  0.00    -0.508 OA
ATOM     23  H   UNL     1      72.901  62.797  59.200  1.00  0.00     0.293 HD
ENDBRANCH   6  22
TORSDOF 4
ENDMDL
MODEL 9
REMARK VINA RESULT:    -5.142      3.154      4.892
REMARK INTER + INTRA:          -6.203
REMARK INTER:                  -5.888
REMARK INTRA:                  -0.315
REMARK UNBOUND:                -0.310
REMARK SMILES O=C1C[C@H](c2ccc(O)cc2)Oc2cc(O)cc(O)c21
REMARK SMILES IDX 3 1 4 2 12 3 13 4 14 5 15 6 17 7 18 8 20 9 2 10 1 11 5 12
REMARK SMILES IDX 6 13 11 14 7 15 10 16 8 17 9 18 19 20 16 22
REMARK H PARENT 9 19 19 21 16 23
REMARK Flexibility Score: inf
ROOT
ATOM      1  C   UNL     1      71.972  63.584  53.562  1.00  0.00     0.131 C 
ATOM      2  C   UNL     1      72.624  62.650  54.592  1.00  0.00     0.211 C 
ATOM      3  O   UNL     1      72.371  61.281  54.259  1.00  0.00    -0.484 OA
ATOM      4  C   UNL     1      71.140  60.840  53.758  1.00  0.00     0.138 A 
ATOM      5  C   UNL     1      70.876  59.469  53.721  1.00  0.00     0.093 A 
ATOM      6  C   UNL     1      69.653  58.999  53.242  1.00  0.00     0.123 A 
ATOM      7  C   UNL     1      68.698  59.904  52.769  1.00  0.00     0.093 A 
ATOM      8  C   UNL     1      68.956  61.281  52.760  1.00  0.00     0.133 A 
ATOM      9  C   UNL     1      70.180  61.765  53.291  1.00  0.00     0.102 A 
ATOM     10  C   UNL     1      70.531  63.203  53.396  1.00  0.00     0.174 C 
ATOM     11  O   UNL     1      69.650  64.103  53.404  1.00  0.00    -0.294 OA
ENDROOT
BRANCH   2  12
ATOM     12  C   UNL     1      74.111  62.898  54.671  1.00  0.00    -0.007 A 
ATOM     13  C   UNL     1      74.599  64.163  55.038  1.00  0.00     0.011 A 
ATOM     14  C   UNL     1      75.025  61.884  54.326  1.00  0.00     0.011 A 
ATOM     15  C   UNL     1      75.976  64.403  55.082  1.00  0.00     0.046 A 
ATOM     16  C   UNL     1      76.400  62.128  54.371  1.00  0.00     0.046 A 
ATOM     17  C   UNL     1      76.879  63.388  54.752  1.00  0.00     0.115 A 
BRANCH  17  18
ATOM     18  O   UNL     1      78.248  63.642  54.802  1.00  0.00    -0.508 OA
ATOM     19  H   UNL     1      78.762  63.606  55.674  1.00  0.00     0.293 HD
ENDBRANCH  17  18
ENDBRANCH   2  12
BRANCH   8  20
ATOM     20  O   UNL     1      67.991  62.112  52.186  1.00  0.00    -0.507 OA
ATOM     21  H   UNL     1      67.000  61.915  52.193  1.00  0.00     0.293 HD
ENDBRANCH   8  20
BRANCH   6  22
ATOM     22  O   UNL     1      69.399  57.629  53.234  1.00  0.00    -0.508 OA
ATOM     23  H   UNL     1      70.134  56.956  53.053  1.00  0.00     0.293 HD
ENDBRANCH   6  22
TORSDOF 4
ENDMDL
