MODEL 1
REMARK VINA RESULT:    -3.287      0.000      0.000
REMARK INTER + INTRA:          -3.383
REMARK INTER:                  -3.383
REMARK INTRA:                   0.000
REMARK UNBOUND:                 0.000
REMARK SMILES CC1(C)[C@@H]2CC[C@@](C)(C2)[C@H]1O
REMARK SMILES IDX 1 1 2 2 4 3 5 4 6 5 7 6 9 7 10 8 8 9 3 10 11 11
REMARK H PARENT 11 12
REMARK Flexibility Score: inf
ROOT
ATOM      1  C   UNL     1     108.728 110.915 105.663  1.00  0.00     0.014 C 
ATOM      2  C   UNL     1     109.836 111.514 104.757  1.00  0.00    -0.006 C 
ATOM      3  C   UNL     1     111.009 112.052 105.647  1.00  0.00    -0.002 C 
ATOM      4  C   UNL     1     111.991 112.911 104.822  1.00  0.00     0.005 C 
ATOM      5  C   UNL     1     112.647 111.878 103.893  1.00  0.00     0.010 C 
ATOM      6  C   UNL     1     112.036 110.544 104.379  1.00  0.00    -0.006 C 
ATOM      7  C   UNL     1     111.856 110.810 105.857  1.00  0.00     0.013 C 
ATOM      8  C   UNL     1     110.570 110.446 103.875  1.00  0.00     0.126 C 
ATOM      9  C   UNL     1     112.912 109.326 104.060  1.00  0.00     0.014 C 
ATOM     10  C   UNL     1     109.174 112.604 103.880  1.00  0.00     0.014 C 
ENDROOT
BRANCH   8  11
ATOM     11  O   UNL     1     110.064 109.149 104.077  1.00  0.00    -0.392 OA
ATOM     12  H   UNL     1     110.847 108.562 104.243  1.00  0.00     0.211 HD
ENDBRANCH   8  11
TORSDOF 1
ENDMDL
MODEL 2
REMARK VINA RESULT:    -3.279      2.533      4.545
REMARK INTER + INTRA:          -3.375
REMARK INTER:                  -3.375
REMARK INTRA:                   0.000
REMARK UNBOUND:                 0.000
REMARK SMILES CC1(C)[C@@H]2CC[C@@](C)(C2)[C@H]1O
REMARK SMILES IDX 1 1 2 2 4 3 5 4 6 5 7 6 9 7 10 8 8 9 3 10 11 11
REMARK H PARENT 11 12
REMARK Flexibility Score: inf
ROOT
ATOM      1  C   UNL     1     111.450 109.025 105.750  1.00  0.00     0.014 C 
ATOM      2  C   UNL     1     110.345 108.495 104.799  1.00  0.00    -0.006 C 
ATOM      3  C   UNL     1     109.147 107.937 105.643  1.00  0.00    -0.002 C 
ATOM      4  C   UNL     1     108.162 107.141 104.762  1.00  0.00     0.005 C 
ATOM      5  C   UNL     1     107.542 108.231 103.875  1.00  0.00     0.010 C 
ATOM      6  C   UNL     1     108.171 109.527 104.436  1.00  0.00    -0.006 C 
ATOM      7  C   UNL     1     108.322 109.185 105.902  1.00  0.00     0.013 C 
ATOM      8  C   UNL     1     109.646 109.619 103.960  1.00  0.00     0.126 C 
ATOM      9  C   UNL     1     107.324 110.777 104.165  1.00  0.00     0.014 C 
ATOM     10  C   UNL     1     110.999 107.436 103.879  1.00  0.00     0.014 C 
ENDROOT
BRANCH   8  11
ATOM     11  O   UNL     1     110.174 110.894 104.233  1.00  0.00    -0.392 OA
ATOM     12  H   UNL     1     109.420 111.448 104.563  1.00  0.00     0.211 HD
ENDBRANCH   8  11
TORSDOF 1
ENDMDL
MODEL 3
REMARK VINA RESULT:    -3.275      1.812      3.176
REMARK INTER + INTRA:          -3.371
REMARK INTER:                  -3.371
REMARK INTRA:                   0.000
REMARK UNBOUND:                 0.000
REMARK SMILES CC1(C)[C@@H]2CC[C@@](C)(C2)[C@H]1O
REMARK SMILES IDX 1 1 2 2 4 3 5 4 6 5 7 6 9 7 10 8 8 9 3 10 11 11
REMARK H PARENT 11 12
REMARK Flexibility Score: inf
ROOT
ATOM      1  C   UNL     1     111.093 111.465 105.722  1.00  0.00     0.014 C 
ATOM      2  C   UNL     1     111.648 110.361 104.783  1.00  0.00    -0.006 C 
ATOM      3  C   UNL     1     112.204 109.172 105.640  1.00  0.00    -0.002 C 
ATOM      4  C   UNL     1     113.022 108.190 104.775  1.00  0.00     0.005 C 
ATOM      5  C   UNL     1     111.950 107.556 103.875  1.00  0.00     0.010 C 
ATOM      6  C   UNL     1     110.641 108.175 104.415  1.00  0.00    -0.006 C 
ATOM      7  C   UNL     1     110.960 108.336 105.885  1.00  0.00     0.013 C 
ATOM      8  C   UNL     1     110.542 109.648 103.931  1.00  0.00     0.126 C 
ATOM      9  C   UNL     1     109.402 107.316 104.130  1.00  0.00     0.014 C 
ATOM     10  C   UNL     1     112.713 111.021 103.875  1.00  0.00     0.014 C 
ENDROOT
BRANCH   8  11
ATOM     11  O   UNL     1     109.258 110.166 104.184  1.00  0.00    -0.392 OA
ATOM     12  H   UNL     1     109.036 110.758 103.419  1.00  0.00     0.211 HD
ENDBRANCH   8  11
TORSDOF 1
ENDMDL
MODEL 4
REMARK VINA RESULT:    -3.055      1.680      2.140
REMARK INTER + INTRA:          -3.144
REMARK INTER:                  -3.144
REMARK INTRA:                   0.000
REMARK UNBOUND:                 0.000
REMARK SMILES CC1(C)[C@@H]2CC[C@@](C)(C2)[C@H]1O
REMARK SMILES IDX 1 1 2 2 4 3 5 4 6 5 7 6 9 7 10 8 8 9 3 10 11 11
REMARK H PARENT 11 12
REMARK Flexibility Score: inf
ROOT
ATOM      1  C   UNL     1     109.239 107.952 106.183  1.00  0.00     0.014 C 
ATOM      2  C   UNL     1     109.940 109.105 105.417  1.00  0.00    -0.006 C 
ATOM      3  C   UNL     1     111.023 109.766 106.339  1.00  0.00    -0.002 C 
ATOM      4  C   UNL     1     111.540 111.089 105.737  1.00  0.00     0.005 C 
ATOM      5  C   UNL     1     112.315 110.619 104.497  1.00  0.00     0.010 C 
ATOM      6  C   UNL     1     112.235 109.079 104.607  1.00  0.00    -0.006 C 
ATOM      7  C   UNL     1     112.233 108.878 106.107  1.00  0.00     0.013 C 
ATOM      8  C   UNL     1     110.807 108.618 104.206  1.00  0.00     0.126 C 
ATOM      9  C   UNL     1     113.376 108.359 103.877  1.00  0.00     0.014 C 
ATOM     10  C   UNL     1     108.838 110.089 104.956  1.00  0.00     0.014 C 
ENDROOT
BRANCH   8  11
ATOM     11  O   UNL     1     110.766 107.221 104.049  1.00  0.00    -0.392 OA
ATOM     12  H   UNL     1     111.551 106.857 104.536  1.00  0.00     0.211 HD
ENDBRANCH   8  11
TORSDOF 1
ENDMDL
MODEL 5
REMARK VINA RESULT:    -3.052      1.552      2.947
REMARK INTER + INTRA:          -3.142
REMARK INTER:                  -3.142
REMARK INTRA:                   0.000
REMARK UNBOUND:                 0.000
REMARK SMILES CC1(C)[C@@H]2CC[C@@](C)(C2)[C@H]1O
REMARK SMILES IDX 1 1 2 2 4 3 5 4 6 5 7 6 9 7 10 8 8 9 3 10 11 11
REMARK H PARENT 11 12
REMARK Flexibility Score: inf
ROOT
ATOM      1  C   UNL     1     110.376 109.228 104.805  1.00  0.00     0.014 C 
ATOM      2  C   UNL     1     111.394 110.399 104.837  1.00  0.00    -0.006 C 
ATOM      3  C   UNL     1     110.668 111.737 104.462  1.00  0.00    -0.002 C 
ATOM      4  C   UNL     1     111.682 112.870 104.197  1.00  0.00     0.005 C 
ATOM      5  C   UNL     1     112.278 113.125 105.590  1.00  0.00     0.010 C 
ATOM      6  C   UNL     1     111.451 112.182 106.493  1.00  0.00    -0.006 C 
ATOM      7  C   UNL     1     110.108 112.190 105.798  1.00  0.00     0.013 C 
ATOM      8  C   UNL     1     111.933 110.722 106.273  1.00  0.00     0.126 C 
ATOM      9  C   UNL     1     111.405 112.633 107.959  1.00  0.00     0.014 C 
ATOM     10  C   UNL     1     112.549 110.031 103.875  1.00  0.00     0.014 C 
ENDROOT
BRANCH   8  11
ATOM     11  O   UNL     1     111.389 109.869 107.250  1.00  0.00    -0.392 OA
ATOM     12  H   UNL     1     111.525 110.318 108.125  1.00  0.00     0.211 HD
ENDBRANCH   8  11
TORSDOF 1
ENDMDL
MODEL 6
REMARK VINA RESULT:    -3.021      2.269      3.538
REMARK INTER + INTRA:          -3.109
REMARK INTER:                  -3.109
REMARK INTRA:                   0.000
REMARK UNBOUND:                 0.000
REMARK SMILES CC1(C)[C@@H]2CC[C@@](C)(C2)[C@H]1O
REMARK SMILES IDX 1 1 2 2 4 3 5 4 6 5 7 6 9 7 10 8 8 9 3 10 11 11
REMARK H PARENT 11 12
REMARK Flexibility Score: inf
ROOT
ATOM      1  C   UNL     1     107.789 110.121 103.935  1.00  0.00     0.014 C 
ATOM      2  C   UNL     1     108.566 109.738 105.223  1.00  0.00    -0.006 C 
ATOM      3  C   UNL     1     108.509 108.185 105.429  1.00  0.00    -0.002 C 
ATOM      4  C   UNL     1     109.010 107.787 106.833  1.00  0.00     0.005 C 
ATOM      5  C   UNL     1     110.508 108.118 106.766  1.00  0.00     0.010 C 
ATOM      6  C   UNL     1     110.695 108.561 105.297  1.00  0.00    -0.006 C 
ATOM      7  C   UNL     1     109.674 107.701 104.585  1.00  0.00     0.013 C 
ATOM      8  C   UNL     1     110.110 109.989 105.122  1.00  0.00     0.126 C 
ATOM      9  C   UNL     1     112.132 108.383 104.789  1.00  0.00     0.014 C 
ATOM     10  C   UNL     1     107.945 110.541 106.391  1.00  0.00     0.014 C 
ENDROOT
BRANCH   8  11
ATOM     11  O   UNL     1     110.482 110.526 103.876  1.00  0.00    -0.392 OA
ATOM     12  H   UNL     1     110.997 111.353 104.066  1.00  0.00     0.211 HD
ENDBRANCH   8  11
TORSDOF 1
ENDMDL
MODEL 7
REMARK VINA RESULT:    -3.000      8.264     10.224
REMARK INTER + INTRA:          -3.087
REMARK INTER:                  -3.087
REMARK INTRA:                   0.000
REMARK UNBOUND:                 0.000
REMARK SMILES CC1(C)[C@@H]2CC[C@@](C)(C2)[C@H]1O
REMARK SMILES IDX 1 1 2 2 4 3 5 4 6 5 7 6 9 7 10 8 8 9 3 10 11 11
REMARK H PARENT 11 12
REMARK Flexibility Score: inf
ROOT
ATOM      1  C   UNL     1     102.422 103.856 108.251  1.00  0.00     0.014 C 
ATOM      2  C   UNL     1     103.130 104.810 109.249  1.00  0.00    -0.006 C 
ATOM      3  C   UNL     1     104.394 104.101 109.848  1.00  0.00    -0.002 C 
ATOM      4  C   UNL     1     104.961 104.886 111.049  1.00  0.00     0.005 C 
ATOM      5  C   UNL     1     105.504 106.165 110.393  1.00  0.00     0.010 C 
ATOM      6  C   UNL     1     105.276 105.900 108.887  1.00  0.00    -0.006 C 
ATOM      7  C   UNL     1     105.459 104.401 108.808  1.00  0.00     0.013 C 
ATOM      8  C   UNL     1     103.766 106.071 108.568  1.00  0.00     0.126 C 
ATOM      9  C   UNL     1     106.223 106.699 107.982  1.00  0.00     0.014 C 
ATOM     10  C   UNL     1     102.086 105.218 110.316  1.00  0.00     0.014 C 
ENDROOT
BRANCH   8  11
ATOM     11  O   UNL     1     103.554 106.088 107.177  1.00  0.00    -0.392 OA
ATOM     12  H   UNL     1     102.915 105.354 106.978  1.00  0.00     0.211 HD
ENDBRANCH   8  11
TORSDOF 1
ENDMDL
MODEL 8
REMARK VINA RESULT:    -2.986      3.202      4.641
REMARK INTER + INTRA:          -3.074
REMARK INTER:                  -3.074
REMARK INTRA:                   0.000
REMARK UNBOUND:                 0.000
REMARK SMILES CC1(C)[C@@H]2CC[C@@](C)(C2)[C@H]1O
REMARK SMILES IDX 1 1 2 2 4 3 5 4 6 5 7 6 9 7 10 8 8 9 3 10 11 11
REMARK H PARENT 11 12
REMARK Flexibility Score: inf
ROOT
ATOM      1  C   UNL     1     107.797 109.376 104.057  1.00  0.00     0.014 C 
ATOM      2  C   UNL     1     108.843 108.709 104.989  1.00  0.00    -0.006 C 
ATOM      3  C   UNL     1     109.047 109.592 106.268  1.00  0.00    -0.002 C 
ATOM      4  C   UNL     1     110.275 109.130 107.079  1.00  0.00     0.005 C 
ATOM      5  C   UNL     1     109.833 107.760 107.615  1.00  0.00     0.010 C 
ATOM      6  C   UNL     1     108.368 107.661 107.134  1.00  0.00    -0.006 C 
ATOM      7  C   UNL     1     107.932 109.109 107.178  1.00  0.00     0.013 C 
ATOM      8  C   UNL     1     108.357 107.355 105.611  1.00  0.00     0.126 C 
ATOM      9  C   UNL     1     107.511 106.719 107.989  1.00  0.00     0.014 C 
ATOM     10  C   UNL     1     110.136 108.511 104.162  1.00  0.00     0.014 C 
ENDROOT
BRANCH   8  11
ATOM     11  O   UNL     1     107.061 107.009 105.186  1.00  0.00    -0.392 OA
ATOM     12  H   UNL     1     107.066 107.055 104.195  1.00  0.00     0.211 HD
ENDBRANCH   8  11
TORSDOF 1
ENDMDL
