MODEL 1
REMARK VINA RESULT:    -5.393      0.000      0.000
REMARK INTER + INTRA:          -6.323
REMARK INTER:                  -6.181
REMARK INTRA:                  -0.141
REMARK UNBOUND:                -0.141
REMARK SMILES O=C([O-])C=Cc1ccc(O)cc1
REMARK SMILES IDX 6 1 7 2 12 3 8 4 11 5 9 6 5 7 4 8 2 9 1 10 3 11 10 12
REMARK H PARENT 10 13
REMARK Flexibility Score: inf
ROOT
ATOM      1  C   UNL     1      72.799  40.981  -2.981  1.00  0.00    -0.025 A 
ATOM      2  C   UNL     1      73.720  40.517  -3.935  1.00  0.00     0.012 A 
ATOM      3  C   UNL     1      71.521  40.387  -2.924  1.00  0.00     0.012 A 
ATOM      4  C   UNL     1      73.385  39.469  -4.797  1.00  0.00     0.047 A 
ATOM      5  C   UNL     1      71.190  39.339  -3.789  1.00  0.00     0.047 A 
ATOM      6  C   UNL     1      72.119  38.876  -4.725  1.00  0.00     0.115 A 
ENDROOT
BRANCH   1   7
ATOM      7  C   UNL     1      73.198  42.104  -2.095  1.00  0.00     0.010 C 
ATOM      8  C   UNL     1      73.534  43.323  -2.542  1.00  0.00     0.025 C 
BRANCH   8   9
ATOM      9  C   UNL     1      73.914  44.415  -1.631  1.00  0.00     0.064 C 
ATOM     10  O   UNL     1      73.523  44.432  -0.433  1.00  0.00    -0.545 OA
ATOM     11  O   UNL     1      74.717  45.446  -2.100  1.00  0.00    -0.545 OA
ENDBRANCH   8   9
ENDBRANCH   1   7
BRANCH   6  12
ATOM     12  O   UNL     1      71.774  37.830  -5.578  1.00  0.00    -0.508 OA
ATOM     13  H   UNL     1      72.347  36.997  -5.654  1.00  0.00     0.293 HD
ENDBRANCH   6  12
TORSDOF 3
ENDMDL
MODEL 2
REMARK VINA RESULT:    -4.896      1.579      5.822
REMARK INTER + INTRA:          -5.752
REMARK INTER:                  -5.606
REMARK INTRA:                  -0.146
REMARK UNBOUND:                -0.141
REMARK SMILES O=C([O-])C=Cc1ccc(O)cc1
REMARK SMILES IDX 6 1 7 2 12 3 8 4 11 5 9 6 5 7 4 8 2 9 1 10 3 11 10 12
REMARK H PARENT 10 13
REMARK Flexibility Score: inf
ROOT
ATOM      1  C   UNL     1      73.973  41.521  -3.491  1.00  0.00    -0.025 A 
ATOM      2  C   UNL     1      74.744  42.576  -4.006  1.00  0.00     0.012 A 
ATOM      3  C   UNL     1      73.253  41.726  -2.295  1.00  0.00     0.012 A 
ATOM      4  C   UNL     1      74.777  43.816  -3.361  1.00  0.00     0.047 A 
ATOM      5  C   UNL     1      73.289  42.967  -1.652  1.00  0.00     0.047 A 
ATOM      6  C   UNL     1      74.048  44.015  -2.182  1.00  0.00     0.115 A 
ENDROOT
BRANCH   1   7
ATOM      7  C   UNL     1      73.979  40.221  -4.207  1.00  0.00     0.010 C 
ATOM      8  C   UNL     1      74.095  40.103  -5.538  1.00  0.00     0.025 C 
BRANCH   8   9
ATOM      9  C   UNL     1      74.109  38.794  -6.211  1.00  0.00     0.064 C 
ATOM     10  O   UNL     1      75.125  38.394  -6.841  1.00  0.00    -0.545 OA
ATOM     11  O   UNL     1      72.982  37.984  -6.152  1.00  0.00    -0.545 OA
ENDBRANCH   8   9
ENDBRANCH   1   7
BRANCH   6  12
ATOM     12  O   UNL     1      74.072  45.246  -1.530  1.00  0.00    -0.508 OA
ATOM     13  H   UNL     1      74.945  45.710  -1.307  1.00  0.00     0.293 HD
ENDBRANCH   6  12
TORSDOF 3
ENDMDL
MODEL 3
REMARK VINA RESULT:    -4.851      2.611      3.488
REMARK INTER + INTRA:          -5.702
REMARK INTER:                  -5.555
REMARK INTRA:                  -0.147
REMARK UNBOUND:                -0.141
REMARK SMILES O=C([O-])C=Cc1ccc(O)cc1
REMARK SMILES IDX 6 1 7 2 12 3 8 4 11 5 9 6 5 7 4 8 2 9 1 10 3 11 10 12
REMARK H PARENT 10 13
REMARK Flexibility Score: inf
ROOT
ATOM      1  C   UNL     1      73.622  43.396  -2.250  1.00  0.00    -0.025 A 
ATOM      2  C   UNL     1      73.312  42.067  -1.918  1.00  0.00     0.012 A 
ATOM      3  C   UNL     1      74.462  43.642  -3.355  1.00  0.00     0.012 A 
ATOM      4  C   UNL     1      73.804  41.007  -2.685  1.00  0.00     0.047 A 
ATOM      5  C   UNL     1      74.953  42.579  -4.120  1.00  0.00     0.047 A 
ATOM      6  C   UNL     1      74.625  41.262  -3.790  1.00  0.00     0.115 A 
ENDROOT
BRANCH   1   7
ATOM      7  C   UNL     1      73.084  44.486  -1.397  1.00  0.00     0.010 C 
ATOM      8  C   UNL     1      71.923  44.406  -0.729  1.00  0.00     0.025 C 
BRANCH   8   9
ATOM      9  C   UNL     1      71.427  45.504   0.116  1.00  0.00     0.064 C 
ATOM     10  O   UNL     1      71.383  45.394   1.371  1.00  0.00    -0.545 OA
ATOM     11  O   UNL     1      71.001  46.684  -0.479  1.00  0.00    -0.545 OA
ENDBRANCH   8   9
ENDBRANCH   1   7
BRANCH   6  12
ATOM     12  O   UNL     1      75.121  40.214  -4.563  1.00  0.00    -0.508 OA
ATOM     13  H   UNL     1      76.040  40.260  -4.990  1.00  0.00     0.293 HD
ENDBRANCH   6  12
TORSDOF 3
ENDMDL
MODEL 4
REMARK VINA RESULT:    -4.851      1.425      2.143
REMARK INTER + INTRA:          -5.702
REMARK INTER:                  -5.561
REMARK INTRA:                  -0.141
REMARK UNBOUND:                -0.141
REMARK SMILES O=C([O-])C=Cc1ccc(O)cc1
REMARK SMILES IDX 6 1 7 2 12 3 8 4 11 5 9 6 5 7 4 8 2 9 1 10 3 11 10 12
REMARK H PARENT 10 13
REMARK Flexibility Score: inf
ROOT
ATOM      1  C   UNL     1      74.484  41.419  -4.348  1.00  0.00    -0.025 A 
ATOM      2  C   UNL     1      75.125  41.357  -5.596  1.00  0.00     0.012 A 
ATOM      3  C   UNL     1      73.631  40.362  -3.968  1.00  0.00     0.012 A 
ATOM      4  C   UNL     1      74.942  40.256  -6.437  1.00  0.00     0.047 A 
ATOM      5  C   UNL     1      73.450  39.263  -4.813  1.00  0.00     0.047 A 
ATOM      6  C   UNL     1      74.104  39.205  -6.046  1.00  0.00     0.115 A 
ENDROOT
BRANCH   1   7
ATOM      7  C   UNL     1      74.702  42.615  -3.495  1.00  0.00     0.010 C 
ATOM      8  C   UNL     1      73.764  43.140  -2.693  1.00  0.00     0.025 C 
BRANCH   8   9
ATOM      9  C   UNL     1      74.021  44.320  -1.852  1.00  0.00     0.064 C 
ATOM     10  O   UNL     1      74.763  45.258  -2.252  1.00  0.00    -0.545 OA
ATOM     11  O   UNL     1      73.435  44.404  -0.596  1.00  0.00    -0.545 OA
ENDBRANCH   8   9
ENDBRANCH   1   7
BRANCH   6  12
ATOM     12  O   UNL     1      73.914  38.101  -6.876  1.00  0.00    -0.508 OA
ATOM     13  H   UNL     1      74.324  37.199  -6.659  1.00  0.00     0.293 HD
ENDBRANCH   6  12
TORSDOF 3
ENDMDL
MODEL 5
REMARK VINA RESULT:    -4.826      1.484      5.621
REMARK INTER + INTRA:          -5.673
REMARK INTER:                  -5.539
REMARK INTRA:                  -0.134
REMARK UNBOUND:                -0.141
REMARK SMILES O=C([O-])C=Cc1ccc(O)cc1
REMARK SMILES IDX 6 1 7 2 12 3 8 4 11 5 9 6 5 7 4 8 2 9 1 10 3 11 10 12
REMARK H PARENT 10 13
REMARK Flexibility Score: inf
ROOT
ATOM      1  C   UNL     1      73.400  42.282  -2.612  1.00  0.00    -0.025 A 
ATOM      2  C   UNL     1      74.441  42.696  -3.459  1.00  0.00     0.012 A 
ATOM      3  C   UNL     1      72.960  43.157  -1.597  1.00  0.00     0.012 A 
ATOM      4  C   UNL     1      75.014  43.963  -3.316  1.00  0.00     0.047 A 
ATOM      5  C   UNL     1      73.537  44.423  -1.457  1.00  0.00     0.047 A 
ATOM      6  C   UNL     1      74.562  44.830  -2.315  1.00  0.00     0.115 A 
ENDROOT
BRANCH   1   7
ATOM      7  C   UNL     1      72.831  40.923  -2.797  1.00  0.00     0.010 C 
ATOM      8  C   UNL     1      71.527  40.682  -3.001  1.00  0.00     0.025 C 
BRANCH   8   9
ATOM      9  C   UNL     1      71.001  39.321  -3.192  1.00  0.00     0.064 C 
ATOM     10  O   UNL     1      70.626  38.622  -2.212  1.00  0.00    -0.545 OA
ATOM     11  O   UNL     1      70.915  38.796  -4.475  1.00  0.00    -0.545 OA
ENDBRANCH   8   9
ENDBRANCH   1   7
BRANCH   6  12
ATOM     12  O   UNL     1      75.125  46.096  -2.163  1.00  0.00    -0.508 OA
ATOM     13  H   UNL     1      75.330  46.478  -1.247  1.00  0.00     0.293 HD
ENDBRANCH   6  12
TORSDOF 3
ENDMDL
MODEL 6
REMARK VINA RESULT:    -4.784     14.029     15.417
REMARK INTER + INTRA:          -5.625
REMARK INTER:                  -5.489
REMARK INTRA:                  -0.136
REMARK UNBOUND:                -0.141
REMARK SMILES O=C([O-])C=Cc1ccc(O)cc1
REMARK SMILES IDX 6 1 7 2 12 3 8 4 11 5 9 6 5 7 4 8 2 9 1 10 3 11 10 12
REMARK H PARENT 10 13
REMARK Flexibility Score: inf
ROOT
ATOM      1  C   UNL     1      70.878  49.996   8.881  1.00  0.00    -0.025 A 
ATOM      2  C   UNL     1      71.581  50.338   7.713  1.00  0.00     0.012 A 
ATOM      3  C   UNL     1      71.536  49.242   9.874  1.00  0.00     0.012 A 
ATOM      4  C   UNL     1      72.916  49.960   7.549  1.00  0.00     0.047 A 
ATOM      5  C   UNL     1      72.872  48.864   9.705  1.00  0.00     0.047 A 
ATOM      6  C   UNL     1      73.566  49.223   8.546  1.00  0.00     0.115 A 
ENDROOT
BRANCH   1   7
ATOM      7  C   UNL     1      69.458  50.413   9.004  1.00  0.00     0.010 C 
ATOM      8  C   UNL     1      68.430  49.553   9.039  1.00  0.00     0.025 C 
BRANCH   8   9
ATOM      9  C   UNL     1      67.035  50.003   9.174  1.00  0.00     0.064 C 
ATOM     10  O   UNL     1      66.704  50.854  10.043  1.00  0.00    -0.545 OA
ATOM     11  O   UNL     1      66.065  49.481   8.328  1.00  0.00    -0.545 OA
ENDBRANCH   8   9
ENDBRANCH   1   7
BRANCH   6  12
ATOM     12  O   UNL     1      74.897  48.840   8.394  1.00  0.00    -0.508 OA
ATOM     13  H   UNL     1      75.582  49.460   7.977  1.00  0.00     0.293 HD
ENDBRANCH   6  12
TORSDOF 3
ENDMDL
MODEL 7
REMARK VINA RESULT:    -4.507     13.628     14.497
REMARK INTER + INTRA:          -5.307
REMARK INTER:                  -5.158
REMARK INTRA:                  -0.150
REMARK UNBOUND:                -0.141
REMARK SMILES O=C([O-])C=Cc1ccc(O)cc1
REMARK SMILES IDX 6 1 7 2 12 3 8 4 11 5 9 6 5 7 4 8 2 9 1 10 3 11 10 12
REMARK H PARENT 10 13
REMARK Flexibility Score: inf
ROOT
ATOM      1  C   UNL     1      68.645  49.373   8.258  1.00  0.00    -0.025 A 
ATOM      2  C   UNL     1      68.450  48.555   7.132  1.00  0.00     0.012 A 
ATOM      3  C   UNL     1      67.523  49.760   9.020  1.00  0.00     0.012 A 
ATOM      4  C   UNL     1      67.170  48.111   6.787  1.00  0.00     0.047 A 
ATOM      5  C   UNL     1      66.244  49.314   8.671  1.00  0.00     0.047 A 
ATOM      6  C   UNL     1      66.064  48.488   7.558  1.00  0.00     0.115 A 
ENDROOT
BRANCH   1   7
ATOM      7  C   UNL     1      70.022  49.827   8.577  1.00  0.00     0.010 C 
ATOM      8  C   UNL     1      71.126  49.305   8.023  1.00  0.00     0.025 C 
BRANCH   8   9
ATOM      9  C   UNL     1      72.475  49.790   8.356  1.00  0.00     0.064 C 
ATOM     10  O   UNL     1      73.032  50.693   7.675  1.00  0.00    -0.545 OA
ATOM     11  O   UNL     1      73.148  49.244   9.442  1.00  0.00    -0.545 OA
ENDBRANCH   8   9
ENDBRANCH   1   7
BRANCH   6  12
ATOM     12  O   UNL     1      64.784  48.052   7.224  1.00  0.00    -0.508 OA
ATOM     13  H   UNL     1      64.605  47.538   6.368  1.00  0.00     0.293 HD
ENDBRANCH   6  12
TORSDOF 3
ENDMDL
MODEL 8
REMARK VINA RESULT:    -4.402     13.571     14.507
REMARK INTER + INTRA:          -5.187
REMARK INTER:                  -5.049
REMARK INTRA:                  -0.138
REMARK UNBOUND:                -0.141
REMARK SMILES O=C([O-])C=Cc1ccc(O)cc1
REMARK SMILES IDX 6 1 7 2 12 3 8 4 11 5 9 6 5 7 4 8 2 9 1 10 3 11 10 12
REMARK H PARENT 10 13
REMARK Flexibility Score: inf
ROOT
ATOM      1  C   UNL     1      68.769  49.348   8.132  1.00  0.00    -0.025 A 
ATOM      2  C   UNL     1      67.701  49.728   8.961  1.00  0.00     0.012 A 
ATOM      3  C   UNL     1      68.507  48.517   7.023  1.00  0.00     0.012 A 
ATOM      4  C   UNL     1      66.397  49.312   8.678  1.00  0.00     0.047 A 
ATOM      5  C   UNL     1      67.201  48.102   6.744  1.00  0.00     0.047 A 
ATOM      6  C   UNL     1      66.144  48.499   7.567  1.00  0.00     0.115 A 
ENDROOT
BRANCH   1   7
ATOM      7  C   UNL     1      70.138  49.807   8.480  1.00  0.00     0.010 C 
ATOM      8  C   UNL     1      71.232  49.038   8.372  1.00  0.00     0.025 C 
BRANCH   8   9
ATOM      9  C   UNL     1      72.575  49.533   8.715  1.00  0.00     0.064 C 
ATOM     10  O   UNL     1      73.175  49.130   9.749  1.00  0.00    -0.545 OA
ATOM     11  O   UNL     1      73.194  50.459   7.886  1.00  0.00    -0.545 OA
ENDBRANCH   8   9
ENDBRANCH   1   7
BRANCH   6  12
ATOM     12  O   UNL     1      64.848  48.078   7.275  1.00  0.00    -0.508 OA
ATOM     13  H   UNL     1      64.576  47.105   7.358  1.00  0.00     0.293 HD
ENDBRANCH   6  12
TORSDOF 3
ENDMDL
