MODEL 1
REMARK VINA RESULT:    -3.261      0.000      0.000
REMARK INTER + INTRA:          -7.445
REMARK INTER:                  -5.739
REMARK INTRA:                  -1.706
REMARK UNBOUND:                -1.706
REMARK SMILES CCCCCCCCCCCCCCC(=O)[O-]
REMARK SMILES IDX 9 1 10 2 11 3 12 4 13 5 14 6 15 7 16 8 17 9 8 10 7 11 6 12
REMARK SMILES IDX 5 13 4 14 3 15 2 16 1 17
REMARK H PARENT
REMARK Flexibility Score: inf
ROOT
ATOM      1  C   UNL     1     -16.110 -14.121  27.464  1.00  0.00     0.000 C 
ENDROOT
BRANCH   1   2
ATOM      2  C   UNL     1     -15.648 -15.216  26.485  1.00  0.00     0.000 C 
BRANCH   2   3
ATOM      3  C   UNL     1     -15.797 -16.663  26.998  1.00  0.00     0.000 C 
BRANCH   3   4
ATOM      4  C   UNL     1     -16.045 -16.799  28.511  1.00  0.00     0.000 C 
BRANCH   4   5
ATOM      5  C   UNL     1     -14.884 -17.485  29.246  1.00  0.00     0.006 C 
BRANCH   5   6
ATOM      6  C   UNL     1     -13.938 -16.449  29.862  1.00  0.00     0.053 C 
BRANCH   6   7
ATOM      7  C   UNL     1     -12.513 -16.804  29.572  1.00  0.00     0.041 C 
ATOM      8  O   UNL     1     -12.001 -17.834  30.084  1.00  0.00    -0.550 OA
ATOM      9  O   UNL     1     -11.767 -16.025  28.698  1.00  0.00    -0.550 OA
ENDBRANCH   6   7
ENDBRANCH   5   6
ENDBRANCH   4   5
ENDBRANCH   3   4
ENDBRANCH   2   3
ENDBRANCH   1   2
BRANCH   1  10
ATOM     10  C   UNL     1     -17.361 -13.372  26.972  1.00  0.00     0.000 C 
BRANCH  10  11
ATOM     11  C   UNL     1     -17.098 -12.563  25.692  1.00  0.00    -0.000 C 
BRANCH  11  12
ATOM     12  C   UNL     1     -18.393 -12.124  24.991  1.00  0.00    -0.000 C 
BRANCH  12  13
ATOM     13  C   UNL     1     -18.415 -12.597  23.533  1.00  0.00    -0.000 C 
BRANCH  13  14
ATOM     14  C   UNL     1     -17.480 -13.796  23.327  1.00  0.00    -0.000 C 
BRANCH  14  15
ATOM     15  C   UNL     1     -18.269 -15.042  22.900  1.00  0.00    -0.000 C 
BRANCH  15  16
ATOM     16  C   UNL     1     -18.065 -16.226  23.857  1.00  0.00    -0.003 C 
ATOM     17  C   UNL     1     -18.958 -16.145  25.095  1.00  0.00     0.004 C 
ENDBRANCH  15  16
ENDBRANCH  14  15
ENDBRANCH  13  14
ENDBRANCH  12  13
ENDBRANCH  11  12
ENDBRANCH  10  11
ENDBRANCH   1  10
TORSDOF 13
ENDMDL
MODEL 2
REMARK VINA RESULT:    -3.185      8.676     10.673
REMARK INTER + INTRA:          -7.312
REMARK INTER:                  -4.888
REMARK INTRA:                  -2.424
REMARK UNBOUND:                -1.706
REMARK SMILES CCCCCCCCCCCCCCC(=O)[O-]
REMARK SMILES IDX 9 1 10 2 11 3 12 4 13 5 14 6 15 7 16 8 17 9 8 10 7 11 6 12
REMARK SMILES IDX 5 13 4 14 3 15 2 16 1 17
REMARK H PARENT
REMARK Flexibility Score: inf
ROOT
ATOM      1  C   UNL     1     -11.803 -23.357  19.582  1.00  0.00     0.000 C 
ENDROOT
BRANCH   1   2
ATOM      2  C   UNL     1     -10.887 -22.526  20.498  1.00  0.00     0.000 C 
BRANCH   2   3
ATOM      3  C   UNL     1     -10.464 -21.153  19.936  1.00  0.00     0.000 C 
BRANCH   3   4
ATOM      4  C   UNL     1     -10.826 -19.945  20.819  1.00  0.00     0.000 C 
BRANCH   4   5
ATOM      5  C   UNL     1     -11.787 -18.968  20.128  1.00  0.00     0.006 C 
BRANCH   5   6
ATOM      6  C   UNL     1     -12.262 -19.526  18.783  1.00  0.00     0.053 C 
BRANCH   6   7
ATOM      7  C   UNL     1     -13.536 -18.862  18.361  1.00  0.00     0.041 C 
ATOM      8  O   UNL     1     -14.542 -19.557  18.061  1.00  0.00    -0.550 OA
ATOM      9  O   UNL     1     -13.625 -17.477  18.347  1.00  0.00    -0.550 OA
ENDBRANCH   6   7
ENDBRANCH   5   6
ENDBRANCH   4   5
ENDBRANCH   3   4
ENDBRANCH   2   3
ENDBRANCH   1   2
BRANCH   1  10
ATOM     10  C   UNL     1     -13.175 -23.646  20.216  1.00  0.00     0.000 C 
BRANCH  10  11
ATOM     11  C   UNL     1     -14.278 -22.715  19.686  1.00  0.00    -0.000 C 
BRANCH  11  12
ATOM     12  C   UNL     1     -15.123 -22.097  20.809  1.00  0.00    -0.000 C 
BRANCH  12  13
ATOM     13  C   UNL     1     -14.347 -20.993  21.536  1.00  0.00    -0.000 C 
BRANCH  13  14
ATOM     14  C   UNL     1     -14.227 -21.295  23.035  1.00  0.00    -0.000 C 
BRANCH  14  15
ATOM     15  C   UNL     1     -12.755 -21.361  23.467  1.00  0.00    -0.000 C 
BRANCH  15  16
ATOM     16  C   UNL     1     -12.429 -22.636  24.259  1.00  0.00    -0.003 C 
ATOM     17  C   UNL     1     -13.360 -23.800  23.916  1.00  0.00     0.004 C 
ENDBRANCH  15  16
ENDBRANCH  14  15
ENDBRANCH  13  14
ENDBRANCH  12  13
ENDBRANCH  11  12
ENDBRANCH  10  11
ENDBRANCH   1  10
TORSDOF 13
ENDMDL
MODEL 3
REMARK VINA RESULT:    -3.175      8.820     10.558
REMARK INTER + INTRA:          -7.294
REMARK INTER:                  -5.055
REMARK INTRA:                  -2.239
REMARK UNBOUND:                -1.706
REMARK SMILES CCCCCCCCCCCCCCC(=O)[O-]
REMARK SMILES IDX 9 1 10 2 11 3 12 4 13 5 14 6 15 7 16 8 17 9 8 10 7 11 6 12
REMARK SMILES IDX 5 13 4 14 3 15 2 16 1 17
REMARK H PARENT
REMARK Flexibility Score: inf
ROOT
ATOM      1  C   UNL     1     -14.329 -22.952  20.050  1.00  0.00     0.000 C 
ENDROOT
BRANCH   1   2
ATOM      2  C   UNL     1     -13.013 -22.668  19.304  1.00  0.00     0.000 C 
BRANCH   2   3
ATOM      3  C   UNL     1     -11.759 -23.340  19.900  1.00  0.00     0.000 C 
BRANCH   3   4
ATOM      4  C   UNL     1     -10.635 -22.375  20.319  1.00  0.00     0.000 C 
BRANCH   4   5
ATOM      5  C   UNL     1     -10.757 -20.995  19.656  1.00  0.00     0.006 C 
BRANCH   5   6
ATOM      6  C   UNL     1     -10.197 -19.899  20.567  1.00  0.00     0.053 C 
BRANCH   6   7
ATOM      7  C   UNL     1      -8.962 -19.301  19.968  1.00  0.00     0.041 C 
ATOM      8  O   UNL     1      -8.912 -19.055  18.734  1.00  0.00    -0.550 OA
ATOM      9  O   UNL     1      -7.886 -18.972  20.781  1.00  0.00    -0.550 OA
ENDBRANCH   6   7
ENDBRANCH   5   6
ENDBRANCH   4   5
ENDBRANCH   3   4
ENDBRANCH   2   3
ENDBRANCH   1   2
BRANCH   1  10
ATOM     10  C   UNL     1     -14.962 -21.682  20.646  1.00  0.00     0.000 C 
BRANCH  10  11
ATOM     11  C   UNL     1     -13.925 -20.760  21.307  1.00  0.00    -0.000 C 
BRANCH  11  12
ATOM     12  C   UNL     1     -13.892 -20.905  22.836  1.00  0.00    -0.000 C 
BRANCH  12  13
ATOM     13  C   UNL     1     -12.469 -21.196  23.328  1.00  0.00    -0.000 C 
BRANCH  13  14
ATOM     14  C   UNL     1     -12.414 -22.512  24.115  1.00  0.00    -0.000 C 
BRANCH  14  15
ATOM     15  C   UNL     1     -13.755 -23.256  24.036  1.00  0.00    -0.000 C 
BRANCH  15  16
ATOM     16  C   UNL     1     -13.586 -24.744  23.695  1.00  0.00    -0.003 C 
ATOM     17  C   UNL     1     -12.254 -25.045  23.007  1.00  0.00     0.004 C 
ENDBRANCH  15  16
ENDBRANCH  14  15
ENDBRANCH  13  14
ENDBRANCH  12  13
ENDBRANCH  11  12
ENDBRANCH  10  11
ENDBRANCH   1  10
TORSDOF 13
ENDMDL
MODEL 4
REMARK VINA RESULT:    -3.121      3.662      7.294
REMARK INTER + INTRA:          -7.200
REMARK INTER:                  -5.480
REMARK INTRA:                  -1.720
REMARK UNBOUND:                -1.706
REMARK SMILES CCCCCCCCCCCCCCC(=O)[O-]
REMARK SMILES IDX 9 1 10 2 11 3 12 4 13 5 14 6 15 7 16 8 17 9 8 10 7 11 6 12
REMARK SMILES IDX 5 13 4 14 3 15 2 16 1 17
REMARK H PARENT
REMARK Flexibility Score: inf
ROOT
ATOM      1  C   UNL     1     -14.042 -16.916  29.223  1.00  0.00     0.000 C 
ENDROOT
BRANCH   1   2
ATOM      2  C   UNL     1     -14.036 -16.026  27.968  1.00  0.00     0.000 C 
BRANCH   2   3
ATOM      3  C   UNL     1     -15.256 -16.189  27.039  1.00  0.00     0.000 C 
BRANCH   3   4
ATOM      4  C   UNL     1     -16.068 -14.904  26.794  1.00  0.00     0.000 C 
BRANCH   4   5
ATOM      5  C   UNL     1     -16.763 -14.889  25.425  1.00  0.00     0.006 C 
BRANCH   5   6
ATOM      6  C   UNL     1     -16.789 -13.475  24.839  1.00  0.00     0.053 C 
BRANCH   6   7
ATOM      7  C   UNL     1     -18.192 -12.955  24.787  1.00  0.00     0.041 C 
ATOM      8  O   UNL     1     -18.546 -12.179  23.861  1.00  0.00    -0.550 OA
ATOM      9  O   UNL     1     -19.120 -13.367  25.734  1.00  0.00    -0.550 OA
ENDBRANCH   6   7
ENDBRANCH   5   6
ENDBRANCH   4   5
ENDBRANCH   3   4
ENDBRANCH   2   3
ENDBRANCH   1   2
BRANCH   1  10
ATOM     10  C   UNL     1     -12.641 -17.093  29.835  1.00  0.00     0.000 C 
BRANCH  10  11
ATOM     11  C   UNL     1     -11.614 -16.109  29.252  1.00  0.00    -0.000 C 
BRANCH  11  12
ATOM     12  C   UNL     1     -10.821 -15.366  30.338  1.00  0.00    -0.000 C 
BRANCH  12  13
ATOM     13  C   UNL     1     -11.443 -13.996  30.630  1.00  0.00    -0.000 C 
BRANCH  13  14
ATOM     14  C   UNL     1     -11.963 -13.339  29.345  1.00  0.00    -0.000 C 
BRANCH  14  15
ATOM     15  C   UNL     1     -13.334 -12.688  29.577  1.00  0.00    -0.000 C 
BRANCH  15  16
ATOM     16  C   UNL     1     -14.091 -13.309  30.760  1.00  0.00    -0.003 C 
ATOM     17  C   UNL     1     -15.525 -13.700  30.406  1.00  0.00     0.004 C 
ENDBRANCH  15  16
ENDBRANCH  14  15
ENDBRANCH  13  14
ENDBRANCH  12  13
ENDBRANCH  11  12
ENDBRANCH  10  11
ENDBRANCH   1  10
TORSDOF 13
ENDMDL
MODEL 5
REMARK VINA RESULT:    -3.113      8.598     10.267
REMARK INTER + INTRA:          -7.186
REMARK INTER:                  -4.952
REMARK INTRA:                  -2.235
REMARK UNBOUND:                -1.706
REMARK SMILES CCCCCCCCCCCCCCC(=O)[O-]
REMARK SMILES IDX 9 1 10 2 11 3 12 4 13 5 14 6 15 7 16 8 17 9 8 10 7 11 6 12
REMARK SMILES IDX 5 13 4 14 3 15 2 16 1 17
REMARK H PARENT
REMARK Flexibility Score: inf
ROOT
ATOM      1  C   UNL     1     -12.702 -24.291  22.384  1.00  0.00     0.000 C 
ENDROOT
BRANCH   1   2
ATOM      2  C   UNL     1     -11.882 -23.444  23.373  1.00  0.00     0.000 C 
BRANCH   2   3
ATOM      3  C   UNL     1     -12.586 -22.175  23.895  1.00  0.00     0.000 C 
BRANCH   3   4
ATOM      4  C   UNL     1     -14.067 -22.036  23.494  1.00  0.00     0.000 C 
BRANCH   4   5
ATOM      5  C   UNL     1     -14.318 -20.861  22.538  1.00  0.00     0.006 C 
BRANCH   5   6
ATOM      6  C   UNL     1     -14.690 -21.363  21.140  1.00  0.00     0.053 C 
BRANCH   6   7
ATOM      7  C   UNL     1     -15.916 -22.221  21.201  1.00  0.00     0.041 C 
ATOM      8  O   UNL     1     -17.018 -21.726  21.557  1.00  0.00    -0.550 OA
ATOM      9  O   UNL     1     -15.850 -23.554  20.818  1.00  0.00    -0.550 OA
ENDBRANCH   6   7
ENDBRANCH   5   6
ENDBRANCH   4   5
ENDBRANCH   3   4
ENDBRANCH   2   3
ENDBRANCH   1   2
BRANCH   1  10
ATOM     10  C   UNL     1     -12.298 -24.054  20.918  1.00  0.00     0.000 C 
BRANCH  10  11
ATOM     11  C   UNL     1     -10.999 -23.241  20.789  1.00  0.00    -0.000 C 
BRANCH  11  12
ATOM     12  C   UNL     1     -11.180 -21.961  19.961  1.00  0.00    -0.000 C 
BRANCH  12  13
ATOM     13  C   UNL     1     -10.955 -20.713  20.823  1.00  0.00    -0.000 C 
BRANCH  13  14
ATOM     14  C   UNL     1     -10.998 -19.437  19.972  1.00  0.00    -0.000 C 
BRANCH  14  15
ATOM     15  C   UNL     1     -12.310 -18.672  20.194  1.00  0.00    -0.000 C 
BRANCH  15  16
ATOM     16  C   UNL     1     -12.940 -18.187  18.880  1.00  0.00    -0.003 C 
ATOM     17  C   UNL     1     -13.726 -19.283  18.161  1.00  0.00     0.004 C 
ENDBRANCH  15  16
ENDBRANCH  14  15
ENDBRANCH  13  14
ENDBRANCH  12  13
ENDBRANCH  11  12
ENDBRANCH  10  11
ENDBRANCH   1  10
TORSDOF 13
ENDMDL
MODEL 6
REMARK VINA RESULT:    -3.111      1.576      2.015
REMARK INTER + INTRA:          -7.182
REMARK INTER:                  -5.287
REMARK INTRA:                  -1.895
REMARK UNBOUND:                -1.706
REMARK SMILES CCCCCCCCCCCCCCC(=O)[O-]
REMARK SMILES IDX 9 1 10 2 11 3 12 4 13 5 14 6 15 7 16 8 17 9 8 10 7 11 6 12
REMARK SMILES IDX 5 13 4 14 3 15 2 16 1 17
REMARK H PARENT
REMARK Flexibility Score: inf
ROOT
ATOM      1  C   UNL     1     -17.476 -13.805  27.361  1.00  0.00     0.000 C 
ENDROOT
BRANCH   1   2
ATOM      2  C   UNL     1     -16.101 -14.082  26.727  1.00  0.00     0.000 C 
BRANCH   2   3
ATOM      3  C   UNL     1     -15.838 -15.551  26.339  1.00  0.00     0.000 C 
BRANCH   3   4
ATOM      4  C   UNL     1     -15.024 -16.363  27.362  1.00  0.00     0.000 C 
BRANCH   4   5
ATOM      5  C   UNL     1     -15.907 -17.211  28.289  1.00  0.00     0.006 C 
BRANCH   5   6
ATOM      6  C   UNL     1     -16.188 -16.475  29.602  1.00  0.00     0.053 C 
BRANCH   6   7
ATOM      7  C   UNL     1     -15.514 -17.168  30.745  1.00  0.00     0.041 C 
ATOM      8  O   UNL     1     -16.029 -18.200  31.252  1.00  0.00    -0.550 OA
ATOM      9  O   UNL     1     -14.295 -16.703  31.218  1.00  0.00    -0.550 OA
ENDBRANCH   6   7
ENDBRANCH   5   6
ENDBRANCH   4   5
ENDBRANCH   3   4
ENDBRANCH   2   3
ENDBRANCH   1   2
BRANCH   1  10
ATOM     10  C   UNL     1     -18.520 -13.331  26.335  1.00  0.00     0.000 C 
BRANCH  10  11
ATOM     11  C   UNL     1     -17.966 -12.259  25.382  1.00  0.00    -0.000 C 
BRANCH  11  12
ATOM     12  C   UNL     1     -18.377 -12.495  23.921  1.00  0.00    -0.000 C 
BRANCH  12  13
ATOM     13  C   UNL     1     -17.529 -13.601  23.284  1.00  0.00    -0.000 C 
BRANCH  13  14
ATOM     14  C   UNL     1     -18.411 -14.740  22.756  1.00  0.00    -0.000 C 
BRANCH  14  15
ATOM     15  C   UNL     1     -18.215 -16.018  23.584  1.00  0.00    -0.000 C 
BRANCH  15  16
ATOM     16  C   UNL     1     -19.493 -16.446  24.321  1.00  0.00    -0.003 C 
ATOM     17  C   UNL     1     -19.230 -16.862  25.768  1.00  0.00     0.004 C 
ENDBRANCH  15  16
ENDBRANCH  14  15
ENDBRANCH  13  14
ENDBRANCH  12  13
ENDBRANCH  11  12
ENDBRANCH  10  11
ENDBRANCH   1  10
TORSDOF 13
ENDMDL
MODEL 7
REMARK VINA RESULT:    -3.096      1.266      2.936
REMARK INTER + INTRA:          -7.156
REMARK INTER:                  -5.234
REMARK INTRA:                  -1.921
REMARK UNBOUND:                -1.706
REMARK SMILES CCCCCCCCCCCCCCC(=O)[O-]
REMARK SMILES IDX 9 1 10 2 11 3 12 4 13 5 14 6 15 7 16 8 17 9 8 10 7 11 6 12
REMARK SMILES IDX 5 13 4 14 3 15 2 16 1 17
REMARK H PARENT
REMARK Flexibility Score: inf
ROOT
ATOM      1  C   UNL     1     -18.743 -16.219  25.424  1.00  0.00     0.000 C 
ENDROOT
BRANCH   1   2
ATOM      2  C   UNL     1     -17.261 -16.632  25.369  1.00  0.00     0.000 C 
BRANCH   2   3
ATOM      3  C   UNL     1     -16.554 -16.731  26.736  1.00  0.00     0.000 C 
BRANCH   3   4
ATOM      4  C   UNL     1     -15.245 -15.929  26.854  1.00  0.00     0.000 C 
BRANCH   4   5
ATOM      5  C   UNL     1     -14.824 -15.686  28.311  1.00  0.00     0.006 C 
BRANCH   5   6
ATOM      6  C   UNL     1     -13.393 -16.172  28.557  1.00  0.00     0.053 C 
BRANCH   6   7
ATOM      7  C   UNL     1     -13.334 -17.025  29.785  1.00  0.00     0.041 C 
ATOM      8  O   UNL     1     -14.091 -16.782  30.761  1.00  0.00    -0.550 OA
ATOM      9  O   UNL     1     -12.477 -18.117  29.832  1.00  0.00    -0.550 OA
ENDBRANCH   6   7
ENDBRANCH   5   6
ENDBRANCH   4   5
ENDBRANCH   3   4
ENDBRANCH   2   3
ENDBRANCH   1   2
BRANCH   1  10
ATOM     10  C   UNL     1     -19.088 -15.102  24.424  1.00  0.00     0.000 C 
BRANCH  10  11
ATOM     11  C   UNL     1     -17.914 -14.764  23.490  1.00  0.00    -0.000 C 
BRANCH  11  12
ATOM     12  C   UNL     1     -17.369 -13.345  23.711  1.00  0.00    -0.000 C 
BRANCH  12  13
ATOM     13  C   UNL     1     -18.345 -12.506  24.544  1.00  0.00    -0.000 C 
BRANCH  13  14
ATOM     14  C   UNL     1     -17.633 -11.848  25.733  1.00  0.00    -0.000 C 
BRANCH  14  15
ATOM     15  C   UNL     1     -17.318 -12.879  26.826  1.00  0.00    -0.000 C 
BRANCH  15  16
ATOM     16  C   UNL     1     -18.474 -13.054  27.822  1.00  0.00    -0.003 C 
ATOM     17  C   UNL     1     -18.321 -14.303  28.691  1.00  0.00     0.004 C 
ENDBRANCH  15  16
ENDBRANCH  14  15
ENDBRANCH  13  14
ENDBRANCH  12  13
ENDBRANCH  11  12
ENDBRANCH  10  11
ENDBRANCH   1  10
TORSDOF 13
ENDMDL
MODEL 8
REMARK VINA RESULT:    -3.089      8.975     11.119
REMARK INTER + INTRA:          -7.143
REMARK INTER:                  -5.069
REMARK INTRA:                  -2.074
REMARK UNBOUND:                -1.706
REMARK SMILES CCCCCCCCCCCCCCC(=O)[O-]
REMARK SMILES IDX 9 1 10 2 11 3 12 4 13 5 14 6 15 7 16 8 17 9 8 10 7 11 6 12
REMARK SMILES IDX 5 13 4 14 3 15 2 16 1 17
REMARK H PARENT
REMARK Flexibility Score: inf
ROOT
ATOM      1  C   UNL     1     -11.634 -23.554  19.863  1.00  0.00     0.000 C 
ENDROOT
BRANCH   1   2
ATOM      2  C   UNL     1     -10.848 -22.461  20.610  1.00  0.00     0.000 C 
BRANCH   2   3
ATOM      3  C   UNL     1     -10.747 -21.107  19.879  1.00  0.00     0.000 C 
BRANCH   3   4
ATOM      4  C   UNL     1     -10.828 -19.866  20.787  1.00  0.00     0.000 C 
BRANCH   4   5
ATOM      5  C   UNL     1     -12.102 -19.040  20.556  1.00  0.00     0.006 C 
BRANCH   5   6
ATOM      6  C   UNL     1     -12.733 -19.374  19.201  1.00  0.00     0.053 C 
BRANCH   6   7
ATOM      7  C   UNL     1     -12.725 -18.172  18.310  1.00  0.00     0.041 C 
ATOM      8  O   UNL     1     -13.731 -17.417  18.257  1.00  0.00    -0.550 OA
ATOM      9  O   UNL     1     -11.590 -17.860  17.574  1.00  0.00    -0.550 OA
ENDBRANCH   6   7
ENDBRANCH   5   6
ENDBRANCH   4   5
ENDBRANCH   3   4
ENDBRANCH   2   3
ENDBRANCH   1   2
BRANCH   1  10
ATOM     10  C   UNL     1     -12.756 -24.169  20.717  1.00  0.00     0.000 C 
BRANCH  10  11
ATOM     11  C   UNL     1     -12.273 -25.369  21.549  1.00  0.00    -0.000 C 
BRANCH  11  12
ATOM     12  C   UNL     1     -12.009 -25.004  23.018  1.00  0.00    -0.000 C 
BRANCH  12  13
ATOM     13  C   UNL     1     -13.015 -23.959  23.513  1.00  0.00    -0.000 C 
BRANCH  13  14
ATOM     14  C   UNL     1     -12.299 -22.709  24.039  1.00  0.00    -0.000 C 
BRANCH  14  15
ATOM     15  C   UNL     1     -12.914 -21.432  23.447  1.00  0.00    -0.000 C 
BRANCH  15  16
ATOM     16  C   UNL     1     -14.419 -21.574  23.173  1.00  0.00    -0.003 C 
ATOM     17  C   UNL     1     -14.783 -21.293  21.715  1.00  0.00     0.004 C 
ENDBRANCH  15  16
ENDBRANCH  14  15
ENDBRANCH  13  14
ENDBRANCH  12  13
ENDBRANCH  11  12
ENDBRANCH  10  11
ENDBRANCH   1  10
TORSDOF 13
ENDMDL
MODEL 9
REMARK VINA RESULT:    -3.026      9.495     11.298
REMARK INTER + INTRA:          -7.032
REMARK INTER:                  -4.795
REMARK INTRA:                  -2.237
REMARK UNBOUND:                -1.706
REMARK SMILES CCCCCCCCCCCCCCC(=O)[O-]
REMARK SMILES IDX 9 1 10 2 11 3 12 4 13 5 14 6 15 7 16 8 17 9 8 10 7 11 6 12
REMARK SMILES IDX 5 13 4 14 3 15 2 16 1 17
REMARK H PARENT
REMARK Flexibility Score: inf
ROOT
ATOM      1  C   UNL     1     -13.424 -20.291  18.381  1.00  0.00     0.000 C 
ENDROOT
BRANCH   1   2
ATOM      2  C   UNL     1     -13.289 -20.006  19.887  1.00  0.00     0.000 C 
BRANCH   2   3
ATOM      3  C   UNL     1     -12.114 -19.087  20.281  1.00  0.00     0.000 C 
BRANCH   3   4
ATOM      4  C   UNL     1     -10.983 -19.773  21.068  1.00  0.00     0.000 C 
BRANCH   4   5
ATOM      5  C   UNL     1      -9.624 -19.684  20.358  1.00  0.00     0.006 C 
BRANCH   5   6
ATOM      6  C   UNL     1      -9.803 -19.378  18.869  1.00  0.00     0.053 C 
BRANCH   6   7
ATOM      7  C   UNL     1      -8.881 -20.222  18.046  1.00  0.00     0.041 C 
ATOM      8  O   UNL     1      -7.634 -20.093  18.160  1.00  0.00    -0.550 OA
ATOM      9  O   UNL     1      -9.398 -21.185  17.190  1.00  0.00    -0.550 OA
ENDBRANCH   6   7
ENDBRANCH   5   6
ENDBRANCH   4   5
ENDBRANCH   3   4
ENDBRANCH   2   3
ENDBRANCH   1   2
BRANCH   1  10
ATOM     10  C   UNL     1     -12.833 -21.652  17.976  1.00  0.00     0.000 C 
BRANCH  10  11
ATOM     11  C   UNL     1     -12.744 -22.631  19.158  1.00  0.00    -0.000 C 
BRANCH  11  12
ATOM     12  C   UNL     1     -11.319 -23.158  19.385  1.00  0.00    -0.000 C 
BRANCH  12  13
ATOM     13  C   UNL     1     -10.997 -23.241  20.882  1.00  0.00    -0.000 C 
BRANCH  13  14
ATOM     14  C   UNL     1     -12.276 -23.185  21.726  1.00  0.00    -0.000 C 
BRANCH  14  15
ATOM     15  C   UNL     1     -11.968 -23.438  23.209  1.00  0.00    -0.000 C 
BRANCH  15  16
ATOM     16  C   UNL     1     -12.542 -22.348  24.126  1.00  0.00    -0.003 C 
ATOM     17  C   UNL     1     -13.322 -21.281  23.358  1.00  0.00     0.004 C 
ENDBRANCH  15  16
ENDBRANCH  14  15
ENDBRANCH  13  14
ENDBRANCH  12  13
ENDBRANCH  11  12
ENDBRANCH  10  11
ENDBRANCH   1  10
TORSDOF 13
ENDMDL
