MODEL 1
REMARK VINA RESULT:    -4.767      0.000      0.000
REMARK INTER + INTRA:          -6.763
REMARK INTER:                  -6.438
REMARK INTRA:                  -0.324
REMARK UNBOUND:                -0.324
REMARK SMILES C=C[C@@](C)(CCC=C(C)C)OC(C)=O
REMARK SMILES IDX 3 1 4 2 5 3 6 4 7 5 9 6 8 7 10 8 2 9 1 10 11 11 12 12 14 13
REMARK SMILES IDX 13 14
REMARK H PARENT
REMARK Flexibility Score: inf
ROOT
ATOM      1  C   UNL     1      -7.859  -4.748   6.488  1.00  0.00     0.127 C 
ATOM      2  C   UNL     1      -6.374  -4.998   6.136  1.00  0.00     0.061 C 
ENDROOT
BRANCH   1   3
ATOM      3  C   UNL     1      -8.782  -5.688   5.670  1.00  0.00     0.057 C 
BRANCH   3   4
ATOM      4  C   UNL     1      -8.015  -6.710   4.814  1.00  0.00     0.032 C 
BRANCH   4   5
ATOM      5  C   UNL     1      -8.506  -6.689   3.388  1.00  0.00    -0.028 C 
ATOM      6  C   UNL     1      -8.903  -7.549   1.121  1.00  0.00     0.039 C 
ATOM      7  C   UNL     1      -8.404  -7.728   2.531  1.00  0.00    -0.080 C 
ATOM      8  C   UNL     1      -7.823  -9.058   2.952  1.00  0.00     0.039 C 
ENDBRANCH   4   5
ENDBRANCH   3   4
ENDBRANCH   1   3
BRANCH   1   9
ATOM      9  C   UNL     1      -8.106  -4.988   7.970  1.00  0.00     0.013 C 
ATOM     10  C   UNL     1      -7.322  -5.768   8.725  1.00  0.00     0.008 C 
ENDBRANCH   1   9
BRANCH   1  11
ATOM     11  O   UNL     1      -8.214  -3.395   6.159  1.00  0.00    -0.455 OA
BRANCH  11  12
ATOM     12  C   UNL     1      -9.521  -2.890   6.075  1.00  0.00     0.303 C 
ATOM     13  O   UNL     1     -10.080  -2.354   7.070  1.00  0.00    -0.253 OA
ATOM     14  C   UNL     1     -10.247  -2.960   4.776  1.00  0.00     0.139 C 
ENDBRANCH  11  12
ENDBRANCH   1  11
TORSDOF 6
ENDMDL
MODEL 2
REMARK VINA RESULT:    -4.547      2.383      4.188
REMARK INTER + INTRA:          -6.467
REMARK INTER:                  -5.422
REMARK INTRA:                  -1.045
REMARK UNBOUND:                -0.324
REMARK SMILES C=C[C@@](C)(CCC=C(C)C)OC(C)=O
REMARK SMILES IDX 3 1 4 2 5 3 6 4 7 5 9 6 8 7 10 8 2 9 1 10 11 11 12 12 14 13
REMARK SMILES IDX 13 14
REMARK H PARENT
REMARK Flexibility Score: inf
ROOT
ATOM      1  C   UNL     1      -8.556  -6.836   3.957  1.00  0.00     0.127 C 
ATOM      2  C   UNL     1      -9.076  -8.280   4.152  1.00  0.00     0.061 C 
ENDROOT
BRANCH   1   3
ATOM      3  C   UNL     1      -8.332  -6.533   2.452  1.00  0.00     0.057 C 
BRANCH   3   4
ATOM      4  C   UNL     1      -9.008  -7.548   1.514  1.00  0.00     0.032 C 
BRANCH   4   5
ATOM      5  C   UNL     1      -9.871  -6.841   0.498  1.00  0.00    -0.028 C 
ATOM      6  C   UNL     1     -11.943  -5.966  -0.490  1.00  0.00     0.039 C 
ATOM      7  C   UNL     1     -11.203  -6.655   0.627  1.00  0.00    -0.080 C 
ATOM      8  C   UNL     1     -11.957  -7.099   1.859  1.00  0.00     0.039 C 
ENDBRANCH   4   5
ENDBRANCH   3   4
ENDBRANCH   1   3
BRANCH   1   9
ATOM      9  C   UNL     1      -9.549  -5.828   4.515  1.00  0.00     0.013 C 
ATOM     10  C   UNL     1      -9.928  -4.729   3.850  1.00  0.00     0.008 C 
ENDBRANCH   1   9
BRANCH   1  11
ATOM     11  O   UNL     1      -7.293  -6.680   4.624  1.00  0.00    -0.455 OA
BRANCH  11  12
ATOM     12  C   UNL     1      -7.118  -6.366   5.981  1.00  0.00     0.303 C 
ATOM     13  O   UNL     1      -7.309  -7.227   6.881  1.00  0.00    -0.253 OA
ATOM     14  C   UNL     1      -6.666  -4.997   6.358  1.00  0.00     0.139 C 
ENDBRANCH  11  12
ENDBRANCH   1  11
TORSDOF 6
ENDMDL
MODEL 3
REMARK VINA RESULT:    -4.442      3.167      6.211
REMARK INTER + INTRA:          -6.325
REMARK INTER:                  -5.736
REMARK INTRA:                  -0.589
REMARK UNBOUND:                -0.324
REMARK SMILES C=C[C@@](C)(CCC=C(C)C)OC(C)=O
REMARK SMILES IDX 3 1 4 2 5 3 6 4 7 5 9 6 8 7 10 8 2 9 1 10 11 11 12 12 14 13
REMARK SMILES IDX 13 14
REMARK H PARENT
REMARK Flexibility Score: inf
ROOT
ATOM      1  C   UNL     1      -9.448  -7.772   2.101  1.00  0.00     0.127 C 
ATOM      2  C   UNL     1      -9.456  -7.331   0.619  1.00  0.00     0.061 C 
ENDROOT
BRANCH   1   3
ATOM      3  C   UNL     1      -8.410  -6.953   2.912  1.00  0.00     0.057 C 
BRANCH   3   4
ATOM      4  C   UNL     1      -8.964  -6.395   4.234  1.00  0.00     0.032 C 
BRANCH   4   5
ATOM      5  C   UNL     1      -7.868  -6.273   5.263  1.00  0.00    -0.028 C 
ATOM      6  C   UNL     1      -6.573  -5.233   7.074  1.00  0.00     0.039 C 
ATOM      7  C   UNL     1      -7.745  -5.242   6.127  1.00  0.00    -0.080 C 
ATOM      8  C   UNL     1      -8.753  -4.117   6.178  1.00  0.00     0.039 C 
ENDBRANCH   4   5
ENDBRANCH   3   4
ENDBRANCH   1   3
BRANCH   1   9
ATOM      9  C   UNL     1     -10.821  -7.576   2.726  1.00  0.00     0.013 C 
ATOM     10  C   UNL     1     -11.641  -8.592   3.024  1.00  0.00     0.008 C 
ENDBRANCH   1   9
BRANCH   1  11
ATOM     11  O   UNL     1      -9.076  -9.157   2.194  1.00  0.00    -0.455 OA
BRANCH  11  12
ATOM     12  C   UNL     1      -8.071  -9.681   3.022  1.00  0.00     0.303 C 
ATOM     13  O   UNL     1      -6.876  -9.757   2.630  1.00  0.00    -0.253 OA
ATOM     14  C   UNL     1      -8.422 -10.124   4.401  1.00  0.00     0.139 C 
ENDBRANCH  11  12
ENDBRANCH   1  11
TORSDOF 6
ENDMDL
MODEL 4
REMARK VINA RESULT:    -4.438      2.900      5.899
REMARK INTER + INTRA:          -6.320
REMARK INTER:                  -5.761
REMARK INTRA:                  -0.559
REMARK UNBOUND:                -0.324
REMARK SMILES C=C[C@@](C)(CCC=C(C)C)OC(C)=O
REMARK SMILES IDX 3 1 4 2 5 3 6 4 7 5 9 6 8 7 10 8 2 9 1 10 11 11 12 12 14 13
REMARK SMILES IDX 13 14
REMARK H PARENT
REMARK Flexibility Score: inf
ROOT
ATOM      1  C   UNL     1      -9.194  -8.566   3.118  1.00  0.00     0.127 C 
ATOM      2  C   UNL     1     -10.733  -8.708   3.184  1.00  0.00     0.061 C 
ENDROOT
BRANCH   1   3
ATOM      3  C   UNL     1      -8.624  -8.134   4.494  1.00  0.00     0.057 C 
BRANCH   3   4
ATOM      4  C   UNL     1      -7.998  -6.729   4.487  1.00  0.00     0.032 C 
BRANCH   4   5
ATOM      5  C   UNL     1      -7.311  -6.444   5.799  1.00  0.00    -0.028 C 
ATOM      6  C   UNL     1      -6.796  -5.206   7.859  1.00  0.00     0.039 C 
ATOM      7  C   UNL     1      -7.594  -5.387   6.593  1.00  0.00    -0.080 C 
ATOM      8  C   UNL     1      -8.690  -4.403   6.255  1.00  0.00     0.039 C 
ENDBRANCH   4   5
ENDBRANCH   3   4
ENDBRANCH   1   3
BRANCH   1   9
ATOM      9  C   UNL     1      -8.551  -9.884   2.715  1.00  0.00     0.013 C 
ATOM     10  C   UNL     1      -7.226 -10.052   2.615  1.00  0.00     0.008 C 
ENDBRANCH   1   9
BRANCH   1  11
ATOM     11  O   UNL     1      -8.840  -7.552   2.164  1.00  0.00    -0.455 OA
BRANCH  11  12
ATOM     12  C   UNL     1      -9.557  -7.240   0.998  1.00  0.00     0.303 C 
ATOM     13  O   UNL     1      -9.505  -7.983  -0.019  1.00  0.00    -0.253 OA
ATOM     14  C   UNL     1     -10.421  -6.026   0.977  1.00  0.00     0.139 C 
ENDBRANCH  11  12
ENDBRANCH   1  11
TORSDOF 6
ENDMDL
MODEL 5
REMARK VINA RESULT:    -4.415      1.694      4.848
REMARK INTER + INTRA:          -6.287
REMARK INTER:                  -5.816
REMARK INTRA:                  -0.471
REMARK UNBOUND:                -0.324
REMARK SMILES C=C[C@@](C)(CCC=C(C)C)OC(C)=O
REMARK SMILES IDX 3 1 4 2 5 3 6 4 7 5 9 6 8 7 10 8 2 9 1 10 11 11 12 12 14 13
REMARK SMILES IDX 13 14
REMARK H PARENT
REMARK Flexibility Score: inf
ROOT
ATOM      1  C   UNL     1      -8.356  -6.493   4.480  1.00  0.00     0.127 C 
ATOM      2  C   UNL     1      -8.519  -7.974   4.896  1.00  0.00     0.061 C 
ENDROOT
BRANCH   1   3
ATOM      3  C   UNL     1      -7.113  -5.866   5.163  1.00  0.00     0.057 C 
BRANCH   3   4
ATOM      4  C   UNL     1      -6.860  -6.395   6.585  1.00  0.00     0.032 C 
BRANCH   4   5
ATOM      5  C   UNL     1      -7.405  -5.438   7.615  1.00  0.00    -0.028 C 
ATOM      6  C   UNL     1      -8.293  -4.727   9.794  1.00  0.00     0.039 C 
ATOM      7  C   UNL     1      -7.717  -5.781   8.885  1.00  0.00    -0.080 C 
ATOM      8  C   UNL     1      -7.487  -7.178   9.415  1.00  0.00     0.039 C 
ENDBRANCH   4   5
ENDBRANCH   3   4
ENDBRANCH   1   3
BRANCH   1   9
ATOM      9  C   UNL     1      -8.199  -6.373   2.972  1.00  0.00     0.013 C 
ATOM     10  C   UNL     1      -8.642  -7.301   2.114  1.00  0.00     0.008 C 
ENDBRANCH   1   9
BRANCH   1  11
ATOM     11  O   UNL     1      -9.507  -5.742   4.900  1.00  0.00    -0.455 OA
BRANCH  11  12
ATOM     12  C   UNL     1      -9.736  -4.382   4.638  1.00  0.00     0.303 C 
ATOM     13  O   UNL     1     -10.154  -3.995   3.514  1.00  0.00    -0.253 OA
ATOM     14  C   UNL     1      -9.513  -3.384   5.722  1.00  0.00     0.139 C 
ENDBRANCH  11  12
ENDBRANCH   1  11
TORSDOF 6
ENDMDL
MODEL 6
REMARK VINA RESULT:    -4.388      3.433      6.126
REMARK INTER + INTRA:          -6.252
REMARK INTER:                  -5.296
REMARK INTRA:                  -0.956
REMARK UNBOUND:                -0.324
REMARK SMILES C=C[C@@](C)(CCC=C(C)C)OC(C)=O
REMARK SMILES IDX 3 1 4 2 5 3 6 4 7 5 9 6 8 7 10 8 2 9 1 10 11 11 12 12 14 13
REMARK SMILES IDX 13 14
REMARK H PARENT
REMARK Flexibility Score: inf
ROOT
ATOM      1  C   UNL     1      -8.863  -7.868   2.323  1.00  0.00     0.127 C 
ATOM      2  C   UNL     1      -8.376  -6.464   1.893  1.00  0.00     0.061 C 
ENDROOT
BRANCH   1   3
ATOM      3  C   UNL     1      -7.935  -8.459   3.416  1.00  0.00     0.057 C 
BRANCH   3   4
ATOM      4  C   UNL     1      -8.351  -8.076   4.847  1.00  0.00     0.032 C 
BRANCH   4   5
ATOM      5  C   UNL     1      -7.333  -7.154   5.470  1.00  0.00    -0.028 C 
ATOM      6  C   UNL     1      -6.421  -5.034   6.314  1.00  0.00     0.039 C 
ATOM      7  C   UNL     1      -7.546  -5.844   5.725  1.00  0.00    -0.080 C 
ATOM      8  C   UNL     1      -8.878  -5.183   5.453  1.00  0.00     0.039 C 
ENDBRANCH   4   5
ENDBRANCH   3   4
ENDBRANCH   1   3
BRANCH   1   9
ATOM      9  C   UNL     1     -10.281  -7.799   2.870  1.00  0.00     0.013 C 
ATOM     10  C   UNL     1     -11.027  -6.687   2.833  1.00  0.00     0.008 C 
ENDBRANCH   1   9
BRANCH   1  11
ATOM     11  O   UNL     1      -8.830  -8.759   1.196  1.00  0.00    -0.455 OA
BRANCH  11  12
ATOM     12  C   UNL     1      -9.826  -8.874   0.215  1.00  0.00     0.303 C 
ATOM     13  O   UNL     1      -9.999  -7.973  -0.650  1.00  0.00    -0.253 OA
ATOM     14  C   UNL     1     -10.672 -10.100   0.175  1.00  0.00     0.139 C 
ENDBRANCH  11  12
ENDBRANCH   1  11
TORSDOF 6
ENDMDL
MODEL 7
REMARK VINA RESULT:    -4.375      3.308      6.211
REMARK INTER + INTRA:          -6.235
REMARK INTER:                  -5.761
REMARK INTRA:                  -0.474
REMARK UNBOUND:                -0.324
REMARK SMILES C=C[C@@](C)(CCC=C(C)C)OC(C)=O
REMARK SMILES IDX 3 1 4 2 5 3 6 4 7 5 9 6 8 7 10 8 2 9 1 10 11 11 12 12 14 13
REMARK SMILES IDX 13 14
REMARK H PARENT
REMARK Flexibility Score: inf
ROOT
ATOM      1  C   UNL     1      -9.233  -7.665   1.872  1.00  0.00     0.127 C 
ATOM      2  C   UNL     1     -10.720  -7.643   2.297  1.00  0.00     0.061 C 
ENDROOT
BRANCH   1   3
ATOM      3  C   UNL     1      -8.379  -6.784   2.821  1.00  0.00     0.057 C 
BRANCH   3   4
ATOM      4  C   UNL     1      -9.023  -6.565   4.201  1.00  0.00     0.032 C 
BRANCH   4   5
ATOM      5  C   UNL     1      -7.965  -6.426   5.267  1.00  0.00    -0.028 C 
ATOM      6  C   UNL     1      -6.720  -5.345   7.089  1.00  0.00     0.039 C 
ATOM      7  C   UNL     1      -7.854  -5.366   6.098  1.00  0.00    -0.080 C 
ATOM      8  C   UNL     1      -8.841  -4.222   6.070  1.00  0.00     0.039 C 
ENDBRANCH   4   5
ENDBRANCH   3   4
ENDBRANCH   1   3
BRANCH   1   9
ATOM      9  C   UNL     1      -8.688  -9.085   1.902  1.00  0.00     0.013 C 
ATOM     10  C   UNL     1      -7.568  -9.425   2.552  1.00  0.00     0.008 C 
ENDBRANCH   1   9
BRANCH   1  11
ATOM     11  O   UNL     1      -9.099  -7.131   0.545  1.00  0.00    -0.455 OA
BRANCH  11  12
ATOM     12  C   UNL     1     -10.075  -7.187  -0.462  1.00  0.00     0.303 C 
ATOM     13  O   UNL     1     -10.268  -8.240  -1.127  1.00  0.00    -0.253 OA
ATOM     14  C   UNL     1     -10.920  -5.988  -0.724  1.00  0.00     0.139 C 
ENDBRANCH  11  12
ENDBRANCH   1  11
TORSDOF 6
ENDMDL
MODEL 8
REMARK VINA RESULT:    -4.229      2.042      3.400
REMARK INTER + INTRA:          -6.037
REMARK INTER:                  -5.716
REMARK INTRA:                  -0.320
REMARK UNBOUND:                -0.324
REMARK SMILES C=C[C@@](C)(CCC=C(C)C)OC(C)=O
REMARK SMILES IDX 3 1 4 2 5 3 6 4 7 5 9 6 8 7 10 8 2 9 1 10 11 11 12 12 14 13
REMARK SMILES IDX 13 14
REMARK H PARENT
REMARK Flexibility Score: inf
ROOT
ATOM      1  C   UNL     1      -7.210  -5.342   6.780  1.00  0.00     0.127 C 
ATOM      2  C   UNL     1      -8.566  -4.606   6.888  1.00  0.00     0.061 C 
ENDROOT
BRANCH   1   3
ATOM      3  C   UNL     1      -7.370  -6.672   5.998  1.00  0.00     0.057 C 
BRANCH   3   4
ATOM      4  C   UNL     1      -8.340  -6.572   4.808  1.00  0.00     0.032 C 
BRANCH   4   5
ATOM      5  C   UNL     1      -8.351  -7.857   4.019  1.00  0.00    -0.028 C 
ATOM      6  C   UNL     1      -8.461  -9.282   2.020  1.00  0.00     0.039 C 
ATOM      7  C   UNL     1      -8.416  -7.924   2.671  1.00  0.00    -0.080 C 
ATOM      8  C   UNL     1      -8.426  -6.683   1.809  1.00  0.00     0.039 C 
ENDBRANCH   4   5
ENDBRANCH   3   4
ENDBRANCH   1   3
BRANCH   1   9
ATOM      9  C   UNL     1      -6.184  -4.475   6.065  1.00  0.00     0.013 C 
ATOM     10  C   UNL     1      -4.997  -4.937   5.651  1.00  0.00     0.008 C 
ENDBRANCH   1   9
BRANCH   1  11
ATOM     11  O   UNL     1      -6.727  -5.666   8.094  1.00  0.00    -0.455 OA
BRANCH  11  12
ATOM     12  C   UNL     1      -7.432  -6.389   9.069  1.00  0.00     0.303 C 
ATOM     13  O   UNL     1      -7.420  -7.649   9.084  1.00  0.00    -0.253 OA
ATOM     14  C   UNL     1      -8.179  -5.648  10.125  1.00  0.00     0.139 C 
ENDBRANCH  11  12
ENDBRANCH   1  11
TORSDOF 6
ENDMDL
MODEL 9
REMARK VINA RESULT:    -4.208      2.129      3.276
REMARK INTER + INTRA:          -6.008
REMARK INTER:                  -5.340
REMARK INTRA:                  -0.668
REMARK UNBOUND:                -0.324
REMARK SMILES C=C[C@@](C)(CCC=C(C)C)OC(C)=O
REMARK SMILES IDX 3 1 4 2 5 3 6 4 7 5 9 6 8 7 10 8 2 9 1 10 11 11 12 12 14 13
REMARK SMILES IDX 13 14
REMARK H PARENT
REMARK Flexibility Score: inf
ROOT
ATOM      1  C   UNL     1      -7.041  -5.024   6.647  1.00  0.00     0.127 C 
ATOM      2  C   UNL     1      -5.688  -4.791   5.934  1.00  0.00     0.061 C 
ENDROOT
BRANCH   1   3
ATOM      3  C   UNL     1      -8.109  -4.022   6.135  1.00  0.00     0.057 C 
BRANCH   3   4
ATOM      4  C   UNL     1      -9.399  -4.700   5.642  1.00  0.00     0.032 C 
BRANCH   4   5
ATOM      5  C   UNL     1      -9.521  -4.587   4.142  1.00  0.00    -0.028 C 
ATOM      6  C   UNL     1      -9.951  -5.347   1.846  1.00  0.00     0.039 C 
ATOM      7  C   UNL     1      -9.916  -5.593   3.332  1.00  0.00    -0.080 C 
ATOM      8  C   UNL     1     -10.335  -6.940   3.875  1.00  0.00     0.039 C 
ENDBRANCH   4   5
ENDBRANCH   3   4
ENDBRANCH   1   3
BRANCH   1   9
ATOM      9  C   UNL     1      -7.540  -6.439   6.401  1.00  0.00     0.013 C 
ATOM     10  C   UNL     1      -7.073  -7.219   5.417  1.00  0.00     0.008 C 
ENDBRANCH   1   9
BRANCH   1  11
ATOM     11  O   UNL     1      -6.888  -4.811   8.060  1.00  0.00    -0.455 OA
BRANCH  11  12
ATOM     12  C   UNL     1      -7.568  -5.509   9.070  1.00  0.00     0.303 C 
ATOM     13  O   UNL     1      -7.116  -6.588   9.538  1.00  0.00    -0.253 OA
ATOM     14  C   UNL     1      -8.832  -4.942   9.622  1.00  0.00     0.139 C 
ENDBRANCH  11  12
ENDBRANCH   1  11
TORSDOF 6
ENDMDL
