MODEL 1
REMARK VINA RESULT:    -7.114      0.000      0.000
REMARK INTER + INTRA:         -10.062
REMARK INTER:                  -9.609
REMARK INTRA:                  -0.453
REMARK UNBOUND:                -0.453
REMARK SMILES O=c1c(-c2ccc(O)cc2)coc2c([C@H]3O[C@@H](CO)[C@H](O)[C@@H](O)[C@@H]3O)c(O)ccc12
REMARK SMILES IDX 3 1 11 2 12 3 13 4 30 5 2 6 1 7 29 8 28 9 26 10 14 11 4 12
REMARK SMILES IDX 5 13 6 14 7 15 10 16 9 17 8 18 15 20 24 21 16 22 22 23 17 24
REMARK SMILES IDX 20 25 25 26 23 28 18 30 19 31 21 33 27 35
REMARK H PARENT 8 19 25 27 23 29 19 32 21 34 27 36
REMARK Flexibility Score: inf
ROOT
ATOM      1  C   UNL     1      19.040  -0.844 -17.199  1.00  0.00     0.065 A 
ATOM      2  C   UNL     1      18.786  -2.220 -17.273  1.00  0.00     0.208 A 
ATOM      3  O   UNL     1      18.123  -2.845 -16.307  1.00  0.00    -0.463 OA
ATOM      4  C   UNL     1      17.659  -2.226 -15.225  1.00  0.00     0.147 A 
ATOM      5  C   UNL     1      17.863  -0.835 -15.073  1.00  0.00     0.066 A 
ATOM      6  C   UNL     1      18.559  -0.141 -16.080  1.00  0.00     0.200 A 
ATOM      7  O   UNL     1      18.733   1.106 -15.990  1.00  0.00    -0.288 OA
ATOM      8  C   UNL     1      17.359  -0.180 -13.938  1.00  0.00     0.020 A 
ATOM      9  C   UNL     1      16.656  -0.894 -12.970  1.00  0.00     0.047 A 
ATOM     10  C   UNL     1      16.447  -2.272 -13.110  1.00  0.00     0.125 A 
ATOM     11  C   UNL     1      16.964  -2.958 -14.233  1.00  0.00     0.069 A 
ENDROOT
BRANCH   1  12
ATOM     12  C   UNL     1      19.791  -0.170 -18.288  1.00  0.00    -0.011 A 
ATOM     13  C   UNL     1      20.973   0.540 -18.010  1.00  0.00     0.013 A 
ATOM     14  C   UNL     1      21.680   1.165 -19.041  1.00  0.00     0.047 A 
ATOM     15  C   UNL     1      21.222   1.087 -20.359  1.00  0.00     0.115 A 
ATOM     16  C   UNL     1      19.339  -0.251 -19.616  1.00  0.00     0.013 A 
ATOM     17  C   UNL     1      20.049   0.376 -20.645  1.00  0.00     0.047 A 
BRANCH  15  18
ATOM     18  O   UNL     1      21.937   1.716 -21.376  1.00  0.00    -0.508 OA
ATOM     19  H   UNL     1      22.255   2.674 -21.285  1.00  0.00     0.293 HD
ENDBRANCH  15  18
ENDBRANCH   1  12
BRANCH  11  20
ATOM     20  C   UNL     1      16.722  -4.451 -14.407  1.00  0.00     0.188 C 
ATOM     21  C   UNL     1      18.069  -5.213 -14.413  1.00  0.00     0.179 C 
ATOM     22  O   UNL     1      16.019  -4.673 -15.620  1.00  0.00    -0.362 OA
ATOM     23  C   UNL     1      17.823  -6.718 -14.637  1.00  0.00     0.177 C 
ATOM     24  C   UNL     1      15.650  -6.036 -15.756  1.00  0.00     0.176 C 
ATOM     25  C   UNL     1      16.919  -6.924 -15.866  1.00  0.00     0.177 C 
BRANCH  21  26
ATOM     26  O   UNL     1      18.780  -4.998 -13.218  1.00  0.00    -0.387 OA
ATOM     27  H   UNL     1      19.732  -5.225 -13.388  1.00  0.00     0.211 HD
ENDBRANCH  21  26
BRANCH  23  28
ATOM     28  O   UNL     1      19.044  -7.382 -14.843  1.00  0.00    -0.387 OA
ATOM     29  H   UNL     1      18.980  -7.834 -15.725  1.00  0.00     0.211 HD
ENDBRANCH  23  28
BRANCH  24  30
ATOM     30  C   UNL     1      14.769  -6.157 -17.008  1.00  0.00     0.191 C 
BRANCH  30  31
ATOM     31  O   UNL     1      15.541  -6.497 -18.131  1.00  0.00    -0.394 OA
ATOM     32  H   UNL     1      14.963  -7.038 -18.731  1.00  0.00     0.210 HD
ENDBRANCH  30  31
ENDBRANCH  24  30
BRANCH  25  33
ATOM     33  O   UNL     1      16.589  -8.285 -16.002  1.00  0.00    -0.388 OA
ATOM     34  H   UNL     1      15.910  -8.501 -15.310  1.00  0.00     0.211 HD
ENDBRANCH  25  33
ENDBRANCH  11  20
BRANCH  10  35
ATOM     35  O   UNL     1      15.722  -2.957 -12.135  1.00  0.00    -0.507 OA
ATOM     36  H   UNL     1      15.897  -3.933 -11.928  1.00  0.00     0.293 HD
ENDBRANCH  10  35
TORSDOF 9
ENDMDL
MODEL 2
REMARK VINA RESULT:    -7.051      5.842     11.097
REMARK INTER + INTRA:          -9.977
REMARK INTER:                  -9.020
REMARK INTRA:                  -0.957
REMARK UNBOUND:                -0.453
REMARK SMILES O=c1c(-c2ccc(O)cc2)coc2c([C@H]3O[C@@H](CO)[C@H](O)[C@@H](O)[C@@H]3O)c(O)ccc12
REMARK SMILES IDX 3 1 11 2 12 3 13 4 30 5 2 6 1 7 29 8 28 9 26 10 14 11 4 12
REMARK SMILES IDX 5 13 6 14 7 15 10 16 9 17 8 18 15 20 24 21 16 22 22 23 17 24
REMARK SMILES IDX 20 25 25 26 23 28 18 30 19 31 21 33 27 35
REMARK H PARENT 8 19 25 27 23 29 19 32 21 34 27 36
REMARK Flexibility Score: inf
ROOT
ATOM      1  C   UNL     1      11.658  -7.013 -10.179  1.00  0.00     0.065 A 
ATOM      2  C   UNL     1      12.257  -5.764  -9.968  1.00  0.00     0.208 A 
ATOM      3  O   UNL     1      13.323  -5.392 -10.667  1.00  0.00    -0.463 OA
ATOM      4  C   UNL     1      13.886  -6.157 -11.598  1.00  0.00     0.147 A 
ATOM      5  C   UNL     1      13.340  -7.430 -11.882  1.00  0.00     0.066 A 
ATOM      6  C   UNL     1      12.209  -7.855 -11.162  1.00  0.00     0.200 A 
ATOM      7  O   UNL     1      11.680  -8.974 -11.410  1.00  0.00    -0.288 OA
ATOM      8  C   UNL     1      13.926  -8.230 -12.877  1.00  0.00     0.020 A 
ATOM      9  C   UNL     1      15.034  -7.770 -13.585  1.00  0.00     0.047 A 
ATOM     10  C   UNL     1      15.582  -6.510 -13.314  1.00  0.00     0.125 A 
ATOM     11  C   UNL     1      15.024  -5.695 -12.302  1.00  0.00     0.069 A 
ENDROOT
BRANCH   1  12
ATOM     12  C   UNL     1      10.473  -7.411  -9.378  1.00  0.00    -0.011 A 
ATOM     13  C   UNL     1      10.629  -8.046  -8.133  1.00  0.00     0.013 A 
ATOM     14  C   UNL     1       9.508  -8.409  -7.380  1.00  0.00     0.047 A 
ATOM     15  C   UNL     1       8.222  -8.141  -7.856  1.00  0.00     0.115 A 
ATOM     16  C   UNL     1       9.177  -7.137  -9.847  1.00  0.00     0.013 A 
ATOM     17  C   UNL     1       8.058  -7.503  -9.091  1.00  0.00     0.047 A 
BRANCH  15  18
ATOM     18  O   UNL     1       7.115  -8.510  -7.094  1.00  0.00    -0.508 OA
ATOM     19  H   UNL     1       6.310  -8.961  -7.514  1.00  0.00     0.293 HD
ENDBRANCH  15  18
ENDBRANCH   1  12
BRANCH  11  20
ATOM     20  C   UNL     1      15.598  -4.314 -12.015  1.00  0.00     0.188 C 
ATOM     21  C   UNL     1      14.956  -3.263 -12.953  1.00  0.00     0.179 C 
ATOM     22  O   UNL     1      17.005  -4.346 -12.193  1.00  0.00    -0.362 OA
ATOM     23  C   UNL     1      15.573  -1.875 -12.692  1.00  0.00     0.177 C 
ATOM     24  C   UNL     1      17.599  -3.118 -11.803  1.00  0.00     0.176 C 
ATOM     25  C   UNL     1      17.109  -1.971 -12.727  1.00  0.00     0.177 C 
BRANCH  21  26
ATOM     26  O   UNL     1      13.558  -3.224 -12.791  1.00  0.00    -0.387 OA
ATOM     27  H   UNL     1      13.197  -4.107 -13.069  1.00  0.00     0.211 HD
ENDBRANCH  21  26
BRANCH  23  28
ATOM     28  O   UNL     1      15.143  -0.964 -13.670  1.00  0.00    -0.387 OA
ATOM     29  H   UNL     1      15.949  -0.479 -13.986  1.00  0.00     0.211 HD
ENDBRANCH  23  28
BRANCH  24  30
ATOM     30  C   UNL     1      19.123  -3.292 -11.882  1.00  0.00     0.191 C 
BRANCH  30  31
ATOM     31  O   UNL     1      19.458  -4.595 -12.282  1.00  0.00    -0.394 OA
ATOM     32  H   UNL     1      19.372  -4.629 -13.271  1.00  0.00     0.210 HD
ENDBRANCH  30  31
ENDBRANCH  24  30
BRANCH  25  33
ATOM     33  O   UNL     1      17.679  -0.736 -12.367  1.00  0.00    -0.388 OA
ATOM     34  H   UNL     1      17.173  -0.022 -12.837  1.00  0.00     0.211 HD
ENDBRANCH  25  33
ENDBRANCH  11  20
BRANCH  10  35
ATOM     35  O   UNL     1      16.679  -6.067 -14.053  1.00  0.00    -0.507 OA
ATOM     36  H   UNL     1      17.547  -5.794 -13.608  1.00  0.00     0.293 HD
ENDBRANCH  10  35
TORSDOF 9
ENDMDL
MODEL 3
REMARK VINA RESULT:    -6.814      2.834      5.954
REMARK INTER + INTRA:          -9.657
REMARK INTER:                  -8.830
REMARK INTRA:                  -0.827
REMARK UNBOUND:                -0.453
REMARK SMILES O=c1c(-c2ccc(O)cc2)coc2c([C@H]3O[C@@H](CO)[C@H](O)[C@@H](O)[C@@H]3O)c(O)ccc12
REMARK SMILES IDX 3 1 11 2 12 3 13 4 30 5 2 6 1 7 29 8 28 9 26 10 14 11 4 12
REMARK SMILES IDX 5 13 6 14 7 15 10 16 9 17 8 18 15 20 24 21 16 22 22 23 17 24
REMARK SMILES IDX 20 25 25 26 23 28 18 30 19 31 21 33 27 35
REMARK H PARENT 8 19 25 27 23 29 19 32 21 34 27 36
REMARK Flexibility Score: inf
ROOT
ATOM      1  C   UNL     1      18.492  -0.529 -16.127  1.00  0.00     0.065 A 
ATOM      2  C   UNL     1      18.236   0.474 -15.182  1.00  0.00     0.208 A 
ATOM      3  O   UNL     1      17.546   0.211 -14.079  1.00  0.00    -0.463 OA
ATOM      4  C   UNL     1      17.060  -0.994 -13.793  1.00  0.00     0.147 A 
ATOM      5  C   UNL     1      17.280  -2.067 -14.689  1.00  0.00     0.066 A 
ATOM      6  C   UNL     1      18.010  -1.825 -15.866  1.00  0.00     0.200 A 
ATOM      7  O   UNL     1      18.249  -2.766 -16.673  1.00  0.00    -0.288 OA
ATOM      8  C   UNL     1      16.781  -3.343 -14.378  1.00  0.00     0.020 A 
ATOM      9  C   UNL     1      16.080  -3.553 -13.193  1.00  0.00     0.047 A 
ATOM     10  C   UNL     1      15.857  -2.498 -12.299  1.00  0.00     0.125 A 
ATOM     11  C   UNL     1      16.330  -1.200 -12.598  1.00  0.00     0.069 A 
ENDROOT
BRANCH   1  12
ATOM     12  C   UNL     1      19.259  -0.208 -17.358  1.00  0.00    -0.011 A 
ATOM     13  C   UNL     1      18.725  -0.491 -18.628  1.00  0.00     0.013 A 
ATOM     14  C   UNL     1      19.448  -0.178 -19.784  1.00  0.00     0.047 A 
ATOM     15  C   UNL     1      20.707   0.422 -19.686  1.00  0.00     0.115 A 
ATOM     16  C   UNL     1      20.522   0.402 -17.268  1.00  0.00     0.013 A 
ATOM     17  C   UNL     1      21.242   0.712 -18.425  1.00  0.00     0.047 A 
BRANCH  15  18
ATOM     18  O   UNL     1      21.416   0.727 -20.846  1.00  0.00    -0.508 OA
ATOM     19  H   UNL     1      22.203   0.165 -21.149  1.00  0.00     0.293 HD
ENDBRANCH  15  18
ENDBRANCH   1  12
BRANCH  11  20
ATOM     20  C   UNL     1      16.114  -0.052 -11.622  1.00  0.00     0.188 C 
ATOM     21  C   UNL     1      16.967  -0.267 -10.348  1.00  0.00     0.179 C 
ATOM     22  O   UNL     1      14.736   0.028 -11.292  1.00  0.00    -0.362 OA
ATOM     23  C   UNL     1      16.709   0.873  -9.343  1.00  0.00     0.177 C 
ATOM     24  C   UNL     1      14.466   1.168 -10.492  1.00  0.00     0.176 C 
ATOM     25  C   UNL     1      15.195   1.049  -9.127  1.00  0.00     0.177 C 
BRANCH  21  26
ATOM     26  O   UNL     1      18.336  -0.353 -10.662  1.00  0.00    -0.387 OA
ATOM     27  H   UNL     1      18.803   0.379 -10.180  1.00  0.00     0.211 HD
ENDBRANCH  21  26
BRANCH  23  28
ATOM     28  O   UNL     1      17.322   0.580  -8.113  1.00  0.00    -0.387 OA
ATOM     29  H   UNL     1      16.593   0.402  -7.464  1.00  0.00     0.211 HD
ENDBRANCH  23  28
BRANCH  24  30
ATOM     30  C   UNL     1      12.944   1.261 -10.311  1.00  0.00     0.191 C 
BRANCH  30  31
ATOM     31  O   UNL     1      12.571   0.872  -9.014  1.00  0.00    -0.394 OA
ATOM     32  H   UNL     1      12.918  -0.047  -8.873  1.00  0.00     0.210 HD
ENDBRANCH  30  31
ENDBRANCH  24  30
BRANCH  25  33
ATOM     33  O   UNL     1      14.950   2.167  -8.308  1.00  0.00    -0.388 OA
ATOM     34  H   UNL     1      14.511   1.841  -7.479  1.00  0.00     0.211 HD
ENDBRANCH  25  33
ENDBRANCH  11  20
BRANCH  10  35
ATOM     35  O   UNL     1      15.169  -2.743 -11.110  1.00  0.00    -0.507 OA
ATOM     36  H   UNL     1      15.652  -3.011 -10.261  1.00  0.00     0.293 HD
ENDBRANCH  10  35
TORSDOF 9
ENDMDL
MODEL 4
REMARK VINA RESULT:    -6.687      4.688      8.081
REMARK INTER + INTRA:          -9.486
REMARK INTER:                  -8.580
REMARK INTRA:                  -0.906
REMARK UNBOUND:                -0.453
REMARK SMILES O=c1c(-c2ccc(O)cc2)coc2c([C@H]3O[C@@H](CO)[C@H](O)[C@@H](O)[C@@H]3O)c(O)ccc12
REMARK SMILES IDX 3 1 11 2 12 3 13 4 30 5 2 6 1 7 29 8 28 9 26 10 14 11 4 12
REMARK SMILES IDX 5 13 6 14 7 15 10 16 9 17 8 18 15 20 24 21 16 22 22 23 17 24
REMARK SMILES IDX 20 25 25 26 23 28 18 30 19 31 21 33 27 35
REMARK H PARENT 8 19 25 27 23 29 19 32 21 34 27 36
REMARK Flexibility Score: inf
ROOT
ATOM      1  C   UNL     1      17.021  -3.792 -13.152  1.00  0.00     0.065 A 
ATOM      2  C   UNL     1      18.033  -4.251 -12.298  1.00  0.00     0.208 A 
ATOM      3  O   UNL     1      18.344  -3.587 -11.191  1.00  0.00    -0.463 OA
ATOM      4  C   UNL     1      17.732  -2.466 -10.818  1.00  0.00     0.147 A 
ATOM      5  C   UNL     1      16.692  -1.937 -11.618  1.00  0.00     0.066 A 
ATOM      6  C   UNL     1      16.335  -2.617 -12.797  1.00  0.00     0.200 A 
ATOM      7  O   UNL     1      15.392  -2.188 -13.518  1.00  0.00    -0.288 OA
ATOM      8  C   UNL     1      16.036  -0.762 -11.215  1.00  0.00     0.020 A 
ATOM      9  C   UNL     1      16.402  -0.125 -10.032  1.00  0.00     0.047 A 
ATOM     10  C   UNL     1      17.429  -0.641  -9.231  1.00  0.00     0.125 A 
ATOM     11  C   UNL     1      18.120  -1.809  -9.626  1.00  0.00     0.069 A 
ENDROOT
BRANCH   1  12
ATOM     12  C   UNL     1      16.697  -4.548 -14.389  1.00  0.00    -0.011 A 
ATOM     13  C   UNL     1      15.663  -5.501 -14.396  1.00  0.00     0.013 A 
ATOM     14  C   UNL     1      15.357  -6.202 -15.567  1.00  0.00     0.047 A 
ATOM     15  C   UNL     1      16.074  -5.960 -16.742  1.00  0.00     0.115 A 
ATOM     16  C   UNL     1      17.409  -4.304 -15.576  1.00  0.00     0.013 A 
ATOM     17  C   UNL     1      17.101  -5.008 -16.744  1.00  0.00     0.047 A 
BRANCH  15  18
ATOM     18  O   UNL     1      15.758  -6.667 -17.899  1.00  0.00    -0.508 OA
ATOM     19  H   UNL     1      16.192  -7.558 -18.111  1.00  0.00     0.293 HD
ENDBRANCH  15  18
ENDBRANCH   1  12
BRANCH  11  20
ATOM     20  C   UNL     1      19.222  -2.391  -8.751  1.00  0.00     0.188 C 
ATOM     21  C   UNL     1      18.677  -2.692  -7.334  1.00  0.00     0.179 C 
ATOM     22  O   UNL     1      20.300  -1.471  -8.685  1.00  0.00    -0.362 OA
ATOM     23  C   UNL     1      19.807  -3.236  -6.439  1.00  0.00     0.177 C 
ATOM     24  C   UNL     1      21.407  -2.028  -7.994  1.00  0.00     0.176 C 
ATOM     25  C   UNL     1      21.030  -2.304  -6.514  1.00  0.00     0.177 C 
BRANCH  21  26
ATOM     26  O   UNL     1      17.602  -3.599  -7.386  1.00  0.00    -0.387 OA
ATOM     27  H   UNL     1      16.868  -3.170  -7.897  1.00  0.00     0.211 HD
ENDBRANCH  21  26
BRANCH  23  28
ATOM     28  O   UNL     1      19.369  -3.321  -5.107  1.00  0.00    -0.387 OA
ATOM     29  H   UNL     1      19.951  -3.986  -4.655  1.00  0.00     0.211 HD
ENDBRANCH  23  28
BRANCH  24  30
ATOM     30  C   UNL     1      22.573  -1.033  -8.101  1.00  0.00     0.191 C 
BRANCH  30  31
ATOM     31  O   UNL     1      23.795  -1.663  -7.813  1.00  0.00    -0.394 OA
ATOM     32  H   UNL     1      24.174  -1.212  -7.014  1.00  0.00     0.210 HD
ENDBRANCH  30  31
ENDBRANCH  24  30
BRANCH  25  33
ATOM     33  O   UNL     1      22.106  -2.858  -5.798  1.00  0.00    -0.388 OA
ATOM     34  H   UNL     1      22.218  -3.797  -6.103  1.00  0.00     0.211 HD
ENDBRANCH  25  33
ENDBRANCH  11  20
BRANCH  10  35
ATOM     35  O   UNL     1      17.760   0.008  -8.041  1.00  0.00    -0.507 OA
ATOM     36  H   UNL     1      18.570   0.612  -7.970  1.00  0.00     0.293 HD
ENDBRANCH  10  35
TORSDOF 9
ENDMDL
MODEL 5
REMARK VINA RESULT:    -6.652      4.373      5.650
REMARK INTER + INTRA:          -9.439
REMARK INTER:                  -8.816
REMARK INTRA:                  -0.624
REMARK UNBOUND:                -0.453
REMARK SMILES O=c1c(-c2ccc(O)cc2)coc2c([C@H]3O[C@@H](CO)[C@H](O)[C@@H](O)[C@@H]3O)c(O)ccc12
REMARK SMILES IDX 3 1 11 2 12 3 13 4 30 5 2 6 1 7 29 8 28 9 26 10 14 11 4 12
REMARK SMILES IDX 5 13 6 14 7 15 10 16 9 17 8 18 15 20 24 21 16 22 22 23 17 24
REMARK SMILES IDX 20 25 25 26 23 28 18 30 19 31 21 33 27 35
REMARK H PARENT 8 19 25 27 23 29 19 32 21 34 27 36
REMARK Flexibility Score: inf
ROOT
ATOM      1  C   UNL     1      20.203   0.380 -17.697  1.00  0.00     0.065 A 
ATOM      2  C   UNL     1      18.944  -0.042 -17.250  1.00  0.00     0.208 A 
ATOM      3  O   UNL     1      18.572   0.139 -15.988  1.00  0.00    -0.463 OA
ATOM      4  C   UNL     1      19.347   0.723 -15.077  1.00  0.00     0.147 A 
ATOM      5  C   UNL     1      20.631   1.188 -15.445  1.00  0.00     0.066 A 
ATOM      6  C   UNL     1      21.056   1.014 -16.775  1.00  0.00     0.200 A 
ATOM      7  O   UNL     1      22.185   1.443 -17.144  1.00  0.00    -0.288 OA
ATOM      8  C   UNL     1      21.441   1.818 -14.487  1.00  0.00     0.020 A 
ATOM      9  C   UNL     1      20.981   1.992 -13.184  1.00  0.00     0.047 A 
ATOM     10  C   UNL     1      19.711   1.537 -12.809  1.00  0.00     0.125 A 
ATOM     11  C   UNL     1      18.885   0.880 -13.749  1.00  0.00     0.069 A 
ENDROOT
BRANCH   1  12
ATOM     12  C   UNL     1      20.600   0.158 -19.110  1.00  0.00    -0.011 A 
ATOM     13  C   UNL     1      20.289  -1.050 -19.761  1.00  0.00     0.013 A 
ATOM     14  C   UNL     1      20.657  -1.249 -21.095  1.00  0.00     0.047 A 
ATOM     15  C   UNL     1      21.334  -0.248 -21.796  1.00  0.00     0.115 A 
ATOM     16  C   UNL     1      21.274   1.163 -19.824  1.00  0.00     0.013 A 
ATOM     17  C   UNL     1      21.642   0.960 -21.157  1.00  0.00     0.047 A 
BRANCH  15  18
ATOM     18  O   UNL     1      21.695  -0.461 -23.125  1.00  0.00    -0.508 OA
ATOM     19  H   UNL     1      21.638  -1.381 -23.548  1.00  0.00     0.293 HD
ENDBRANCH  15  18
ENDBRANCH   1  12
BRANCH  11  20
ATOM     20  C   UNL     1      17.493   0.402 -13.357  1.00  0.00     0.188 C 
ATOM     21  C   UNL     1      16.468   1.550 -13.525  1.00  0.00     0.179 C 
ATOM     22  O   UNL     1      17.515  -0.053 -12.013  1.00  0.00    -0.362 OA
ATOM     23  C   UNL     1      15.069   1.077 -13.083  1.00  0.00     0.177 C 
ATOM     24  C   UNL     1      16.274  -0.635 -11.649  1.00  0.00     0.176 C 
ATOM     25  C   UNL     1      15.150   0.435 -11.686  1.00  0.00     0.177 C 
BRANCH  21  26
ATOM     26  O   UNL     1      16.439   2.015 -14.853  1.00  0.00    -0.387 OA
ATOM     27  H   UNL     1      15.725   1.518 -15.331  1.00  0.00     0.211 HD
ENDBRANCH  21  26
BRANCH  23  28
ATOM     28  O   UNL     1      14.181   2.165 -13.043  1.00  0.00    -0.387 OA
ATOM     29  H   UNL     1      13.637   2.061 -12.220  1.00  0.00     0.211 HD
ENDBRANCH  23  28
BRANCH  24  30
ATOM     30  C   UNL     1      16.435  -1.233 -10.243  1.00  0.00     0.191 C 
BRANCH  30  31
ATOM     31  O   UNL     1      15.569  -2.325 -10.064  1.00  0.00    -0.394 OA
ATOM     32  H   UNL     1      15.325  -2.656 -10.967  1.00  0.00     0.210 HD
ENDBRANCH  30  31
ENDBRANCH  24  30
BRANCH  25  33
ATOM     33  O   UNL     1      13.903  -0.109 -11.330  1.00  0.00    -0.388 OA
ATOM     34  H   UNL     1      13.728  -0.880 -11.932  1.00  0.00     0.211 HD
ENDBRANCH  25  33
ENDBRANCH  11  20
BRANCH  10  35
ATOM     35  O   UNL     1      19.269   1.743 -11.502  1.00  0.00    -0.507 OA
ATOM     36  H   UNL     1      18.709   2.549 -11.249  1.00  0.00     0.293 HD
ENDBRANCH  10  35
TORSDOF 9
ENDMDL
MODEL 6
REMARK VINA RESULT:    -6.407      4.353      7.034
REMARK INTER + INTRA:          -9.107
REMARK INTER:                  -8.189
REMARK INTRA:                  -0.919
REMARK UNBOUND:                -0.453
REMARK SMILES O=c1c(-c2ccc(O)cc2)coc2c([C@H]3O[C@@H](CO)[C@H](O)[C@@H](O)[C@@H]3O)c(O)ccc12
REMARK SMILES IDX 3 1 11 2 12 3 13 4 30 5 2 6 1 7 29 8 28 9 26 10 14 11 4 12
REMARK SMILES IDX 5 13 6 14 7 15 10 16 9 17 8 18 15 20 24 21 16 22 22 23 17 24
REMARK SMILES IDX 20 25 25 26 23 28 18 30 19 31 21 33 27 35
REMARK H PARENT 8 19 25 27 23 29 19 32 21 34 27 36
REMARK Flexibility Score: inf
ROOT
ATOM      1  C   UNL     1      18.588  -2.056 -10.049  1.00  0.00     0.065 A 
ATOM      2  C   UNL     1      19.331  -2.517 -11.144  1.00  0.00     0.208 A 
ATOM      3  O   UNL     1      18.838  -3.436 -11.965  1.00  0.00    -0.463 OA
ATOM      4  C   UNL     1      17.630  -3.973 -11.816  1.00  0.00     0.147 A 
ATOM      5  C   UNL     1      16.808  -3.559 -10.741  1.00  0.00     0.066 A 
ATOM      6  C   UNL     1      17.299  -2.584  -9.853  1.00  0.00     0.200 A 
ATOM      7  O   UNL     1      16.581  -2.171  -8.901  1.00  0.00    -0.288 OA
ATOM      8  C   UNL     1      15.527  -4.115 -10.594  1.00  0.00     0.020 A 
ATOM      9  C   UNL     1      15.064  -5.063 -11.503  1.00  0.00     0.047 A 
ATOM     10  C   UNL     1      15.869  -5.480 -12.571  1.00  0.00     0.125 A 
ATOM     11  C   UNL     1      17.170  -4.952 -12.729  1.00  0.00     0.069 A 
ENDROOT
BRANCH   1  12
ATOM     12  C   UNL     1      19.165  -1.034  -9.140  1.00  0.00    -0.011 A 
ATOM     13  C   UNL     1      18.992   0.337  -9.400  1.00  0.00     0.013 A 
ATOM     14  C   UNL     1      19.530   1.294  -8.535  1.00  0.00     0.047 A 
ATOM     15  C   UNL     1      20.242   0.897  -7.400  1.00  0.00     0.115 A 
ATOM     16  C   UNL     1      19.876  -1.427  -7.992  1.00  0.00     0.013 A 
ATOM     17  C   UNL     1      20.414  -0.466  -7.130  1.00  0.00     0.047 A 
BRANCH  15  18
ATOM     18  O   UNL     1      20.773   1.863  -6.548  1.00  0.00    -0.508 OA
ATOM     19  H   UNL     1      20.925   1.675  -5.563  1.00  0.00     0.293 HD
ENDBRANCH  15  18
ENDBRANCH   1  12
BRANCH  11  20
ATOM     20  C   UNL     1      18.044  -5.380 -13.900  1.00  0.00     0.188 C 
ATOM     21  C   UNL     1      17.471  -4.823 -15.226  1.00  0.00     0.179 C 
ATOM     22  O   UNL     1      18.107  -6.798 -13.942  1.00  0.00    -0.362 OA
ATOM     23  C   UNL     1      18.331  -5.298 -16.414  1.00  0.00     0.177 C 
ATOM     24  C   UNL     1      19.021  -7.240 -14.933  1.00  0.00     0.176 C 
ATOM     25  C   UNL     1      18.524  -6.824 -16.343  1.00  0.00     0.177 C 
BRANCH  21  26
ATOM     26  O   UNL     1      17.398  -3.418 -15.196  1.00  0.00    -0.387 OA
ATOM     27  H   UNL     1      16.439  -3.165 -15.241  1.00  0.00     0.211 HD
ENDBRANCH  21  26
BRANCH  23  28
ATOM     28  O   UNL     1      17.707  -4.965 -17.626  1.00  0.00    -0.387 OA
ATOM     29  H   UNL     1      17.736  -3.975 -17.702  1.00  0.00     0.211 HD
ENDBRANCH  23  28
BRANCH  24  30
ATOM     30  C   UNL     1      19.142  -8.767 -14.807  1.00  0.00     0.191 C 
BRANCH  30  31
ATOM     31  O   UNL     1      20.346  -9.121 -14.177  1.00  0.00    -0.394 OA
ATOM     32  H   UNL     1      20.579  -8.384 -13.554  1.00  0.00     0.210 HD
ENDBRANCH  30  31
ENDBRANCH  24  30
BRANCH  25  33
ATOM     33  O   UNL     1      19.409  -7.247 -17.352  1.00  0.00    -0.388 OA
ATOM     34  H   UNL     1      18.997  -7.023 -18.227  1.00  0.00     0.211 HD
ENDBRANCH  25  33
ENDBRANCH  11  20
BRANCH  10  35
ATOM     35  O   UNL     1      15.371  -6.416 -13.478  1.00  0.00    -0.507 OA
ATOM     36  H   UNL     1      15.863  -6.643 -14.334  1.00  0.00     0.293 HD
ENDBRANCH  10  35
TORSDOF 9
ENDMDL
MODEL 7
REMARK VINA RESULT:    -6.357      5.260      7.120
REMARK INTER + INTRA:          -9.040
REMARK INTER:                  -8.135
REMARK INTRA:                  -0.905
REMARK UNBOUND:                -0.453
REMARK SMILES O=c1c(-c2ccc(O)cc2)coc2c([C@H]3O[C@@H](CO)[C@H](O)[C@@H](O)[C@@H]3O)c(O)ccc12
REMARK SMILES IDX 3 1 11 2 12 3 13 4 30 5 2 6 1 7 29 8 28 9 26 10 14 11 4 12
REMARK SMILES IDX 5 13 6 14 7 15 10 16 9 17 8 18 15 20 24 21 16 22 22 23 17 24
REMARK SMILES IDX 20 25 25 26 23 28 18 30 19 31 21 33 27 35
REMARK H PARENT 8 19 25 27 23 29 19 32 21 34 27 36
REMARK Flexibility Score: inf
ROOT
ATOM      1  C   UNL     1      20.961   0.732 -17.313  1.00  0.00     0.065 A 
ATOM      2  C   UNL     1      19.779   0.640 -16.564  1.00  0.00     0.208 A 
ATOM      3  O   UNL     1      19.751   1.001 -15.287  1.00  0.00    -0.463 OA
ATOM      4  C   UNL     1      20.814   1.470 -14.639  1.00  0.00     0.147 A 
ATOM      5  C   UNL     1      22.046   1.604 -15.321  1.00  0.00     0.066 A 
ATOM      6  C   UNL     1      22.111   1.232 -16.676  1.00  0.00     0.200 A 
ATOM      7  O   UNL     1      23.187   1.366 -17.322  1.00  0.00    -0.288 OA
ATOM      8  C   UNL     1      23.163   2.113 -14.640  1.00  0.00     0.020 A 
ATOM      9  C   UNL     1      23.059   2.491 -13.304  1.00  0.00     0.047 A 
ATOM     10  C   UNL     1      21.844   2.364 -12.619  1.00  0.00     0.125 A 
ATOM     11  C   UNL     1      20.710   1.833 -13.275  1.00  0.00     0.069 A 
ENDROOT
BRANCH   1  12
ATOM     12  C   UNL     1      20.970   0.312 -18.737  1.00  0.00    -0.011 A 
ATOM     13  C   UNL     1      20.576  -0.988 -19.104  1.00  0.00     0.013 A 
ATOM     14  C   UNL     1      20.578  -1.373 -20.448  1.00  0.00     0.047 A 
ATOM     15  C   UNL     1      20.968  -0.469 -21.440  1.00  0.00     0.115 A 
ATOM     16  C   UNL     1      21.353   1.219 -19.740  1.00  0.00     0.013 A 
ATOM     17  C   UNL     1      21.354   0.829 -21.083  1.00  0.00     0.047 A 
BRANCH  15  18
ATOM     18  O   UNL     1      20.966  -0.868 -22.775  1.00  0.00    -0.508 OA
ATOM     19  H   UNL     1      21.784  -1.284 -23.205  1.00  0.00     0.293 HD
ENDBRANCH  15  18
ENDBRANCH   1  12
BRANCH  11  20
ATOM     20  C   UNL     1      19.378   1.713 -12.547  1.00  0.00     0.188 C 
ATOM     21  C   UNL     1      18.661   3.084 -12.515  1.00  0.00     0.179 C 
ATOM     22  O   UNL     1      19.607   1.240 -11.229  1.00  0.00    -0.362 OA
ATOM     23  C   UNL     1      17.335   2.968 -11.737  1.00  0.00     0.177 C 
ATOM     24  C   UNL     1      18.385   0.981 -10.557  1.00  0.00     0.176 C 
ATOM     25  C   UNL     1      17.586   2.299 -10.373  1.00  0.00     0.177 C 
BRANCH  21  26
ATOM     26  O   UNL     1      18.431   3.567 -13.817  1.00  0.00    -0.387 OA
ATOM     27  H   UNL     1      18.717   4.518 -13.841  1.00  0.00     0.211 HD
ENDBRANCH  21  26
BRANCH  23  28
ATOM     28  O   UNL     1      16.782   4.243 -11.533  1.00  0.00    -0.387 OA
ATOM     29  H   UNL     1      16.999   4.505 -10.601  1.00  0.00     0.211 HD
ENDBRANCH  23  28
BRANCH  24  30
ATOM     30  C   UNL     1      18.723   0.334  -9.206  1.00  0.00     0.191 C 
BRANCH  30  31
ATOM     31  O   UNL     1      17.577  -0.232  -8.623  1.00  0.00    -0.394 OA
ATOM     32  H   UNL     1      17.074   0.507  -8.190  1.00  0.00     0.210 HD
ENDBRANCH  30  31
ENDBRANCH  24  30
BRANCH  25  33
ATOM     33  O   UNL     1      16.365   2.078  -9.710  1.00  0.00    -0.388 OA
ATOM     34  H   UNL     1      15.767   2.843  -9.918  1.00  0.00     0.211 HD
ENDBRANCH  25  33
ENDBRANCH  11  20
BRANCH  10  35
ATOM     35  O   UNL     1      21.764   2.769 -11.286  1.00  0.00    -0.507 OA
ATOM     36  H   UNL     1      22.038   3.700 -10.995  1.00  0.00     0.293 HD
ENDBRANCH  10  35
TORSDOF 9
ENDMDL
MODEL 8
REMARK VINA RESULT:    -6.336      5.517     10.628
REMARK INTER + INTRA:          -9.011
REMARK INTER:                  -8.460
REMARK INTRA:                  -0.551
REMARK UNBOUND:                -0.453
REMARK SMILES O=c1c(-c2ccc(O)cc2)coc2c([C@H]3O[C@@H](CO)[C@H](O)[C@@H](O)[C@@H]3O)c(O)ccc12
REMARK SMILES IDX 3 1 11 2 12 3 13 4 30 5 2 6 1 7 29 8 28 9 26 10 14 11 4 12
REMARK SMILES IDX 5 13 6 14 7 15 10 16 9 17 8 18 15 20 24 21 16 22 22 23 17 24
REMARK SMILES IDX 20 25 25 26 23 28 18 30 19 31 21 33 27 35
REMARK H PARENT 8 19 25 27 23 29 19 32 21 34 27 36
REMARK Flexibility Score: inf
ROOT
ATOM      1  C   UNL     1      11.893  -6.763 -10.674  1.00  0.00     0.065 A 
ATOM      2  C   UNL     1      12.617  -5.563 -10.713  1.00  0.00     0.208 A 
ATOM      3  O   UNL     1      13.714  -5.451 -11.452  1.00  0.00    -0.463 OA
ATOM      4  C   UNL     1      14.195  -6.444 -12.196  1.00  0.00     0.147 A 
ATOM      5  C   UNL     1      13.522  -7.688 -12.223  1.00  0.00     0.066 A 
ATOM      6  C   UNL     1      12.354  -7.840 -11.453  1.00  0.00     0.200 A 
ATOM      7  O   UNL     1      11.713  -8.927 -11.476  1.00  0.00    -0.288 OA
ATOM      8  C   UNL     1      14.021  -8.729 -13.021  1.00  0.00     0.020 A 
ATOM      9  C   UNL     1      15.169  -8.538 -13.787  1.00  0.00     0.047 A 
ATOM     10  C   UNL     1      15.843  -7.310 -13.769  1.00  0.00     0.125 A 
ATOM     11  C   UNL     1      15.373  -6.253 -12.957  1.00  0.00     0.069 A 
ENDROOT
BRANCH   1  12
ATOM     12  C   UNL     1      10.675  -6.866  -9.832  1.00  0.00    -0.011 A 
ATOM     13  C   UNL     1      10.764  -7.272  -8.489  1.00  0.00     0.013 A 
ATOM     14  C   UNL     1       9.614  -7.359  -7.698  1.00  0.00     0.047 A 
ATOM     15  C   UNL     1       8.364  -7.039  -8.236  1.00  0.00     0.115 A 
ATOM     16  C   UNL     1       9.416  -6.538 -10.364  1.00  0.00     0.013 A 
ATOM     17  C   UNL     1       8.268  -6.627  -9.571  1.00  0.00     0.047 A 
BRANCH  15  18
ATOM     18  O   UNL     1       7.227  -7.130  -7.437  1.00  0.00    -0.508 OA
ATOM     19  H   UNL     1       7.161  -7.807  -6.685  1.00  0.00     0.293 HD
ENDBRANCH  15  18
ENDBRANCH   1  12
BRANCH  11  20
ATOM     20  C   UNL     1      16.084  -4.907 -12.949  1.00  0.00     0.188 C 
ATOM     21  C   UNL     1      17.110  -4.853 -11.791  1.00  0.00     0.179 C 
ATOM     22  O   UNL     1      15.123  -3.871 -12.812  1.00  0.00    -0.362 OA
ATOM     23  C   UNL     1      17.794  -3.472 -11.757  1.00  0.00     0.177 C 
ATOM     24  C   UNL     1      15.727  -2.593 -12.937  1.00  0.00     0.176 C 
ATOM     25  C   UNL     1      16.730  -2.360 -11.776  1.00  0.00     0.177 C 
BRANCH  21  26
ATOM     26  O   UNL     1      18.066  -5.878 -11.911  1.00  0.00    -0.387 OA
ATOM     27  H   UNL     1      18.782  -5.554 -12.518  1.00  0.00     0.211 HD
ENDBRANCH  21  26
BRANCH  23  28
ATOM     28  O   UNL     1      18.574  -3.348 -10.595  1.00  0.00    -0.387 OA
ATOM     29  H   UNL     1      17.951  -3.131  -9.853  1.00  0.00     0.211 HD
ENDBRANCH  23  28
BRANCH  24  30
ATOM     30  C   UNL     1      14.604  -1.545 -12.930  1.00  0.00     0.191 C 
BRANCH  30  31
ATOM     31  O   UNL     1      15.007  -0.378 -13.598  1.00  0.00    -0.394 OA
ATOM     32  H   UNL     1      15.642   0.097 -13.001  1.00  0.00     0.210 HD
ENDBRANCH  30  31
ENDBRANCH  24  30
BRANCH  25  33
ATOM     33  O   UNL     1      17.348  -1.099 -11.870  1.00  0.00    -0.388 OA
ATOM     34  H   UNL     1      16.711  -0.425 -11.517  1.00  0.00     0.211 HD
ENDBRANCH  25  33
ENDBRANCH  11  20
BRANCH  10  35
ATOM     35  O   UNL     1      16.978  -7.141 -14.562  1.00  0.00    -0.507 OA
ATOM     36  H   UNL     1      17.072  -7.598 -15.462  1.00  0.00     0.293 HD
ENDBRANCH  10  35
TORSDOF 9
ENDMDL
MODEL 9
REMARK VINA RESULT:    -6.317      3.883      5.559
REMARK INTER + INTRA:          -8.986
REMARK INTER:                  -8.349
REMARK INTRA:                  -0.637
REMARK UNBOUND:                -0.453
REMARK SMILES O=c1c(-c2ccc(O)cc2)coc2c([C@H]3O[C@@H](CO)[C@H](O)[C@@H](O)[C@@H]3O)c(O)ccc12
REMARK SMILES IDX 3 1 11 2 12 3 13 4 30 5 2 6 1 7 29 8 28 9 26 10 14 11 4 12
REMARK SMILES IDX 5 13 6 14 7 15 10 16 9 17 8 18 15 20 24 21 16 22 22 23 17 24
REMARK SMILES IDX 20 25 25 26 23 28 18 30 19 31 21 33 27 35
REMARK H PARENT 8 19 25 27 23 29 19 32 21 34 27 36
REMARK Flexibility Score: inf
ROOT
ATOM      1  C   UNL     1      18.304   0.549 -14.250  1.00  0.00     0.065 A 
ATOM      2  C   UNL     1      18.422  -0.459 -13.284  1.00  0.00     0.208 A 
ATOM      3  O   UNL     1      17.722  -0.409 -12.157  1.00  0.00    -0.463 OA
ATOM      4  C   UNL     1      16.876   0.576 -11.869  1.00  0.00     0.147 A 
ATOM      5  C   UNL     1      16.689   1.631 -12.792  1.00  0.00     0.066 A 
ATOM      6  C   UNL     1      17.413   1.608 -13.998  1.00  0.00     0.200 A 
ATOM      7  O   UNL     1      17.249   2.518 -14.857  1.00  0.00    -0.288 OA
ATOM      8  C   UNL     1      15.783   2.661 -12.494  1.00  0.00     0.020 A 
ATOM      9  C   UNL     1      15.067   2.642 -11.299  1.00  0.00     0.047 A 
ATOM     10  C   UNL     1      15.243   1.602 -10.378  1.00  0.00     0.125 A 
ATOM     11  C   UNL     1      16.165   0.564 -10.645  1.00  0.00     0.069 A 
ENDROOT
BRANCH   1  12
ATOM     12  C   UNL     1      19.104   0.476 -15.499  1.00  0.00    -0.011 A 
ATOM     13  C   UNL     1      20.375   1.075 -15.573  1.00  0.00     0.013 A 
ATOM     14  C   UNL     1      21.127   0.994 -16.748  1.00  0.00     0.047 A 
ATOM     15  C   UNL     1      20.625   0.314 -17.861  1.00  0.00     0.115 A 
ATOM     16  C   UNL     1      18.609  -0.214 -16.619  1.00  0.00     0.013 A 
ATOM     17  C   UNL     1      19.364  -0.292 -17.793  1.00  0.00     0.047 A 
BRANCH  15  18
ATOM     18  O   UNL     1      21.386   0.243 -19.026  1.00  0.00    -0.508 OA
ATOM     19  H   UNL     1      20.951   0.207 -19.941  1.00  0.00     0.293 HD
ENDBRANCH  15  18
ENDBRANCH   1  12
BRANCH  11  20
ATOM     20  C   UNL     1      16.346  -0.584  -9.661  1.00  0.00     0.188 C 
ATOM     21  C   UNL     1      17.691  -0.435  -8.909  1.00  0.00     0.179 C 
ATOM     22  O   UNL     1      16.304  -1.814 -10.366  1.00  0.00    -0.362 OA
ATOM     23  C   UNL     1      17.892  -1.623  -7.948  1.00  0.00     0.177 C 
ATOM     24  C   UNL     1      16.330  -2.917  -9.473  1.00  0.00     0.176 C 
ATOM     25  C   UNL     1      17.677  -2.948  -8.702  1.00  0.00     0.177 C 
BRANCH  21  26
ATOM     26  O   UNL     1      17.749   0.785  -8.209  1.00  0.00    -0.387 OA
ATOM     27  H   UNL     1      17.004   0.793  -7.553  1.00  0.00     0.211 HD
ENDBRANCH  21  26
BRANCH  23  28
ATOM     28  O   UNL     1      19.192  -1.599  -7.415  1.00  0.00    -0.387 OA
ATOM     29  H   UNL     1      19.782  -1.216  -8.115  1.00  0.00     0.211 HD
ENDBRANCH  23  28
BRANCH  24  30
ATOM     30  C   UNL     1      16.127  -4.194 -10.303  1.00  0.00     0.191 C 
BRANCH  30  31
ATOM     31  O   UNL     1      17.358  -4.693 -10.760  1.00  0.00    -0.394 OA
ATOM     32  H   UNL     1      17.264  -4.855 -11.735  1.00  0.00     0.210 HD
ENDBRANCH  30  31
ENDBRANCH  24  30
BRANCH  25  33
ATOM     33  O   UNL     1      17.737  -4.031  -7.806  1.00  0.00    -0.388 OA
ATOM     34  H   UNL     1      16.883  -4.531  -7.881  1.00  0.00     0.211 HD
ENDBRANCH  25  33
ENDBRANCH  11  20
BRANCH  10  35
ATOM     35  O   UNL     1      14.497   1.599  -9.199  1.00  0.00    -0.507 OA
ATOM     36  H   UNL     1      13.941   0.799  -8.922  1.00  0.00     0.293 HD
ENDBRANCH  10  35
TORSDOF 9
ENDMDL
