MODEL 1
REMARK VINA RESULT:    -4.975      0.000      0.000
REMARK INTER + INTRA:          -5.995
REMARK INTER:                  -5.847
REMARK INTRA:                  -0.148
REMARK UNBOUND:                -0.148
REMARK SMILES COc1cc2ccc(=O)oc2c(OC)c1OC
REMARK SMILES IDX 3 1 15 2 12 3 11 4 5 5 4 6 6 7 7 8 8 9 9 10 10 11 2 12 1 13
REMARK SMILES IDX 16 14 17 15 13 16 14 17
REMARK H PARENT
REMARK Flexibility Score: inf
ROOT
ATOM      1  C   UNL     1       7.733  -5.567  -7.035  1.00  0.00     0.165 A 
ATOM      2  C   UNL     1       8.146  -6.885  -7.289  1.00  0.00     0.207 A 
ATOM      3  C   UNL     1       8.364  -7.319  -8.615  1.00  0.00     0.208 A 
ATOM      4  C   UNL     1       8.263  -6.402  -9.669  1.00  0.00     0.184 A 
ATOM      5  C   UNL     1       7.881  -5.070  -9.413  1.00  0.00     0.025 A 
ATOM      6  C   UNL     1       7.600  -4.661  -8.104  1.00  0.00     0.062 A 
ATOM      7  C   UNL     1       7.778  -4.184 -10.491  1.00  0.00     0.020 A 
ATOM      8  C   UNL     1       8.054  -4.639 -11.779  1.00  0.00     0.094 A 
ATOM      9  C   UNL     1       8.425  -5.974 -11.960  1.00  0.00     0.336 A 
ATOM     10  O   UNL     1       8.676  -6.406 -13.116  1.00  0.00    -0.246 OA
ATOM     11  O   UNL     1       8.513  -6.795 -10.917  1.00  0.00    -0.419 OA
ENDROOT
BRANCH   1  12
ATOM     12  O   UNL     1       7.483  -5.192  -5.705  1.00  0.00    -0.493 OA
ATOM     13  C   UNL     1       8.465  -4.671  -4.815  1.00  0.00     0.278 C 
ENDBRANCH   1  12
BRANCH   2  14
ATOM     14  O   UNL     1       8.345  -7.739  -6.198  1.00  0.00    -0.490 OA
ATOM     15  C   UNL     1       7.308  -8.567  -5.683  1.00  0.00     0.278 C 
ENDBRANCH   2  14
BRANCH   3  16
ATOM     16  O   UNL     1       8.669  -8.651  -8.915  1.00  0.00    -0.490 OA
ATOM     17  C   UNL     1      10.008  -9.124  -9.018  1.00  0.00     0.278 C 
ENDBRANCH   3  16
TORSDOF 3
ENDMDL
MODEL 2
REMARK VINA RESULT:    -4.845      1.682      5.679
REMARK INTER + INTRA:          -5.842
REMARK INTER:                  -5.641
REMARK INTRA:                  -0.202
REMARK UNBOUND:                -0.148
REMARK SMILES COc1cc2ccc(=O)oc2c(OC)c1OC
REMARK SMILES IDX 3 1 15 2 12 3 11 4 5 5 4 6 6 7 7 8 8 9 9 10 10 11 2 12 1 13
REMARK SMILES IDX 16 14 17 15 13 16 14 17
REMARK H PARENT
REMARK Flexibility Score: inf
ROOT
ATOM      1  C   UNL     1       9.038  -6.948 -10.926  1.00  0.00     0.165 A 
ATOM      2  C   UNL     1       8.742  -5.675 -10.411  1.00  0.00     0.207 A 
ATOM      3  C   UNL     1       8.285  -5.534  -9.082  1.00  0.00     0.208 A 
ATOM      4  C   UNL     1       8.222  -6.657  -8.248  1.00  0.00     0.184 A 
ATOM      5  C   UNL     1       8.550  -7.932  -8.754  1.00  0.00     0.025 A 
ATOM      6  C   UNL     1       8.939  -8.076 -10.091  1.00  0.00     0.062 A 
ATOM      7  C   UNL     1       8.464  -9.034  -7.897  1.00  0.00     0.020 A 
ATOM      8  C   UNL     1       8.060  -8.845  -6.576  1.00  0.00     0.094 A 
ATOM      9  C   UNL     1       7.746  -7.553  -6.144  1.00  0.00     0.336 A 
ATOM     10  O   UNL     1       7.376  -7.360  -4.956  1.00  0.00    -0.246 OA
ATOM     11  O   UNL     1       7.835  -6.523  -6.981  1.00  0.00    -0.419 OA
ENDROOT
BRANCH   1  12
ATOM     12  O   UNL     1       9.446  -7.046 -12.266  1.00  0.00    -0.493 OA
ATOM     13  C   UNL     1       9.538  -8.265 -12.995  1.00  0.00     0.278 C 
ENDBRANCH   1  12
BRANCH   2  14
ATOM     14  O   UNL     1       8.926  -4.565 -11.243  1.00  0.00    -0.490 OA
ATOM     15  C   UNL     1       7.882  -4.046 -12.061  1.00  0.00     0.278 C 
ENDBRANCH   2  14
BRANCH   3  16
ATOM     16  O   UNL     1       7.876  -4.298  -8.570  1.00  0.00    -0.490 OA
ATOM     17  C   UNL     1       6.535  -3.834  -8.673  1.00  0.00     0.278 C 
ENDBRANCH   3  16
TORSDOF 3
ENDMDL
MODEL 3
REMARK VINA RESULT:    -4.844      1.474      4.771
REMARK INTER + INTRA:          -5.842
REMARK INTER:                  -5.556
REMARK INTRA:                  -0.286
REMARK UNBOUND:                -0.148
REMARK SMILES COc1cc2ccc(=O)oc2c(OC)c1OC
REMARK SMILES IDX 3 1 15 2 12 3 11 4 5 5 4 6 6 7 7 8 8 9 9 10 10 11 2 12 1 13
REMARK SMILES IDX 16 14 17 15 13 16 14 17
REMARK H PARENT
REMARK Flexibility Score: inf
ROOT
ATOM      1  C   UNL     1       8.928  -5.119 -10.405  1.00  0.00     0.165 A 
ATOM      2  C   UNL     1       9.285  -6.465 -10.588  1.00  0.00     0.207 A 
ATOM      3  C   UNL     1       9.182  -7.379  -9.516  1.00  0.00     0.208 A 
ATOM      4  C   UNL     1       8.630  -6.961  -8.299  1.00  0.00     0.184 A 
ATOM      5  C   UNL     1       8.241  -5.617  -8.124  1.00  0.00     0.025 A 
ATOM      6  C   UNL     1       8.407  -4.699  -9.167  1.00  0.00     0.062 A 
ATOM      7  C   UNL     1       7.705  -5.231  -6.891  1.00  0.00     0.020 A 
ATOM      8  C   UNL     1       7.571  -6.177  -5.876  1.00  0.00     0.094 A 
ATOM      9  C   UNL     1       7.981  -7.492  -6.119  1.00  0.00     0.336 A 
ATOM     10  O   UNL     1       7.871  -8.362  -5.215  1.00  0.00    -0.246 OA
ATOM     11  O   UNL     1       8.489  -7.831  -7.300  1.00  0.00    -0.419 OA
ENDROOT
BRANCH   1  12
ATOM     12  O   UNL     1       9.089  -4.235 -11.484  1.00  0.00    -0.493 OA
ATOM     13  C   UNL     1       8.025  -3.742 -12.291  1.00  0.00     0.278 C 
ENDBRANCH   1  12
BRANCH   2  14
ATOM     14  O   UNL     1       9.725  -6.867 -11.854  1.00  0.00    -0.490 OA
ATOM     15  C   UNL     1       8.880  -7.559 -12.767  1.00  0.00     0.278 C 
ENDBRANCH   2  14
BRANCH   3  16
ATOM     16  O   UNL     1       9.629  -8.700  -9.628  1.00  0.00    -0.490 OA
ATOM     17  C   UNL     1      10.988  -9.068  -9.412  1.00  0.00     0.278 C 
ENDBRANCH   3  16
TORSDOF 3
ENDMDL
MODEL 4
REMARK VINA RESULT:    -4.817      1.389      3.248
REMARK INTER + INTRA:          -5.810
REMARK INTER:                  -5.634
REMARK INTRA:                  -0.175
REMARK UNBOUND:                -0.148
REMARK SMILES COc1cc2ccc(=O)oc2c(OC)c1OC
REMARK SMILES IDX 3 1 15 2 12 3 11 4 5 5 4 6 6 7 7 8 8 9 9 10 10 11 2 12 1 13
REMARK SMILES IDX 16 14 17 15 13 16 14 17
REMARK H PARENT
REMARK Flexibility Score: inf
ROOT
ATOM      1  C   UNL     1       8.026  -7.806  -6.849  1.00  0.00     0.165 A 
ATOM      2  C   UNL     1       7.842  -6.427  -7.039  1.00  0.00     0.207 A 
ATOM      3  C   UNL     1       7.949  -5.868  -8.332  1.00  0.00     0.208 A 
ATOM      4  C   UNL     1       8.142  -6.707  -9.437  1.00  0.00     0.184 A 
ATOM      5  C   UNL     1       8.295  -8.096  -9.251  1.00  0.00     0.025 A 
ATOM      6  C   UNL     1       8.254  -8.639  -7.961  1.00  0.00     0.062 A 
ATOM      7  C   UNL     1       8.498  -8.903 -10.375  1.00  0.00     0.020 A 
ATOM      8  C   UNL     1       8.544  -8.317 -11.639  1.00  0.00     0.094 A 
ATOM      9  C   UNL     1       8.388  -6.932 -11.749  1.00  0.00     0.336 A 
ATOM     10  O   UNL     1       8.429  -6.382 -12.881  1.00  0.00    -0.246 OA
ATOM     11  O   UNL     1       8.197  -6.188 -10.662  1.00  0.00    -0.419 OA
ENDROOT
BRANCH   1  12
ATOM     12  O   UNL     1       7.956  -8.313  -5.541  1.00  0.00    -0.493 OA
ATOM     13  C   UNL     1       6.762  -8.766  -4.913  1.00  0.00     0.278 C 
ENDBRANCH   1  12
BRANCH   2  14
ATOM     14  O   UNL     1       7.538  -5.639  -5.924  1.00  0.00    -0.490 OA
ATOM     15  C   UNL     1       8.539  -4.930  -5.200  1.00  0.00     0.278 C 
ENDBRANCH   2  14
BRANCH   3  16
ATOM     16  O   UNL     1       7.880  -4.487  -8.546  1.00  0.00    -0.490 OA
ATOM     17  C   UNL     1       6.650  -3.809  -8.774  1.00  0.00     0.278 C 
ENDBRANCH   3  16
TORSDOF 3
ENDMDL
MODEL 5
REMARK VINA RESULT:    -4.766      2.397      5.369
REMARK INTER + INTRA:          -5.750
REMARK INTER:                  -5.550
REMARK INTRA:                  -0.200
REMARK UNBOUND:                -0.148
REMARK SMILES COc1cc2ccc(=O)oc2c(OC)c1OC
REMARK SMILES IDX 3 1 15 2 12 3 11 4 5 5 4 6 6 7 7 8 8 9 9 10 10 11 2 12 1 13
REMARK SMILES IDX 16 14 17 15 13 16 14 17
REMARK H PARENT
REMARK Flexibility Score: inf
ROOT
ATOM      1  C   UNL     1       8.647  -8.136 -10.591  1.00  0.00     0.165 A 
ATOM      2  C   UNL     1       9.705  -7.242 -10.829  1.00  0.00     0.207 A 
ATOM      3  C   UNL     1      10.082  -6.308  -9.839  1.00  0.00     0.208 A 
ATOM      4  C   UNL     1       9.464  -6.341  -8.583  1.00  0.00     0.184 A 
ATOM      5  C   UNL     1       8.424  -7.259  -8.331  1.00  0.00     0.025 A 
ATOM      6  C   UNL     1       8.008  -8.139  -9.337  1.00  0.00     0.062 A 
ATOM      7  C   UNL     1       7.819  -7.257  -7.069  1.00  0.00     0.020 A 
ATOM      8  C   UNL     1       8.258  -6.354  -6.103  1.00  0.00     0.094 A 
ATOM      9  C   UNL     1       9.292  -5.469  -6.422  1.00  0.00     0.336 A 
ATOM     10  O   UNL     1       9.702  -4.644  -5.564  1.00  0.00    -0.246 OA
ATOM     11  O   UNL     1       9.848  -5.492  -7.631  1.00  0.00    -0.419 OA
ENDROOT
BRANCH   1  12
ATOM     12  O   UNL     1       8.276  -9.016 -11.619  1.00  0.00    -0.493 OA
ATOM     13  C   UNL     1       6.979  -9.076 -12.203  1.00  0.00     0.278 C 
ENDBRANCH   1  12
BRANCH   2  14
ATOM     14  O   UNL     1      10.372  -7.318 -12.056  1.00  0.00    -0.490 OA
ATOM     15  C   UNL     1      11.468  -8.201 -12.272  1.00  0.00     0.278 C 
ENDBRANCH   2  14
BRANCH   3  16
ATOM     16  O   UNL     1      11.055  -5.332 -10.079  1.00  0.00    -0.490 OA
ATOM     17  C   UNL     1      12.447  -5.583  -9.911  1.00  0.00     0.278 C 
ENDBRANCH   3  16
TORSDOF 3
ENDMDL
MODEL 6
REMARK VINA RESULT:    -4.744      1.931      3.732
REMARK INTER + INTRA:          -5.724
REMARK INTER:                  -5.488
REMARK INTRA:                  -0.236
REMARK UNBOUND:                -0.148
REMARK SMILES COc1cc2ccc(=O)oc2c(OC)c1OC
REMARK SMILES IDX 3 1 15 2 12 3 11 4 5 5 4 6 6 7 7 8 8 9 9 10 10 11 2 12 1 13
REMARK SMILES IDX 16 14 17 15 13 16 14 17
REMARK H PARENT
REMARK Flexibility Score: inf
ROOT
ATOM      1  C   UNL     1       9.055  -6.433  -7.365  1.00  0.00     0.165 A 
ATOM      2  C   UNL     1       8.789  -5.505  -8.384  1.00  0.00     0.207 A 
ATOM      3  C   UNL     1       9.357  -5.675  -9.667  1.00  0.00     0.208 A 
ATOM      4  C   UNL     1      10.106  -6.824  -9.946  1.00  0.00     0.184 A 
ATOM      5  C   UNL     1      10.347  -7.774  -8.932  1.00  0.00     0.025 A 
ATOM      6  C   UNL     1       9.838  -7.569  -7.645  1.00  0.00     0.062 A 
ATOM      7  C   UNL     1      11.111  -8.905  -9.242  1.00  0.00     0.020 A 
ATOM      8  C   UNL     1      11.608  -9.061 -10.535  1.00  0.00     0.094 A 
ATOM      9  C   UNL     1      11.333  -8.077 -11.489  1.00  0.00     0.336 A 
ATOM     10  O   UNL     1      11.776  -8.197 -12.662  1.00  0.00    -0.246 OA
ATOM     11  O   UNL     1      10.606  -7.011 -11.166  1.00  0.00    -0.419 OA
ENDROOT
BRANCH   1  12
ATOM     12  O   UNL     1       8.506  -6.202  -6.093  1.00  0.00    -0.493 OA
ATOM     13  C   UNL     1       7.663  -7.114  -5.399  1.00  0.00     0.278 C 
ENDBRANCH   1  12
BRANCH   2  14
ATOM     14  O   UNL     1       7.942  -4.429  -8.096  1.00  0.00    -0.490 OA
ATOM     15  C   UNL     1       6.527  -4.522  -8.221  1.00  0.00     0.278 C 
ENDBRANCH   2  14
BRANCH   3  16
ATOM     16  O   UNL     1       9.205  -4.715 -10.673  1.00  0.00    -0.490 OA
ATOM     17  C   UNL     1       8.116  -4.736 -11.590  1.00  0.00     0.278 C 
ENDBRANCH   3  16
TORSDOF 3
ENDMDL
MODEL 7
REMARK VINA RESULT:    -4.728      1.543      2.745
REMARK INTER + INTRA:          -5.705
REMARK INTER:                  -5.447
REMARK INTRA:                  -0.258
REMARK UNBOUND:                -0.148
REMARK SMILES COc1cc2ccc(=O)oc2c(OC)c1OC
REMARK SMILES IDX 3 1 15 2 12 3 11 4 5 5 4 6 6 7 7 8 8 9 9 10 10 11 2 12 1 13
REMARK SMILES IDX 16 14 17 15 13 16 14 17
REMARK H PARENT
REMARK Flexibility Score: inf
ROOT
ATOM      1  C   UNL     1       8.558  -6.336  -8.972  1.00  0.00     0.165 A 
ATOM      2  C   UNL     1       8.691  -7.421  -9.854  1.00  0.00     0.207 A 
ATOM      3  C   UNL     1       8.457  -7.246 -11.236  1.00  0.00     0.208 A 
ATOM      4  C   UNL     1       8.189  -5.966 -11.737  1.00  0.00     0.184 A 
ATOM      5  C   UNL     1       8.087  -4.870 -10.857  1.00  0.00     0.025 A 
ATOM      6  C   UNL     1       8.254  -5.059  -9.480  1.00  0.00     0.062 A 
ATOM      7  C   UNL     1       7.806  -3.607 -11.390  1.00  0.00     0.020 A 
ATOM      8  C   UNL     1       7.634  -3.469 -12.766  1.00  0.00     0.094 A 
ATOM      9  C   UNL     1       7.746  -4.600 -13.580  1.00  0.00     0.336 A 
ATOM     10  O   UNL     1       7.592  -4.498 -14.825  1.00  0.00    -0.246 OA
ATOM     11  O   UNL     1       8.013  -5.789 -13.046  1.00  0.00    -0.419 OA
ENDROOT
BRANCH   1  12
ATOM     12  O   UNL     1       8.755  -6.565  -7.601  1.00  0.00    -0.493 OA
ATOM     13  C   UNL     1       7.724  -6.533  -6.620  1.00  0.00     0.278 C 
ENDBRANCH   1  12
BRANCH   2  14
ATOM     14  O   UNL     1       9.072  -8.660  -9.327  1.00  0.00    -0.490 OA
ATOM     15  C   UNL     1      10.428  -9.094  -9.311  1.00  0.00     0.278 C 
ENDBRANCH   2  14
BRANCH   3  16
ATOM     16  O   UNL     1       8.473  -8.323 -12.128  1.00  0.00    -0.490 OA
ATOM     17  C   UNL     1       7.323  -9.125 -12.379  1.00  0.00     0.278 C 
ENDBRANCH   3  16
TORSDOF 3
ENDMDL
MODEL 8
REMARK VINA RESULT:    -4.716      2.016      2.529
REMARK INTER + INTRA:          -5.690
REMARK INTER:                  -5.495
REMARK INTRA:                  -0.195
REMARK UNBOUND:                -0.148
REMARK SMILES COc1cc2ccc(=O)oc2c(OC)c1OC
REMARK SMILES IDX 3 1 15 2 12 3 11 4 5 5 4 6 6 7 7 8 8 9 9 10 10 11 2 12 1 13
REMARK SMILES IDX 16 14 17 15 13 16 14 17
REMARK H PARENT
REMARK Flexibility Score: inf
ROOT
ATOM      1  C   UNL     1       8.766  -5.492  -7.455  1.00  0.00     0.165 A 
ATOM      2  C   UNL     1       9.831  -5.874  -8.287  1.00  0.00     0.207 A 
ATOM      3  C   UNL     1       9.800  -5.568  -9.666  1.00  0.00     0.208 A 
ATOM      4  C   UNL     1       8.751  -4.798 -10.182  1.00  0.00     0.184 A 
ATOM      5  C   UNL     1       7.697  -4.385  -9.342  1.00  0.00     0.025 A 
ATOM      6  C   UNL     1       7.698  -4.747  -7.989  1.00  0.00     0.062 A 
ATOM      7  C   UNL     1       6.659  -3.627  -9.893  1.00  0.00     0.020 A 
ATOM      8  C   UNL     1       6.694  -3.302 -11.248  1.00  0.00     0.094 A 
ATOM      9  C   UNL     1       7.768  -3.748 -12.023  1.00  0.00     0.336 A 
ATOM     10  O   UNL     1       7.818  -3.468 -13.250  1.00  0.00    -0.246 OA
ATOM     11  O   UNL     1       8.742  -4.469 -11.473  1.00  0.00    -0.419 OA
ENDROOT
BRANCH   1  12
ATOM     12  O   UNL     1       8.817  -5.855  -6.100  1.00  0.00    -0.493 OA
ATOM     13  C   UNL     1       8.118  -5.184  -5.057  1.00  0.00     0.278 C 
ENDBRANCH   1  12
BRANCH   2  14
ATOM     14  O   UNL     1      10.915  -6.544  -7.710  1.00  0.00    -0.490 OA
ATOM     15  C   UNL     1      10.987  -7.965  -7.655  1.00  0.00     0.278 C 
ENDBRANCH   2  14
BRANCH   3  16
ATOM     16  O   UNL     1      10.788  -6.027 -10.545  1.00  0.00    -0.490 OA
ATOM     17  C   UNL     1      12.010  -5.327 -10.754  1.00  0.00     0.278 C 
ENDBRANCH   3  16
TORSDOF 3
ENDMDL
MODEL 9
REMARK VINA RESULT:    -4.274     10.182     12.406
REMARK INTER + INTRA:          -5.171
REMARK INTER:                  -4.957
REMARK INTRA:                  -0.214
REMARK UNBOUND:                -0.148
REMARK SMILES COc1cc2ccc(=O)oc2c(OC)c1OC
REMARK SMILES IDX 3 1 15 2 12 3 11 4 5 5 4 6 6 7 7 8 8 9 9 10 10 11 2 12 1 13
REMARK SMILES IDX 16 14 17 15 13 16 14 17
REMARK H PARENT
REMARK Flexibility Score: inf
ROOT
ATOM      1  C   UNL     1      14.994   4.135  -6.671  1.00  0.00     0.165 A 
ATOM      2  C   UNL     1      14.012   3.569  -7.501  1.00  0.00     0.207 A 
ATOM      3  C   UNL     1      12.781   3.142  -6.955  1.00  0.00     0.208 A 
ATOM      4  C   UNL     1      12.504   3.377  -5.603  1.00  0.00     0.184 A 
ATOM      5  C   UNL     1      13.476   3.975  -4.775  1.00  0.00     0.025 A 
ATOM      6  C   UNL     1      14.720   4.336  -5.305  1.00  0.00     0.062 A 
ATOM      7  C   UNL     1      13.170   4.183  -3.426  1.00  0.00     0.020 A 
ATOM      8  C   UNL     1      11.923   3.796  -2.939  1.00  0.00     0.094 A 
ATOM      9  C   UNL     1      11.008   3.205  -3.816  1.00  0.00     0.336 A 
ATOM     10  O   UNL     1       9.877   2.846  -3.396  1.00  0.00    -0.246 OA
ATOM     11  O   UNL     1      11.326   3.018  -5.094  1.00  0.00    -0.419 OA
ENDROOT
BRANCH   1  12
ATOM     12  O   UNL     1      16.220   4.503  -7.247  1.00  0.00    -0.493 OA
ATOM     13  C   UNL     1      16.704   5.840  -7.334  1.00  0.00     0.278 C 
ENDBRANCH   1  12
BRANCH   2  14
ATOM     14  O   UNL     1      14.285   3.456  -8.868  1.00  0.00    -0.490 OA
ATOM     15  C   UNL     1      14.794   2.258  -9.445  1.00  0.00     0.278 C 
ENDBRANCH   2  14
BRANCH   3  16
ATOM     16  O   UNL     1      11.824   2.475  -7.727  1.00  0.00    -0.490 OA
ATOM     17  C   UNL     1      10.918   3.163  -8.584  1.00  0.00     0.278 C 
ENDBRANCH   3  16
TORSDOF 3
ENDMDL
