MODEL 1
REMARK VINA RESULT:    -4.669      0.000      0.000
REMARK INTER + INTRA:          -5.398
REMARK INTER:                  -5.352
REMARK INTRA:                  -0.046
REMARK UNBOUND:                -0.046
REMARK SMILES O=C([O-])c1cc(O)c(O)c(O)c1
REMARK SMILES IDX 4 1 5 2 12 3 6 4 10 5 8 6 2 7 1 8 3 9 7 10 11 12 9 14
REMARK H PARENT 7 11 11 13 9 15
REMARK Flexibility Score: inf
ROOT
ATOM      1  C   UNL     1     -19.269  -8.175  11.401  1.00  0.00     0.005 A 
ATOM      2  C   UNL     1     -18.795  -8.568  10.137  1.00  0.00     0.060 A 
ATOM      3  C   UNL     1     -19.978  -9.102  12.184  1.00  0.00     0.060 A 
ATOM      4  C   UNL     1     -19.029  -9.865   9.662  1.00  0.00     0.162 A 
ATOM      5  C   UNL     1     -20.214 -10.402  11.711  1.00  0.00     0.162 A 
ATOM      6  C   UNL     1     -19.737 -10.784  10.446  1.00  0.00     0.200 A 
ENDROOT
BRANCH   1   7
ATOM      7  C   UNL     1     -19.024  -6.805  11.907  1.00  0.00     0.072 C 
ATOM      8  O   UNL     1     -17.853  -6.416  12.159  1.00  0.00    -0.545 OA
ATOM      9  O   UNL     1     -20.084  -5.930  12.110  1.00  0.00    -0.545 OA
ENDBRANCH   1   7
BRANCH   4  10
ATOM     10  O   UNL     1     -18.558 -10.250   8.407  1.00  0.00    -0.504 OA
ATOM     11  H   UNL     1     -18.660 -11.200   8.070  1.00  0.00     0.293 HD
ENDBRANCH   4  10
BRANCH   5  12
ATOM     12  O   UNL     1     -20.919 -11.313  12.495  1.00  0.00    -0.504 OA
ATOM     13  H   UNL     1     -20.543 -12.228  12.715  1.00  0.00     0.293 HD
ENDBRANCH   5  12
BRANCH   6  14
ATOM     14  O   UNL     1     -19.959 -12.071   9.955  1.00  0.00    -0.502 OA
ATOM     15  H   UNL     1     -20.816 -12.326   9.479  1.00  0.00     0.293 HD
ENDBRANCH   6  14
TORSDOF 4
ENDMDL
MODEL 2
REMARK VINA RESULT:    -4.609      0.130      2.598
REMARK INTER + INTRA:          -5.329
REMARK INTER:                  -5.283
REMARK INTRA:                  -0.046
REMARK UNBOUND:                -0.046
REMARK SMILES O=C([O-])c1cc(O)c(O)c(O)c1
REMARK SMILES IDX 4 1 5 2 12 3 6 4 10 5 8 6 2 7 1 8 3 9 7 10 11 12 9 14
REMARK H PARENT 7 11 11 13 9 15
REMARK Flexibility Score: inf
ROOT
ATOM      1  C   UNL     1     -19.245  -8.249  11.397  1.00  0.00     0.005 A 
ATOM      2  C   UNL     1     -19.967  -9.161  12.186  1.00  0.00     0.060 A 
ATOM      3  C   UNL     1     -18.808  -8.646  10.122  1.00  0.00     0.060 A 
ATOM      4  C   UNL     1     -20.246 -10.449  11.710  1.00  0.00     0.162 A 
ATOM      5  C   UNL     1     -19.085  -9.934   9.641  1.00  0.00     0.162 A 
ATOM      6  C   UNL     1     -19.807 -10.839  10.438  1.00  0.00     0.200 A 
ENDROOT
BRANCH   1   7
ATOM      7  C   UNL     1     -18.948  -6.888  11.897  1.00  0.00     0.072 C 
ATOM      8  O   UNL     1     -19.880  -6.072  12.125  1.00  0.00    -0.545 OA
ATOM      9  O   UNL     1     -17.635  -6.491  12.123  1.00  0.00    -0.545 OA
ENDBRANCH   1   7
BRANCH   4  10
ATOM     10  O   UNL     1     -20.962 -11.350  12.497  1.00  0.00    -0.504 OA
ATOM     11  H   UNL     1     -20.655 -11.601  13.430  1.00  0.00     0.293 HD
ENDBRANCH   4  10
BRANCH   5  12
ATOM     12  O   UNL     1     -18.646 -10.318   8.375  1.00  0.00    -0.504 OA
ATOM     13  H   UNL     1     -18.968 -11.173   7.938  1.00  0.00     0.293 HD
ENDBRANCH   5  12
BRANCH   6  14
ATOM     14  O   UNL     1     -20.096 -12.125   9.982  1.00  0.00    -0.502 OA
ATOM     15  H   UNL     1     -20.453 -12.847  10.596  1.00  0.00     0.293 HD
ENDBRANCH   6  14
TORSDOF 4
ENDMDL
MODEL 3
REMARK VINA RESULT:    -4.538      1.220      4.820
REMARK INTER + INTRA:          -5.247
REMARK INTER:                  -5.194
REMARK INTRA:                  -0.053
REMARK UNBOUND:                -0.046
REMARK SMILES O=C([O-])c1cc(O)c(O)c(O)c1
REMARK SMILES IDX 4 1 5 2 12 3 6 4 10 5 8 6 2 7 1 8 3 9 7 10 11 12 9 14
REMARK H PARENT 7 11 11 13 9 15
REMARK Flexibility Score: inf
ROOT
ATOM      1  C   UNL     1     -19.484  -9.647  10.765  1.00  0.00     0.005 A 
ATOM      2  C   UNL     1     -20.332  -9.089  11.738  1.00  0.00     0.060 A 
ATOM      3  C   UNL     1     -18.407  -8.886  10.280  1.00  0.00     0.060 A 
ATOM      4  C   UNL     1     -20.109  -7.791  12.216  1.00  0.00     0.162 A 
ATOM      5  C   UNL     1     -18.180  -7.586  10.756  1.00  0.00     0.162 A 
ATOM      6  C   UNL     1     -19.034  -7.037  11.727  1.00  0.00     0.200 A 
ENDROOT
BRANCH   1   7
ATOM      7  C   UNL     1     -19.718 -11.018  10.258  1.00  0.00     0.072 C 
ATOM      8  O   UNL     1     -20.682 -11.705  10.689  1.00  0.00    -0.545 OA
ATOM      9  O   UNL     1     -18.876 -11.567   9.298  1.00  0.00    -0.545 OA
ENDBRANCH   1   7
BRANCH   4  10
ATOM     10  O   UNL     1     -20.953  -7.241  13.180  1.00  0.00    -0.504 OA
ATOM     11  H   UNL     1     -20.703  -6.401  13.688  1.00  0.00     0.293 HD
ENDBRANCH   4  10
BRANCH   5  12
ATOM     12  O   UNL     1     -17.109  -6.840  10.267  1.00  0.00    -0.504 OA
ATOM     13  H   UNL     1     -17.253  -5.983   9.745  1.00  0.00     0.293 HD
ENDBRANCH   5  12
BRANCH   6  14
ATOM     14  O   UNL     1     -18.828  -5.747  12.216  1.00  0.00    -0.502 OA
ATOM     15  H   UNL     1     -19.592  -5.163  12.536  1.00  0.00     0.293 HD
ENDBRANCH   6  14
TORSDOF 4
ENDMDL
MODEL 4
REMARK VINA RESULT:    -4.536      1.217      4.229
REMARK INTER + INTRA:          -5.244
REMARK INTER:                  -5.192
REMARK INTRA:                  -0.053
REMARK UNBOUND:                -0.046
REMARK SMILES O=C([O-])c1cc(O)c(O)c(O)c1
REMARK SMILES IDX 4 1 5 2 12 3 6 4 10 5 8 6 2 7 1 8 3 9 7 10 11 12 9 14
REMARK H PARENT 7 11 11 13 9 15
REMARK Flexibility Score: inf
ROOT
ATOM      1  C   UNL     1     -19.477  -9.639  10.762  1.00  0.00     0.005 A 
ATOM      2  C   UNL     1     -18.399  -8.878  10.278  1.00  0.00     0.060 A 
ATOM      3  C   UNL     1     -20.327  -9.081  11.732  1.00  0.00     0.060 A 
ATOM      4  C   UNL     1     -18.172  -7.580  10.757  1.00  0.00     0.162 A 
ATOM      5  C   UNL     1     -20.104  -7.782  12.214  1.00  0.00     0.162 A 
ATOM      6  C   UNL     1     -19.023  -7.030  11.724  1.00  0.00     0.200 A 
ENDROOT
BRANCH   1   7
ATOM      7  C   UNL     1     -19.719 -11.010  10.259  1.00  0.00     0.072 C 
ATOM      8  O   UNL     1     -20.699 -11.682  10.677  1.00  0.00    -0.545 OA
ATOM      9  O   UNL     1     -18.867 -11.576   9.318  1.00  0.00    -0.545 OA
ENDBRANCH   1   7
BRANCH   4  10
ATOM     10  O   UNL     1     -17.102  -6.829  10.274  1.00  0.00    -0.504 OA
ATOM     11  H   UNL     1     -16.494  -7.180   9.543  1.00  0.00     0.293 HD
ENDBRANCH   4  10
BRANCH   5  12
ATOM     12  O   UNL     1     -20.952  -7.239  13.177  1.00  0.00    -0.504 OA
ATOM     13  H   UNL     1     -21.613  -6.506  12.949  1.00  0.00     0.293 HD
ENDBRANCH   5  12
BRANCH   6  14
ATOM     14  O   UNL     1     -18.781  -5.736  12.188  1.00  0.00    -0.502 OA
ATOM     15  H   UNL     1     -18.424  -5.006  11.584  1.00  0.00     0.293 HD
ENDBRANCH   6  14
TORSDOF 4
ENDMDL
MODEL 5
REMARK VINA RESULT:    -3.590      1.512      4.236
REMARK INTER + INTRA:          -4.160
REMARK INTER:                  -4.110
REMARK INTRA:                  -0.050
REMARK UNBOUND:                -0.046
REMARK SMILES O=C([O-])c1cc(O)c(O)c(O)c1
REMARK SMILES IDX 4 1 5 2 12 3 6 4 10 5 8 6 2 7 1 8 3 9 7 10 11 12 9 14
REMARK H PARENT 7 11 11 13 9 15
REMARK Flexibility Score: inf
ROOT
ATOM      1  C   UNL     1     -19.409  -9.439  10.106  1.00  0.00     0.005 A 
ATOM      2  C   UNL     1     -19.041 -10.285  11.167  1.00  0.00     0.060 A 
ATOM      3  C   UNL     1     -19.617  -8.073  10.362  1.00  0.00     0.060 A 
ATOM      4  C   UNL     1     -18.886  -9.775  12.463  1.00  0.00     0.162 A 
ATOM      5  C   UNL     1     -19.462  -7.558  11.658  1.00  0.00     0.162 A 
ATOM      6  C   UNL     1     -19.095  -8.412  12.712  1.00  0.00     0.200 A 
ENDROOT
BRANCH   1   7
ATOM      7  C   UNL     1     -19.575  -9.975   8.736  1.00  0.00     0.072 C 
ATOM      8  O   UNL     1     -18.854 -10.924   8.329  1.00  0.00    -0.545 OA
ATOM      9  O   UNL     1     -20.528  -9.437   7.880  1.00  0.00    -0.545 OA
ENDBRANCH   1   7
BRANCH   4  10
ATOM     10  O   UNL     1     -18.521 -10.618  13.512  1.00  0.00    -0.504 OA
ATOM     11  H   UNL     1     -18.984 -10.576  14.412  1.00  0.00     0.293 HD
ENDBRANCH   4  10
BRANCH   5  12
ATOM     12  O   UNL     1     -19.671  -6.202  11.901  1.00  0.00    -0.504 OA
ATOM     13  H   UNL     1     -20.585  -5.841  12.149  1.00  0.00     0.293 HD
ENDBRANCH   5  12
BRANCH   6  14
ATOM     14  O   UNL     1     -18.934  -7.923  14.008  1.00  0.00    -0.502 OA
ATOM     15  H   UNL     1     -19.573  -7.249  14.413  1.00  0.00     0.293 HD
ENDBRANCH   6  14
TORSDOF 4
ENDMDL
MODEL 6
REMARK VINA RESULT:    -3.580      1.495      3.974
REMARK INTER + INTRA:          -4.149
REMARK INTER:                  -4.099
REMARK INTRA:                  -0.050
REMARK UNBOUND:                -0.046
REMARK SMILES O=C([O-])c1cc(O)c(O)c(O)c1
REMARK SMILES IDX 4 1 5 2 12 3 6 4 10 5 8 6 2 7 1 8 3 9 7 10 11 12 9 14
REMARK H PARENT 7 11 11 13 9 15
REMARK Flexibility Score: inf
ROOT
ATOM      1  C   UNL     1     -19.416  -9.448  10.086  1.00  0.00     0.005 A 
ATOM      2  C   UNL     1     -19.628  -8.082  10.343  1.00  0.00     0.060 A 
ATOM      3  C   UNL     1     -19.062 -10.296  11.150  1.00  0.00     0.060 A 
ATOM      4  C   UNL     1     -19.487  -7.571  11.640  1.00  0.00     0.162 A 
ATOM      5  C   UNL     1     -18.920  -9.789  12.450  1.00  0.00     0.162 A 
ATOM      6  C   UNL     1     -19.134  -8.422  12.695  1.00  0.00     0.200 A 
ENDROOT
BRANCH   1   7
ATOM      7  C   UNL     1     -19.563  -9.991   8.717  1.00  0.00     0.072 C 
ATOM      8  O   UNL     1     -18.825 -10.931   8.318  1.00  0.00    -0.545 OA
ATOM      9  O   UNL     1     -20.518  -9.471   7.852  1.00  0.00    -0.545 OA
ENDBRANCH   1   7
BRANCH   4  10
ATOM     10  O   UNL     1     -19.699  -6.216  11.889  1.00  0.00    -0.504 OA
ATOM     11  H   UNL     1     -19.608  -5.827  12.820  1.00  0.00     0.293 HD
ENDBRANCH   4  10
BRANCH   5  12
ATOM     12  O   UNL     1     -18.567 -10.638  13.497  1.00  0.00    -0.504 OA
ATOM     13  H   UNL     1     -19.245 -11.253  13.933  1.00  0.00     0.293 HD
ENDBRANCH   5  12
BRANCH   6  14
ATOM     14  O   UNL     1     -18.999  -7.894  13.980  1.00  0.00    -0.502 OA
ATOM     15  H   UNL     1     -18.417  -8.333  14.684  1.00  0.00     0.293 HD
ENDBRANCH   6  14
TORSDOF 4
ENDMDL
MODEL 7
REMARK VINA RESULT:    -3.094      1.813      2.398
REMARK INTER + INTRA:          -3.592
REMARK INTER:                  -3.545
REMARK INTRA:                  -0.047
REMARK UNBOUND:                -0.046
REMARK SMILES O=C([O-])c1cc(O)c(O)c(O)c1
REMARK SMILES IDX 4 1 5 2 12 3 6 4 10 5 8 6 2 7 1 8 3 9 7 10 11 12 9 14
REMARK H PARENT 7 11 11 13 9 15
REMARK Flexibility Score: inf
ROOT
ATOM      1  C   UNL     1     -19.887  -8.130  11.323  1.00  0.00     0.005 A 
ATOM      2  C   UNL     1     -18.833  -9.038  11.525  1.00  0.00     0.060 A 
ATOM      3  C   UNL     1     -20.606  -8.176  10.116  1.00  0.00     0.060 A 
ATOM      4  C   UNL     1     -18.501  -9.974  10.537  1.00  0.00     0.162 A 
ATOM      5  C   UNL     1     -20.277  -9.113   9.125  1.00  0.00     0.162 A 
ATOM      6  C   UNL     1     -19.221 -10.015   9.336  1.00  0.00     0.200 A 
ENDROOT
BRANCH   1   7
ATOM      7  C   UNL     1     -20.240  -7.139  12.364  1.00  0.00     0.072 C 
ATOM      8  O   UNL     1     -20.479  -7.509  13.545  1.00  0.00    -0.545 OA
ATOM      9  O   UNL     1     -20.314  -5.787  12.054  1.00  0.00    -0.545 OA
ENDBRANCH   1   7
BRANCH   4  10
ATOM     10  O   UNL     1     -17.454 -10.872  10.742  1.00  0.00    -0.504 OA
ATOM     11  H   UNL     1     -17.158 -11.139  11.674  1.00  0.00     0.293 HD
ENDBRANCH   4  10
BRANCH   5  12
ATOM     12  O   UNL     1     -20.996  -9.149   7.931  1.00  0.00    -0.504 OA
ATOM     13  H   UNL     1     -21.624  -8.399   7.667  1.00  0.00     0.293 HD
ENDBRANCH   5  12
BRANCH   6  14
ATOM     14  O   UNL     1     -18.876 -10.955   8.365  1.00  0.00    -0.502 OA
ATOM     15  H   UNL     1     -18.355 -10.704   7.533  1.00  0.00     0.293 HD
ENDBRANCH   6  14
TORSDOF 4
ENDMDL
MODEL 8
REMARK VINA RESULT:    -3.077      1.859      2.198
REMARK INTER + INTRA:          -3.572
REMARK INTER:                  -3.526
REMARK INTRA:                  -0.046
REMARK UNBOUND:                -0.046
REMARK SMILES O=C([O-])c1cc(O)c(O)c(O)c1
REMARK SMILES IDX 4 1 5 2 12 3 6 4 10 5 8 6 2 7 1 8 3 9 7 10 11 12 9 14
REMARK H PARENT 7 11 11 13 9 15
REMARK Flexibility Score: inf
ROOT
ATOM      1  C   UNL     1     -19.836  -8.057  11.332  1.00  0.00     0.005 A 
ATOM      2  C   UNL     1     -20.590  -8.219  10.157  1.00  0.00     0.060 A 
ATOM      3  C   UNL     1     -18.685  -8.842  11.519  1.00  0.00     0.060 A 
ATOM      4  C   UNL     1     -20.202  -9.151   9.185  1.00  0.00     0.162 A 
ATOM      5  C   UNL     1     -18.294  -9.777  10.549  1.00  0.00     0.162 A 
ATOM      6  C   UNL     1     -19.055  -9.932   9.378  1.00  0.00     0.200 A 
ENDROOT
BRANCH   1   7
ATOM      7  C   UNL     1     -20.242  -7.073  12.361  1.00  0.00     0.072 C 
ATOM      8  O   UNL     1     -20.564  -7.453  13.518  1.00  0.00    -0.545 OA
ATOM      9  O   UNL     1     -20.276  -5.716  12.063  1.00  0.00    -0.545 OA
ENDBRANCH   1   7
BRANCH   4  10
ATOM     10  O   UNL     1     -20.954  -9.309   8.022  1.00  0.00    -0.504 OA
ATOM     11  H   UNL     1     -21.002 -10.197   7.536  1.00  0.00     0.293 HD
ENDBRANCH   4  10
BRANCH   5  12
ATOM     12  O   UNL     1     -17.152 -10.551  10.745  1.00  0.00    -0.504 OA
ATOM     13  H   UNL     1     -16.452 -10.659  10.020  1.00  0.00     0.293 HD
ENDBRANCH   5  12
BRANCH   6  14
ATOM     14  O   UNL     1     -18.685 -10.854   8.399  1.00  0.00    -0.502 OA
ATOM     15  H   UNL     1     -17.817 -10.773   7.884  1.00  0.00     0.293 HD
ENDBRANCH   6  14
TORSDOF 4
ENDMDL
MODEL 9
REMARK VINA RESULT:    -2.115      1.213      4.397
REMARK INTER + INTRA:          -2.470
REMARK INTER:                  -2.423
REMARK INTRA:                  -0.047
REMARK UNBOUND:                -0.046
REMARK SMILES O=C([O-])c1cc(O)c(O)c(O)c1
REMARK SMILES IDX 4 1 5 2 12 3 6 4 10 5 8 6 2 7 1 8 3 9 7 10 11 12 9 14
REMARK H PARENT 7 11 11 13 9 15
REMARK Flexibility Score: inf
ROOT
ATOM      1  C   UNL     1     -19.809  -9.998  11.335  1.00  0.00     0.005 A 
ATOM      2  C   UNL     1     -19.501  -8.958  12.229  1.00  0.00     0.060 A 
ATOM      3  C   UNL     1     -19.237  -9.988  10.052  1.00  0.00     0.060 A 
ATOM      4  C   UNL     1     -18.638  -7.922  11.846  1.00  0.00     0.162 A 
ATOM      5  C   UNL     1     -18.372  -8.954   9.664  1.00  0.00     0.162 A 
ATOM      6  C   UNL     1     -18.072  -7.918  10.564  1.00  0.00     0.200 A 
ENDROOT
BRANCH   1   7
ATOM      7  C   UNL     1     -20.721 -11.093  11.737  1.00  0.00     0.072 C 
ATOM      8  O   UNL     1     -20.474 -11.789  12.758  1.00  0.00    -0.545 OA
ATOM      9  O   UNL     1     -21.861 -11.369  10.992  1.00  0.00    -0.545 OA
ENDBRANCH   1   7
BRANCH   4  10
ATOM     10  O   UNL     1     -18.336  -6.892  12.736  1.00  0.00    -0.504 OA
ATOM     11  H   UNL     1     -18.420  -5.918  12.468  1.00  0.00     0.293 HD
ENDBRANCH   4  10
BRANCH   5  12
ATOM     12  O   UNL     1     -17.811  -8.953   8.388  1.00  0.00    -0.504 OA
ATOM     13  H   UNL     1     -17.262  -8.171   8.050  1.00  0.00     0.293 HD
ENDBRANCH   5  12
BRANCH   6  14
ATOM     14  O   UNL     1     -17.214  -6.879  10.202  1.00  0.00    -0.502 OA
ATOM     15  H   UNL     1     -16.992  -6.119  10.834  1.00  0.00     0.293 HD
ENDBRANCH   6  14
TORSDOF 4
ENDMDL
