MODEL 1
REMARK VINA RESULT:    -4.427      0.000      0.000
REMARK INTER + INTRA:          -7.433
REMARK INTER:                  -6.756
REMARK INTRA:                  -0.677
REMARK UNBOUND:                -0.677
REMARK SMILES CCCCCCCCCC=CC(=O)[O-]
REMARK SMILES IDX 7 1 8 2 9 3 10 4 11 5 12 6 13 7 14 8 6 9 5 10 4 11 3 12 2 13
REMARK SMILES IDX 1 14
REMARK H PARENT
REMARK Flexibility Score: inf
ROOT
ATOM      1  C   UNL     1      57.997  32.862  76.668  1.00  0.00     0.000 C 
ENDROOT
BRANCH   1   2
ATOM      2  C   UNL     1      58.384  32.722  78.147  1.00  0.00     0.004 C 
BRANCH   2   3
ATOM      3  C   UNL     1      57.851  33.902  78.969  1.00  0.00     0.027 C 
BRANCH   3   4
ATOM      4  C   UNL     1      58.670  34.113  80.215  1.00  0.00    -0.025 C 
ATOM      5  C   UNL     1      58.925  35.297  80.798  1.00  0.00     0.020 C 
BRANCH   5   6
ATOM      6  C   UNL     1      58.425  36.619  80.367  1.00  0.00     0.064 C 
ATOM      7  O   UNL     1      57.383  37.132  80.851  1.00  0.00    -0.545 OA
ATOM      8  O   UNL     1      59.144  37.329  79.414  1.00  0.00    -0.545 OA
ENDBRANCH   5   6
ENDBRANCH   3   4
ENDBRANCH   2   3
ENDBRANCH   1   2
BRANCH   1   9
ATOM      9  C   UNL     1      58.846  31.955  75.753  1.00  0.00     0.000 C 
BRANCH   9  10
ATOM     10  C   UNL     1      58.959  30.505  76.258  1.00  0.00     0.000 C 
BRANCH  10  11
ATOM     11  C   UNL     1      58.214  29.501  75.366  1.00  0.00    -0.000 C 
BRANCH  11  12
ATOM     12  C   UNL     1      56.694  29.506  75.599  1.00  0.00    -0.000 C 
BRANCH  12  13
ATOM     13  C   UNL     1      55.869  29.532  74.294  1.00  0.00    -0.003 C 
ATOM     14  C   UNL     1      55.986  30.864  73.555  1.00  0.00     0.004 C 
ENDBRANCH  12  13
ENDBRANCH  11  12
ENDBRANCH  10  11
ENDBRANCH   9  10
ENDBRANCH   1   9
TORSDOF 9
ENDMDL
MODEL 2
REMARK VINA RESULT:    -4.425      3.604      6.734
REMARK INTER + INTRA:          -7.430
REMARK INTER:                  -6.387
REMARK INTRA:                  -1.043
REMARK UNBOUND:                -0.677
REMARK SMILES CCCCCCCCCC=CC(=O)[O-]
REMARK SMILES IDX 7 1 8 2 9 3 10 4 11 5 12 6 13 7 14 8 6 9 5 10 4 11 3 12 2 13
REMARK SMILES IDX 1 14
REMARK H PARENT
REMARK Flexibility Score: inf
ROOT
ATOM      1  C   UNL     1      59.088  33.855  79.460  1.00  0.00     0.000 C 
ENDROOT
BRANCH   1   2
ATOM      2  C   UNL     1      57.885  33.115  78.858  1.00  0.00     0.004 C 
BRANCH   2   3
ATOM      3  C   UNL     1      58.316  32.230  77.681  1.00  0.00     0.027 C 
BRANCH   3   4
ATOM      4  C   UNL     1      57.948  32.858  76.363  1.00  0.00    -0.025 C 
ATOM      5  C   UNL     1      57.639  32.197  75.235  1.00  0.00     0.020 C 
BRANCH   5   6
ATOM      6  C   UNL     1      57.559  30.731  75.065  1.00  0.00     0.064 C 
ATOM      7  O   UNL     1      56.460  30.130  74.939  1.00  0.00    -0.545 OA
ATOM      8  O   UNL     1      58.737  29.996  75.017  1.00  0.00    -0.545 OA
ENDBRANCH   5   6
ENDBRANCH   3   4
ENDBRANCH   2   3
ENDBRANCH   1   2
BRANCH   1   9
ATOM      9  C   UNL     1      58.739  34.550  80.793  1.00  0.00     0.000 C 
BRANCH   9  10
ATOM     10  C   UNL     1      58.671  36.084  80.687  1.00  0.00     0.000 C 
BRANCH  10  11
ATOM     11  C   UNL     1      59.210  36.615  79.351  1.00  0.00    -0.000 C 
BRANCH  11  12
ATOM     12  C   UNL     1      58.180  37.462  78.584  1.00  0.00    -0.000 C 
BRANCH  12  13
ATOM     13  C   UNL     1      56.781  36.814  78.509  1.00  0.00    -0.003 C 
ATOM     14  C   UNL     1      56.469  36.256  77.121  1.00  0.00     0.004 C 
ENDBRANCH  12  13
ENDBRANCH  11  12
ENDBRANCH  10  11
ENDBRANCH   9  10
ENDBRANCH   1   9
TORSDOF 9
ENDMDL
MODEL 3
REMARK VINA RESULT:    -4.366      3.496      6.749
REMARK INTER + INTRA:          -7.340
REMARK INTER:                  -6.004
REMARK INTRA:                  -1.336
REMARK UNBOUND:                -0.677
REMARK SMILES CCCCCCCCCC=CC(=O)[O-]
REMARK SMILES IDX 7 1 8 2 9 3 10 4 11 5 12 6 13 7 14 8 6 9 5 10 4 11 3 12 2 13
REMARK SMILES IDX 1 14
REMARK H PARENT
REMARK Flexibility Score: inf
ROOT
ATOM      1  C   UNL     1      58.077  34.678  80.399  1.00  0.00     0.000 C 
ENDROOT
BRANCH   1   2
ATOM      2  C   UNL     1      59.058  33.808  79.601  1.00  0.00     0.004 C 
BRANCH   2   3
ATOM      3  C   UNL     1      58.359  33.141  78.410  1.00  0.00     0.027 C 
BRANCH   3   4
ATOM      4  C   UNL     1      57.631  34.155  77.567  1.00  0.00    -0.025 C 
ATOM      5  C   UNL     1      57.499  34.118  76.230  1.00  0.00     0.020 C 
BRANCH   5   6
ATOM      6  C   UNL     1      58.000  33.065  75.322  1.00  0.00     0.064 C 
ATOM      7  O   UNL     1      58.930  33.274  74.501  1.00  0.00    -0.545 OA
ATOM      8  O   UNL     1      57.442  31.794  75.397  1.00  0.00    -0.545 OA
ENDBRANCH   5   6
ENDBRANCH   3   4
ENDBRANCH   2   3
ENDBRANCH   1   2
BRANCH   1   9
ATOM      9  C   UNL     1      58.772  35.884  81.065  1.00  0.00     0.000 C 
BRANCH   9  10
ATOM     10  C   UNL     1      58.025  37.215  80.862  1.00  0.00     0.000 C 
BRANCH  10  11
ATOM     11  C   UNL     1      56.923  37.124  79.797  1.00  0.00    -0.000 C 
BRANCH  11  12
ATOM     12  C   UNL     1      57.334  37.752  78.455  1.00  0.00    -0.000 C 
BRANCH  12  13
ATOM     13  C   UNL     1      58.814  38.187  78.404  1.00  0.00    -0.003 C 
ATOM     14  C   UNL     1      59.680  37.220  77.599  1.00  0.00     0.004 C 
ENDBRANCH  12  13
ENDBRANCH  11  12
ENDBRANCH  10  11
ENDBRANCH   9  10
ENDBRANCH   1   9
TORSDOF 9
ENDMDL
MODEL 4
REMARK VINA RESULT:    -4.307      2.768      4.981
REMARK INTER + INTRA:          -7.249
REMARK INTER:                  -6.110
REMARK INTRA:                  -1.139
REMARK UNBOUND:                -0.677
REMARK SMILES CCCCCCCCCC=CC(=O)[O-]
REMARK SMILES IDX 7 1 8 2 9 3 10 4 11 5 12 6 13 7 14 8 6 9 5 10 4 11 3 12 2 13
REMARK SMILES IDX 1 14
REMARK H PARENT
REMARK Flexibility Score: inf
ROOT
ATOM      1  C   UNL     1      58.328  36.712  80.456  1.00  0.00     0.000 C 
ENDROOT
BRANCH   1   2
ATOM      2  C   UNL     1      59.133  37.258  79.268  1.00  0.00     0.004 C 
BRANCH   2   3
ATOM      3  C   UNL     1      58.306  37.211  77.976  1.00  0.00     0.027 C 
BRANCH   3   4
ATOM      4  C   UNL     1      56.873  36.846  78.259  1.00  0.00    -0.025 C 
ATOM      5  C   UNL     1      55.950  36.514  77.340  1.00  0.00     0.020 C 
BRANCH   5   6
ATOM      6  C   UNL     1      56.157  36.400  75.882  1.00  0.00     0.064 C 
ATOM      7  O   UNL     1      55.997  37.376  75.103  1.00  0.00    -0.545 OA
ATOM      8  O   UNL     1      56.567  35.181  75.356  1.00  0.00    -0.545 OA
ENDBRANCH   5   6
ENDBRANCH   3   4
ENDBRANCH   2   3
ENDBRANCH   1   2
BRANCH   1   9
ATOM      9  C   UNL     1      58.960  35.437  81.054  1.00  0.00     0.000 C 
BRANCH   9  10
ATOM     10  C   UNL     1      58.303  34.135  80.561  1.00  0.00     0.000 C 
BRANCH  10  11
ATOM     11  C   UNL     1      58.947  33.591  79.277  1.00  0.00    -0.000 C 
BRANCH  11  12
ATOM     12  C   UNL     1      57.912  33.178  78.217  1.00  0.00    -0.000 C 
BRANCH  12  13
ATOM     13  C   UNL     1      58.311  31.915  77.424  1.00  0.00    -0.003 C 
ATOM     14  C   UNL     1      57.840  31.964  75.971  1.00  0.00     0.004 C 
ENDBRANCH  12  13
ENDBRANCH  11  12
ENDBRANCH  10  11
ENDBRANCH   9  10
ENDBRANCH   1   9
TORSDOF 9
ENDMDL
MODEL 5
REMARK VINA RESULT:    -4.215      3.095      5.629
REMARK INTER + INTRA:          -7.110
REMARK INTER:                  -5.829
REMARK INTRA:                  -1.281
REMARK UNBOUND:                -0.677
REMARK SMILES CCCCCCCCCC=CC(=O)[O-]
REMARK SMILES IDX 7 1 8 2 9 3 10 4 11 5 12 6 13 7 14 8 6 9 5 10 4 11 3 12 2 13
REMARK SMILES IDX 1 14
REMARK H PARENT
REMARK Flexibility Score: inf
ROOT
ATOM      1  C   UNL     1      58.176  37.427  79.634  1.00  0.00     0.000 C 
ENDROOT
BRANCH   1   2
ATOM      2  C   UNL     1      56.781  37.553  79.005  1.00  0.00     0.004 C 
BRANCH   2   3
ATOM      3  C   UNL     1      56.609  36.564  77.844  1.00  0.00     0.027 C 
BRANCH   3   4
ATOM      4  C   UNL     1      57.844  36.514  76.983  1.00  0.00    -0.025 C 
ATOM      5  C   UNL     1      58.145  37.367  75.989  1.00  0.00     0.020 C 
BRANCH   5   6
ATOM      6  C   UNL     1      57.356  38.543  75.565  1.00  0.00     0.064 C 
ATOM      7  O   UNL     1      57.588  39.699  76.004  1.00  0.00    -0.545 OA
ATOM      8  O   UNL     1      56.341  38.368  74.633  1.00  0.00    -0.545 OA
ENDBRANCH   5   6
ENDBRANCH   3   4
ENDBRANCH   2   3
ENDBRANCH   1   2
BRANCH   1   9
ATOM      9  C   UNL     1      58.133  36.752  81.021  1.00  0.00     0.000 C 
BRANCH   9  10
ATOM     10  C   UNL     1      59.076  35.542  81.146  1.00  0.00     0.000 C 
BRANCH  10  11
ATOM     11  C   UNL     1      58.423  34.227  80.697  1.00  0.00    -0.000 C 
BRANCH  11  12
ATOM     12  C   UNL     1      58.891  33.771  79.304  1.00  0.00    -0.000 C 
BRANCH  12  13
ATOM     13  C   UNL     1      57.800  33.038  78.495  1.00  0.00    -0.003 C 
ATOM     14  C   UNL     1      58.239  32.734  77.064  1.00  0.00     0.004 C 
ENDBRANCH  12  13
ENDBRANCH  11  12
ENDBRANCH  10  11
ENDBRANCH   9  10
ENDBRANCH   1   9
TORSDOF 9
ENDMDL
MODEL 6
REMARK VINA RESULT:    -4.197      1.735      3.723
REMARK INTER + INTRA:          -7.082
REMARK INTER:                  -6.167
REMARK INTRA:                  -0.915
REMARK UNBOUND:                -0.677
REMARK SMILES CCCCCCCCCC=CC(=O)[O-]
REMARK SMILES IDX 7 1 8 2 9 3 10 4 11 5 12 6 13 7 14 8 6 9 5 10 4 11 3 12 2 13
REMARK SMILES IDX 1 14
REMARK H PARENT
REMARK Flexibility Score: inf
ROOT
ATOM      1  C   UNL     1      58.138  34.643  80.464  1.00  0.00     0.000 C 
ENDROOT
BRANCH   1   2
ATOM      2  C   UNL     1      58.915  35.876  80.947  1.00  0.00     0.004 C 
BRANCH   2   3
ATOM      3  C   UNL     1      58.094  37.156  80.746  1.00  0.00     0.027 C 
BRANCH   3   4
ATOM      4  C   UNL     1      56.901  36.906  79.861  1.00  0.00    -0.025 C 
ATOM      5  C   UNL     1      56.721  37.398  78.624  1.00  0.00     0.020 C 
BRANCH   5   6
ATOM      6  C   UNL     1      57.665  38.245  77.865  1.00  0.00     0.064 C 
ATOM      7  O   UNL     1      57.498  39.485  77.735  1.00  0.00    -0.545 OA
ATOM      8  O   UNL     1      58.789  37.655  77.299  1.00  0.00    -0.545 OA
ENDBRANCH   5   6
ENDBRANCH   3   4
ENDBRANCH   2   3
ENDBRANCH   1   2
BRANCH   1   9
ATOM      9  C   UNL     1      58.972  33.763  79.509  1.00  0.00     0.000 C 
BRANCH   9  10
ATOM     10  C   UNL     1      58.128  33.044  78.441  1.00  0.00     0.000 C 
BRANCH  10  11
ATOM     11  C   UNL     1      57.668  33.979  77.314  1.00  0.00    -0.000 C 
BRANCH  11  12
ATOM     12  C   UNL     1      57.764  33.333  75.922  1.00  0.00    -0.000 C 
BRANCH  12  13
ATOM     13  C   UNL     1      58.413  31.932  75.934  1.00  0.00    -0.003 C 
ATOM     14  C   UNL     1      57.450  30.839  75.475  1.00  0.00     0.004 C 
ENDBRANCH  12  13
ENDBRANCH  11  12
ENDBRANCH  10  11
ENDBRANCH   9  10
ENDBRANCH   1   9
TORSDOF 9
ENDMDL
MODEL 7
REMARK VINA RESULT:    -4.141      1.562      2.258
REMARK INTER + INTRA:          -6.996
REMARK INTER:                  -6.276
REMARK INTRA:                  -0.720
REMARK UNBOUND:                -0.677
REMARK SMILES CCCCCCCCCC=CC(=O)[O-]
REMARK SMILES IDX 7 1 8 2 9 3 10 4 11 5 12 6 13 7 14 8 6 9 5 10 4 11 3 12 2 13
REMARK SMILES IDX 1 14
REMARK H PARENT
REMARK Flexibility Score: inf
ROOT
ATOM      1  C   UNL     1      57.966  32.979  78.359  1.00  0.00     0.000 C 
ENDROOT
BRANCH   1   2
ATOM      2  C   UNL     1      57.895  33.498  79.802  1.00  0.00     0.004 C 
BRANCH   2   3
ATOM      3  C   UNL     1      59.164  34.280  80.168  1.00  0.00     0.027 C 
BRANCH   3   4
ATOM      4  C   UNL     1      58.869  35.352  81.184  1.00  0.00    -0.025 C 
ATOM      5  C   UNL     1      58.431  36.594  80.913  1.00  0.00     0.020 C 
BRANCH   5   6
ATOM      6  C   UNL     1      58.112  37.146  79.580  1.00  0.00     0.064 C 
ATOM      7  O   UNL     1      56.937  37.170  79.128  1.00  0.00    -0.545 OA
ATOM      8  O   UNL     1      59.139  37.679  78.812  1.00  0.00    -0.545 OA
ENDBRANCH   5   6
ENDBRANCH   3   4
ENDBRANCH   2   3
ENDBRANCH   1   2
BRANCH   1   9
ATOM      9  C   UNL     1      57.682  34.087  77.324  1.00  0.00     0.000 C 
BRANCH   9  10
ATOM     10  C   UNL     1      57.772  33.604  75.865  1.00  0.00     0.000 C 
BRANCH  10  11
ATOM     11  C   UNL     1      57.738  32.074  75.740  1.00  0.00    -0.000 C 
BRANCH  11  12
ATOM     12  C   UNL     1      57.325  31.596  74.337  1.00  0.00    -0.000 C 
BRANCH  12  13
ATOM     13  C   UNL     1      56.705  32.708  73.464  1.00  0.00    -0.003 C 
ATOM     14  C   UNL     1      57.434  32.879  72.131  1.00  0.00     0.004 C 
ENDBRANCH  12  13
ENDBRANCH  11  12
ENDBRANCH  10  11
ENDBRANCH   9  10
ENDBRANCH   1   9
TORSDOF 9
ENDMDL
MODEL 8
REMARK VINA RESULT:    -4.125      1.642      2.862
REMARK INTER + INTRA:          -6.971
REMARK INTER:                  -6.055
REMARK INTRA:                  -0.917
REMARK UNBOUND:                -0.677
REMARK SMILES CCCCCCCCCC=CC(=O)[O-]
REMARK SMILES IDX 7 1 8 2 9 3 10 4 11 5 12 6 13 7 14 8 6 9 5 10 4 11 3 12 2 13
REMARK SMILES IDX 1 14
REMARK H PARENT
REMARK Flexibility Score: inf
ROOT
ATOM      1  C   UNL     1      57.775  33.560  79.570  1.00  0.00     0.000 C 
ENDROOT
BRANCH   1   2
ATOM      2  C   UNL     1      58.952  34.205  80.315  1.00  0.00     0.004 C 
BRANCH   2   3
ATOM      3  C   UNL     1      58.748  35.719  80.461  1.00  0.00     0.027 C 
BRANCH   3   4
ATOM      4  C   UNL     1      59.133  36.445  79.199  1.00  0.00    -0.025 C 
ATOM      5  C   UNL     1      58.283  37.000  78.319  1.00  0.00     0.020 C 
BRANCH   5   6
ATOM      6  C   UNL     1      56.810  37.049  78.426  1.00  0.00     0.064 C 
ATOM      7  O   UNL     1      56.225  37.671  79.351  1.00  0.00    -0.545 OA
ATOM      8  O   UNL     1      56.046  36.409  77.458  1.00  0.00    -0.545 OA
ENDBRANCH   5   6
ENDBRANCH   3   4
ENDBRANCH   2   3
ENDBRANCH   1   2
BRANCH   1   9
ATOM      9  C   UNL     1      58.236  32.746  78.343  1.00  0.00     0.000 C 
BRANCH   9  10
ATOM     10  C   UNL     1      57.903  33.418  76.998  1.00  0.00     0.000 C 
BRANCH  10  11
ATOM     11  C   UNL     1      58.550  32.709  75.800  1.00  0.00    -0.000 C 
BRANCH  11  12
ATOM     12  C   UNL     1      57.519  32.187  74.784  1.00  0.00    -0.000 C 
BRANCH  12  13
ATOM     13  C   UNL     1      57.189  30.689  74.953  1.00  0.00    -0.003 C 
ATOM     14  C   UNL     1      58.260  29.940  75.744  1.00  0.00     0.004 C 
ENDBRANCH  12  13
ENDBRANCH  11  12
ENDBRANCH  10  11
ENDBRANCH   9  10
ENDBRANCH   1   9
TORSDOF 9
ENDMDL
MODEL 9
REMARK VINA RESULT:    -4.118      2.456      4.496
REMARK INTER + INTRA:          -6.962
REMARK INTER:                  -6.142
REMARK INTRA:                  -0.820
REMARK UNBOUND:                -0.677
REMARK SMILES CCCCCCCCCC=CC(=O)[O-]
REMARK SMILES IDX 7 1 8 2 9 3 10 4 11 5 12 6 13 7 14 8 6 9 5 10 4 11 3 12 2 13
REMARK SMILES IDX 1 14
REMARK H PARENT
REMARK Flexibility Score: inf
ROOT
ATOM      1  C   UNL     1      58.703  36.324  80.113  1.00  0.00     0.000 C 
ENDROOT
BRANCH   1   2
ATOM      2  C   UNL     1      57.573  37.163  80.728  1.00  0.00     0.004 C 
BRANCH   2   3
ATOM      3  C   UNL     1      56.500  37.492  79.681  1.00  0.00     0.027 C 
BRANCH   3   4
ATOM      4  C   UNL     1      56.904  37.005  78.315  1.00  0.00    -0.025 C 
ATOM      5  C   UNL     1      57.560  37.721  77.386  1.00  0.00     0.020 C 
BRANCH   5   6
ATOM      6  C   UNL     1      58.052  39.107  77.525  1.00  0.00     0.064 C 
ATOM      7  O   UNL     1      58.982  39.413  78.317  1.00  0.00    -0.545 OA
ATOM      8  O   UNL     1      57.486  40.102  76.737  1.00  0.00    -0.545 OA
ENDBRANCH   5   6
ENDBRANCH   3   4
ENDBRANCH   2   3
ENDBRANCH   1   2
BRANCH   1   9
ATOM      9  C   UNL     1      58.764  34.901  80.707  1.00  0.00     0.000 C 
BRANCH   9  10
ATOM     10  C   UNL     1      59.116  33.818  79.672  1.00  0.00     0.000 C 
BRANCH  10  11
ATOM     11  C   UNL     1      57.933  33.451  78.765  1.00  0.00    -0.000 C 
BRANCH  11  12
ATOM     12  C   UNL     1      58.263  32.317  77.780  1.00  0.00    -0.000 C 
BRANCH  12  13
ATOM     13  C   UNL     1      57.929  32.658  76.311  1.00  0.00    -0.003 C 
ATOM     14  C   UNL     1      57.473  34.106  76.137  1.00  0.00     0.004 C 
ENDBRANCH  12  13
ENDBRANCH  11  12
ENDBRANCH  10  11
ENDBRANCH   9  10
ENDBRANCH   1   9
TORSDOF 9
ENDMDL
