MODEL 1
REMARK VINA RESULT:    -4.189      0.000      0.000
REMARK INTER + INTRA:         -10.090
REMARK INTER:                  -7.617
REMARK INTRA:                  -2.473
REMARK UNBOUND:                -2.473
REMARK SMILES CCCCCCCCCCCCCC[C@@H](C)C(=O)[O-]
REMARK SMILES IDX 9 1 10 2 11 3 12 4 13 5 14 6 15 7 16 8 17 9 18 10 19 11 8 12
REMARK SMILES IDX 7 13 6 14 5 15 4 16 3 17 2 18 1 19
REMARK H PARENT
REMARK Flexibility Score: inf
ROOT
ATOM      1  C   UNL     1     175.300 174.167 182.444  1.00  0.00     0.000 C 
ENDROOT
BRANCH   1   2
ATOM      2  C   UNL     1     176.623 174.948 182.585  1.00  0.00     0.000 C 
BRANCH   2   3
ATOM      3  C   UNL     1     176.487 176.359 183.187  1.00  0.00     0.000 C 
BRANCH   3   4
ATOM      4  C   UNL     1     176.967 177.463 182.230  1.00  0.00     0.000 C 
BRANCH   4   5
ATOM      5  C   UNL     1     177.022 176.993 180.767  1.00  0.00     0.001 C 
BRANCH   5   6
ATOM      6  C   UNL     1     175.902 177.607 179.908  1.00  0.00     0.009 C 
BRANCH   6   7
ATOM      7  C   UNL     1     175.584 176.766 178.653  1.00  0.00     0.032 C 
ATOM      8  C   UNL     1     175.692 175.258 178.920  1.00  0.00     0.014 C 
BRANCH   7   9
ATOM      9  C   UNL     1     174.201 177.090 178.161  1.00  0.00     0.044 C 
ATOM     10  O   UNL     1     173.438 177.818 178.850  1.00  0.00    -0.550 OA
ATOM     11  O   UNL     1     173.753 176.589 176.944  1.00  0.00    -0.550 OA
ENDBRANCH   7   9
ENDBRANCH   6   7
ENDBRANCH   5   6
ENDBRANCH   4   5
ENDBRANCH   3   4
ENDBRANCH   2   3
ENDBRANCH   1   2
BRANCH   1  12
ATOM     12  C   UNL     1     174.038 174.928 182.900  1.00  0.00     0.000 C 
BRANCH  12  13
ATOM     13  C   UNL     1     173.351 175.760 181.802  1.00  0.00    -0.000 C 
BRANCH  13  14
ATOM     14  C   UNL     1     172.970 177.171 182.273  1.00  0.00    -0.000 C 
BRANCH  14  15
ATOM     15  C   UNL     1     171.512 177.492 181.923  1.00  0.00    -0.000 C 
BRANCH  15  16
ATOM     16  C   UNL     1     170.585 177.204 183.114  1.00  0.00    -0.000 C 
BRANCH  16  17
ATOM     17  C   UNL     1     169.844 175.861 182.985  1.00  0.00    -0.000 C 
BRANCH  17  18
ATOM     18  C   UNL     1     170.292 174.777 183.981  1.00  0.00    -0.003 C 
ATOM     19  C   UNL     1     170.606 173.441 183.308  1.00  0.00     0.004 C 
ENDBRANCH  17  18
ENDBRANCH  16  17
ENDBRANCH  15  16
ENDBRANCH  14  15
ENDBRANCH  13  14
ENDBRANCH  12  13
ENDBRANCH   1  12
TORSDOF 14
ENDMDL
MODEL 2
REMARK VINA RESULT:    -4.180      1.670      5.262
REMARK INTER + INTRA:         -10.074
REMARK INTER:                  -7.955
REMARK INTRA:                  -2.119
REMARK UNBOUND:                -2.473
REMARK SMILES CCCCCCCCCCCCCC[C@@H](C)C(=O)[O-]
REMARK SMILES IDX 9 1 10 2 11 3 12 4 13 5 14 6 15 7 16 8 17 9 18 10 19 11 8 12
REMARK SMILES IDX 7 13 6 14 5 15 4 16 3 17 2 18 1 19
REMARK H PARENT
REMARK Flexibility Score: inf
ROOT
ATOM      1  C   UNL     1     176.894 175.337 182.504  1.00  0.00     0.000 C 
ENDROOT
BRANCH   1   2
ATOM      2  C   UNL     1     175.584 175.148 183.297  1.00  0.00     0.000 C 
BRANCH   2   3
ATOM      3  C   UNL     1     174.434 174.493 182.511  1.00  0.00     0.000 C 
BRANCH   3   4
ATOM      4  C   UNL     1     173.203 175.406 182.385  1.00  0.00     0.000 C 
BRANCH   4   5
ATOM      5  C   UNL     1     173.545 176.890 182.606  1.00  0.00     0.001 C 
BRANCH   5   6
ATOM      6  C   UNL     1     172.298 177.793 182.572  1.00  0.00     0.009 C 
BRANCH   6   7
ATOM      7  C   UNL     1     171.020 177.028 182.169  1.00  0.00     0.032 C 
ATOM      8  C   UNL     1     169.934 177.097 183.251  1.00  0.00     0.014 C 
BRANCH   7   9
ATOM      9  C   UNL     1     170.479 177.585 180.882  1.00  0.00     0.044 C 
ATOM     10  O   UNL     1     169.236 177.694 180.710  1.00  0.00    -0.550 OA
ATOM     11  O   UNL     1     171.346 177.984 179.870  1.00  0.00    -0.550 OA
ENDBRANCH   7   9
ENDBRANCH   6   7
ENDBRANCH   5   6
ENDBRANCH   4   5
ENDBRANCH   3   4
ENDBRANCH   2   3
ENDBRANCH   1   2
BRANCH   1  12
ATOM     12  C   UNL     1     177.022 176.683 181.761  1.00  0.00     0.000 C 
BRANCH  12  13
ATOM     13  C   UNL     1     176.914 176.591 180.228  1.00  0.00    -0.000 C 
BRANCH  13  14
ATOM     14  C   UNL     1     176.057 177.710 179.622  1.00  0.00    -0.000 C 
BRANCH  14  15
ATOM     15  C   UNL     1     174.706 177.168 179.139  1.00  0.00    -0.000 C 
BRANCH  15  16
ATOM     16  C   UNL     1     174.750 175.640 178.984  1.00  0.00    -0.000 C 
BRANCH  16  17
ATOM     17  C   UNL     1     174.406 175.172 177.558  1.00  0.00    -0.000 C 
BRANCH  17  18
ATOM     18  C   UNL     1     174.840 176.136 176.439  1.00  0.00    -0.003 C 
ATOM     19  C   UNL     1     173.691 176.533 175.514  1.00  0.00     0.004 C 
ENDBRANCH  17  18
ENDBRANCH  16  17
ENDBRANCH  15  16
ENDBRANCH  14  15
ENDBRANCH  13  14
ENDBRANCH  12  13
ENDBRANCH   1  12
TORSDOF 14
ENDMDL
MODEL 3
REMARK VINA RESULT:    -4.116      2.232      5.346
REMARK INTER + INTRA:          -9.958
REMARK INTER:                  -7.555
REMARK INTRA:                  -2.403
REMARK UNBOUND:                -2.473
REMARK SMILES CCCCCCCCCCCCCC[C@@H](C)C(=O)[O-]
REMARK SMILES IDX 9 1 10 2 11 3 12 4 13 5 14 6 15 7 16 8 17 9 18 10 19 11 8 12
REMARK SMILES IDX 7 13 6 14 5 15 4 16 3 17 2 18 1 19
REMARK H PARENT
REMARK Flexibility Score: inf
ROOT
ATOM      1  C   UNL     1     176.689 177.488 179.686  1.00  0.00     0.000 C 
ENDROOT
BRANCH   1   2
ATOM      2  C   UNL     1     175.170 177.575 179.430  1.00  0.00     0.000 C 
BRANCH   2   3
ATOM      3  C   UNL     1     174.472 176.226 179.179  1.00  0.00     0.000 C 
BRANCH   3   4
ATOM      4  C   UNL     1     173.335 175.950 180.177  1.00  0.00     0.000 C 
BRANCH   4   5
ATOM      5  C   UNL     1     173.015 177.169 181.059  1.00  0.00     0.001 C 
BRANCH   5   6
ATOM      6  C   UNL     1     172.456 176.770 182.437  1.00  0.00     0.009 C 
BRANCH   6   7
ATOM      7  C   UNL     1     171.103 176.034 182.340  1.00  0.00     0.032 C 
ATOM      8  C   UNL     1     171.028 174.827 183.285  1.00  0.00     0.014 C 
BRANCH   7   9
ATOM      9  C   UNL     1     169.983 176.987 182.656  1.00  0.00     0.044 C 
ATOM     10  O   UNL     1     169.819 177.404 183.833  1.00  0.00    -0.550 OA
ATOM     11  O   UNL     1     169.120 177.414 181.653  1.00  0.00    -0.550 OA
ENDBRANCH   7   9
ENDBRANCH   6   7
ENDBRANCH   5   6
ENDBRANCH   4   5
ENDBRANCH   3   4
ENDBRANCH   2   3
ENDBRANCH   1   2
BRANCH   1  12
ATOM     12  C   UNL     1     177.093 176.811 181.012  1.00  0.00     0.000 C 
BRANCH  12  13
ATOM     13  C   UNL     1     176.547 177.493 182.280  1.00  0.00    -0.000 C 
BRANCH  13  14
ATOM     14  C   UNL     1     176.244 176.498 183.408  1.00  0.00    -0.000 C 
BRANCH  14  15
ATOM     15  C   UNL     1     176.435 175.052 182.933  1.00  0.00    -0.000 C 
BRANCH  15  16
ATOM     16  C   UNL     1     175.084 174.331 182.809  1.00  0.00    -0.000 C 
BRANCH  16  17
ATOM     17  C   UNL     1     175.111 173.180 181.787  1.00  0.00    -0.000 C 
BRANCH  17  18
ATOM     18  C   UNL     1     176.516 172.655 181.440  1.00  0.00    -0.003 C 
ATOM     19  C   UNL     1     176.706 171.180 181.791  1.00  0.00     0.004 C 
ENDBRANCH  17  18
ENDBRANCH  16  17
ENDBRANCH  15  16
ENDBRANCH  14  15
ENDBRANCH  13  14
ENDBRANCH  12  13
ENDBRANCH   1  12
TORSDOF 14
ENDMDL
MODEL 4
REMARK VINA RESULT:    -4.060      2.324      5.535
REMARK INTER + INTRA:          -9.855
REMARK INTER:                  -7.407
REMARK INTRA:                  -2.449
REMARK UNBOUND:                -2.473
REMARK SMILES CCCCCCCCCCCCCC[C@@H](C)C(=O)[O-]
REMARK SMILES IDX 9 1 10 2 11 3 12 4 13 5 14 6 15 7 16 8 17 9 18 10 19 11 8 12
REMARK SMILES IDX 7 13 6 14 5 15 4 16 3 17 2 18 1 19
REMARK H PARENT
REMARK Flexibility Score: inf
ROOT
ATOM      1  C   UNL     1     175.197 174.806 183.317  1.00  0.00     0.000 C 
ENDROOT
BRANCH   1   2
ATOM      2  C   UNL     1     174.215 174.307 182.237  1.00  0.00     0.000 C 
BRANCH   2   3
ATOM      3  C   UNL     1     173.248 175.373 181.692  1.00  0.00     0.000 C 
BRANCH   3   4
ATOM      4  C   UNL     1     173.376 176.722 182.420  1.00  0.00     0.000 C 
BRANCH   4   5
ATOM      5  C   UNL     1     172.165 177.639 182.180  1.00  0.00     0.001 C 
BRANCH   5   6
ATOM      6  C   UNL     1     171.040 176.937 181.398  1.00  0.00     0.009 C 
BRANCH   6   7
ATOM      7  C   UNL     1     169.852 176.535 182.298  1.00  0.00     0.032 C 
ATOM      8  C   UNL     1     169.836 177.309 183.623  1.00  0.00     0.014 C 
BRANCH   7   9
ATOM      9  C   UNL     1     168.559 176.767 181.566  1.00  0.00     0.044 C 
ATOM     10  O   UNL     1     168.392 177.820 180.895  1.00  0.00    -0.550 OA
ATOM     11  O   UNL     1     167.539 175.825 181.625  1.00  0.00    -0.550 OA
ENDBRANCH   7   9
ENDBRANCH   6   7
ENDBRANCH   5   6
ENDBRANCH   4   5
ENDBRANCH   3   4
ENDBRANCH   2   3
ENDBRANCH   1   2
BRANCH   1  12
ATOM     12  C   UNL     1     176.602 175.181 182.802  1.00  0.00     0.000 C 
BRANCH  12  13
ATOM     13  C   UNL     1     176.883 176.692 182.726  1.00  0.00    -0.000 C 
BRANCH  13  14
ATOM     14  C   UNL     1     176.949 177.215 181.284  1.00  0.00    -0.000 C 
BRANCH  14  15
ATOM     15  C   UNL     1     177.036 176.057 180.283  1.00  0.00    -0.000 C 
BRANCH  15  16
ATOM     16  C   UNL     1     175.948 176.177 179.205  1.00  0.00    -0.000 C 
BRANCH  16  17
ATOM     17  C   UNL     1     175.182 177.510 179.273  1.00  0.00    -0.000 C 
BRANCH  17  18
ATOM     18  C   UNL     1     173.794 177.493 178.608  1.00  0.00    -0.003 C 
ATOM     19  C   UNL     1     173.406 176.117 178.068  1.00  0.00     0.004 C 
ENDBRANCH  17  18
ENDBRANCH  16  17
ENDBRANCH  15  16
ENDBRANCH  14  15
ENDBRANCH  13  14
ENDBRANCH  12  13
ENDBRANCH   1  12
TORSDOF 14
ENDMDL
MODEL 5
REMARK VINA RESULT:    -4.037      2.362      3.491
REMARK INTER + INTRA:          -9.814
REMARK INTER:                  -7.775
REMARK INTRA:                  -2.039
REMARK UNBOUND:                -2.473
REMARK SMILES CCCCCCCCCCCCCC[C@@H](C)C(=O)[O-]
REMARK SMILES IDX 9 1 10 2 11 3 12 4 13 5 14 6 15 7 16 8 17 9 18 10 19 11 8 12
REMARK SMILES IDX 7 13 6 14 5 15 4 16 3 17 2 18 1 19
REMARK H PARENT
REMARK Flexibility Score: inf
ROOT
ATOM      1  C   UNL     1     174.552 176.440 179.840  1.00  0.00     0.000 C 
ENDROOT
BRANCH   1   2
ATOM      2  C   UNL     1     175.671 177.473 179.595  1.00  0.00     0.000 C 
BRANCH   2   3
ATOM      3  C   UNL     1     177.018 177.147 180.264  1.00  0.00     0.000 C 
BRANCH   3   4
ATOM      4  C   UNL     1     176.977 177.307 181.794  1.00  0.00     0.000 C 
BRANCH   4   5
ATOM      5  C   UNL     1     176.843 175.960 182.524  1.00  0.00     0.001 C 
BRANCH   5   6
ATOM      6  C   UNL     1     177.342 174.776 181.675  1.00  0.00     0.009 C 
BRANCH   6   7
ATOM      7  C   UNL     1     176.560 173.474 181.951  1.00  0.00     0.032 C 
ATOM      8  C   UNL     1     175.083 173.739 182.271  1.00  0.00     0.014 C 
BRANCH   7   9
ATOM      9  C   UNL     1     176.659 172.561 180.761  1.00  0.00     0.044 C 
ATOM     10  O   UNL     1     176.137 172.892 179.663  1.00  0.00    -0.550 OA
ATOM     11  O   UNL     1     177.325 171.345 180.862  1.00  0.00    -0.550 OA
ENDBRANCH   7   9
ENDBRANCH   6   7
ENDBRANCH   5   6
ENDBRANCH   4   5
ENDBRANCH   3   4
ENDBRANCH   2   3
ENDBRANCH   1   2
BRANCH   1  12
ATOM     12  C   UNL     1     173.272 177.003 180.492  1.00  0.00     0.000 C 
BRANCH  12  13
ATOM     13  C   UNL     1     173.291 177.041 182.030  1.00  0.00    -0.000 C 
BRANCH  13  14
ATOM     14  C   UNL     1     172.025 177.671 182.627  1.00  0.00    -0.000 C 
BRANCH  14  15
ATOM     15  C   UNL     1     170.852 177.586 181.642  1.00  0.00    -0.000 C 
BRANCH  15  16
ATOM     16  C   UNL     1     169.656 176.856 182.271  1.00  0.00    -0.000 C 
BRANCH  16  17
ATOM     17  C   UNL     1     170.033 176.071 183.540  1.00  0.00    -0.000 C 
BRANCH  17  18
ATOM     18  C   UNL     1     170.152 174.549 183.348  1.00  0.00    -0.003 C 
ATOM     19  C   UNL     1     171.557 174.019 183.632  1.00  0.00     0.004 C 
ENDBRANCH  17  18
ENDBRANCH  16  17
ENDBRANCH  15  16
ENDBRANCH  14  15
ENDBRANCH  13  14
ENDBRANCH  12  13
ENDBRANCH   1  12
TORSDOF 14
ENDMDL
MODEL 6
REMARK VINA RESULT:    -4.007      1.645      5.271
REMARK INTER + INTRA:          -9.759
REMARK INTER:                  -7.303
REMARK INTRA:                  -2.455
REMARK UNBOUND:                -2.473
REMARK SMILES CCCCCCCCCCCCCC[C@@H](C)C(=O)[O-]
REMARK SMILES IDX 9 1 10 2 11 3 12 4 13 5 14 6 15 7 16 8 17 9 18 10 19 11 8 12
REMARK SMILES IDX 7 13 6 14 5 15 4 16 3 17 2 18 1 19
REMARK H PARENT
REMARK Flexibility Score: inf
ROOT
ATOM      1  C   UNL     1     175.929 173.278 181.701  1.00  0.00     0.000 C 
ENDROOT
BRANCH   1   2
ATOM      2  C   UNL     1     175.082 173.626 180.459  1.00  0.00     0.000 C 
BRANCH   2   3
ATOM      3  C   UNL     1     173.733 174.304 180.758  1.00  0.00     0.000 C 
BRANCH   3   4
ATOM      4  C   UNL     1     172.942 173.593 181.869  1.00  0.00     0.000 C 
BRANCH   4   5
ATOM      5  C   UNL     1     172.484 174.557 182.977  1.00  0.00     0.001 C 
BRANCH   5   6
ATOM      6  C   UNL     1     172.462 176.024 182.509  1.00  0.00     0.009 C 
BRANCH   6   7
ATOM      7  C   UNL     1     171.041 176.514 182.156  1.00  0.00     0.032 C 
ATOM      8  C   UNL     1     170.360 177.225 183.333  1.00  0.00     0.014 C 
BRANCH   7   9
ATOM      9  C   UNL     1     171.105 177.446 180.978  1.00  0.00     0.044 C 
ATOM     10  O   UNL     1     172.218 177.847 180.546  1.00  0.00    -0.550 OA
ATOM     11  O   UNL     1     169.936 177.873 180.356  1.00  0.00    -0.550 OA
ENDBRANCH   7   9
ENDBRANCH   6   7
ENDBRANCH   5   6
ENDBRANCH   4   5
ENDBRANCH   3   4
ENDBRANCH   2   3
ENDBRANCH   1   2
BRANCH   1  12
ATOM     12  C   UNL     1     176.860 174.404 182.196  1.00  0.00     0.000 C 
BRANCH  12  13
ATOM     13  C   UNL     1     176.254 175.318 183.276  1.00  0.00    -0.000 C 
BRANCH  13  14
ATOM     14  C   UNL     1     176.496 176.809 183.000  1.00  0.00    -0.000 C 
BRANCH  14  15
ATOM     15  C   UNL     1     175.868 177.230 181.666  1.00  0.00    -0.000 C 
BRANCH  15  16
ATOM     16  C   UNL     1     176.946 177.684 180.670  1.00  0.00    -0.000 C 
BRANCH  16  17
ATOM     17  C   UNL     1     176.794 177.031 179.284  1.00  0.00    -0.000 C 
BRANCH  17  18
ATOM     18  C   UNL     1     175.355 176.993 178.741  1.00  0.00    -0.003 C 
ATOM     19  C   UNL     1     175.202 176.090 177.517  1.00  0.00     0.004 C 
ENDBRANCH  17  18
ENDBRANCH  16  17
ENDBRANCH  15  16
ENDBRANCH  14  15
ENDBRANCH  13  14
ENDBRANCH  12  13
ENDBRANCH   1  12
TORSDOF 14
ENDMDL
MODEL 7
REMARK VINA RESULT:    -3.986      2.393      3.947
REMARK INTER + INTRA:          -9.721
REMARK INTER:                  -7.556
REMARK INTRA:                  -2.165
REMARK UNBOUND:                -2.473
REMARK SMILES CCCCCCCCCCCCCC[C@@H](C)C(=O)[O-]
REMARK SMILES IDX 9 1 10 2 11 3 12 4 13 5 14 6 15 7 16 8 17 9 18 10 19 11 8 12
REMARK SMILES IDX 7 13 6 14 5 15 4 16 3 17 2 18 1 19
REMARK H PARENT
REMARK Flexibility Score: inf
ROOT
ATOM      1  C   UNL     1     176.809 176.718 179.287  1.00  0.00     0.000 C 
ENDROOT
BRANCH   1   2
ATOM      2  C   UNL     1     176.946 177.864 180.311  1.00  0.00     0.000 C 
BRANCH   2   3
ATOM      3  C   UNL     1     177.255 177.419 181.751  1.00  0.00     0.000 C 
BRANCH   3   4
ATOM      4  C   UNL     1     175.986 177.126 182.570  1.00  0.00     0.000 C 
BRANCH   4   5
ATOM      5  C   UNL     1     176.014 175.733 183.223  1.00  0.00     0.001 C 
BRANCH   5   6
ATOM      6  C   UNL     1     176.793 174.704 182.383  1.00  0.00     0.009 C 
BRANCH   6   7
ATOM      7  C   UNL     1     175.976 173.425 182.103  1.00  0.00     0.032 C 
ATOM      8  C   UNL     1     174.519 173.733 181.732  1.00  0.00     0.014 C 
BRANCH   7   9
ATOM      9  C   UNL     1     176.621 172.645 180.991  1.00  0.00     0.044 C 
ATOM     10  O   UNL     1     177.420 171.708 181.255  1.00  0.00    -0.550 OA
ATOM     11  O   UNL     1     176.342 172.952 179.663  1.00  0.00    -0.550 OA
ENDBRANCH   7   9
ENDBRANCH   6   7
ENDBRANCH   5   6
ENDBRANCH   4   5
ENDBRANCH   3   4
ENDBRANCH   2   3
ENDBRANCH   1   2
BRANCH   1  12
ATOM     12  C   UNL     1     175.374 176.191 179.080  1.00  0.00     0.000 C 
BRANCH  12  13
ATOM     13  C   UNL     1     174.282 177.276 179.062  1.00  0.00    -0.000 C 
BRANCH  13  14
ATOM     14  C   UNL     1     172.888 176.714 178.750  1.00  0.00    -0.000 C 
BRANCH  14  15
ATOM     15  C   UNL     1     172.003 176.713 180.002  1.00  0.00    -0.000 C 
BRANCH  15  16
ATOM     16  C   UNL     1     172.759 177.285 181.211  1.00  0.00    -0.000 C 
BRANCH  16  17
ATOM     17  C   UNL     1     172.206 176.782 182.556  1.00  0.00    -0.000 C 
BRANCH  17  18
ATOM     18  C   UNL     1     170.720 176.384 182.537  1.00  0.00    -0.003 C 
ATOM     19  C   UNL     1     169.891 177.117 183.592  1.00  0.00     0.004 C 
ENDBRANCH  17  18
ENDBRANCH  16  17
ENDBRANCH  15  16
ENDBRANCH  14  15
ENDBRANCH  13  14
ENDBRANCH  12  13
ENDBRANCH   1  12
TORSDOF 14
ENDMDL
MODEL 8
REMARK VINA RESULT:    -3.964      2.346      5.501
REMARK INTER + INTRA:          -9.682
REMARK INTER:                  -7.085
REMARK INTRA:                  -2.597
REMARK UNBOUND:                -2.473
REMARK SMILES CCCCCCCCCCCCCC[C@@H](C)C(=O)[O-]
REMARK SMILES IDX 9 1 10 2 11 3 12 4 13 5 14 6 15 7 16 8 17 9 18 10 19 11 8 12
REMARK SMILES IDX 7 13 6 14 5 15 4 16 3 17 2 18 1 19
REMARK H PARENT
REMARK Flexibility Score: inf
ROOT
ATOM      1  C   UNL     1     175.257 176.198 178.675  1.00  0.00     0.000 C 
ENDROOT
BRANCH   1   2
ATOM      2  C   UNL     1     174.146 177.164 179.136  1.00  0.00     0.000 C 
BRANCH   2   3
ATOM      3  C   UNL     1     173.214 176.613 180.230  1.00  0.00     0.000 C 
BRANCH   3   4
ATOM      4  C   UNL     1     173.374 177.345 181.573  1.00  0.00     0.000 C 
BRANCH   4   5
ATOM      5  C   UNL     1     172.118 177.241 182.454  1.00  0.00     0.001 C 
BRANCH   5   6
ATOM      6  C   UNL     1     171.734 175.783 182.765  1.00  0.00     0.009 C 
BRANCH   6   7
ATOM      7  C   UNL     1     170.269 175.639 183.229  1.00  0.00     0.032 C 
ATOM      8  C   UNL     1     169.521 176.979 183.222  1.00  0.00     0.014 C 
BRANCH   7   9
ATOM      9  C   UNL     1     169.550 174.660 182.343  1.00  0.00     0.044 C 
ATOM     10  O   UNL     1     168.330 174.412 182.531  1.00  0.00    -0.550 OA
ATOM     11  O   UNL     1     170.227 174.019 181.310  1.00  0.00    -0.550 OA
ENDBRANCH   7   9
ENDBRANCH   6   7
ENDBRANCH   5   6
ENDBRANCH   4   5
ENDBRANCH   3   4
ENDBRANCH   2   3
ENDBRANCH   1   2
BRANCH   1  12
ATOM     12  C   UNL     1     176.623 176.391 179.365  1.00  0.00     0.000 C 
BRANCH  12  13
ATOM     13  C   UNL     1     176.812 177.754 180.055  1.00  0.00    -0.000 C 
BRANCH  13  14
ATOM     14  C   UNL     1     177.090 177.627 181.560  1.00  0.00    -0.000 C 
BRANCH  14  15
ATOM     15  C   UNL     1     177.043 176.160 182.005  1.00  0.00    -0.000 C 
BRANCH  15  16
ATOM     16  C   UNL     1     176.137 175.986 183.234  1.00  0.00    -0.000 C 
BRANCH  16  17
ATOM     17  C   UNL     1     175.304 174.693 183.186  1.00  0.00    -0.000 C 
BRANCH  17  18
ATOM     18  C   UNL     1     175.388 173.918 181.860  1.00  0.00    -0.003 C 
ATOM     19  C   UNL     1     174.098 173.171 181.521  1.00  0.00     0.004 C 
ENDBRANCH  17  18
ENDBRANCH  16  17
ENDBRANCH  15  16
ENDBRANCH  14  15
ENDBRANCH  13  14
ENDBRANCH  12  13
ENDBRANCH   1  12
TORSDOF 14
ENDMDL
MODEL 9
REMARK VINA RESULT:    -3.961      2.288      5.882
REMARK INTER + INTRA:          -9.675
REMARK INTER:                  -7.536
REMARK INTRA:                  -2.139
REMARK UNBOUND:                -2.473
REMARK SMILES CCCCCCCCCCCCCC[C@@H](C)C(=O)[O-]
REMARK SMILES IDX 9 1 10 2 11 3 12 4 13 5 14 6 15 7 16 8 17 9 18 10 19 11 8 12
REMARK SMILES IDX 7 13 6 14 5 15 4 16 3 17 2 18 1 19
REMARK H PARENT
REMARK Flexibility Score: inf
ROOT
ATOM      1  C   UNL     1     174.399 174.917 182.940  1.00  0.00     0.000 C 
ENDROOT
BRANCH   1   2
ATOM      2  C   UNL     1     173.544 175.577 181.839  1.00  0.00     0.000 C 
BRANCH   2   3
ATOM      3  C   UNL     1     173.291 177.084 182.025  1.00  0.00     0.000 C 
BRANCH   3   4
ATOM      4  C   UNL     1     171.810 177.465 181.858  1.00  0.00     0.000 C 
BRANCH   4   5
ATOM      5  C   UNL     1     171.152 177.872 183.187  1.00  0.00     0.001 C 
BRANCH   5   6
ATOM      6  C   UNL     1     169.950 176.980 183.548  1.00  0.00     0.009 C 
BRANCH   6   7
ATOM      7  C   UNL     1     170.033 175.580 182.904  1.00  0.00     0.032 C 
ATOM      8  C   UNL     1     170.388 174.489 183.924  1.00  0.00     0.014 C 
BRANCH   7   9
ATOM      9  C   UNL     1     168.723 175.244 182.248  1.00  0.00     0.044 C 
ATOM     10  O   UNL     1     168.182 174.124 182.449  1.00  0.00    -0.550 OA
ATOM     11  O   UNL     1     168.098 176.165 181.414  1.00  0.00    -0.550 OA
ENDBRANCH   7   9
ENDBRANCH   6   7
ENDBRANCH   5   6
ENDBRANCH   4   5
ENDBRANCH   3   4
ENDBRANCH   2   3
ENDBRANCH   1   2
BRANCH   1  12
ATOM     12  C   UNL     1     175.920 175.138 182.809  1.00  0.00     0.000 C 
BRANCH  12  13
ATOM     13  C   UNL     1     176.428 176.489 183.344  1.00  0.00    -0.000 C 
BRANCH  13  14
ATOM     14  C   UNL     1     177.021 177.381 182.245  1.00  0.00    -0.000 C 
BRANCH  14  15
ATOM     15  C   UNL     1     177.071 176.640 180.903  1.00  0.00    -0.000 C 
BRANCH  15  16
ATOM     16  C   UNL     1     176.496 177.507 179.773  1.00  0.00    -0.000 C 
BRANCH  16  17
ATOM     17  C   UNL     1     175.496 176.746 178.884  1.00  0.00    -0.000 C 
BRANCH  17  18
ATOM     18  C   UNL     1     174.219 177.528 178.529  1.00  0.00    -0.003 C 
ATOM     19  C   UNL     1     173.039 176.621 178.183  1.00  0.00     0.004 C 
ENDBRANCH  17  18
ENDBRANCH  16  17
ENDBRANCH  15  16
ENDBRANCH  14  15
ENDBRANCH  13  14
ENDBRANCH  12  13
ENDBRANCH   1  12
TORSDOF 14
ENDMDL
