MODEL 1
REMARK VINA RESULT:    -5.409      0.000      0.000
REMARK INTER + INTRA:          -9.715
REMARK INTER:                  -7.938
REMARK INTRA:                  -1.777
REMARK UNBOUND:                -1.777
REMARK SMILES O=c1c(O[C@H]2O[C@H](CO)[C@H](O)[C@@H](O)[C@H]2O)c(-c2ccc(O)c(O)c2)oc2cc(O)cc(O)c12
REMARK SMILES IDX 4 1 3 2 16 3 25 4 2 5 26 6 1 7 33 8 27 9 31 10 28 11 30 12
REMARK SMILES IDX 17 13 18 14 19 15 20 16 24 17 22 18 21 19 23 21 32 23 29 25
REMARK SMILES IDX 5 27 14 28 6 29 12 30 7 31 10 32 15 33 13 35 8 37 9 38 11 40
REMARK H PARENT 21 20 23 22 32 24 29 26 15 34 13 36 9 39 11 41
REMARK Flexibility Score: inf
ROOT
ATOM      1  O   UNL     1       4.210  -4.519  34.248  1.00  0.00    -0.454 OA
ENDROOT
BRANCH   1   2
ATOM      2  C   UNL     1       3.302  -5.300  34.995  1.00  0.00     0.214 A 
ATOM      3  C   UNL     1       3.734  -5.811  36.232  1.00  0.00     0.180 A 
ATOM      4  O   UNL     1       2.942  -6.604  36.943  1.00  0.00    -0.452 OA
ATOM      5  C   UNL     1       1.993  -5.618  34.561  1.00  0.00     0.239 A 
ATOM      6  C   UNL     1       1.725  -6.957  36.556  1.00  0.00     0.146 A 
ATOM      7  O   UNL     1       1.532  -5.079  33.523  1.00  0.00    -0.285 OA
ATOM      8  C   UNL     1       1.194  -6.506  35.322  1.00  0.00     0.111 A 
ATOM      9  C   UNL     1       0.968  -7.774  37.402  1.00  0.00     0.094 A 
ATOM     10  C   UNL     1      -0.110  -6.948  34.942  1.00  0.00     0.134 A 
ATOM     11  C   UNL     1      -0.327  -8.149  37.047  1.00  0.00     0.123 A 
ATOM     12  C   UNL     1      -0.860  -7.731  35.830  1.00  0.00     0.093 A 
BRANCH   3  13
ATOM     13  C   UNL     1       5.070  -5.497  36.781  1.00  0.00     0.025 A 
ATOM     14  C   UNL     1       6.204  -6.221  36.382  1.00  0.00     0.016 A 
ATOM     15  C   UNL     1       7.462  -5.901  36.897  1.00  0.00     0.051 A 
ATOM     16  C   UNL     1       7.609  -4.846  37.802  1.00  0.00     0.157 A 
ATOM     17  C   UNL     1       5.221  -4.422  37.670  1.00  0.00     0.062 A 
ATOM     18  C   UNL     1       6.483  -4.098  38.189  1.00  0.00     0.158 A 
BRANCH  16  19
ATOM     19  O   UNL     1       8.876  -4.553  38.302  1.00  0.00    -0.504 OA
ATOM     20  H   UNL     1       9.640  -5.218  38.258  1.00  0.00     0.293 HD
ENDBRANCH  16  19
BRANCH  18  21
ATOM     21  O   UNL     1       6.622  -3.040  39.086  1.00  0.00    -0.504 OA
ATOM     22  H   UNL     1       6.412  -2.086  38.818  1.00  0.00     0.293 HD
ENDBRANCH  18  21
ENDBRANCH   3  13
BRANCH  10  23
ATOM     23  O   UNL     1      -0.696  -6.675  33.703  1.00  0.00    -0.507 OA
ATOM     24  H   UNL     1      -0.390  -5.950  33.072  1.00  0.00     0.293 HD
ENDBRANCH  10  23
BRANCH  11  25
ATOM     25  O   UNL     1      -1.093  -8.947  37.896  1.00  0.00    -0.508 OA
ATOM     26  H   UNL     1      -2.045  -8.699  38.137  1.00  0.00     0.293 HD
ENDBRANCH  11  25
ENDBRANCH   1   2
BRANCH   1  27
ATOM     27  C   UNL     1       4.541  -3.141  34.455  1.00  0.00     0.339 C 
ATOM     28  C   UNL     1       4.132  -2.288  33.232  1.00  0.00     0.214 C 
ATOM     29  O   UNL     1       5.919  -2.978  34.759  1.00  0.00    -0.332 OA
ATOM     30  C   UNL     1       5.044  -2.562  32.023  1.00  0.00     0.180 C 
ATOM     31  C   UNL     1       6.741  -3.405  33.684  1.00  0.00     0.179 C 
ATOM     32  C   UNL     1       6.524  -2.506  32.448  1.00  0.00     0.177 C 
BRANCH  28  33
ATOM     33  O   UNL     1       2.795  -2.539  32.883  1.00  0.00    -0.384 OA
ATOM     34  H   UNL     1       2.474  -1.741  32.387  1.00  0.00     0.211 HD
ENDBRANCH  28  33
BRANCH  30  35
ATOM     35  O   UNL     1       4.743  -3.821  31.474  1.00  0.00    -0.387 OA
ATOM     36  H   UNL     1       5.463  -4.030  30.823  1.00  0.00     0.211 HD
ENDBRANCH  30  35
BRANCH  31  37
ATOM     37  C   UNL     1       8.208  -3.377  34.135  1.00  0.00     0.191 C 
BRANCH  37  38
ATOM     38  O   UNL     1       8.372  -2.480  35.201  1.00  0.00    -0.394 OA
ATOM     39  H   UNL     1       9.231  -2.713  35.641  1.00  0.00     0.210 HD
ENDBRANCH  37  38
ENDBRANCH  31  37
BRANCH  32  40
ATOM     40  O   UNL     1       6.883  -1.181  32.753  1.00  0.00    -0.387 OA
ATOM     41  H   UNL     1       7.025  -0.716  31.889  1.00  0.00     0.211 HD
ENDBRANCH  32  40
ENDBRANCH   1  27
TORSDOF 12
ENDMDL
MODEL 2
REMARK VINA RESULT:    -5.290      1.001      2.066
REMARK INTER + INTRA:          -9.541
REMARK INTER:                  -8.160
REMARK INTRA:                  -1.380
REMARK UNBOUND:                -1.777
REMARK SMILES O=c1c(O[C@H]2O[C@H](CO)[C@H](O)[C@@H](O)[C@H]2O)c(-c2ccc(O)c(O)c2)oc2cc(O)cc(O)c12
REMARK SMILES IDX 4 1 3 2 16 3 25 4 2 5 26 6 1 7 33 8 27 9 31 10 28 11 30 12
REMARK SMILES IDX 17 13 18 14 19 15 20 16 24 17 22 18 21 19 23 21 32 23 29 25
REMARK SMILES IDX 5 27 14 28 6 29 12 30 7 31 10 32 15 33 13 35 8 37 9 38 11 40
REMARK H PARENT 21 20 23 22 32 24 29 26 15 34 13 36 9 39 11 41
REMARK Flexibility Score: inf
ROOT
ATOM      1  O   UNL     1       4.243  -4.050  34.555  1.00  0.00    -0.454 OA
ENDROOT
BRANCH   1   2
ATOM      2  C   UNL     1       3.337  -4.937  35.176  1.00  0.00     0.214 A 
ATOM      3  C   UNL     1       3.735  -5.552  36.377  1.00  0.00     0.180 A 
ATOM      4  O   UNL     1       2.948  -6.442  36.967  1.00  0.00    -0.452 OA
ATOM      5  C   UNL     1       2.064  -5.262  34.650  1.00  0.00     0.239 A 
ATOM      6  C   UNL     1       1.767  -6.803  36.490  1.00  0.00     0.146 A 
ATOM      7  O   UNL     1       1.627  -4.641  33.649  1.00  0.00    -0.285 OA
ATOM      8  C   UNL     1       1.272  -6.253  35.281  1.00  0.00     0.111 A 
ATOM      9  C   UNL     1       1.010  -7.730  37.213  1.00  0.00     0.094 A 
ATOM     10  C   UNL     1       0.007  -6.706  34.796  1.00  0.00     0.134 A 
ATOM     11  C   UNL     1      -0.250  -8.118  36.761  1.00  0.00     0.123 A 
ATOM     12  C   UNL     1      -0.746  -7.602  35.565  1.00  0.00     0.093 A 
BRANCH   3  13
ATOM     13  C   UNL     1       5.031  -5.241  37.019  1.00  0.00     0.025 A 
ATOM     14  C   UNL     1       6.157  -6.050  36.803  1.00  0.00     0.016 A 
ATOM     15  C   UNL     1       7.378  -5.734  37.402  1.00  0.00     0.051 A 
ATOM     16  C   UNL     1       7.496  -4.600  38.211  1.00  0.00     0.157 A 
ATOM     17  C   UNL     1       5.155  -4.090  37.811  1.00  0.00     0.062 A 
ATOM     18  C   UNL     1       6.380  -3.770  38.415  1.00  0.00     0.158 A 
BRANCH  16  19
ATOM     19  O   UNL     1       8.726  -4.313  38.801  1.00  0.00    -0.504 OA
ATOM     20  H   UNL     1       9.600  -4.408  38.297  1.00  0.00     0.293 HD
ENDBRANCH  16  19
BRANCH  18  21
ATOM     21  O   UNL     1       6.491  -2.633  39.215  1.00  0.00    -0.504 OA
ATOM     22  H   UNL     1       5.697  -2.032  39.397  1.00  0.00     0.293 HD
ENDBRANCH  18  21
ENDBRANCH   3  13
BRANCH  10  23
ATOM     23  O   UNL     1      -0.534  -6.334  33.562  1.00  0.00    -0.507 OA
ATOM     24  H   UNL     1      -0.269  -6.737  32.676  1.00  0.00     0.293 HD
ENDBRANCH  10  23
BRANCH  11  25
ATOM     25  O   UNL     1      -1.018  -9.027  37.488  1.00  0.00    -0.508 OA
ATOM     26  H   UNL     1      -2.022  -9.085  37.369  1.00  0.00     0.293 HD
ENDBRANCH  11  25
ENDBRANCH   1   2
BRANCH   1  27
ATOM     27  C   UNL     1       4.592  -4.002  33.167  1.00  0.00     0.339 C 
ATOM     28  C   UNL     1       6.097  -4.295  32.969  1.00  0.00     0.214 C 
ATOM     29  O   UNL     1       4.228  -2.760  32.582  1.00  0.00    -0.332 OA
ATOM     30  C   UNL     1       6.968  -3.127  33.465  1.00  0.00     0.180 C 
ATOM     31  C   UNL     1       4.925  -1.680  33.184  1.00  0.00     0.179 C 
ATOM     32  C   UNL     1       6.439  -1.792  32.905  1.00  0.00     0.177 C 
BRANCH  28  33
ATOM     33  O   UNL     1       6.461  -5.474  33.640  1.00  0.00    -0.384 OA
ATOM     34  H   UNL     1       7.344  -5.748  33.279  1.00  0.00     0.211 HD
ENDBRANCH  28  33
BRANCH  30  35
ATOM     35  O   UNL     1       6.973  -3.098  34.870  1.00  0.00    -0.387 OA
ATOM     36  H   UNL     1       7.881  -3.377  35.160  1.00  0.00     0.211 HD
ENDBRANCH  30  35
BRANCH  31  37
ATOM     37  C   UNL     1       4.362  -0.359  32.643  1.00  0.00     0.191 C 
BRANCH  37  38
ATOM     38  O   UNL     1       3.970  -0.509  31.304  1.00  0.00    -0.394 OA
ATOM     39  H   UNL     1       4.672  -0.077  30.750  1.00  0.00     0.210 HD
ENDBRANCH  37  38
ENDBRANCH  31  37
BRANCH  32  40
ATOM     40  O   UNL     1       6.675  -1.729  31.520  1.00  0.00    -0.387 OA
ATOM     41  H   UNL     1       7.567  -2.132  31.363  1.00  0.00     0.211 HD
ENDBRANCH  32  40
ENDBRANCH   1  27
TORSDOF 12
ENDMDL
MODEL 3
REMARK VINA RESULT:    -5.280      1.409      4.489
REMARK INTER + INTRA:          -9.526
REMARK INTER:                  -7.482
REMARK INTRA:                  -2.044
REMARK UNBOUND:                -1.777
REMARK SMILES O=c1c(O[C@H]2O[C@H](CO)[C@H](O)[C@@H](O)[C@H]2O)c(-c2ccc(O)c(O)c2)oc2cc(O)cc(O)c12
REMARK SMILES IDX 4 1 3 2 16 3 25 4 2 5 26 6 1 7 33 8 27 9 31 10 28 11 30 12
REMARK SMILES IDX 17 13 18 14 19 15 20 16 24 17 22 18 21 19 23 21 32 23 29 25
REMARK SMILES IDX 5 27 14 28 6 29 12 30 7 31 10 32 15 33 13 35 8 37 9 38 11 40
REMARK H PARENT 21 20 23 22 32 24 29 26 15 34 13 36 9 39 11 41
REMARK Flexibility Score: inf
ROOT
ATOM      1  O   UNL     1       4.717  -4.719  35.938  1.00  0.00    -0.454 OA
ENDROOT
BRANCH   1   2
ATOM      2  C   UNL     1       3.529  -5.198  35.345  1.00  0.00     0.214 A 
ATOM      3  C   UNL     1       3.226  -4.772  34.039  1.00  0.00     0.180 A 
ATOM      4  O   UNL     1       2.091  -5.142  33.460  1.00  0.00    -0.452 OA
ATOM      5  C   UNL     1       2.615  -6.062  35.994  1.00  0.00     0.239 A 
ATOM      6  C   UNL     1       1.191  -5.917  34.046  1.00  0.00     0.146 A 
ATOM      7  O   UNL     1       2.913  -6.558  37.110  1.00  0.00    -0.285 OA
ATOM      8  C   UNL     1       1.391  -6.395  35.365  1.00  0.00     0.111 A 
ATOM      9  C   UNL     1       0.043  -6.267  33.328  1.00  0.00     0.094 A 
ATOM     10  C   UNL     1       0.370  -7.200  35.958  1.00  0.00     0.134 A 
ATOM     11  C   UNL     1      -0.918  -7.102  33.896  1.00  0.00     0.123 A 
ATOM     12  C   UNL     1      -0.748  -7.568  35.198  1.00  0.00     0.093 A 
BRANCH   3  13
ATOM     13  C   UNL     1       4.143  -3.903  33.271  1.00  0.00     0.025 A 
ATOM     14  C   UNL     1       5.032  -4.443  32.330  1.00  0.00     0.016 A 
ATOM     15  C   UNL     1       5.881  -3.608  31.600  1.00  0.00     0.051 A 
ATOM     16  C   UNL     1       5.842  -2.223  31.787  1.00  0.00     0.157 A 
ATOM     17  C   UNL     1       4.087  -2.511  33.441  1.00  0.00     0.062 A 
ATOM     18  C   UNL     1       4.937  -1.669  32.709  1.00  0.00     0.158 A 
BRANCH  16  19
ATOM     19  O   UNL     1       6.704  -1.415  31.048  1.00  0.00    -0.504 OA
ATOM     20  H   UNL     1       6.456  -1.059  30.132  1.00  0.00     0.293 HD
ENDBRANCH  16  19
BRANCH  18  21
ATOM     21  O   UNL     1       4.887  -0.288  32.896  1.00  0.00    -0.504 OA
ATOM     22  H   UNL     1       4.006   0.206  32.971  1.00  0.00     0.293 HD
ENDBRANCH  18  21
ENDBRANCH   3  13
BRANCH  10  23
ATOM     23  O   UNL     1       0.390  -7.631  37.287  1.00  0.00    -0.507 OA
ATOM     24  H   UNL     1      -0.115  -8.431  37.638  1.00  0.00     0.293 HD
ENDBRANCH  10  23
BRANCH  11  25
ATOM     25  O   UNL     1      -2.055  -7.470  33.177  1.00  0.00    -0.508 OA
ATOM     26  H   UNL     1      -2.968  -7.095  33.404  1.00  0.00     0.293 HD
ENDBRANCH  11  25
ENDBRANCH   1   2
BRANCH   1  27
ATOM     27  C   UNL     1       5.969  -5.406  36.047  1.00  0.00     0.339 C 
ATOM     28  C   UNL     1       6.443  -5.453  37.517  1.00  0.00     0.214 C 
ATOM     29  O   UNL     1       6.955  -4.825  35.206  1.00  0.00    -0.332 OA
ATOM     30  C   UNL     1       6.900  -4.067  38.006  1.00  0.00     0.180 C 
ATOM     31  C   UNL     1       7.228  -3.484  35.577  1.00  0.00     0.179 C 
ATOM     32  C   UNL     1       7.862  -3.431  36.983  1.00  0.00     0.177 C 
BRANCH  28  33
ATOM     33  O   UNL     1       5.419  -5.933  38.350  1.00  0.00    -0.384 OA
ATOM     34  H   UNL     1       4.797  -6.446  37.771  1.00  0.00     0.211 HD
ENDBRANCH  28  33
BRANCH  30  35
ATOM     35  O   UNL     1       5.783  -3.237  38.204  1.00  0.00    -0.387 OA
ATOM     36  H   UNL     1       5.554  -3.288  39.169  1.00  0.00     0.211 HD
ENDBRANCH  30  35
BRANCH  31  37
ATOM     37  C   UNL     1       8.158  -2.855  34.530  1.00  0.00     0.191 C 
BRANCH  37  38
ATOM     38  O   UNL     1       9.014  -1.924  35.136  1.00  0.00    -0.394 OA
ATOM     39  H   UNL     1       9.185  -2.251  36.059  1.00  0.00     0.210 HD
ENDBRANCH  37  38
ENDBRANCH  31  37
BRANCH  32  40
ATOM     40  O   UNL     1       9.085  -4.127  36.982  1.00  0.00    -0.387 OA
ATOM     41  H   UNL     1       9.791  -3.464  36.769  1.00  0.00     0.211 HD
ENDBRANCH  32  40
ENDBRANCH   1  27
TORSDOF 12
ENDMDL
MODEL 4
REMARK VINA RESULT:    -5.214      1.883      5.290
REMARK INTER + INTRA:          -9.429
REMARK INTER:                  -7.680
REMARK INTRA:                  -1.749
REMARK UNBOUND:                -1.777
REMARK SMILES O=c1c(O[C@H]2O[C@H](CO)[C@H](O)[C@@H](O)[C@H]2O)c(-c2ccc(O)c(O)c2)oc2cc(O)cc(O)c12
REMARK SMILES IDX 4 1 3 2 16 3 25 4 2 5 26 6 1 7 33 8 27 9 31 10 28 11 30 12
REMARK SMILES IDX 17 13 18 14 19 15 20 16 24 17 22 18 21 19 23 21 32 23 29 25
REMARK SMILES IDX 5 27 14 28 6 29 12 30 7 31 10 32 15 33 13 35 8 37 9 38 11 40
REMARK H PARENT 21 20 23 22 32 24 29 26 15 34 13 36 9 39 11 41
REMARK Flexibility Score: inf
ROOT
ATOM      1  O   UNL     1       6.549  -3.257  35.101  1.00  0.00    -0.454 OA
ENDROOT
BRANCH   1   2
ATOM      2  C   UNL     1       5.272  -3.801  34.844  1.00  0.00     0.214 A 
ATOM      3  C   UNL     1       4.518  -3.247  33.793  1.00  0.00     0.180 A 
ATOM      4  O   UNL     1       3.287  -3.679  33.551  1.00  0.00    -0.452 OA
ATOM      5  C   UNL     1       4.698  -4.855  35.594  1.00  0.00     0.239 A 
ATOM      6  C   UNL     1       2.698  -4.636  34.253  1.00  0.00     0.146 A 
ATOM      7  O   UNL     1       5.389  -5.454  36.456  1.00  0.00    -0.285 OA
ATOM      8  C   UNL     1       3.364  -5.256  35.339  1.00  0.00     0.111 A 
ATOM      9  C   UNL     1       1.407  -5.031  33.889  1.00  0.00     0.094 A 
ATOM     10  C   UNL     1       2.665  -6.258  36.081  1.00  0.00     0.134 A 
ATOM     11  C   UNL     1       0.759  -6.051  34.583  1.00  0.00     0.123 A 
ATOM     12  C   UNL     1       1.390  -6.662  35.665  1.00  0.00     0.093 A 
BRANCH   3  13
ATOM     13  C   UNL     1       5.055  -2.172  32.932  1.00  0.00     0.025 A 
ATOM     14  C   UNL     1       4.844  -0.821  33.247  1.00  0.00     0.016 A 
ATOM     15  C   UNL     1       5.372   0.184  32.434  1.00  0.00     0.051 A 
ATOM     16  C   UNL     1       6.130  -0.144  31.305  1.00  0.00     0.157 A 
ATOM     17  C   UNL     1       5.836  -2.501  31.814  1.00  0.00     0.062 A 
ATOM     18  C   UNL     1       6.367  -1.495  30.995  1.00  0.00     0.158 A 
BRANCH  16  19
ATOM     19  O   UNL     1       6.640   0.879  30.509  1.00  0.00    -0.504 OA
ATOM     20  H   UNL     1       6.094   1.311  29.772  1.00  0.00     0.293 HD
ENDBRANCH  16  19
BRANCH  18  21
ATOM     21  O   UNL     1       7.128  -1.831  29.875  1.00  0.00    -0.504 OA
ATOM     22  H   UNL     1       7.354  -1.147  29.163  1.00  0.00     0.293 HD
ENDBRANCH  18  21
ENDBRANCH   3  13
BRANCH  10  23
ATOM     23  O   UNL     1       3.161  -6.856  37.242  1.00  0.00    -0.507 OA
ATOM     24  H   UNL     1       3.359  -6.365  38.101  1.00  0.00     0.293 HD
ENDBRANCH  10  23
BRANCH  11  25
ATOM     25  O   UNL     1      -0.520  -6.463  34.211  1.00  0.00    -0.508 OA
ATOM     26  H   UNL     1      -1.336  -5.893  34.402  1.00  0.00     0.293 HD
ENDBRANCH  11  25
ENDBRANCH   1   2
BRANCH   1  27
ATOM     27  C   UNL     1       7.808  -3.733  34.612  1.00  0.00     0.339 C 
ATOM     28  C   UNL     1       8.740  -4.121  35.782  1.00  0.00     0.214 C 
ATOM     29  O   UNL     1       8.425  -2.783  33.755  1.00  0.00    -0.332 OA
ATOM     30  C   UNL     1       9.244  -2.878  36.537  1.00  0.00     0.180 C 
ATOM     31  C   UNL     1       8.720  -1.578  34.444  1.00  0.00     0.179 C 
ATOM     32  C   UNL     1       9.775  -1.829  35.542  1.00  0.00     0.177 C 
BRANCH  28  33
ATOM     33  O   UNL     1       8.078  -4.980  36.675  1.00  0.00    -0.384 OA
ATOM     34  H   UNL     1       8.607  -4.984  37.514  1.00  0.00     0.211 HD
ENDBRANCH  28  33
BRANCH  30  35
ATOM     35  O   UNL     1       8.203  -2.334  37.309  1.00  0.00    -0.387 OA
ATOM     36  H   UNL     1       7.716  -3.098  37.716  1.00  0.00     0.211 HD
ENDBRANCH  30  35
BRANCH  31  37
ATOM     37  C   UNL     1       9.213  -0.533  33.434  1.00  0.00     0.191 C 
BRANCH  37  38
ATOM     38  O   UNL     1       8.619   0.711  33.691  1.00  0.00    -0.394 OA
ATOM     39  H   UNL     1       7.890   0.823  33.025  1.00  0.00     0.210 HD
ENDBRANCH  37  38
ENDBRANCH  31  37
BRANCH  32  40
ATOM     40  O   UNL     1      10.971  -2.286  34.959  1.00  0.00    -0.387 OA
ATOM     41  H   UNL     1      11.585  -2.510  35.705  1.00  0.00     0.211 HD
ENDBRANCH  32  40
ENDBRANCH   1  27
TORSDOF 12
ENDMDL
MODEL 5
REMARK VINA RESULT:    -5.140      1.871      6.657
REMARK INTER + INTRA:          -9.320
REMARK INTER:                  -7.901
REMARK INTRA:                  -1.419
REMARK UNBOUND:                -1.777
REMARK SMILES O=c1c(O[C@H]2O[C@H](CO)[C@H](O)[C@@H](O)[C@H]2O)c(-c2ccc(O)c(O)c2)oc2cc(O)cc(O)c12
REMARK SMILES IDX 4 1 3 2 16 3 25 4 2 5 26 6 1 7 33 8 27 9 31 10 28 11 30 12
REMARK SMILES IDX 17 13 18 14 19 15 20 16 24 17 22 18 21 19 23 21 32 23 29 25
REMARK SMILES IDX 5 27 14 28 6 29 12 30 7 31 10 32 15 33 13 35 8 37 9 38 11 40
REMARK H PARENT 21 20 23 22 32 24 29 26 15 34 13 36 9 39 11 41
REMARK Flexibility Score: inf
ROOT
ATOM      1  O   UNL     1       4.300  -4.105  34.678  1.00  0.00    -0.454 OA
ENDROOT
BRANCH   1   2
ATOM      2  C   UNL     1       5.119  -3.128  34.072  1.00  0.00     0.214 A 
ATOM      3  C   UNL     1       6.472  -3.073  34.454  1.00  0.00     0.180 A 
ATOM      4  O   UNL     1       7.269  -2.133  33.963  1.00  0.00    -0.452 OA
ATOM      5  C   UNL     1       4.655  -2.186  33.123  1.00  0.00     0.239 A 
ATOM      6  C   UNL     1       6.867  -1.210  33.103  1.00  0.00     0.146 A 
ATOM      7  O   UNL     1       3.487  -2.284  32.669  1.00  0.00    -0.285 OA
ATOM      8  C   UNL     1       5.522  -1.167  32.659  1.00  0.00     0.111 A 
ATOM      9  C   UNL     1       7.803  -0.286  32.630  1.00  0.00     0.094 A 
ATOM     10  C   UNL     1       5.137  -0.127  31.757  1.00  0.00     0.134 A 
ATOM     11  C   UNL     1       7.430   0.687  31.704  1.00  0.00     0.123 A 
ATOM     12  C   UNL     1       6.108   0.757  31.268  1.00  0.00     0.093 A 
BRANCH   3  13
ATOM     13  C   UNL     1       7.052  -4.042  35.408  1.00  0.00     0.025 A 
ATOM     14  C   UNL     1       7.799  -5.142  34.957  1.00  0.00     0.016 A 
ATOM     15  C   UNL     1       8.354  -6.040  35.871  1.00  0.00     0.051 A 
ATOM     16  C   UNL     1       8.186  -5.845  37.245  1.00  0.00     0.157 A 
ATOM     17  C   UNL     1       6.903  -3.834  36.787  1.00  0.00     0.062 A 
ATOM     18  C   UNL     1       7.460  -4.734  37.708  1.00  0.00     0.158 A 
BRANCH  16  19
ATOM     19  O   UNL     1       8.747  -6.761  38.134  1.00  0.00    -0.504 OA
ATOM     20  H   UNL     1       8.258  -7.599  38.424  1.00  0.00     0.293 HD
ENDBRANCH  16  19
BRANCH  18  21
ATOM     21  O   UNL     1       7.293  -4.529  39.077  1.00  0.00    -0.504 OA
ATOM     22  H   UNL     1       6.477  -4.871  39.570  1.00  0.00     0.293 HD
ENDBRANCH  18  21
ENDBRANCH   3  13
BRANCH  10  23
ATOM     23  O   UNL     1       3.822   0.098  31.341  1.00  0.00    -0.507 OA
ATOM     24  H   UNL     1       3.013  -0.368  31.723  1.00  0.00     0.293 HD
ENDBRANCH  10  23
BRANCH  11  25
ATOM     25  O   UNL     1       8.364   1.598  31.214  1.00  0.00    -0.508 OA
ATOM     26  H   UNL     1       8.955   1.375  30.422  1.00  0.00     0.293 HD
ENDBRANCH  11  25
ENDBRANCH   1   2
BRANCH   1  27
ATOM     27  C   UNL     1       4.268  -5.507  34.390  1.00  0.00     0.339 C 
ATOM     28  C   UNL     1       3.316  -5.805  33.210  1.00  0.00     0.214 C 
ATOM     29  O   UNL     1       3.917  -6.265  35.539  1.00  0.00    -0.332 OA
ATOM     30  C   UNL     1       1.843  -5.622  33.614  1.00  0.00     0.180 C 
ATOM     31  C   UNL     1       2.611  -5.944  35.992  1.00  0.00     0.179 C 
ATOM     32  C   UNL     1       1.559  -6.355  34.940  1.00  0.00     0.177 C 
BRANCH  28  33
ATOM     33  O   UNL     1       3.613  -4.974  32.117  1.00  0.00    -0.384 OA
ATOM     34  H   UNL     1       4.367  -4.392  32.396  1.00  0.00     0.211 HD
ENDBRANCH  28  33
BRANCH  30  35
ATOM     35  O   UNL     1       1.549  -4.254  33.742  1.00  0.00    -0.387 OA
ATOM     36  H   UNL     1       2.412  -3.767  33.681  1.00  0.00     0.211 HD
ENDBRANCH  30  35
BRANCH  31  37
ATOM     37  C   UNL     1       2.358  -6.653  37.330  1.00  0.00     0.191 C 
BRANCH  37  38
ATOM     38  O   UNL     1       0.990  -6.917  37.489  1.00  0.00    -0.394 OA
ATOM     39  H   UNL     1       0.511  -6.355  36.825  1.00  0.00     0.210 HD
ENDBRANCH  37  38
ENDBRANCH  31  37
BRANCH  32  40
ATOM     40  O   UNL     1       1.606  -7.746  34.736  1.00  0.00    -0.387 OA
ATOM     41  H   UNL     1       2.222  -8.115  35.419  1.00  0.00     0.211 HD
ENDBRANCH  32  40
ENDBRANCH   1  27
TORSDOF 12
ENDMDL
MODEL 6
REMARK VINA RESULT:    -5.090      1.644      7.178
REMARK INTER + INTRA:          -9.247
REMARK INTER:                  -7.816
REMARK INTRA:                  -1.430
REMARK UNBOUND:                -1.777
REMARK SMILES O=c1c(O[C@H]2O[C@H](CO)[C@H](O)[C@@H](O)[C@H]2O)c(-c2ccc(O)c(O)c2)oc2cc(O)cc(O)c12
REMARK SMILES IDX 4 1 3 2 16 3 25 4 2 5 26 6 1 7 33 8 27 9 31 10 28 11 30 12
REMARK SMILES IDX 17 13 18 14 19 15 20 16 24 17 22 18 21 19 23 21 32 23 29 25
REMARK SMILES IDX 5 27 14 28 6 29 12 30 7 31 10 32 15 33 13 35 8 37 9 38 11 40
REMARK H PARENT 21 20 23 22 32 24 29 26 15 34 13 36 9 39 11 41
REMARK Flexibility Score: inf
ROOT
ATOM      1  O   UNL     1       4.090  -4.720  35.154  1.00  0.00    -0.454 OA
ENDROOT
BRANCH   1   2
ATOM      2  C   UNL     1       5.308  -4.283  35.719  1.00  0.00     0.214 A 
ATOM      3  C   UNL     1       6.113  -3.415  34.960  1.00  0.00     0.180 A 
ATOM      4  O   UNL     1       7.296  -3.026  35.417  1.00  0.00    -0.452 OA
ATOM      5  C   UNL     1       5.775  -4.685  36.993  1.00  0.00     0.239 A 
ATOM      6  C   UNL     1       7.789  -3.408  36.586  1.00  0.00     0.146 A 
ATOM      7  O   UNL     1       5.028  -5.358  37.747  1.00  0.00    -0.285 OA
ATOM      8  C   UNL     1       7.064  -4.289  37.428  1.00  0.00     0.111 A 
ATOM      9  C   UNL     1       9.035  -2.911  36.979  1.00  0.00     0.094 A 
ATOM     10  C   UNL     1       7.661  -4.694  38.661  1.00  0.00     0.134 A 
ATOM     11  C   UNL     1       9.580  -3.266  38.212  1.00  0.00     0.123 A 
ATOM     12  C   UNL     1       8.891  -4.145  39.046  1.00  0.00     0.093 A 
BRANCH   3  13
ATOM     13  C   UNL     1       5.685  -2.913  33.637  1.00  0.00     0.025 A 
ATOM     14  C   UNL     1       6.266  -3.399  32.456  1.00  0.00     0.016 A 
ATOM     15  C   UNL     1       5.839  -2.928  31.213  1.00  0.00     0.051 A 
ATOM     16  C   UNL     1       4.817  -1.978  31.130  1.00  0.00     0.157 A 
ATOM     17  C   UNL     1       4.642  -1.978  33.553  1.00  0.00     0.062 A 
ATOM     18  C   UNL     1       4.211  -1.502  32.306  1.00  0.00     0.158 A 
BRANCH  16  19
ATOM     19  O   UNL     1       4.415  -1.522  29.876  1.00  0.00    -0.504 OA
ATOM     20  H   UNL     1       3.762  -2.038  29.299  1.00  0.00     0.293 HD
ENDBRANCH  16  19
BRANCH  18  21
ATOM     21  O   UNL     1       3.186  -0.560  32.231  1.00  0.00    -0.504 OA
ATOM     22  H   UNL     1       3.380   0.434  32.197  1.00  0.00     0.293 HD
ENDBRANCH  18  21
ENDBRANCH   3  13
BRANCH  10  23
ATOM     23  O   UNL     1       7.107  -5.648  39.519  1.00  0.00    -0.507 OA
ATOM     24  H   UNL     1       7.243  -5.667  40.519  1.00  0.00     0.293 HD
ENDBRANCH  10  23
BRANCH  11  25
ATOM     25  O   UNL     1      10.813  -2.758  38.618  1.00  0.00    -0.508 OA
ATOM     26  H   UNL     1      11.158  -1.870  38.273  1.00  0.00     0.293 HD
ENDBRANCH  11  25
ENDBRANCH   1   2
BRANCH   1  27
ATOM     27  C   UNL     1       3.792  -6.024  34.642  1.00  0.00     0.339 C 
ATOM     28  C   UNL     1       2.813  -5.934  33.449  1.00  0.00     0.214 C 
ATOM     29  O   UNL     1       3.290  -6.879  35.658  1.00  0.00    -0.332 OA
ATOM     30  C   UNL     1       1.398  -5.542  33.910  1.00  0.00     0.180 C 
ATOM     31  C   UNL     1       2.066  -6.394  36.186  1.00  0.00     0.179 C 
ATOM     32  C   UNL     1       0.965  -6.415  35.104  1.00  0.00     0.177 C 
BRANCH  28  33
ATOM     33  O   UNL     1       3.275  -5.006  32.501  1.00  0.00    -0.384 OA
ATOM     34  H   UNL     1       4.140  -4.657  32.841  1.00  0.00     0.211 HD
ENDBRANCH  28  33
BRANCH  30  35
ATOM     35  O   UNL     1       1.372  -4.183  34.268  1.00  0.00    -0.387 OA
ATOM     36  H   UNL     1       2.237  -3.792  33.977  1.00  0.00     0.211 HD
ENDBRANCH  30  35
BRANCH  31  37
ATOM     37  C   UNL     1       1.667  -7.252  37.394  1.00  0.00     0.191 C 
BRANCH  37  38
ATOM     38  O   UNL     1       0.289  -7.510  37.374  1.00  0.00    -0.394 OA
ATOM     39  H   UNL     1       0.019  -7.700  38.311  1.00  0.00     0.210 HD
ENDBRANCH  37  38
ENDBRANCH  31  37
BRANCH  32  40
ATOM     40  O   UNL     1       0.745  -7.736  34.674  1.00  0.00    -0.387 OA
ATOM     41  H   UNL     1      -0.216  -7.931  34.825  1.00  0.00     0.211 HD
ENDBRANCH  32  40
ENDBRANCH   1  27
TORSDOF 12
ENDMDL
MODEL 7
REMARK VINA RESULT:    -5.027      2.588      6.490
REMARK INTER + INTRA:          -9.155
REMARK INTER:                  -7.501
REMARK INTRA:                  -1.654
REMARK UNBOUND:                -1.777
REMARK SMILES O=c1c(O[C@H]2O[C@H](CO)[C@H](O)[C@@H](O)[C@H]2O)c(-c2ccc(O)c(O)c2)oc2cc(O)cc(O)c12
REMARK SMILES IDX 4 1 3 2 16 3 25 4 2 5 26 6 1 7 33 8 27 9 31 10 28 11 30 12
REMARK SMILES IDX 17 13 18 14 19 15 20 16 24 17 22 18 21 19 23 21 32 23 29 25
REMARK SMILES IDX 5 27 14 28 6 29 12 30 7 31 10 32 15 33 13 35 8 37 9 38 11 40
REMARK H PARENT 21 20 23 22 32 24 29 26 15 34 13 36 9 39 11 41
REMARK Flexibility Score: inf
ROOT
ATOM      1  O   UNL     1       6.595  -2.865  33.220  1.00  0.00    -0.454 OA
ENDROOT
BRANCH   1   2
ATOM      2  C   UNL     1       7.003  -3.127  34.545  1.00  0.00     0.214 A 
ATOM      3  C   UNL     1       6.210  -3.992  35.321  1.00  0.00     0.180 A 
ATOM      4  O   UNL     1       6.514  -4.221  36.592  1.00  0.00    -0.452 OA
ATOM      5  C   UNL     1       8.149  -2.553  35.146  1.00  0.00     0.239 A 
ATOM      6  C   UNL     1       7.555  -3.675  37.204  1.00  0.00     0.146 A 
ATOM      7  O   UNL     1       8.945  -1.876  34.448  1.00  0.00    -0.285 OA
ATOM      8  C   UNL     1       8.415  -2.781  36.518  1.00  0.00     0.111 A 
ATOM      9  C   UNL     1       7.795  -4.012  38.539  1.00  0.00     0.094 A 
ATOM     10  C   UNL     1       9.501  -2.196  37.240  1.00  0.00     0.134 A 
ATOM     11  C   UNL     1       8.893  -3.482  39.215  1.00  0.00     0.123 A 
ATOM     12  C   UNL     1       9.740  -2.587  38.564  1.00  0.00     0.093 A 
BRANCH   3  13
ATOM     13  C   UNL     1       5.019  -4.667  34.763  1.00  0.00     0.025 A 
ATOM     14  C   UNL     1       5.130  -5.902  34.107  1.00  0.00     0.016 A 
ATOM     15  C   UNL     1       3.993  -6.536  33.600  1.00  0.00     0.051 A 
ATOM     16  C   UNL     1       2.731  -5.954  33.752  1.00  0.00     0.157 A 
ATOM     17  C   UNL     1       3.750  -4.095  34.938  1.00  0.00     0.062 A 
ATOM     18  C   UNL     1       2.607  -4.728  34.429  1.00  0.00     0.158 A 
BRANCH  16  19
ATOM     19  O   UNL     1       1.616  -6.607  33.231  1.00  0.00    -0.504 OA
ATOM     20  H   UNL     1       1.019  -7.193  33.803  1.00  0.00     0.293 HD
ENDBRANCH  16  19
BRANCH  18  21
ATOM     21  O   UNL     1       1.351  -4.145  34.592  1.00  0.00    -0.504 OA
ATOM     22  H   UNL     1       0.597  -4.316  33.937  1.00  0.00     0.293 HD
ENDBRANCH  18  21
ENDBRANCH   3  13
BRANCH  10  23
ATOM     23  O   UNL     1      10.344  -1.213  36.717  1.00  0.00    -0.507 OA
ATOM     24  H   UNL     1      10.495  -0.306  37.134  1.00  0.00     0.293 HD
ENDBRANCH  10  23
BRANCH  11  25
ATOM     25  O   UNL     1       9.149  -3.830  40.540  1.00  0.00    -0.508 OA
ATOM     26  H   UNL     1       8.419  -4.192  41.142  1.00  0.00     0.293 HD
ENDBRANCH  11  25
ENDBRANCH   1   2
BRANCH   1  27
ATOM     27  C   UNL     1       5.635  -1.894  32.785  1.00  0.00     0.339 C 
ATOM     28  C   UNL     1       5.045  -2.283  31.411  1.00  0.00     0.214 C 
ATOM     29  O   UNL     1       6.194  -0.589  32.756  1.00  0.00    -0.332 OA
ATOM     30  C   UNL     1       6.077  -2.104  30.283  1.00  0.00     0.180 C 
ATOM     31  C   UNL     1       7.262  -0.503  31.827  1.00  0.00     0.179 C 
ATOM     32  C   UNL     1       6.746  -0.719  30.388  1.00  0.00     0.177 C 
BRANCH  28  33
ATOM     33  O   UNL     1       4.591  -3.612  31.428  1.00  0.00    -0.384 OA
ATOM     34  H   UNL     1       5.366  -4.183  31.186  1.00  0.00     0.211 HD
ENDBRANCH  28  33
BRANCH  30  35
ATOM     35  O   UNL     1       7.046  -3.119  30.357  1.00  0.00    -0.387 OA
ATOM     36  H   UNL     1       6.639  -3.870  30.864  1.00  0.00     0.211 HD
ENDBRANCH  30  35
BRANCH  31  37
ATOM     37  C   UNL     1       7.939   0.867  31.969  1.00  0.00     0.191 C 
BRANCH  37  38
ATOM     38  O   UNL     1       6.974   1.871  32.136  1.00  0.00    -0.394 OA
ATOM     39  H   UNL     1       6.761   1.905  33.106  1.00  0.00     0.210 HD
ENDBRANCH  37  38
ENDBRANCH  31  37
BRANCH  32  40
ATOM     40  O   UNL     1       5.818   0.285  30.059  1.00  0.00    -0.387 OA
ATOM     41  H   UNL     1       6.170   0.747  29.255  1.00  0.00     0.211 HD
ENDBRANCH  32  40
ENDBRANCH   1  27
TORSDOF 12
ENDMDL
MODEL 8
REMARK VINA RESULT:    -4.964      1.997      7.485
REMARK INTER + INTRA:          -9.063
REMARK INTER:                  -7.096
REMARK INTRA:                  -1.967
REMARK UNBOUND:                -1.777
REMARK SMILES O=c1c(O[C@H]2O[C@H](CO)[C@H](O)[C@@H](O)[C@H]2O)c(-c2ccc(O)c(O)c2)oc2cc(O)cc(O)c12
REMARK SMILES IDX 4 1 3 2 16 3 25 4 2 5 26 6 1 7 33 8 27 9 31 10 28 11 30 12
REMARK SMILES IDX 17 13 18 14 19 15 20 16 24 17 22 18 21 19 23 21 32 23 29 25
REMARK SMILES IDX 5 27 14 28 6 29 12 30 7 31 10 32 15 33 13 35 8 37 9 38 11 40
REMARK H PARENT 21 20 23 22 32 24 29 26 15 34 13 36 9 39 11 41
REMARK Flexibility Score: inf
ROOT
ATOM      1  O   UNL     1       5.241  -5.645  36.146  1.00  0.00    -0.454 OA
ENDROOT
BRANCH   1   2
ATOM      2  C   UNL     1       6.264  -4.766  36.564  1.00  0.00     0.214 A 
ATOM      3  C   UNL     1       6.726  -3.806  35.646  1.00  0.00     0.180 A 
ATOM      4  O   UNL     1       7.729  -3.000  35.967  1.00  0.00    -0.452 OA
ATOM      5  C   UNL     1       6.867  -4.810  37.844  1.00  0.00     0.239 A 
ATOM      6  C   UNL     1       8.347  -3.033  37.138  1.00  0.00     0.146 A 
ATOM      7  O   UNL     1       6.397  -5.570  38.728  1.00  0.00    -0.285 OA
ATOM      8  C   UNL     1       7.968  -3.967  38.134  1.00  0.00     0.111 A 
ATOM      9  C   UNL     1       9.373  -2.114  37.377  1.00  0.00     0.094 A 
ATOM     10  C   UNL     1       8.693  -3.979  39.365  1.00  0.00     0.134 A 
ATOM     11  C   UNL     1      10.033  -2.096  38.605  1.00  0.00     0.123 A 
ATOM     12  C   UNL     1       9.687  -3.018  39.590  1.00  0.00     0.093 A 
BRANCH   3  13
ATOM     13  C   UNL     1       6.126  -3.663  34.302  1.00  0.00     0.025 A 
ATOM     14  C   UNL     1       6.657  -4.346  33.197  1.00  0.00     0.016 A 
ATOM     15  C   UNL     1       6.069  -4.214  31.937  1.00  0.00     0.051 A 
ATOM     16  C   UNL     1       4.937  -3.412  31.765  1.00  0.00     0.157 A 
ATOM     17  C   UNL     1       4.976  -2.877  34.134  1.00  0.00     0.062 A 
ATOM     18  C   UNL     1       4.383  -2.742  32.871  1.00  0.00     0.158 A 
BRANCH  16  19
ATOM     19  O   UNL     1       4.375  -3.295  30.495  1.00  0.00    -0.504 OA
ATOM     20  H   UNL     1       4.082  -4.103  29.960  1.00  0.00     0.293 HD
ENDBRANCH  16  19
BRANCH  18  21
ATOM     21  O   UNL     1       3.250  -1.946  32.709  1.00  0.00    -0.504 OA
ATOM     22  H   UNL     1       2.719  -1.947  31.846  1.00  0.00     0.293 HD
ENDBRANCH  18  21
ENDBRANCH   3  13
BRANCH  10  23
ATOM     23  O   UNL     1       8.500  -4.925  40.375  1.00  0.00    -0.507 OA
ATOM     24  H   UNL     1       9.211  -5.220  41.028  1.00  0.00     0.293 HD
ENDBRANCH  10  23
BRANCH  11  25
ATOM     25  O   UNL     1      11.044  -1.168  38.855  1.00  0.00    -0.508 OA
ATOM     26  H   UNL     1      11.628  -0.808  38.110  1.00  0.00     0.293 HD
ENDBRANCH  11  25
ENDBRANCH   1   2
BRANCH   1  27
ATOM     27  C   UNL     1       3.875  -5.650  36.575  1.00  0.00     0.339 C 
ATOM     28  C   UNL     1       3.486  -7.029  37.154  1.00  0.00     0.214 C 
ATOM     29  O   UNL     1       2.999  -5.265  35.525  1.00  0.00    -0.332 OA
ATOM     30  C   UNL     1       3.382  -8.094  36.048  1.00  0.00     0.180 C 
ATOM     31  C   UNL     1       3.057  -6.180  34.442  1.00  0.00     0.179 C 
ATOM     32  C   UNL     1       2.531  -7.565  34.876  1.00  0.00     0.177 C 
BRANCH  28  33
ATOM     33  O   UNL     1       4.421  -7.440  38.118  1.00  0.00    -0.384 OA
ATOM     34  H   UNL     1       5.050  -8.058  37.662  1.00  0.00     0.211 HD
ENDBRANCH  28  33
BRANCH  30  35
ATOM     35  O   UNL     1       4.666  -8.443  35.597  1.00  0.00    -0.387 OA
ATOM     36  H   UNL     1       4.690  -9.434  35.535  1.00  0.00     0.211 HD
ENDBRANCH  30  35
BRANCH  31  37
ATOM     37  C   UNL     1       2.235  -5.621  33.273  1.00  0.00     0.191 C 
BRANCH  37  38
ATOM     38  O   UNL     1       1.606  -4.425  33.648  1.00  0.00    -0.394 OA
ATOM     39  H   UNL     1       1.298  -4.545  34.584  1.00  0.00     0.210 HD
ENDBRANCH  37  38
ENDBRANCH  31  37
BRANCH  32  40
ATOM     40  O   UNL     1       1.186  -7.462  35.272  1.00  0.00    -0.387 OA
ATOM     41  H   UNL     1       0.676  -8.114  34.725  1.00  0.00     0.211 HD
ENDBRANCH  32  40
ENDBRANCH   1  27
TORSDOF 12
ENDMDL
MODEL 9
REMARK VINA RESULT:    -4.925      2.321      7.218
REMARK INTER + INTRA:          -9.004
REMARK INTER:                  -7.287
REMARK INTRA:                  -1.717
REMARK UNBOUND:                -1.777
REMARK SMILES O=c1c(O[C@H]2O[C@H](CO)[C@H](O)[C@@H](O)[C@H]2O)c(-c2ccc(O)c(O)c2)oc2cc(O)cc(O)c12
REMARK SMILES IDX 4 1 3 2 16 3 25 4 2 5 26 6 1 7 33 8 27 9 31 10 28 11 30 12
REMARK SMILES IDX 17 13 18 14 19 15 20 16 24 17 22 18 21 19 23 21 32 23 29 25
REMARK SMILES IDX 5 27 14 28 6 29 12 30 7 31 10 32 15 33 13 35 8 37 9 38 11 40
REMARK H PARENT 21 20 23 22 32 24 29 26 15 34 13 36 9 39 11 41
REMARK Flexibility Score: inf
ROOT
ATOM      1  O   UNL     1       3.099  -7.395  36.662  1.00  0.00    -0.454 OA
ENDROOT
BRANCH   1   2
ATOM      2  C   UNL     1       4.366  -7.200  37.252  1.00  0.00     0.214 A 
ATOM      3  C   UNL     1       5.157  -6.137  36.781  1.00  0.00     0.180 A 
ATOM      4  O   UNL     1       6.381  -5.950  37.258  1.00  0.00    -0.452 OA
ATOM      5  C   UNL     1       4.896  -8.025  38.274  1.00  0.00     0.239 A 
ATOM      6  C   UNL     1       6.930  -6.721  38.185  1.00  0.00     0.146 A 
ATOM      7  O   UNL     1       4.170  -8.905  38.802  1.00  0.00    -0.285 OA
ATOM      8  C   UNL     1       6.224  -7.826  38.723  1.00  0.00     0.111 A 
ATOM      9  C   UNL     1       8.217  -6.411  38.634  1.00  0.00     0.094 A 
ATOM     10  C   UNL     1       6.879  -8.642  39.695  1.00  0.00     0.134 A 
ATOM     11  C   UNL     1       8.823  -7.179  39.627  1.00  0.00     0.123 A 
ATOM     12  C   UNL     1       8.152  -8.280  40.155  1.00  0.00     0.093 A 
BRANCH   3  13
ATOM     13  C   UNL     1       4.668  -5.202  35.746  1.00  0.00     0.025 A 
ATOM     14  C   UNL     1       4.429  -3.852  36.046  1.00  0.00     0.016 A 
ATOM     15  C   UNL     1       3.983  -2.976  35.054  1.00  0.00     0.051 A 
ATOM     16  C   UNL     1       3.784  -3.431  33.747  1.00  0.00     0.157 A 
ATOM     17  C   UNL     1       4.492  -5.653  34.429  1.00  0.00     0.062 A 
ATOM     18  C   UNL     1       4.044  -4.776  33.430  1.00  0.00     0.158 A 
BRANCH  16  19
ATOM     19  O   UNL     1       3.333  -2.536  32.779  1.00  0.00    -0.504 OA
ATOM     20  H   UNL     1       2.512  -1.959  32.919  1.00  0.00     0.293 HD
ENDBRANCH  16  19
BRANCH  18  21
ATOM     21  O   UNL     1       3.854  -5.236  32.127  1.00  0.00    -0.504 OA
ATOM     22  H   UNL     1       4.416  -5.986  31.742  1.00  0.00     0.293 HD
ENDBRANCH  18  21
ENDBRANCH   3  13
BRANCH  10  23
ATOM     23  O   UNL     1       6.342  -9.824  40.211  1.00  0.00    -0.507 OA
ATOM     24  H   UNL     1       5.981 -10.582  39.651  1.00  0.00     0.293 HD
ENDBRANCH  10  23
BRANCH  11  25
ATOM     25  O   UNL     1      10.098  -6.862  40.092  1.00  0.00    -0.508 OA
ATOM     26  H   UNL     1      10.312  -5.946  40.467  1.00  0.00     0.293 HD
ENDBRANCH  11  25
ENDBRANCH   1   2
BRANCH   1  27
ATOM     27  C   UNL     1       1.872  -6.744  37.009  1.00  0.00     0.339 C 
ATOM     28  C   UNL     1       0.855  -7.758  37.582  1.00  0.00     0.214 C 
ATOM     29  O   UNL     1       1.328  -6.037  35.904  1.00  0.00    -0.332 OA
ATOM     30  C   UNL     1       0.314  -8.693  36.487  1.00  0.00     0.180 C 
ATOM     31  C   UNL     1       0.999  -6.914  34.839  1.00  0.00     0.179 C 
ATOM     32  C   UNL     1      -0.134  -7.875  35.260  1.00  0.00     0.177 C 
BRANCH  28  33
ATOM     33  O   UNL     1       1.443  -8.519  38.606  1.00  0.00    -0.384 OA
ATOM     34  H   UNL     1       0.737  -9.124  38.954  1.00  0.00     0.211 HD
ENDBRANCH  28  33
BRANCH  30  35
ATOM     35  O   UNL     1       1.304  -9.620  36.118  1.00  0.00    -0.387 OA
ATOM     36  H   UNL     1       0.973 -10.517  36.385  1.00  0.00     0.211 HD
ENDBRANCH  30  35
BRANCH  31  37
ATOM     37  C   UNL     1       0.590  -6.083  33.615  1.00  0.00     0.191 C 
BRANCH  37  38
ATOM     38  O   UNL     1      -0.526  -6.658  32.988  1.00  0.00    -0.394 OA
ATOM     39  H   UNL     1      -1.327  -6.191  33.345  1.00  0.00     0.210 HD
ENDBRANCH  37  38
ENDBRANCH  31  37
BRANCH  32  40
ATOM     40  O   UNL     1      -1.291  -7.139  35.574  1.00  0.00    -0.387 OA
ATOM     41  H   UNL     1      -1.642  -6.779  34.719  1.00  0.00     0.211 HD
ENDBRANCH  32  40
ENDBRANCH   1  27
TORSDOF 12
ENDMDL
