MODEL 1
REMARK VINA RESULT:    -4.128      0.000      0.000
REMARK INTER + INTRA:          -5.260
REMARK INTER:                  -4.852
REMARK INTRA:                  -0.408
REMARK UNBOUND:                -0.408
REMARK SMILES [NH3+][C@@H](CO)C(=O)[O-]
REMARK SMILES IDX 3 1 2 2 1 3 5 7 6 8 7 9 4 10
REMARK H PARENT 1 4 1 5 1 6 4 11
REMARK Flexibility Score: inf
ROOT
ATOM      1  C   UNL     1      24.220  22.055  12.661  1.00  0.00     0.227 C 
ENDROOT
BRANCH   1   2
ATOM      2  C   UNL     1      24.871  23.236  11.920  1.00  0.00     0.253 C 
BRANCH   2   3
ATOM      3  N   UNL     1      23.887  24.284  11.628  1.00  0.00    -0.348 N 
ATOM      4  H   UNL     1      23.935  24.545  10.616  1.00  0.00     0.345 HD
ATOM      5  H   UNL     1      24.067  25.136  12.208  1.00  0.00     0.345 HD
ATOM      6  H   UNL     1      22.923  23.931  11.826  1.00  0.00     0.345 HD
ENDBRANCH   2   3
BRANCH   2   7
ATOM      7  C   UNL     1      25.511  22.752  10.647  1.00  0.00     0.102 C 
ATOM      8  O   UNL     1      26.716  22.385  10.644  1.00  0.00    -0.544 OA
ATOM      9  O   UNL     1      24.773  22.691   9.470  1.00  0.00    -0.544 OA
ENDBRANCH   2   7
ENDBRANCH   1   2
BRANCH   1  10
ATOM     10  O   UNL     1      24.303  20.881  11.898  1.00  0.00    -0.390 OA
ATOM     11  H   UNL     1      23.626  20.963  11.177  1.00  0.00     0.210 HD
ENDBRANCH   1  10
TORSDOF 4
ENDMDL
MODEL 2
REMARK VINA RESULT:    -4.099      1.724      2.428
REMARK INTER + INTRA:          -5.227
REMARK INTER:                  -4.824
REMARK INTRA:                  -0.403
REMARK UNBOUND:                -0.408
REMARK SMILES [NH3+][C@@H](CO)C(=O)[O-]
REMARK SMILES IDX 3 1 2 2 1 3 5 7 6 8 7 9 4 10
REMARK H PARENT 1 4 1 5 1 6 4 11
REMARK Flexibility Score: inf
ROOT
ATOM      1  C   UNL     1      24.347  24.014  12.376  1.00  0.00     0.227 C 
ENDROOT
BRANCH   1   2
ATOM      2  C   UNL     1      24.340  22.621  11.723  1.00  0.00     0.253 C 
BRANCH   2   3
ATOM      3  N   UNL     1      24.726  21.583  12.686  1.00  0.00    -0.348 N 
ATOM      4  H   UNL     1      25.747  21.659  12.902  1.00  0.00     0.345 HD
ATOM      5  H   UNL     1      24.528  20.629  12.304  1.00  0.00     0.345 HD
ATOM      6  H   UNL     1      24.196  21.713  13.579  1.00  0.00     0.345 HD
ENDBRANCH   2   3
BRANCH   2   7
ATOM      7  C   UNL     1      25.271  22.605  10.540  1.00  0.00     0.102 C 
ATOM      8  O   UNL     1      24.815  22.745   9.375  1.00  0.00    -0.544 OA
ATOM      9  O   UNL     1      26.640  22.452  10.726  1.00  0.00    -0.544 OA
ENDBRANCH   2   7
ENDBRANCH   1   2
BRANCH   1  10
ATOM     10  O   UNL     1      25.156  24.901  11.650  1.00  0.00    -0.390 OA
ATOM     11  H   UNL     1      25.655  24.353  10.990  1.00  0.00     0.210 HD
ENDBRANCH   1  10
TORSDOF 4
ENDMDL
MODEL 3
REMARK VINA RESULT:    -3.813      1.489      2.430
REMARK INTER + INTRA:          -4.890
REMARK INTER:                  -4.666
REMARK INTRA:                  -0.224
REMARK UNBOUND:                -0.408
REMARK SMILES [NH3+][C@@H](CO)C(=O)[O-]
REMARK SMILES IDX 3 1 2 2 1 3 5 7 6 8 7 9 4 10
REMARK H PARENT 1 4 1 5 1 6 4 11
REMARK Flexibility Score: inf
ROOT
ATOM      1  C   UNL     1      23.080  23.871  11.023  1.00  0.00     0.227 C 
ENDROOT
BRANCH   1   2
ATOM      2  C   UNL     1      24.439  23.426  11.595  1.00  0.00     0.253 C 
BRANCH   2   3
ATOM      3  N   UNL     1      25.137  24.548  12.232  1.00  0.00    -0.348 N 
ATOM      4  H   UNL     1      24.557  24.932  13.013  1.00  0.00     0.345 HD
ATOM      5  H   UNL     1      25.325  25.311  11.540  1.00  0.00     0.345 HD
ATOM      6  H   UNL     1      26.045  24.219  12.634  1.00  0.00     0.345 HD
ENDBRANCH   2   3
BRANCH   2   7
ATOM      7  C   UNL     1      25.287  22.838  10.500  1.00  0.00     0.102 C 
ATOM      8  O   UNL     1      24.813  22.688   9.343  1.00  0.00    -0.544 OA
ATOM      9  O   UNL     1      26.604  22.472  10.752  1.00  0.00    -0.544 OA
ENDBRANCH   2   7
ENDBRANCH   1   2
BRANCH   1  10
ATOM     10  O   UNL     1      23.216  25.050  10.276  1.00  0.00    -0.390 OA
ATOM     11  H   UNL     1      23.325  25.789  10.930  1.00  0.00     0.210 HD
ENDBRANCH   1  10
TORSDOF 4
ENDMDL
MODEL 4
REMARK VINA RESULT:    -3.613      1.597      2.911
REMARK INTER + INTRA:          -4.656
REMARK INTER:                  -4.640
REMARK INTRA:                  -0.016
REMARK UNBOUND:                -0.408
REMARK SMILES [NH3+][C@@H](CO)C(=O)[O-]
REMARK SMILES IDX 3 1 2 2 1 3 5 7 6 8 7 9 4 10
REMARK H PARENT 1 4 1 5 1 6 4 11
REMARK Flexibility Score: inf
ROOT
ATOM      1  C   UNL     1      24.234  23.044  10.668  1.00  0.00     0.227 C 
ENDROOT
BRANCH   1   2
ATOM      2  C   UNL     1      24.899  22.735  12.021  1.00  0.00     0.253 C 
BRANCH   2   3
ATOM      3  N   UNL     1      26.330  22.456  11.855  1.00  0.00    -0.348 N 
ATOM      4  H   UNL     1      26.558  22.353  10.840  1.00  0.00     0.345 HD
ATOM      5  H   UNL     1      26.598  21.576  12.356  1.00  0.00     0.345 HD
ATOM      6  H   UNL     1      26.893  23.252  12.234  1.00  0.00     0.345 HD
ENDBRANCH   2   3
BRANCH   2   7
ATOM      7  C   UNL     1      24.213  21.564  12.674  1.00  0.00     0.102 C 
ATOM      8  O   UNL     1      24.888  20.697  13.287  1.00  0.00    -0.544 OA
ATOM      9  O   UNL     1      22.829  21.442  12.617  1.00  0.00    -0.544 OA
ENDBRANCH   2   7
ENDBRANCH   1   2
BRANCH   1  10
ATOM     10  O   UNL     1      25.077  22.691   9.605  1.00  0.00    -0.390 OA
ATOM     11  H   UNL     1      25.705  22.006   9.957  1.00  0.00     0.210 HD
ENDBRANCH   1  10
TORSDOF 4
ENDMDL
MODEL 5
REMARK VINA RESULT:    -3.417      2.054      2.130
REMARK INTER + INTRA:          -4.425
REMARK INTER:                  -4.198
REMARK INTRA:                  -0.227
REMARK UNBOUND:                -0.408
REMARK SMILES [NH3+][C@@H](CO)C(=O)[O-]
REMARK SMILES IDX 3 1 2 2 1 3 5 7 6 8 7 9 4 10
REMARK H PARENT 1 4 1 5 1 6 4 11
REMARK Flexibility Score: inf
ROOT
ATOM      1  C   UNL     1      22.994  22.842  12.744  1.00  0.00     0.227 C 
ENDROOT
BRANCH   1   2
ATOM      2  C   UNL     1      23.982  21.959  11.962  1.00  0.00     0.253 C 
BRANCH   2   3
ATOM      3  N   UNL     1      25.048  21.456  12.835  1.00  0.00    -0.348 N 
ATOM      4  H   UNL     1      24.691  20.659  13.411  1.00  0.00     0.345 HD
ATOM      5  H   UNL     1      25.393  22.210  13.474  1.00  0.00     0.345 HD
ATOM      6  H   UNL     1      25.846  21.105  12.256  1.00  0.00     0.345 HD
ENDBRANCH   2   3
BRANCH   2   7
ATOM      7  C   UNL     1      24.571  22.739  10.817  1.00  0.00     0.102 C 
ATOM      8  O   UNL     1      25.542  22.271  10.167  1.00  0.00    -0.544 OA
ATOM      9  O   UNL     1      24.037  23.972  10.460  1.00  0.00    -0.544 OA
ENDBRANCH   2   7
ENDBRANCH   1   2
BRANCH   1  10
ATOM     10  O   UNL     1      21.775  22.954  12.060  1.00  0.00    -0.390 OA
ATOM     11  H   UNL     1      21.530  23.916  12.072  1.00  0.00     0.210 HD
ENDBRANCH   1  10
TORSDOF 4
ENDMDL
MODEL 6
REMARK VINA RESULT:    -3.389      6.402      7.459
REMARK INTER + INTRA:          -4.391
REMARK INTER:                  -4.360
REMARK INTRA:                  -0.031
REMARK UNBOUND:                -0.408
REMARK SMILES [NH3+][C@@H](CO)C(=O)[O-]
REMARK SMILES IDX 3 1 2 2 1 3 5 7 6 8 7 9 4 10
REMARK H PARENT 1 4 1 5 1 6 4 11
REMARK Flexibility Score: inf
ROOT
ATOM      1  C   UNL     1      23.406  19.376  18.931  1.00  0.00     0.227 C 
ENDROOT
BRANCH   1   2
ATOM      2  C   UNL     1      22.710  19.640  17.584  1.00  0.00     0.253 C 
BRANCH   2   3
ATOM      3  N   UNL     1      23.219  18.743  16.541  1.00  0.00    -0.348 N 
ATOM      4  H   UNL     1      23.617  19.302  15.752  1.00  0.00     0.345 HD
ATOM      5  H   UNL     1      22.454  18.130  16.172  1.00  0.00     0.345 HD
ATOM      6  H   UNL     1      23.982  18.143  16.930  1.00  0.00     0.345 HD
ENDBRANCH   2   3
BRANCH   2   7
ATOM      7  C   UNL     1      22.909  21.076  17.178  1.00  0.00     0.102 C 
ATOM      8  O   UNL     1      22.954  21.981  18.053  1.00  0.00    -0.544 OA
ATOM      9  O   UNL     1      23.060  21.412  15.837  1.00  0.00    -0.544 OA
ENDBRANCH   2   7
ENDBRANCH   1   2
BRANCH   1  10
ATOM     10  O   UNL     1      22.504  18.836  19.860  1.00  0.00    -0.390 OA
ATOM     11  H   UNL     1      22.568  19.398  20.676  1.00  0.00     0.210 HD
ENDBRANCH   1  10
TORSDOF 4
ENDMDL
MODEL 7
REMARK VINA RESULT:    -3.342      2.677      3.494
REMARK INTER + INTRA:          -4.336
REMARK INTER:                  -3.939
REMARK INTRA:                  -0.397
REMARK UNBOUND:                -0.408
REMARK SMILES [NH3+][C@@H](CO)C(=O)[O-]
REMARK SMILES IDX 3 1 2 2 1 3 5 7 6 8 7 9 4 10
REMARK H PARENT 1 4 1 5 1 6 4 11
REMARK Flexibility Score: inf
ROOT
ATOM      1  C   UNL     1      23.863  19.541  14.443  1.00  0.00     0.227 C 
ENDROOT
BRANCH   1   2
ATOM      2  C   UNL     1      24.005  21.041  14.129  1.00  0.00     0.253 C 
BRANCH   2   3
ATOM      3  N   UNL     1      23.245  21.856  15.083  1.00  0.00    -0.348 N 
ATOM      4  H   UNL     1      23.029  21.295  15.939  1.00  0.00     0.345 HD
ATOM      5  H   UNL     1      22.347  22.187  14.657  1.00  0.00     0.345 HD
ATOM      6  H   UNL     1      23.813  22.685  15.374  1.00  0.00     0.345 HD
ENDBRANCH   2   3
BRANCH   2   7
ATOM      7  C   UNL     1      23.542  21.316  12.723  1.00  0.00     0.102 C 
ATOM      8  O   UNL     1      22.334  21.592  12.498  1.00  0.00    -0.544 OA
ATOM      9  O   UNL     1      24.446  21.283  11.668  1.00  0.00    -0.544 OA
ENDBRANCH   2   7
ENDBRANCH   1   2
BRANCH   1  10
ATOM     10  O   UNL     1      23.562  18.815  13.282  1.00  0.00    -0.390 OA
ATOM     11  H   UNL     1      23.719  19.428  12.516  1.00  0.00     0.210 HD
ENDBRANCH   1  10
TORSDOF 4
ENDMDL
MODEL 8
REMARK VINA RESULT:    -3.330      3.236      3.916
REMARK INTER + INTRA:          -4.322
REMARK INTER:                  -3.926
REMARK INTRA:                  -0.396
REMARK UNBOUND:                -0.408
REMARK SMILES [NH3+][C@@H](CO)C(=O)[O-]
REMARK SMILES IDX 3 1 2 2 1 3 5 7 6 8 7 9 4 10
REMARK H PARENT 1 4 1 5 1 6 4 11
REMARK Flexibility Score: inf
ROOT
ATOM      1  C   UNL     1      23.281  22.276  13.222  1.00  0.00     0.227 C 
ENDROOT
BRANCH   1   2
ATOM      2  C   UNL     1      24.156  21.112  13.722  1.00  0.00     0.253 C 
BRANCH   2   3
ATOM      3  N   UNL     1      25.524  21.219  13.203  1.00  0.00    -0.348 N 
ATOM      4  H   UNL     1      25.730  22.211  12.942  1.00  0.00     0.345 HD
ATOM      5  H   UNL     1      25.651  20.611  12.360  1.00  0.00     0.345 HD
ATOM      6  H   UNL     1      26.207  20.930  13.940  1.00  0.00     0.345 HD
ENDBRANCH   2   3
BRANCH   2   7
ATOM      7  C   UNL     1      23.544  19.799  13.312  1.00  0.00     0.102 C 
ATOM      8  O   UNL     1      22.688  19.244  14.049  1.00  0.00    -0.544 OA
ATOM      9  O   UNL     1      23.908  19.200  12.112  1.00  0.00    -0.544 OA
ENDBRANCH   2   7
ENDBRANCH   1   2
BRANCH   1  10
ATOM     10  O   UNL     1      22.140  21.795  12.564  1.00  0.00    -0.390 OA
ATOM     11  H   UNL     1      22.462  21.207  11.832  1.00  0.00     0.210 HD
ENDBRANCH   1  10
TORSDOF 4
ENDMDL
MODEL 9
REMARK VINA RESULT:    -3.253      4.397      4.786
REMARK INTER + INTRA:          -4.232
REMARK INTER:                  -3.993
REMARK INTRA:                  -0.239
REMARK UNBOUND:                -0.408
REMARK SMILES [NH3+][C@@H](CO)C(=O)[O-]
REMARK SMILES IDX 3 1 2 2 1 3 5 7 6 8 7 9 4 10
REMARK H PARENT 1 4 1 5 1 6 4 11
REMARK Flexibility Score: inf
ROOT
ATOM      1  C   UNL     1      23.278  21.403  15.360  1.00  0.00     0.227 C 
ENDROOT
BRANCH   1   2
ATOM      2  C   UNL     1      23.009  19.965  14.880  1.00  0.00     0.253 C 
BRANCH   2   3
ATOM      3  N   UNL     1      23.224  18.998  15.962  1.00  0.00    -0.348 N 
ATOM      4  H   UNL     1      23.733  19.455  16.753  1.00  0.00     0.345 HD
ATOM      5  H   UNL     1      23.783  18.180  15.624  1.00  0.00     0.345 HD
ATOM      6  H   UNL     1      22.303  18.659  16.323  1.00  0.00     0.345 HD
ENDBRANCH   2   3
BRANCH   2   7
ATOM      7  C   UNL     1      23.897  19.642  13.708  1.00  0.00     0.102 C 
ATOM      8  O   UNL     1      23.515  18.821  12.833  1.00  0.00    -0.544 OA
ATOM      9  O   UNL     1      25.136  20.257  13.576  1.00  0.00    -0.544 OA
ENDBRANCH   2   7
ENDBRANCH   1   2
BRANCH   1  10
ATOM     10  O   UNL     1      23.093  22.320  14.314  1.00  0.00    -0.390 OA
ATOM     11  H   UNL     1      23.527  21.926  13.512  1.00  0.00     0.210 HD
ENDBRANCH   1  10
TORSDOF 4
ENDMDL
