MODEL 1
REMARK VINA RESULT:    -7.107      0.000      0.000
REMARK INTER + INTRA:         -10.116
REMARK INTER:                 -10.015
REMARK INTRA:                  -0.101
REMARK UNBOUND:                -0.101
REMARK SMILES C[C@@H](CO)CCC(=O)[C@H](C)[C@H]1C(=O)C[C@@H]2[C@@H]3CC=C4C[C@@H](O)CC[C@@]4(C)[C@H]3CC[C@]21C
REMARK SMILES IDX 6 1 5 2 2 3 1 4 3 5 4 6 7 8 8 9 9 10 10 11 11 12 12 13 30 14
REMARK SMILES IDX 13 15 14 16 15 17 29 18 31 19 16 20 28 21 27 22 17 23 25 24
REMARK SMILES IDX 18 25 19 26 24 27 26 28 20 29 23 30 21 31 22 32
REMARK H PARENT 4 7 22 33
REMARK Flexibility Score: inf
ROOT
ATOM      1  C   UNL     1       2.750  40.145  12.111  1.00  0.00     0.076 C 
ENDROOT
BRANCH   1   2
ATOM      2  C   UNL     1       3.059  38.670  12.429  1.00  0.00     0.013 C 
BRANCH   2   3
ATOM      3  C   UNL     1       1.823  37.843  12.866  1.00  0.00     0.012 C 
ATOM      4  C   UNL     1       0.614  38.741  13.170  1.00  0.00     0.010 C 
BRANCH   3   5
ATOM      5  C   UNL     1       1.463  36.795  11.791  1.00  0.00     0.159 C 
BRANCH   5   6
ATOM      6  O   UNL     1       2.601  36.098  11.356  1.00  0.00    -0.396 OA
ATOM      7  H   UNL     1       2.581  35.213  11.804  1.00  0.00     0.210 HD
ENDBRANCH   5   6
ENDBRANCH   3   5
ENDBRANCH   2   3
ENDBRANCH   1   2
BRANCH   1   8
ATOM      8  C   UNL     1       3.934  41.066  12.359  1.00  0.00     0.136 C 
ATOM      9  O   UNL     1       4.881  40.619  12.990  1.00  0.00    -0.299 OA
BRANCH   8  10
ATOM     10  C   UNL     1       4.054  42.486  11.805  1.00  0.00     0.064 C 
ATOM     11  C   UNL     1       4.422  43.521  12.885  1.00  0.00     0.017 C 
BRANCH  10  12
ATOM     12  C   UNL     1       2.774  42.833  10.968  1.00  0.00     0.072 C 
ATOM     13  C   UNL     1       1.612  43.251  11.842  1.00  0.00     0.137 C 
ATOM     14  C   UNL     1       2.819  44.008   9.916  1.00  0.00    -0.019 C 
ATOM     15  O   UNL     1       1.060  42.497  12.628  1.00  0.00    -0.299 OA
ATOM     16  C   UNL     1       1.139  44.648  11.606  1.00  0.00     0.080 C 
ATOM     17  C   UNL     1       2.262  45.198  10.735  1.00  0.00     0.007 C 
ATOM     18  C   UNL     1       4.205  44.404   9.287  1.00  0.00     0.008 C 
ATOM     19  C   UNL     1       1.844  43.588   8.766  1.00  0.00     0.012 C 
ATOM     20  C   UNL     1       2.081  46.541   9.977  1.00  0.00     0.001 C 
ATOM     21  C   UNL     1       4.414  45.943   9.117  1.00  0.00     0.005 C 
ATOM     22  C   UNL     1       3.087  46.687   8.805  1.00  0.00     0.003 C 
ATOM     23  C   UNL     1       0.685  46.865   9.443  1.00  0.00     0.031 C 
ATOM     24  C   UNL     1       3.200  48.188   8.353  1.00  0.00    -0.008 C 
ATOM     25  C   UNL     1       0.693  48.261   8.871  1.00  0.00    -0.027 C 
ATOM     26  C   UNL     1       1.812  48.871   8.390  1.00  0.00    -0.065 C 
ATOM     27  C   UNL     1       4.164  48.992   9.275  1.00  0.00     0.014 C 
ATOM     28  C   UNL     1       3.731  48.223   6.893  1.00  0.00     0.016 C 
ATOM     29  C   UNL     1       1.765  50.359   8.118  1.00  0.00     0.063 C 
ATOM     30  C   UNL     1       4.127  50.514   9.028  1.00  0.00     0.033 C 
ATOM     31  C   UNL     1       2.701  51.088   9.096  1.00  0.00     0.118 C 
BRANCH  31  32
ATOM     32  O   UNL     1       2.215  50.978  10.410  1.00  0.00    -0.393 OA
ATOM     33  H   UNL     1       2.851  51.467  10.995  1.00  0.00     0.210 HD
ENDBRANCH  31  32
ENDBRANCH  10  12
ENDBRANCH   8  10
ENDBRANCH   1   8
TORSDOF 8
ENDMDL
MODEL 2
REMARK VINA RESULT:    -4.306      1.216      1.379
REMARK INTER + INTRA:          -6.169
REMARK INTER:                  -6.279
REMARK INTRA:                   0.110
REMARK UNBOUND:                -0.101
REMARK SMILES C[C@@H](CO)CCC(=O)[C@H](C)[C@H]1C(=O)C[C@@H]2[C@@H]3CC=C4C[C@@H](O)CC[C@@]4(C)[C@H]3CC[C@]21C
REMARK SMILES IDX 6 1 5 2 2 3 1 4 3 5 4 6 7 8 8 9 9 10 10 11 11 12 12 13 30 14
REMARK SMILES IDX 13 15 14 16 15 17 29 18 31 19 16 20 28 21 27 22 17 23 25 24
REMARK SMILES IDX 18 25 19 26 24 27 26 28 20 29 23 30 21 31 22 32
REMARK H PARENT 4 7 22 33
REMARK Flexibility Score: inf
ROOT
ATOM      1  C   UNL     1       3.581  40.299  12.978  1.00  0.00     0.076 C 
ENDROOT
BRANCH   1   2
ATOM      2  C   UNL     1       3.634  38.863  12.420  1.00  0.00     0.013 C 
BRANCH   2   3
ATOM      3  C   UNL     1       2.416  37.987  12.810  1.00  0.00     0.012 C 
ATOM      4  C   UNL     1       1.190  38.840  13.170  1.00  0.00     0.010 C 
BRANCH   3   5
ATOM      5  C   UNL     1       2.073  36.998  11.675  1.00  0.00     0.159 C 
BRANCH   5   6
ATOM      6  O   UNL     1       3.206  36.279  11.265  1.00  0.00    -0.396 OA
ATOM      7  H   UNL     1       3.012  35.322  11.434  1.00  0.00     0.210 HD
ENDBRANCH   5   6
ENDBRANCH   3   5
ENDBRANCH   2   3
ENDBRANCH   1   2
BRANCH   1   8
ATOM      8  C   UNL     1       2.923  41.281  12.024  1.00  0.00     0.136 C 
ATOM      9  O   UNL     1       2.971  41.035  10.827  1.00  0.00    -0.299 OA
BRANCH   8  10
ATOM     10  C   UNL     1       2.135  42.516  12.464  1.00  0.00     0.064 C 
ATOM     11  C   UNL     1       1.284  42.266  13.725  1.00  0.00     0.017 C 
BRANCH  10  12
ATOM     12  C   UNL     1       1.345  43.099  11.241  1.00  0.00     0.072 C 
ATOM     13  C   UNL     1       0.080  43.814  11.662  1.00  0.00     0.137 C 
ATOM     14  C   UNL     1       2.024  44.174  10.308  1.00  0.00    -0.019 C 
ATOM     15  O   UNL     1      -0.869  43.247  12.181  1.00  0.00    -0.299 OA
ATOM     16  C   UNL     1       0.055  45.267  11.317  1.00  0.00     0.080 C 
ATOM     17  C   UNL     1       1.506  45.502  10.914  1.00  0.00     0.007 C 
ATOM     18  C   UNL     1       3.594  44.212  10.219  1.00  0.00     0.008 C 
ATOM     19  C   UNL     1       1.443  43.925   8.876  1.00  0.00     0.012 C 
ATOM     20  C   UNL     1       1.915  46.808  10.182  1.00  0.00     0.001 C 
ATOM     21  C   UNL     1       4.197  45.653  10.180  1.00  0.00     0.005 C 
ATOM     22  C   UNL     1       3.272  46.660   9.444  1.00  0.00     0.003 C 
ATOM     23  C   UNL     1       0.909  47.410   9.201  1.00  0.00     0.031 C 
ATOM     24  C   UNL     1       3.878  48.070   9.106  1.00  0.00    -0.008 C 
ATOM     25  C   UNL     1       1.436  48.735   8.710  1.00  0.00    -0.027 C 
ATOM     26  C   UNL     1       2.761  49.051   8.672  1.00  0.00    -0.065 C 
ATOM     27  C   UNL     1       4.617  48.684  10.332  1.00  0.00     0.014 C 
ATOM     28  C   UNL     1       4.878  47.906   7.929  1.00  0.00     0.016 C 
ATOM     29  C   UNL     1       3.156  50.493   8.446  1.00  0.00     0.063 C 
ATOM     30  C   UNL     1       5.020  50.160  10.134  1.00  0.00     0.033 C 
ATOM     31  C   UNL     1       3.833  51.043   9.712  1.00  0.00     0.118 C 
BRANCH  31  32
ATOM     32  O   UNL     1       2.907  51.117  10.767  1.00  0.00    -0.393 OA
ATOM     33  H   UNL     1       2.498  50.217  10.857  1.00  0.00     0.210 HD
ENDBRANCH  31  32
ENDBRANCH  10  12
ENDBRANCH   8  10
ENDBRANCH   1   8
TORSDOF 8
ENDMDL
