MODEL 1
REMARK VINA RESULT:    -3.354      0.000      0.000
REMARK INTER + INTRA:          -4.039
REMARK INTER:                  -3.943
REMARK INTRA:                  -0.097
REMARK UNBOUND:                -0.097
REMARK SMILES CCCCC(=O)[O-]
REMARK SMILES IDX 4 1 5 2 6 3 7 4 3 5 2 6 1 7
REMARK H PARENT
REMARK Flexibility Score: inf
ROOT
ATOM      1  C   UNL     1     -35.651  -4.444  -0.802  1.00  0.00     0.053 C 
ENDROOT
BRANCH   1   2
ATOM      2  C   UNL     1     -35.455  -3.297   0.140  1.00  0.00     0.041 C 
ATOM      3  O   UNL     1     -36.214  -3.157   1.133  1.00  0.00    -0.550 OA
ATOM      4  O   UNL     1     -34.464  -2.356  -0.109  1.00  0.00    -0.550 OA
ENDBRANCH   1   2
BRANCH   1   5
ATOM      5  C   UNL     1     -34.312  -5.121  -1.107  1.00  0.00     0.006 C 
BRANCH   5   6
ATOM      6  C   UNL     1     -34.086  -5.236  -2.619  1.00  0.00    -0.003 C 
ATOM      7  C   UNL     1     -33.182  -4.117  -3.128  1.00  0.00     0.004 C 
ENDBRANCH   5   6
ENDBRANCH   1   5
TORSDOF 3
ENDMDL
MODEL 2
REMARK VINA RESULT:    -3.329      0.675      1.223
REMARK INTER + INTRA:          -4.010
REMARK INTER:                  -3.977
REMARK INTRA:                  -0.033
REMARK UNBOUND:                -0.097
REMARK SMILES CCCCC(=O)[O-]
REMARK SMILES IDX 4 1 5 2 6 3 7 4 3 5 2 6 1 7
REMARK H PARENT
REMARK Flexibility Score: inf
ROOT
ATOM      1  C   UNL     1     -35.733  -4.589  -0.773  1.00  0.00     0.053 C 
ENDROOT
BRANCH   1   2
ATOM      2  C   UNL     1     -35.715  -3.663   0.403  1.00  0.00     0.041 C 
ATOM      3  O   UNL     1     -34.631  -3.399   0.984  1.00  0.00    -0.550 OA
ATOM      4  O   UNL     1     -36.903  -3.129   0.885  1.00  0.00    -0.550 OA
ENDBRANCH   1   2
BRANCH   1   5
ATOM      5  C   UNL     1     -34.308  -5.018  -1.138  1.00  0.00     0.006 C 
BRANCH   5   6
ATOM      6  C   UNL     1     -34.142  -5.132  -2.658  1.00  0.00    -0.003 C 
ATOM      7  C   UNL     1     -33.061  -4.181  -3.166  1.00  0.00     0.004 C 
ENDBRANCH   5   6
ENDBRANCH   1   5
TORSDOF 3
ENDMDL
MODEL 3
REMARK VINA RESULT:    -3.314      0.834      1.257
REMARK INTER + INTRA:          -3.992
REMARK INTER:                  -3.891
REMARK INTRA:                  -0.101
REMARK UNBOUND:                -0.097
REMARK SMILES CCCCC(=O)[O-]
REMARK SMILES IDX 4 1 5 2 6 3 7 4 3 5 2 6 1 7
REMARK H PARENT
REMARK Flexibility Score: inf
ROOT
ATOM      1  C   UNL     1     -35.290  -4.225  -0.630  1.00  0.00     0.053 C 
ENDROOT
BRANCH   1   2
ATOM      2  C   UNL     1     -34.705  -3.042   0.075  1.00  0.00     0.041 C 
ATOM      3  O   UNL     1     -34.502  -1.969  -0.550  1.00  0.00    -0.550 OA
ATOM      4  O   UNL     1     -34.340  -3.141   1.412  1.00  0.00    -0.550 OA
ENDBRANCH   1   2
BRANCH   1   5
ATOM      5  C   UNL     1     -34.179  -5.138  -1.157  1.00  0.00     0.006 C 
BRANCH   5   6
ATOM      6  C   UNL     1     -34.132  -5.118  -2.689  1.00  0.00    -0.003 C 
ATOM      7  C   UNL     1     -32.989  -4.241  -3.194  1.00  0.00     0.004 C 
ENDBRANCH   5   6
ENDBRANCH   1   5
TORSDOF 3
ENDMDL
MODEL 4
REMARK VINA RESULT:    -3.121     13.832     14.747
REMARK INTER + INTRA:          -3.765
REMARK INTER:                  -3.729
REMARK INTRA:                  -0.036
REMARK UNBOUND:                -0.097
REMARK SMILES CCCCC(=O)[O-]
REMARK SMILES IDX 4 1 5 2 6 3 7 4 3 5 2 6 1 7
REMARK H PARENT
REMARK Flexibility Score: inf
ROOT
ATOM      1  C   UNL     1     -22.633  -3.891  -9.361  1.00  0.00     0.053 C 
ENDROOT
BRANCH   1   2
ATOM      2  C   UNL     1     -23.766  -4.863  -9.245  1.00  0.00     0.041 C 
ATOM      3  O   UNL     1     -24.848  -4.649  -9.850  1.00  0.00    -0.550 OA
ATOM      4  O   UNL     1     -23.640  -5.981  -8.430  1.00  0.00    -0.550 OA
ENDBRANCH   1   2
BRANCH   1   5
ATOM      5  C   UNL     1     -22.962  -2.806 -10.392  1.00  0.00     0.006 C 
BRANCH   5   6
ATOM      6  C   UNL     1     -22.611  -1.415  -9.854  1.00  0.00    -0.003 C 
ATOM      7  C   UNL     1     -22.850  -0.339 -10.911  1.00  0.00     0.004 C 
ENDBRANCH   5   6
ENDBRANCH   1   5
TORSDOF 3
ENDMDL
MODEL 5
REMARK VINA RESULT:    -3.035      2.394      3.565
REMARK INTER + INTRA:          -3.664
REMARK INTER:                  -3.559
REMARK INTRA:                  -0.105
REMARK UNBOUND:                -0.097
REMARK SMILES CCCCC(=O)[O-]
REMARK SMILES IDX 4 1 5 2 6 3 7 4 3 5 2 6 1 7
REMARK H PARENT
REMARK Flexibility Score: inf
ROOT
ATOM      1  C   UNL     1     -34.520  -3.311  -1.315  1.00  0.00     0.053 C 
ENDROOT
BRANCH   1   2
ATOM      2  C   UNL     1     -33.779  -4.350  -2.098  1.00  0.00     0.041 C 
ATOM      3  O   UNL     1     -33.766  -5.547  -1.709  1.00  0.00    -0.550 OA
ATOM      4  O   UNL     1     -33.064  -3.986  -3.232  1.00  0.00    -0.550 OA
ENDBRANCH   1   2
BRANCH   1   5
ATOM      5  C   UNL     1     -34.808  -3.814   0.103  1.00  0.00     0.006 C 
BRANCH   5   6
ATOM      6  C   UNL     1     -36.301  -3.706   0.432  1.00  0.00    -0.003 C 
ATOM      7  C   UNL     1     -37.125  -4.658  -0.431  1.00  0.00     0.004 C 
ENDBRANCH   5   6
ENDBRANCH   1   5
TORSDOF 3
ENDMDL
MODEL 6
REMARK VINA RESULT:    -3.005     14.204     14.752
REMARK INTER + INTRA:          -3.628
REMARK INTER:                  -3.606
REMARK INTRA:                  -0.023
REMARK UNBOUND:                -0.097
REMARK SMILES CCCCC(=O)[O-]
REMARK SMILES IDX 4 1 5 2 6 3 7 4 3 5 2 6 1 7
REMARK H PARENT
REMARK Flexibility Score: inf
ROOT
ATOM      1  C   UNL     1     -23.524   0.545 -10.121  1.00  0.00     0.053 C 
ENDROOT
BRANCH   1   2
ATOM      2  C   UNL     1     -24.146   1.390  -9.054  1.00  0.00     0.041 C 
ATOM      3  O   UNL     1     -24.368   2.611  -9.263  1.00  0.00    -0.550 OA
ATOM      4  O   UNL     1     -24.436   0.839  -7.812  1.00  0.00    -0.550 OA
ENDBRANCH   1   2
BRANCH   1   5
ATOM      5  C   UNL     1     -22.842  -0.680  -9.504  1.00  0.00     0.006 C 
BRANCH   5   6
ATOM      6  C   UNL     1     -22.704  -1.808 -10.533  1.00  0.00    -0.003 C 
ATOM      7  C   UNL     1     -22.876  -3.176  -9.878  1.00  0.00     0.004 C 
ENDBRANCH   5   6
ENDBRANCH   1   5
TORSDOF 3
ENDMDL
MODEL 7
REMARK VINA RESULT:    -2.876      2.547      4.038
REMARK INTER + INTRA:          -3.478
REMARK INTER:                  -3.440
REMARK INTRA:                  -0.038
REMARK UNBOUND:                -0.097
REMARK SMILES CCCCC(=O)[O-]
REMARK SMILES IDX 4 1 5 2 6 3 7 4 3 5 2 6 1 7
REMARK H PARENT
REMARK Flexibility Score: inf
ROOT
ATOM      1  C   UNL     1     -33.664  -3.719  -1.120  1.00  0.00     0.053 C 
ENDROOT
BRANCH   1   2
ATOM      2  C   UNL     1     -33.567  -4.417  -2.441  1.00  0.00     0.041 C 
ATOM      3  O   UNL     1     -32.696  -4.069  -3.279  1.00  0.00    -0.550 OA
ATOM      4  O   UNL     1     -34.473  -5.420  -2.764  1.00  0.00    -0.550 OA
ENDBRANCH   1   2
BRANCH   1   5
ATOM      5  C   UNL     1     -35.127  -3.428  -0.774  1.00  0.00     0.006 C 
BRANCH   5   6
ATOM      6  C   UNL     1     -35.443  -3.843   0.667  1.00  0.00    -0.003 C 
ATOM      7  C   UNL     1     -36.946  -3.814   0.933  1.00  0.00     0.004 C 
ENDBRANCH   5   6
ENDBRANCH   1   5
TORSDOF 3
ENDMDL
MODEL 8
REMARK VINA RESULT:    -2.659     12.131     12.975
REMARK INTER + INTRA:          -3.223
REMARK INTER:                  -3.196
REMARK INTRA:                  -0.026
REMARK UNBOUND:                -0.097
REMARK SMILES CCCCC(=O)[O-]
REMARK SMILES IDX 4 1 5 2 6 3 7 4 3 5 2 6 1 7
REMARK H PARENT
REMARK Flexibility Score: inf
ROOT
ATOM      1  C   UNL     1     -35.898   7.827  -3.333  1.00  0.00     0.053 C 
ENDROOT
BRANCH   1   2
ATOM      2  C   UNL     1     -35.710   7.289  -1.949  1.00  0.00     0.041 C 
ATOM      3  O   UNL     1     -34.601   6.804  -1.604  1.00  0.00    -0.550 OA
ATOM      4  O   UNL     1     -36.774   7.281  -1.056  1.00  0.00    -0.550 OA
ENDBRANCH   1   2
BRANCH   1   5
ATOM      5  C   UNL     1     -35.134   9.144  -3.504  1.00  0.00     0.006 C 
BRANCH   5   6
ATOM      6  C   UNL     1     -35.896  10.104  -4.425  1.00  0.00    -0.003 C 
ATOM      7  C   UNL     1     -36.696  11.123  -3.617  1.00  0.00     0.004 C 
ENDBRANCH   5   6
ENDBRANCH   1   5
TORSDOF 3
ENDMDL
MODEL 9
REMARK VINA RESULT:    -2.588     13.541     14.313
REMARK INTER + INTRA:          -3.139
REMARK INTER:                  -3.009
REMARK INTRA:                  -0.130
REMARK UNBOUND:                -0.097
REMARK SMILES CCCCC(=O)[O-]
REMARK SMILES IDX 4 1 5 2 6 3 7 4 3 5 2 6 1 7
REMARK H PARENT
REMARK Flexibility Score: inf
ROOT
ATOM      1  C   UNL     1     -24.358   1.398 -10.071  1.00  0.00     0.053 C 
ENDROOT
BRANCH   1   2
ATOM      2  C   UNL     1     -24.156   1.674  -8.614  1.00  0.00     0.041 C 
ATOM      3  O   UNL     1     -24.335   0.762  -7.766  1.00  0.00    -0.550 OA
ATOM      4  O   UNL     1     -23.816   2.952  -8.191  1.00  0.00    -0.550 OA
ENDBRANCH   1   2
BRANCH   1   5
ATOM      5  C   UNL     1     -25.421   2.336 -10.652  1.00  0.00     0.006 C 
BRANCH   5   6
ATOM      6  C   UNL     1     -26.793   2.065 -10.025  1.00  0.00    -0.003 C 
ATOM      7  C   UNL     1     -27.340   3.313  -9.337  1.00  0.00     0.004 C 
ENDBRANCH   5   6
ENDBRANCH   1   5
TORSDOF 3
ENDMDL
