MODEL 1
REMARK VINA RESULT:    -3.909      0.000      0.000
REMARK INTER + INTRA:          -4.288
REMARK INTER:                  -4.252
REMARK INTRA:                  -0.036
REMARK UNBOUND:                -0.036
REMARK SMILES O=C([O-])c1ccc(O)cc1
REMARK SMILES IDX 4 1 5 2 10 3 6 4 9 5 7 6 2 7 1 8 3 9 8 10
REMARK H PARENT 8 11
REMARK Flexibility Score: inf
ROOT
ATOM      1  C   UNL     1      40.596 186.439  32.693  1.00  0.00    -0.003 A 
ATOM      2  C   UNL     1      41.129 185.878  31.518  1.00  0.00     0.014 A 
ATOM      3  C   UNL     1      39.269 186.906  32.683  1.00  0.00     0.014 A 
ATOM      4  C   UNL     1      40.350 185.787  30.360  1.00  0.00     0.047 A 
ATOM      5  C   UNL     1      38.494 186.813  31.524  1.00  0.00     0.047 A 
ATOM      6  C   UNL     1      39.032 186.252  30.358  1.00  0.00     0.115 A 
ENDROOT
BRANCH   1   7
ATOM      7  C   UNL     1      41.414 186.538  33.921  1.00  0.00     0.071 C 
ATOM      8  O   UNL     1      42.609 186.138  33.929  1.00  0.00    -0.545 OA
ATOM      9  O   UNL     1      40.877 187.076  35.084  1.00  0.00    -0.545 OA
ENDBRANCH   1   7
BRANCH   6  10
ATOM     10  O   UNL     1      38.268 186.155  29.198  1.00  0.00    -0.508 OA
ATOM     11  H   UNL     1      38.328 186.853  28.465  1.00  0.00     0.293 HD
ENDBRANCH   6  10
TORSDOF 2
ENDMDL
MODEL 2
REMARK VINA RESULT:    -3.848      0.253      1.855
REMARK INTER + INTRA:          -4.222
REMARK INTER:                  -4.186
REMARK INTRA:                  -0.036
REMARK UNBOUND:                -0.036
REMARK SMILES O=C([O-])c1ccc(O)cc1
REMARK SMILES IDX 4 1 5 2 10 3 6 4 9 5 7 6 2 7 1 8 3 9 8 10
REMARK H PARENT 8 11
REMARK Flexibility Score: inf
ROOT
ATOM      1  C   UNL     1      40.684 186.269  32.811  1.00  0.00    -0.003 A 
ATOM      2  C   UNL     1      39.341 186.686  32.842  1.00  0.00     0.014 A 
ATOM      3  C   UNL     1      41.228 185.814  31.596  1.00  0.00     0.014 A 
ATOM      4  C   UNL     1      38.560 186.649  31.682  1.00  0.00     0.047 A 
ATOM      5  C   UNL     1      40.444 185.778  30.439  1.00  0.00     0.047 A 
ATOM      6  C   UNL     1      39.108 186.197  30.479  1.00  0.00     0.115 A 
ENDROOT
BRANCH   1   7
ATOM      7  C   UNL     1      41.516 186.306  34.034  1.00  0.00     0.071 C 
ATOM      8  O   UNL     1      41.086 186.854  35.084  1.00  0.00    -0.545 OA
ATOM      9  O   UNL     1      42.783 185.737  34.042  1.00  0.00    -0.545 OA
ENDBRANCH   1   7
BRANCH   6  10
ATOM     10  O   UNL     1      38.318 186.165  29.332  1.00  0.00    -0.508 OA
ATOM     11  H   UNL     1      37.441 185.659  29.307  1.00  0.00     0.293 HD
ENDBRANCH   6  10
TORSDOF 2
ENDMDL
MODEL 3
REMARK VINA RESULT:    -3.831      2.119      4.529
REMARK INTER + INTRA:          -4.203
REMARK INTER:                  -4.176
REMARK INTRA:                  -0.028
REMARK UNBOUND:                -0.036
REMARK SMILES O=C([O-])c1ccc(O)cc1
REMARK SMILES IDX 4 1 5 2 10 3 6 4 9 5 7 6 2 7 1 8 3 9 8 10
REMARK H PARENT 8 11
REMARK Flexibility Score: inf
ROOT
ATOM      1  C   UNL     1      41.104 185.276  32.278  1.00  0.00    -0.003 A 
ATOM      2  C   UNL     1      41.802 184.068  32.098  1.00  0.00     0.014 A 
ATOM      3  C   UNL     1      41.490 186.137  33.321  1.00  0.00     0.014 A 
ATOM      4  C   UNL     1      42.862 183.730  32.946  1.00  0.00     0.047 A 
ATOM      5  C   UNL     1      42.550 185.796  34.165  1.00  0.00     0.047 A 
ATOM      6  C   UNL     1      43.240 184.591  33.979  1.00  0.00     0.115 A 
ENDROOT
BRANCH   1   7
ATOM      7  C   UNL     1      39.982 185.640  31.385  1.00  0.00     0.071 C 
ATOM      8  O   UNL     1      40.193 185.932  30.177  1.00  0.00    -0.545 OA
ATOM      9  O   UNL     1      38.678 185.663  31.865  1.00  0.00    -0.545 OA
ENDBRANCH   1   7
BRANCH   6  10
ATOM     10  O   UNL     1      44.298 184.241  34.815  1.00  0.00    -0.508 OA
ATOM     11  H   UNL     1      45.197 183.959  34.442  1.00  0.00     0.293 HD
ENDBRANCH   6  10
TORSDOF 2
ENDMDL
MODEL 4
REMARK VINA RESULT:    -3.804      2.208      3.246
REMARK INTER + INTRA:          -4.174
REMARK INTER:                  -4.145
REMARK INTRA:                  -0.029
REMARK UNBOUND:                -0.036
REMARK SMILES O=C([O-])c1ccc(O)cc1
REMARK SMILES IDX 4 1 5 2 10 3 6 4 9 5 7 6 2 7 1 8 3 9 8 10
REMARK H PARENT 8 11
REMARK Flexibility Score: inf
ROOT
ATOM      1  C   UNL     1      42.615 184.907  33.182  1.00  0.00    -0.003 A 
ATOM      2  C   UNL     1      42.382 186.239  33.571  1.00  0.00     0.014 A 
ATOM      3  C   UNL     1      41.861 184.365  32.125  1.00  0.00     0.014 A 
ATOM      4  C   UNL     1      41.417 187.010  32.915  1.00  0.00     0.047 A 
ATOM      5  C   UNL     1      40.897 185.139  31.472  1.00  0.00     0.047 A 
ATOM      6  C   UNL     1      40.673 186.465  31.866  1.00  0.00     0.115 A 
ENDROOT
BRANCH   1   7
ATOM      7  C   UNL     1      43.635 184.086  33.871  1.00  0.00     0.071 C 
ATOM      8  O   UNL     1      43.533 183.838  35.102  1.00  0.00    -0.545 OA
ATOM      9  O   UNL     1      44.719 183.575  33.169  1.00  0.00    -0.545 OA
ENDBRANCH   1   7
BRANCH   6  10
ATOM     10  O   UNL     1      39.715 187.245  31.222  1.00  0.00    -0.508 OA
ATOM     11  H   UNL     1      39.868 187.608  30.289  1.00  0.00     0.293 HD
ENDBRANCH   6  10
TORSDOF 2
ENDMDL
MODEL 5
REMARK VINA RESULT:    -3.794      2.201      3.055
REMARK INTER + INTRA:          -4.163
REMARK INTER:                  -4.134
REMARK INTRA:                  -0.029
REMARK UNBOUND:                -0.036
REMARK SMILES O=C([O-])c1ccc(O)cc1
REMARK SMILES IDX 4 1 5 2 10 3 6 4 9 5 7 6 2 7 1 8 3 9 8 10
REMARK H PARENT 8 11
REMARK Flexibility Score: inf
ROOT
ATOM      1  C   UNL     1      42.576 184.886  33.175  1.00  0.00    -0.003 A 
ATOM      2  C   UNL     1      41.818 184.337  32.124  1.00  0.00     0.014 A 
ATOM      3  C   UNL     1      42.365 186.228  33.538  1.00  0.00     0.014 A 
ATOM      4  C   UNL     1      40.870 185.117  31.453  1.00  0.00     0.047 A 
ATOM      5  C   UNL     1      41.416 187.004  32.865  1.00  0.00     0.047 A 
ATOM      6  C   UNL     1      40.665 186.449  31.820  1.00  0.00     0.115 A 
ENDROOT
BRANCH   1   7
ATOM      7  C   UNL     1      43.580 184.068  33.889  1.00  0.00     0.071 C 
ATOM      8  O   UNL     1      43.466 183.849  35.125  1.00  0.00    -0.545 OA
ATOM      9  O   UNL     1      44.663 183.527  33.207  1.00  0.00    -0.545 OA
ENDBRANCH   1   7
BRANCH   6  10
ATOM     10  O   UNL     1      39.718 187.213  31.142  1.00  0.00    -0.508 OA
ATOM     11  H   UNL     1      38.751 186.919  31.076  1.00  0.00     0.293 HD
ENDBRANCH   6  10
TORSDOF 2
ENDMDL
MODEL 6
REMARK VINA RESULT:    -3.713      1.055      4.355
REMARK INTER + INTRA:          -4.075
REMARK INTER:                  -4.045
REMARK INTRA:                  -0.029
REMARK UNBOUND:                -0.036
REMARK SMILES O=C([O-])c1ccc(O)cc1
REMARK SMILES IDX 4 1 5 2 10 3 6 4 9 5 7 6 2 7 1 8 3 9 8 10
REMARK H PARENT 8 11
REMARK Flexibility Score: inf
ROOT
ATOM      1  C   UNL     1      39.394 186.235  31.528  1.00  0.00    -0.003 A 
ATOM      2  C   UNL     1      39.315 186.778  32.824  1.00  0.00     0.014 A 
ATOM      3  C   UNL     1      40.642 185.802  31.047  1.00  0.00     0.014 A 
ATOM      4  C   UNL     1      40.461 186.884  33.618  1.00  0.00     0.047 A 
ATOM      5  C   UNL     1      41.786 185.910  31.843  1.00  0.00     0.047 A 
ATOM      6  C   UNL     1      41.698 186.451  33.133  1.00  0.00     0.115 A 
ENDROOT
BRANCH   1   7
ATOM      7  C   UNL     1      38.186 186.119  30.683  1.00  0.00     0.071 C 
ATOM      8  O   UNL     1      38.142 186.666  29.549  1.00  0.00    -0.545 OA
ATOM      9  O   UNL     1      37.081 185.402  31.127  1.00  0.00    -0.545 OA
ENDBRANCH   1   7
BRANCH   6  10
ATOM     10  O   UNL     1      42.831 186.564  33.935  1.00  0.00    -0.508 OA
ATOM     11  H   UNL     1      42.890 186.103  34.835  1.00  0.00     0.293 HD
ENDBRANCH   6  10
TORSDOF 2
ENDMDL
MODEL 7
REMARK VINA RESULT:    -3.544      2.060      3.829
REMARK INTER + INTRA:          -3.891
REMARK INTER:                  -3.855
REMARK INTRA:                  -0.036
REMARK UNBOUND:                -0.036
REMARK SMILES O=C([O-])c1ccc(O)cc1
REMARK SMILES IDX 4 1 5 2 10 3 6 4 9 5 7 6 2 7 1 8 3 9 8 10
REMARK H PARENT 8 11
REMARK Flexibility Score: inf
ROOT
ATOM      1  C   UNL     1      40.937 186.437  32.580  1.00  0.00    -0.003 A 
ATOM      2  C   UNL     1      40.729 185.320  31.750  1.00  0.00     0.014 A 
ATOM      3  C   UNL     1      41.969 186.394  33.534  1.00  0.00     0.014 A 
ATOM      4  C   UNL     1      41.537 184.185  31.874  1.00  0.00     0.047 A 
ATOM      5  C   UNL     1      42.775 185.257  33.656  1.00  0.00     0.047 A 
ATOM      6  C   UNL     1      42.561 184.150  32.824  1.00  0.00     0.115 A 
ENDROOT
BRANCH   1   7
ATOM      7  C   UNL     1      40.086 187.641  32.454  1.00  0.00     0.071 C 
ATOM      8  O   UNL     1      40.348 188.682  33.113  1.00  0.00    -0.545 OA
ATOM      9  O   UNL     1      38.987 187.641  31.604  1.00  0.00    -0.545 OA
ENDBRANCH   1   7
BRANCH   6  10
ATOM     10  O   UNL     1      43.357 183.013  32.937  1.00  0.00    -0.508 OA
ATOM     11  H   UNL     1      44.365 183.078  33.012  1.00  0.00     0.293 HD
ENDBRANCH   6  10
TORSDOF 2
ENDMDL
MODEL 8
REMARK VINA RESULT:    -3.442      2.501      4.220
REMARK INTER + INTRA:          -3.779
REMARK INTER:                  -3.751
REMARK INTRA:                  -0.029
REMARK UNBOUND:                -0.036
REMARK SMILES O=C([O-])c1ccc(O)cc1
REMARK SMILES IDX 4 1 5 2 10 3 6 4 9 5 7 6 2 7 1 8 3 9 8 10
REMARK H PARENT 8 11
REMARK Flexibility Score: inf
ROOT
ATOM      1  C   UNL     1      37.731 185.500  31.772  1.00  0.00    -0.003 A 
ATOM      2  C   UNL     1      38.745 185.174  32.691  1.00  0.00     0.014 A 
ATOM      3  C   UNL     1      38.084 186.111  30.555  1.00  0.00     0.014 A 
ATOM      4  C   UNL     1      40.084 185.454  32.396  1.00  0.00     0.047 A 
ATOM      5  C   UNL     1      39.423 186.389  30.265  1.00  0.00     0.047 A 
ATOM      6  C   UNL     1      40.427 186.061  31.185  1.00  0.00     0.115 A 
ENDROOT
BRANCH   1   7
ATOM      7  C   UNL     1      36.313 185.206  32.077  1.00  0.00     0.071 C 
ATOM      8  O   UNL     1      35.749 185.736  33.071  1.00  0.00    -0.545 OA
ATOM      9  O   UNL     1      35.583 184.343  31.268  1.00  0.00    -0.545 OA
ENDBRANCH   1   7
BRANCH   6  10
ATOM     10  O   UNL     1      41.764 186.334  30.906  1.00  0.00    -0.508 OA
ATOM     11  H   UNL     1      42.493 185.656  31.094  1.00  0.00     0.293 HD
ENDBRANCH   6  10
TORSDOF 2
ENDMDL
MODEL 9
REMARK VINA RESULT:    -3.413      7.065      8.246
REMARK INTER + INTRA:          -3.749
REMARK INTER:                  -3.719
REMARK INTRA:                  -0.029
REMARK UNBOUND:                -0.036
REMARK SMILES O=C([O-])c1ccc(O)cc1
REMARK SMILES IDX 4 1 5 2 10 3 6 4 9 5 7 6 2 7 1 8 3 9 8 10
REMARK H PARENT 8 11
REMARK Flexibility Score: inf
ROOT
ATOM      1  C   UNL     1      33.652 181.422  32.021  1.00  0.00    -0.003 A 
ATOM      2  C   UNL     1      32.929 181.807  30.877  1.00  0.00     0.014 A 
ATOM      3  C   UNL     1      34.912 182.000  32.256  1.00  0.00     0.014 A 
ATOM      4  C   UNL     1      33.457 182.750  29.989  1.00  0.00     0.047 A 
ATOM      5  C   UNL     1      35.437 182.942  31.366  1.00  0.00     0.047 A 
ATOM      6  C   UNL     1      34.710 183.321  30.230  1.00  0.00     0.115 A 
ENDROOT
BRANCH   1   7
ATOM      7  C   UNL     1      33.099 180.426  32.964  1.00  0.00     0.071 C 
ATOM      8  O   UNL     1      33.736 179.372  33.230  1.00  0.00    -0.545 OA
ATOM      9  O   UNL     1      31.868 180.639  33.573  1.00  0.00    -0.545 OA
ENDBRANCH   1   7
BRANCH   6  10
ATOM     10  O   UNL     1      35.223 184.258  29.337  1.00  0.00    -0.508 OA
ATOM     11  H   UNL     1      34.773 185.155  29.195  1.00  0.00     0.293 HD
ENDBRANCH   6  10
TORSDOF 2
ENDMDL
