MODEL 1
REMARK VINA RESULT:    -3.851      0.000      0.000
REMARK INTER + INTRA:          -5.468
REMARK INTER:                  -5.202
REMARK INTRA:                  -0.266
REMARK UNBOUND:                -0.266
REMARK SMILES CCCCCCCC(=O)[O-]
REMARK SMILES IDX 5 1 6 2 7 3 8 4 9 5 10 6 4 7 3 8 2 9 1 10
REMARK H PARENT
REMARK Flexibility Score: inf
ROOT
ATOM      1  C   UNL     1       6.469  -8.120   4.801  1.00  0.00     0.000 C 
ENDROOT
BRANCH   1   2
ATOM      2  C   UNL     1       5.725  -8.477   3.505  1.00  0.00     0.006 C 
BRANCH   2   3
ATOM      3  C   UNL     1       4.704  -9.603   3.714  1.00  0.00     0.053 C 
BRANCH   3   4
ATOM      4  C   UNL     1       3.611  -9.558   2.690  1.00  0.00     0.041 C 
ATOM      5  O   UNL     1       2.865 -10.558   2.515  1.00  0.00    -0.550 OA
ATOM      6  O   UNL     1       3.393  -8.401   1.953  1.00  0.00    -0.550 OA
ENDBRANCH   3   4
ENDBRANCH   2   3
ENDBRANCH   1   2
BRANCH   1   7
ATOM      7  C   UNL     1       5.842  -8.827   6.008  1.00  0.00     0.000 C 
BRANCH   7   8
ATOM      8  C   UNL     1       5.908  -7.940   7.260  1.00  0.00    -0.000 C 
BRANCH   8   9
ATOM      9  C   UNL     1       7.159  -7.050   7.290  1.00  0.00    -0.003 C 
ATOM     10  C   UNL     1       7.074  -5.944   8.342  1.00  0.00     0.004 C 
ENDBRANCH   8   9
ENDBRANCH   7   8
ENDBRANCH   1   7
TORSDOF 6
ENDMDL
MODEL 2
REMARK VINA RESULT:    -3.832      1.653      2.504
REMARK INTER + INTRA:          -5.442
REMARK INTER:                  -4.932
REMARK INTRA:                  -0.510
REMARK UNBOUND:                -0.266
REMARK SMILES CCCCCCCC(=O)[O-]
REMARK SMILES IDX 5 1 6 2 7 3 8 4 9 5 10 6 4 7 3 8 2 9 1 10
REMARK H PARENT
REMARK Flexibility Score: inf
ROOT
ATOM      1  C   UNL     1       4.665  -9.768   6.649  1.00  0.00     0.000 C 
ENDROOT
BRANCH   1   2
ATOM      2  C   UNL     1       3.729 -10.093   5.475  1.00  0.00     0.006 C 
BRANCH   2   3
ATOM      3  C   UNL     1       4.451 -10.835   4.344  1.00  0.00     0.053 C 
BRANCH   3   4
ATOM      4  C   UNL     1       3.979 -10.387   2.995  1.00  0.00     0.041 C 
ATOM      5  O   UNL     1       4.768  -9.798   2.209  1.00  0.00    -0.550 OA
ATOM      6  O   UNL     1       2.676 -10.652   2.590  1.00  0.00    -0.550 OA
ENDBRANCH   3   4
ENDBRANCH   2   3
ENDBRANCH   1   2
BRANCH   1   7
ATOM      7  C   UNL     1       6.093 -10.249   6.362  1.00  0.00     0.000 C 
BRANCH   7   8
ATOM      8  C   UNL     1       7.091  -9.083   6.434  1.00  0.00    -0.000 C 
BRANCH   8   9
ATOM      9  C   UNL     1       6.573  -7.817   5.736  1.00  0.00    -0.003 C 
ATOM     10  C   UNL     1       6.770  -7.855   4.220  1.00  0.00     0.004 C 
ENDBRANCH   8   9
ENDBRANCH   7   8
ENDBRANCH   1   7
TORSDOF 6
ENDMDL
MODEL 3
REMARK VINA RESULT:    -3.758     21.674     22.806
REMARK INTER + INTRA:          -5.342
REMARK INTER:                  -5.087
REMARK INTRA:                  -0.255
REMARK UNBOUND:                -0.266
REMARK SMILES CCCCCCCC(=O)[O-]
REMARK SMILES IDX 5 1 6 2 7 3 8 4 9 5 10 6 4 7 3 8 2 9 1 10
REMARK H PARENT
REMARK Flexibility Score: inf
ROOT
ATOM      1  C   UNL     1      -5.792   4.448  -9.467  1.00  0.00     0.000 C 
ENDROOT
BRANCH   1   2
ATOM      2  C   UNL     1      -5.235   5.622  -8.646  1.00  0.00     0.006 C 
BRANCH   2   3
ATOM      3  C   UNL     1      -5.175   6.922  -9.458  1.00  0.00     0.053 C 
BRANCH   3   4
ATOM      4  C   UNL     1      -5.065   8.125  -8.573  1.00  0.00     0.041 C 
ATOM      5  O   UNL     1      -6.065   8.527  -7.921  1.00  0.00    -0.550 OA
ATOM      6  O   UNL     1      -3.848   8.783  -8.441  1.00  0.00    -0.550 OA
ENDBRANCH   3   4
ENDBRANCH   2   3
ENDBRANCH   1   2
BRANCH   1   7
ATOM      7  C   UNL     1      -5.263   3.109  -8.940  1.00  0.00     0.000 C 
BRANCH   7   8
ATOM      8  C   UNL     1      -6.365   2.039  -8.952  1.00  0.00    -0.000 C 
BRANCH   8   9
ATOM      9  C   UNL     1      -7.776   2.644  -8.992  1.00  0.00    -0.003 C 
ATOM     10  C   UNL     1      -8.516   2.506  -7.661  1.00  0.00     0.004 C 
ENDBRANCH   8   9
ENDBRANCH   7   8
ENDBRANCH   1   7
TORSDOF 6
ENDMDL
MODEL 4
REMARK VINA RESULT:    -3.681     21.322     22.031
REMARK INTER + INTRA:          -5.238
REMARK INTER:                  -4.829
REMARK INTRA:                  -0.409
REMARK UNBOUND:                -0.266
REMARK SMILES CCCCCCCC(=O)[O-]
REMARK SMILES IDX 5 1 6 2 7 3 8 4 9 5 10 6 4 7 3 8 2 9 1 10
REMARK H PARENT
REMARK Flexibility Score: inf
ROOT
ATOM      1  C   UNL     1      -6.903   2.012  -8.599  1.00  0.00     0.000 C 
ENDROOT
BRANCH   1   2
ATOM      2  C   UNL     1      -5.955   2.615  -9.647  1.00  0.00     0.006 C 
BRANCH   2   3
ATOM      3  C   UNL     1      -4.952   3.596  -9.027  1.00  0.00     0.053 C 
BRANCH   3   4
ATOM      4  C   UNL     1      -5.537   4.967  -8.877  1.00  0.00     0.041 C 
ATOM      5  O   UNL     1      -5.235   5.679  -7.882  1.00  0.00    -0.550 OA
ATOM      6  O   UNL     1      -6.387   5.473  -9.852  1.00  0.00    -0.550 OA
ENDBRANCH   3   4
ENDBRANCH   2   3
ENDBRANCH   1   2
BRANCH   1   7
ATOM      7  C   UNL     1      -8.346   2.472  -8.834  1.00  0.00     0.000 C 
BRANCH   7   8
ATOM      8  C   UNL     1      -8.803   3.436  -7.728  1.00  0.00    -0.000 C 
BRANCH   8   9
ATOM      9  C   UNL     1      -9.034   2.727  -6.384  1.00  0.00    -0.003 C 
ATOM     10  C   UNL     1     -10.125   1.659  -6.459  1.00  0.00     0.004 C 
ENDBRANCH   8   9
ENDBRANCH   7   8
ENDBRANCH   1   7
TORSDOF 6
ENDMDL
MODEL 5
REMARK VINA RESULT:    -3.678      1.390      2.275
REMARK INTER + INTRA:          -5.234
REMARK INTER:                  -4.938
REMARK INTRA:                  -0.295
REMARK UNBOUND:                -0.266
REMARK SMILES CCCCCCCC(=O)[O-]
REMARK SMILES IDX 5 1 6 2 7 3 8 4 9 5 10 6 4 7 3 8 2 9 1 10
REMARK H PARENT
REMARK Flexibility Score: inf
ROOT
ATOM      1  C   UNL     1       6.393  -8.145   5.111  1.00  0.00     0.000 C 
ENDROOT
BRANCH   1   2
ATOM      2  C   UNL     1       5.795  -8.430   3.725  1.00  0.00     0.006 C 
BRANCH   2   3
ATOM      3  C   UNL     1       4.830  -9.623   3.743  1.00  0.00     0.053 C 
BRANCH   3   4
ATOM      4  C   UNL     1       3.728  -9.461   2.742  1.00  0.00     0.041 C 
ATOM      5  O   UNL     1       3.608  -8.384   2.099  1.00  0.00    -0.550 OA
ATOM      6  O   UNL     1       2.853 -10.511   2.494  1.00  0.00    -0.550 OA
ENDBRANCH   3   4
ENDBRANCH   2   3
ENDBRANCH   1   2
BRANCH   1   7
ATOM      7  C   UNL     1       5.916  -9.178   6.139  1.00  0.00     0.000 C 
BRANCH   7   8
ATOM      8  C   UNL     1       5.108  -8.507   7.260  1.00  0.00    -0.000 C 
BRANCH   8   9
ATOM      9  C   UNL     1       3.711  -9.122   7.432  1.00  0.00    -0.003 C 
ATOM     10  C   UNL     1       2.775  -8.242   8.260  1.00  0.00     0.004 C 
ENDBRANCH   8   9
ENDBRANCH   7   8
ENDBRANCH   1   7
TORSDOF 6
ENDMDL
MODEL 6
REMARK VINA RESULT:    -3.659     21.158     21.774
REMARK INTER + INTRA:          -5.208
REMARK INTER:                  -4.780
REMARK INTRA:                  -0.428
REMARK UNBOUND:                -0.266
REMARK SMILES CCCCCCCC(=O)[O-]
REMARK SMILES IDX 5 1 6 2 7 3 8 4 9 5 10 6 4 7 3 8 2 9 1 10
REMARK H PARENT
REMARK Flexibility Score: inf
ROOT
ATOM      1  C   UNL     1      -6.906   2.032  -8.606  1.00  0.00     0.000 C 
ENDROOT
BRANCH   1   2
ATOM      2  C   UNL     1      -8.388   2.431  -8.662  1.00  0.00     0.006 C 
BRANCH   2   3
ATOM      3  C   UNL     1      -8.730   3.537  -7.655  1.00  0.00     0.053 C 
BRANCH   3   4
ATOM      4  C   UNL     1      -9.224   2.974  -6.358  1.00  0.00     0.041 C 
ATOM      5  O   UNL     1      -9.774   1.841  -6.326  1.00  0.00    -0.550 OA
ATOM      6  O   UNL     1      -9.046   3.685  -5.177  1.00  0.00    -0.550 OA
ENDBRANCH   3   4
ENDBRANCH   2   3
ENDBRANCH   1   2
BRANCH   1   7
ATOM      7  C   UNL     1      -6.095   2.778  -9.672  1.00  0.00     0.000 C 
BRANCH   7   8
ATOM      8  C   UNL     1      -4.932   3.554  -9.036  1.00  0.00    -0.000 C 
BRANCH   8   9
ATOM      9  C   UNL     1      -5.017   5.066  -9.296  1.00  0.00    -0.003 C 
ATOM     10  C   UNL     1      -5.741   5.818  -8.179  1.00  0.00     0.004 C 
ENDBRANCH   8   9
ENDBRANCH   7   8
ENDBRANCH   1   7
TORSDOF 6
ENDMDL
MODEL 7
REMARK VINA RESULT:    -3.364     15.354     16.975
REMARK INTER + INTRA:          -4.810
REMARK INTER:                  -4.568
REMARK INTRA:                  -0.242
REMARK UNBOUND:                -0.266
REMARK SMILES CCCCCCCC(=O)[O-]
REMARK SMILES IDX 5 1 6 2 7 3 8 4 9 5 10 6 4 7 3 8 2 9 1 10
REMARK H PARENT
REMARK Flexibility Score: inf
ROOT
ATOM      1  C   UNL     1      -5.548  -7.844  -6.766  1.00  0.00     0.000 C 
ENDROOT
BRANCH   1   2
ATOM      2  C   UNL     1      -6.663  -7.638  -7.802  1.00  0.00     0.006 C 
BRANCH   2   3
ATOM      3  C   UNL     1      -6.869  -6.157  -8.146  1.00  0.00     0.053 C 
BRANCH   3   4
ATOM      4  C   UNL     1      -8.275  -5.715  -7.878  1.00  0.00     0.041 C 
ATOM      5  O   UNL     1      -8.495  -4.690  -7.179  1.00  0.00    -0.550 OA
ATOM      6  O   UNL     1      -9.343  -6.414  -8.427  1.00  0.00    -0.550 OA
ENDBRANCH   3   4
ENDBRANCH   2   3
ENDBRANCH   1   2
BRANCH   1   7
ATOM      7  C   UNL     1      -5.004  -9.277  -6.822  1.00  0.00     0.000 C 
BRANCH   7   8
ATOM      8  C   UNL     1      -5.115  -9.961  -5.452  1.00  0.00    -0.000 C 
BRANCH   8   9
ATOM      9  C   UNL     1      -6.475  -9.722  -4.779  1.00  0.00    -0.003 C 
ATOM     10  C   UNL     1      -6.343  -9.170  -3.359  1.00  0.00     0.004 C 
ENDBRANCH   8   9
ENDBRANCH   7   8
ENDBRANCH   1   7
TORSDOF 6
ENDMDL
MODEL 8
REMARK VINA RESULT:    -3.309     15.332     17.647
REMARK INTER + INTRA:          -4.735
REMARK INTER:                  -4.391
REMARK INTRA:                  -0.344
REMARK UNBOUND:                -0.266
REMARK SMILES CCCCCCCC(=O)[O-]
REMARK SMILES IDX 5 1 6 2 7 3 8 4 9 5 10 6 4 7 3 8 2 9 1 10
REMARK H PARENT
REMARK Flexibility Score: inf
ROOT
ATOM      1  C   UNL     1      -8.258  -8.285  -7.478  1.00  0.00     0.000 C 
ENDROOT
BRANCH   1   2
ATOM      2  C   UNL     1      -7.647  -7.680  -8.751  1.00  0.00     0.006 C 
BRANCH   2   3
ATOM      3  C   UNL     1      -8.111  -6.237  -8.989  1.00  0.00     0.053 C 
BRANCH   3   4
ATOM      4  C   UNL     1      -7.739  -5.338  -7.850  1.00  0.00     0.041 C 
ATOM      5  O   UNL     1      -8.634  -4.732  -7.202  1.00  0.00    -0.550 OA
ATOM      6  O   UNL     1      -6.407  -5.196  -7.481  1.00  0.00    -0.550 OA
ENDBRANCH   3   4
ENDBRANCH   2   3
ENDBRANCH   1   2
BRANCH   1   7
ATOM      7  C   UNL     1      -7.205  -9.060  -6.677  1.00  0.00     0.000 C 
BRANCH   7   8
ATOM      8  C   UNL     1      -5.814  -8.429  -6.841  1.00  0.00    -0.000 C 
BRANCH   8   9
ATOM      9  C   UNL     1      -4.700  -9.478  -6.971  1.00  0.00    -0.003 C 
ATOM     10  C   UNL     1      -3.300  -8.865  -6.908  1.00  0.00     0.004 C 
ENDBRANCH   8   9
ENDBRANCH   7   8
ENDBRANCH   1   7
TORSDOF 6
ENDMDL
MODEL 9
REMARK VINA RESULT:    -3.247      1.475      2.032
REMARK INTER + INTRA:          -4.652
REMARK INTER:                  -4.399
REMARK INTRA:                  -0.253
REMARK UNBOUND:                -0.266
REMARK SMILES CCCCCCCC(=O)[O-]
REMARK SMILES IDX 5 1 6 2 7 3 8 4 9 5 10 6 4 7 3 8 2 9 1 10
REMARK H PARENT
REMARK Flexibility Score: inf
ROOT
ATOM      1  C   UNL     1       6.496  -8.159   5.539  1.00  0.00     0.000 C 
ENDROOT
BRANCH   1   2
ATOM      2  C   UNL     1       5.512  -9.205   4.993  1.00  0.00     0.006 C 
BRANCH   2   3
ATOM      3  C   UNL     1       5.310  -9.078   3.478  1.00  0.00     0.053 C 
BRANCH   3   4
ATOM      4  C   UNL     1       3.954  -9.556   3.056  1.00  0.00     0.041 C 
ATOM      5  O   UNL     1       3.484  -9.222   1.936  1.00  0.00    -0.550 OA
ATOM      6  O   UNL     1       3.225 -10.399   3.884  1.00  0.00    -0.550 OA
ENDBRANCH   3   4
ENDBRANCH   2   3
ENDBRANCH   1   2
BRANCH   1   7
ATOM      7  C   UNL     1       6.110  -7.730   6.959  1.00  0.00     0.000 C 
BRANCH   7   8
ATOM      8  C   UNL     1       7.336  -7.725   7.884  1.00  0.00    -0.000 C 
BRANCH   8   9
ATOM      9  C   UNL     1       8.464  -8.638   7.378  1.00  0.00    -0.003 C 
ATOM     10  C   UNL     1       8.700  -9.845   8.287  1.00  0.00     0.004 C 
ENDBRANCH   8   9
ENDBRANCH   7   8
ENDBRANCH   1   7
TORSDOF 6
ENDMDL
