MODEL 1
REMARK VINA RESULT:    11.370      0.000      0.000
REMARK INTER + INTRA:          16.583
REMARK INTER:                  15.026
REMARK INTRA:                   1.558
REMARK UNBOUND:                 1.558
REMARK SMILES CC(C)=CCC[C@@H](C(=O)[O-])[C@H]1CC[C@@]2(C)C3=C(CC[C@]12C)[C@]1(C)CC[C@H](O)C(C)(C)[C@H]1CC3
REMARK SMILES IDX 6 1 7 2 8 3 9 4 10 5 11 6 12 7 20 8 13 9 14 10 19 11 21 12
REMARK SMILES IDX 15 13 16 14 18 15 17 16 33 17 22 18 32 19 31 20 24 21 23 22
REMARK SMILES IDX 28 23 25 24 26 25 29 26 30 27 27 28 5 30 4 31 2 32 1 33 3 34
REMARK H PARENT 27 29
REMARK Flexibility Score: inf
ROOT
ATOM      1  C   UNL     1       1.742  41.080  13.374  1.00  0.00     0.014 C 
ENDROOT
BRANCH   1   2
ATOM      2  C   UNL     1       1.950  42.592  13.086  1.00  0.00     0.039 C 
BRANCH   2   3
ATOM      3  C   UNL     1       3.386  42.850  12.709  1.00  0.00     0.045 C 
ATOM      4  O   UNL     1       3.933  42.161  11.808  1.00  0.00    -0.550 OA
ATOM      5  O   UNL     1       4.103  43.884  13.304  1.00  0.00    -0.550 OA
ENDBRANCH   2   3
BRANCH   2   6
ATOM      6  C   UNL     1       0.953  43.177  12.029  1.00  0.00     0.004 C 
ATOM      7  C   UNL     1      -0.273  43.868  12.684  1.00  0.00     0.006 C 
ATOM      8  C   UNL     1       1.490  44.265  11.047  1.00  0.00    -0.020 C 
ATOM      9  C   UNL     1      -0.628  45.094  11.821  1.00  0.00     0.012 C 
ATOM     10  C   UNL     1       0.175  44.913  10.524  1.00  0.00    -0.006 C 
ATOM     11  C   UNL     1       2.276  43.758   9.824  1.00  0.00     0.012 C 
ATOM     12  C   UNL     1       2.398  45.281  11.828  1.00  0.00     0.012 C 
ATOM     13  C   UNL     1      -0.680  44.012   9.570  1.00  0.00     0.017 C 
ATOM     14  C   UNL     1       0.507  46.161   9.722  1.00  0.00    -0.064 C 
ATOM     15  C   UNL     1       2.501  44.890   8.782  1.00  0.00     0.032 C 
ATOM     16  C   UNL     1       1.551  46.114   8.834  1.00  0.00    -0.064 C 
ATOM     17  C   UNL     1      -0.508  47.285   9.647  1.00  0.00     0.032 C 
ATOM     18  C   UNL     1       1.746  47.292   7.847  1.00  0.00    -0.008 C 
ATOM     19  C   UNL     1       0.097  48.664   9.328  1.00  0.00     0.009 C 
ATOM     20  C   UNL     1       1.500  48.618   8.660  1.00  0.00     0.007 C 
ATOM     21  C   UNL     1       3.202  47.316   7.286  1.00  0.00     0.014 C 
ATOM     22  C   UNL     1       0.743  47.076   6.675  1.00  0.00     0.016 C 
ATOM     23  C   UNL     1       1.922  49.969   7.953  1.00  0.00    -0.006 C 
ATOM     24  C   UNL     1       3.552  48.597   6.519  1.00  0.00     0.033 C 
ATOM     25  C   UNL     1       3.378  49.842   7.403  1.00  0.00     0.120 C 
ATOM     26  C   UNL     1       0.973  50.393   6.797  1.00  0.00     0.014 C 
ATOM     27  C   UNL     1       1.895  51.125   8.989  1.00  0.00     0.014 C 
BRANCH  25  28
ATOM     28  O   UNL     1       4.302  49.789   8.466  1.00  0.00    -0.393 OA
ATOM     29  H   UNL     1       5.209  49.854   8.067  1.00  0.00     0.210 HD
ENDBRANCH  25  28
ENDBRANCH   2   6
ENDBRANCH   1   2
BRANCH   1  30
ATOM     30  C   UNL     1       0.380  40.718  13.995  1.00  0.00     0.028 C 
BRANCH  30  31
ATOM     31  C   UNL     1       0.017  41.664  15.115  1.00  0.00    -0.028 C 
ATOM     32  C   UNL     1      -0.670  41.324  16.230  1.00  0.00    -0.080 C 
ATOM     33  C   UNL     1      -0.934  42.392  17.260  1.00  0.00     0.039 C 
ATOM     34  C   UNL     1      -1.123  39.913  16.524  1.00  0.00     0.039 C 
ENDBRANCH  30  31
ENDBRANCH   1  30
TORSDOF 6
ENDMDL
MODEL 2
REMARK VINA RESULT:    11.689      2.685      8.162
REMARK INTER + INTRA:          17.005
REMARK INTER:                  12.957
REMARK INTRA:                   4.048
REMARK UNBOUND:                 1.558
REMARK SMILES CC(C)=CCC[C@@H](C(=O)[O-])[C@H]1CC[C@@]2(C)C3=C(CC[C@]12C)[C@]1(C)CC[C@H](O)C(C)(C)[C@H]1CC3
REMARK SMILES IDX 6 1 7 2 8 3 9 4 10 5 11 6 12 7 20 8 13 9 14 10 19 11 21 12
REMARK SMILES IDX 15 13 16 14 18 15 17 16 33 17 22 18 32 19 31 20 24 21 23 22
REMARK SMILES IDX 28 23 25 24 26 25 29 26 30 27 27 28 5 30 4 31 2 32 1 33 3 34
REMARK H PARENT 27 29
REMARK Flexibility Score: inf
ROOT
ATOM      1  C   UNL     1       2.660  50.991   8.279  1.00  0.00     0.014 C 
ENDROOT
BRANCH   1   2
ATOM      2  C   UNL     1       1.184  50.981   7.794  1.00  0.00     0.039 C 
BRANCH   2   3
ATOM      3  C   UNL     1       1.138  51.100   6.292  1.00  0.00     0.045 C 
ATOM      4  O   UNL     1       2.208  51.124   5.630  1.00  0.00    -0.550 OA
ATOM      5  O   UNL     1      -0.080  51.125   5.618  1.00  0.00    -0.550 OA
ENDBRANCH   2   3
BRANCH   2   6
ATOM      6  C   UNL     1       0.358  49.755   8.310  1.00  0.00     0.004 C 
ATOM      7  C   UNL     1      -0.505  49.106   7.195  1.00  0.00     0.006 C 
ATOM      8  C   UNL     1       1.145  48.543   8.899  1.00  0.00    -0.020 C 
ATOM      9  C   UNL     1      -0.498  47.584   7.433  1.00  0.00     0.012 C 
ATOM     10  C   UNL     1       0.086  47.404   8.842  1.00  0.00    -0.006 C 
ATOM     11  C   UNL     1       1.611  48.672  10.361  1.00  0.00     0.012 C 
ATOM     12  C   UNL     1       2.404  48.246   8.007  1.00  0.00     0.012 C 
ATOM     13  C   UNL     1      -1.098  47.543   9.857  1.00  0.00     0.017 C 
ATOM     14  C   UNL     1       0.751  46.075   9.164  1.00  0.00    -0.064 C 
ATOM     15  C   UNL     1       2.116  47.311  10.920  1.00  0.00     0.032 C 
ATOM     16  C   UNL     1       1.640  46.020  10.207  1.00  0.00    -0.064 C 
ATOM     17  C   UNL     1       0.170  44.798   8.589  1.00  0.00     0.032 C 
ATOM     18  C   UNL     1       2.137  44.636  10.692  1.00  0.00    -0.008 C 
ATOM     19  C   UNL     1       1.175  43.637   8.486  1.00  0.00     0.009 C 
ATOM     20  C   UNL     1       2.420  43.772   9.406  1.00  0.00     0.007 C 
ATOM     21  C   UNL     1       3.464  44.771  11.502  1.00  0.00     0.014 C 
ATOM     22  C   UNL     1       1.026  44.050  11.613  1.00  0.00     0.016 C 
ATOM     23  C   UNL     1       3.212  42.420   9.624  1.00  0.00    -0.006 C 
ATOM     24  C   UNL     1       4.160  43.433  11.784  1.00  0.00     0.033 C 
ATOM     25  C   UNL     1       4.489  42.690  10.481  1.00  0.00     0.120 C 
ATOM     26  C   UNL     1       2.368  41.303  10.300  1.00  0.00     0.014 C 
ATOM     27  C   UNL     1       3.661  41.857   8.248  1.00  0.00     0.014 C 
BRANCH  25  28
ATOM     28  O   UNL     1       5.426  43.439   9.742  1.00  0.00    -0.393 OA
ATOM     29  H   UNL     1       5.030  43.597   8.845  1.00  0.00     0.210 HD
ENDBRANCH  25  28
ENDBRANCH   2   6
ENDBRANCH   1   2
BRANCH   1  30
ATOM     30  C   UNL     1       3.593  50.012   7.543  1.00  0.00     0.028 C 
BRANCH  30  31
ATOM     31  C   UNL     1       5.042  50.273   7.881  1.00  0.00    -0.028 C 
ATOM     32  C   UNL     1       5.881  49.380   8.453  1.00  0.00    -0.080 C 
ATOM     33  C   UNL     1       7.306  49.801   8.707  1.00  0.00     0.039 C 
ATOM     34  C   UNL     1       5.481  47.962   8.782  1.00  0.00     0.039 C 
ENDBRANCH  30  31
ENDBRANCH   1  30
TORSDOF 6
ENDMDL
MODEL 3
REMARK VINA RESULT:    12.192      0.962      1.634
REMARK INTER + INTRA:          17.669
REMARK INTER:                  15.533
REMARK INTRA:                   2.137
REMARK UNBOUND:                 1.558
REMARK SMILES CC(C)=CCC[C@@H](C(=O)[O-])[C@H]1CC[C@@]2(C)C3=C(CC[C@]12C)[C@]1(C)CC[C@H](O)C(C)(C)[C@H]1CC3
REMARK SMILES IDX 6 1 7 2 8 3 9 4 10 5 11 6 12 7 20 8 13 9 14 10 19 11 21 12
REMARK SMILES IDX 15 13 16 14 18 15 17 16 33 17 22 18 32 19 31 20 24 21 23 22
REMARK SMILES IDX 28 23 25 24 26 25 29 26 30 27 27 28 5 30 4 31 2 32 1 33 3 34
REMARK H PARENT 27 29
REMARK Flexibility Score: inf
ROOT
ATOM      1  C   UNL     1       1.482  41.083  13.338  1.00  0.00     0.014 C 
ENDROOT
BRANCH   1   2
ATOM      2  C   UNL     1       1.711  42.599  13.088  1.00  0.00     0.039 C 
BRANCH   2   3
ATOM      3  C   UNL     1       3.153  42.847  12.728  1.00  0.00     0.045 C 
ATOM      4  O   UNL     1       3.721  42.121  11.870  1.00  0.00    -0.550 OA
ATOM      5  O   UNL     1       3.853  43.910  13.290  1.00  0.00    -0.550 OA
ENDBRANCH   2   3
BRANCH   2   6
ATOM      6  C   UNL     1       0.730  43.222  12.038  1.00  0.00     0.004 C 
ATOM      7  C   UNL     1      -0.463  43.961  12.700  1.00  0.00     0.006 C 
ATOM      8  C   UNL     1       1.302  44.286  11.050  1.00  0.00    -0.020 C 
ATOM      9  C   UNL     1      -0.776  45.199  11.839  1.00  0.00     0.012 C 
ATOM     10  C   UNL     1       0.010  44.985  10.536  1.00  0.00    -0.006 C 
ATOM     11  C   UNL     1       2.058  43.748   9.822  1.00  0.00     0.012 C 
ATOM     12  C   UNL     1       2.255  45.267  11.823  1.00  0.00     0.012 C 
ATOM     13  C   UNL     1      -0.887  44.118   9.590  1.00  0.00     0.017 C 
ATOM     14  C   UNL     1       0.385  46.219   9.730  1.00  0.00    -0.064 C 
ATOM     15  C   UNL     1       2.320  44.869   8.777  1.00  0.00     0.032 C 
ATOM     16  C   UNL     1       1.420  46.129   8.834  1.00  0.00    -0.064 C 
ATOM     17  C   UNL     1      -0.585  47.382   9.661  1.00  0.00     0.032 C 
ATOM     18  C   UNL     1       1.654  47.298   7.845  1.00  0.00    -0.008 C 
ATOM     19  C   UNL     1       0.072  48.735   9.335  1.00  0.00     0.009 C 
ATOM     20  C   UNL     1       1.467  48.633   8.658  1.00  0.00     0.007 C 
ATOM     21  C   UNL     1       3.105  47.263   7.272  1.00  0.00     0.014 C 
ATOM     22  C   UNL     1       0.635  47.121   6.680  1.00  0.00     0.016 C 
ATOM     23  C   UNL     1       1.937  49.966   7.946  1.00  0.00    -0.006 C 
ATOM     24  C   UNL     1       3.501  48.530   6.502  1.00  0.00     0.033 C 
ATOM     25  C   UNL     1       3.383  49.781   7.385  1.00  0.00     0.120 C 
ATOM     26  C   UNL     1       0.997  50.426   6.796  1.00  0.00     0.014 C 
ATOM     27  C   UNL     1       1.963  51.123   8.980  1.00  0.00     0.014 C 
BRANCH  25  28
ATOM     28  O   UNL     1       4.311  49.693   8.441  1.00  0.00    -0.393 OA
ATOM     29  H   UNL     1       5.162  50.087   8.115  1.00  0.00     0.210 HD
ENDBRANCH  25  28
ENDBRANCH   2   6
ENDBRANCH   1   2
BRANCH   1  30
ATOM     30  C   UNL     1       0.407  40.754  14.390  1.00  0.00     0.028 C 
BRANCH  30  31
ATOM     31  C   UNL     1      -0.497  39.638  13.923  1.00  0.00    -0.028 C 
ATOM     32  C   UNL     1      -0.086  38.518  13.285  1.00  0.00    -0.080 C 
ATOM     33  C   UNL     1      -1.123  37.493  12.901  1.00  0.00     0.039 C 
ATOM     34  C   UNL     1       1.366  38.212  13.003  1.00  0.00     0.039 C 
ENDBRANCH  30  31
ENDBRANCH   1  30
TORSDOF 6
ENDMDL
MODEL 4
REMARK VINA RESULT:    14.160      2.448      4.119
REMARK INTER + INTRA:          20.271
REMARK INTER:                  20.680
REMARK INTRA:                  -0.409
REMARK UNBOUND:                 1.558
REMARK SMILES CC(C)=CCC[C@@H](C(=O)[O-])[C@H]1CC[C@@]2(C)C3=C(CC[C@]12C)[C@]1(C)CC[C@H](O)C(C)(C)[C@H]1CC3
REMARK SMILES IDX 6 1 7 2 8 3 9 4 10 5 11 6 12 7 20 8 13 9 14 10 19 11 21 12
REMARK SMILES IDX 15 13 16 14 18 15 17 16 33 17 22 18 32 19 31 20 24 21 23 22
REMARK SMILES IDX 28 23 25 24 26 25 29 26 30 27 27 28 5 30 4 31 2 32 1 33 3 34
REMARK H PARENT 27 29
REMARK Flexibility Score: inf
ROOT
ATOM      1  C   UNL     1       0.130  39.611  13.944  1.00  0.00     0.014 C 
ENDROOT
BRANCH   1   2
ATOM      2  C   UNL     1       0.383  41.144  13.962  1.00  0.00     0.039 C 
BRANCH   2   3
ATOM      3  C   UNL     1       0.520  41.625  15.384  1.00  0.00     0.045 C 
ATOM      4  O   UNL     1       1.647  41.974  15.824  1.00  0.00    -0.550 OA
ATOM      5  O   UNL     1      -0.598  41.746  16.204  1.00  0.00    -0.550 OA
ENDBRANCH   2   3
BRANCH   2   6
ATOM      6  C   UNL     1       1.590  41.595  13.073  1.00  0.00     0.004 C 
ATOM      7  C   UNL     1       1.837  40.642  11.872  1.00  0.00     0.006 C 
ATOM      8  C   UNL     1       1.512  43.001  12.398  1.00  0.00    -0.020 C 
ATOM      9  C   UNL     1       2.274  41.509  10.676  1.00  0.00     0.012 C 
ATOM     10  C   UNL     1       2.585  42.888  11.277  1.00  0.00    -0.006 C 
ATOM     11  C   UNL     1       1.885  44.207  13.279  1.00  0.00     0.012 C 
ATOM     12  C   UNL     1       0.065  43.235  11.832  1.00  0.00     0.012 C 
ATOM     13  C   UNL     1       4.069  42.853  11.776  1.00  0.00     0.017 C 
ATOM     14  C   UNL     1       2.489  44.095  10.357  1.00  0.00    -0.064 C 
ATOM     15  C   UNL     1       2.053  45.501  12.433  1.00  0.00     0.032 C 
ATOM     16  C   UNL     1       2.329  45.337  10.917  1.00  0.00    -0.064 C 
ATOM     17  C   UNL     1       2.922  43.960   8.911  1.00  0.00     0.032 C 
ATOM     18  C   UNL     1       2.468  46.587  10.012  1.00  0.00    -0.008 C 
ATOM     19  C   UNL     1       2.284  44.990   7.961  1.00  0.00     0.009 C 
ATOM     20  C   UNL     1       1.728  46.261   8.661  1.00  0.00     0.007 C 
ATOM     21  C   UNL     1       1.786  47.829  10.666  1.00  0.00     0.014 C 
ATOM     22  C   UNL     1       3.992  46.862   9.846  1.00  0.00     0.016 C 
ATOM     23  C   UNL     1       1.477  47.479   7.682  1.00  0.00    -0.006 C 
ATOM     24  C   UNL     1       1.644  49.030   9.722  1.00  0.00     0.033 C 
ATOM     25  C   UNL     1       0.832  48.663   8.471  1.00  0.00     0.120 C 
ATOM     26  C   UNL     1       2.761  47.980   6.965  1.00  0.00     0.014 C 
ATOM     27  C   UNL     1       0.490  47.047   6.564  1.00  0.00     0.014 C 
BRANCH  25  28
ATOM     28  O   UNL     1      -0.486  48.340   8.850  1.00  0.00    -0.393 OA
ATOM     29  H   UNL     1      -0.490  47.378   9.099  1.00  0.00     0.210 HD
ENDBRANCH  25  28
ENDBRANCH   2   6
ENDBRANCH   1   2
BRANCH   1  30
ATOM     30  C   UNL     1      -1.044  39.157  13.057  1.00  0.00     0.028 C 
BRANCH  30  31
ATOM     31  C   UNL     1      -1.125  37.651  12.981  1.00  0.00    -0.028 C 
ATOM     32  C   UNL     1      -0.124  36.836  12.574  1.00  0.00    -0.080 C 
ATOM     33  C   UNL     1      -0.369  35.349  12.574  1.00  0.00     0.039 C 
ATOM     34  C   UNL     1       1.247  37.339  12.189  1.00  0.00     0.039 C 
ENDBRANCH  30  31
ENDBRANCH   1  30
TORSDOF 6
ENDMDL
MODEL 5
REMARK VINA RESULT:    14.259      2.098      8.033
REMARK INTER + INTRA:          20.402
REMARK INTER:                  19.461
REMARK INTRA:                   0.941
REMARK UNBOUND:                 1.558
REMARK SMILES CC(C)=CCC[C@@H](C(=O)[O-])[C@H]1CC[C@@]2(C)C3=C(CC[C@]12C)[C@]1(C)CC[C@H](O)C(C)(C)[C@H]1CC3
REMARK SMILES IDX 6 1 7 2 8 3 9 4 10 5 11 6 12 7 20 8 13 9 14 10 19 11 21 12
REMARK SMILES IDX 15 13 16 14 18 15 17 16 33 17 22 18 32 19 31 20 24 21 23 22
REMARK SMILES IDX 28 23 25 24 26 25 29 26 30 27 27 28 5 30 4 31 2 32 1 33 3 34
REMARK H PARENT 27 29
REMARK Flexibility Score: inf
ROOT
ATOM      1  C   UNL     1       1.732  48.916   9.262  1.00  0.00     0.014 C 
ENDROOT
BRANCH   1   2
ATOM      2  C   UNL     1       2.561  48.225   8.145  1.00  0.00     0.039 C 
BRANCH   2   3
ATOM      3  C   UNL     1       3.492  49.223   7.506  1.00  0.00     0.045 C 
ATOM      4  O   UNL     1       3.052  50.339   7.125  1.00  0.00    -0.550 OA
ATOM      5  O   UNL     1       4.852  48.950   7.384  1.00  0.00    -0.550 OA
ENDBRANCH   2   3
BRANCH   2   6
ATOM      6  C   UNL     1       3.318  46.940   8.623  1.00  0.00     0.004 C 
ATOM      7  C   UNL     1       4.570  47.269   9.479  1.00  0.00     0.006 C 
ATOM      8  C   UNL     1       2.537  45.925   9.514  1.00  0.00    -0.020 C 
ATOM      9  C   UNL     1       4.673  46.195  10.579  1.00  0.00     0.012 C 
ATOM     10  C   UNL     1       3.688  45.096  10.154  1.00  0.00    -0.006 C 
ATOM     11  C   UNL     1       1.608  44.940   8.780  1.00  0.00     0.012 C 
ATOM     12  C   UNL     1       1.684  46.703  10.579  1.00  0.00     0.012 C 
ATOM     13  C   UNL     1       4.450  44.143   9.173  1.00  0.00     0.017 C 
ATOM     14  C   UNL     1       3.123  44.198  11.244  1.00  0.00    -0.064 C 
ATOM     15  C   UNL     1       1.119  43.805   9.725  1.00  0.00     0.032 C 
ATOM     16  C   UNL     1       1.956  43.520  10.998  1.00  0.00    -0.064 C 
ATOM     17  C   UNL     1       4.011  43.792  12.403  1.00  0.00     0.032 C 
ATOM     18  C   UNL     1       1.502  42.429  11.999  1.00  0.00    -0.008 C 
ATOM     19  C   UNL     1       3.245  43.394  13.678  1.00  0.00     0.009 C 
ATOM     20  C   UNL     1       1.761  42.994  13.445  1.00  0.00     0.007 C 
ATOM     21  C   UNL     1      -0.023  42.131  11.847  1.00  0.00     0.014 C 
ATOM     22  C   UNL     1       2.315  41.142  11.670  1.00  0.00     0.016 C 
ATOM     23  C   UNL     1       1.114  42.190  14.645  1.00  0.00    -0.006 C 
ATOM     24  C   UNL     1      -0.603  41.267  12.974  1.00  0.00     0.033 C 
ATOM     25  C   UNL     1      -0.395  41.925  14.346  1.00  0.00     0.120 C 
ATOM     26  C   UNL     1       1.822  40.839  14.946  1.00  0.00     0.014 C 
ATOM     27  C   UNL     1       1.210  43.034  15.944  1.00  0.00     0.014 C 
BRANCH  25  28
ATOM     28  O   UNL     1      -1.125  43.129  14.399  1.00  0.00    -0.393 OA
ATOM     29  H   UNL     1      -1.638  43.122  15.249  1.00  0.00     0.210 HD
ENDBRANCH  25  28
ENDBRANCH   2   6
ENDBRANCH   1   2
BRANCH   1  30
ATOM     30  C   UNL     1       0.224  49.035   8.972  1.00  0.00     0.028 C 
BRANCH  30  31
ATOM     31  C   UNL     1      -0.137  48.382   7.659  1.00  0.00    -0.028 C 
ATOM     32  C   UNL     1      -0.713  47.165   7.527  1.00  0.00    -0.080 C 
ATOM     33  C   UNL     1      -1.024  46.669   6.138  1.00  0.00     0.039 C 
ATOM     34  C   UNL     1      -1.125  46.313   8.704  1.00  0.00     0.039 C 
ENDBRANCH  30  31
ENDBRANCH   1  30
TORSDOF 6
ENDMDL
