MODEL 1
REMARK VINA RESULT:    -6.388      0.000      0.000
REMARK INTER + INTRA:          -6.388
REMARK INTER:                  -6.388
REMARK INTRA:                   0.000
REMARK UNBOUND:                 0.000
REMARK SMILES C=C1CCC[C@]2(C)CC(=O)C(=C(C)C)C[C@H]12
REMARK SMILES IDX 13 1 12 2 11 3 15 4 16 5 2 6 1 7 3 8 4 9 5 10 6 11 8 12 9 13
REMARK SMILES IDX 10 14 7 15 14 16
REMARK H PARENT
REMARK Flexibility Score: inf
ROOT
ATOM      1  C   UNL     1       1.689  10.031  45.870  1.00  0.00     0.039 C 
ATOM      2  C   UNL     1       2.241  11.400  46.203  1.00  0.00    -0.070 C 
ATOM      3  C   UNL     1       1.486  12.523  46.033  1.00  0.00    -0.006 C 
ATOM      4  C   UNL     1       0.086  12.473  45.443  1.00  0.00     0.047 C 
ATOM      5  C   UNL     1      -0.830  13.559  46.059  1.00  0.00     0.025 C 
ATOM      6  C   UNL     1      -2.220  13.435  45.442  1.00  0.00    -0.073 C 
ATOM      7  C   UNL     1      -3.123  12.600  45.981  1.00  0.00     0.008 C 
ATOM      8  C   UNL     1      -2.577  14.171  44.172  1.00  0.00     0.031 C 
ATOM      9  C   UNL     1      -1.488  15.158  43.751  1.00  0.00     0.005 C 
ATOM     10  C   UNL     1      -0.998  15.943  44.968  1.00  0.00     0.008 C 
ATOM     11  C   UNL     1      -0.235  15.036  45.986  1.00  0.00    -0.018 C 
ATOM     12  C   UNL     1       1.275  15.031  45.602  1.00  0.00     0.088 C 
ATOM     13  C   UNL     1       1.999  13.899  46.261  1.00  0.00     0.159 C 
ATOM     14  O   UNL     1       2.982  14.141  47.012  1.00  0.00    -0.295 OA
ATOM     15  C   UNL     1      -0.366  15.695  47.381  1.00  0.00     0.012 C 
ATOM     16  C   UNL     1       3.671  11.465  46.691  1.00  0.00     0.039 C 
ENDROOT
TORSDOF 0
ENDMDL
MODEL 2
REMARK VINA RESULT:    -5.857      1.991      5.393
REMARK INTER + INTRA:          -5.857
REMARK INTER:                  -5.857
REMARK INTRA:                   0.000
REMARK UNBOUND:                 0.000
REMARK SMILES C=C1CCC[C@]2(C)CC(=O)C(=C(C)C)C[C@H]12
REMARK SMILES IDX 13 1 12 2 11 3 15 4 16 5 2 6 1 7 3 8 4 9 5 10 6 11 8 12 9 13
REMARK SMILES IDX 10 14 7 15 14 16
REMARK H PARENT
REMARK Flexibility Score: inf
ROOT
ATOM      1  C   UNL     1       0.680  16.077  47.765  1.00  0.00     0.039 C 
ATOM      2  C   UNL     1       0.047  15.186  46.719  1.00  0.00    -0.070 C 
ATOM      3  C   UNL     1       0.523  13.929  46.484  1.00  0.00    -0.006 C 
ATOM      4  C   UNL     1       1.746  13.381  47.203  1.00  0.00     0.047 C 
ATOM      5  C   UNL     1       1.630  11.855  47.439  1.00  0.00     0.025 C 
ATOM      6  C   UNL     1       2.874  11.380  48.183  1.00  0.00    -0.073 C 
ATOM      7  C   UNL     1       2.912  11.420  49.525  1.00  0.00     0.008 C 
ATOM      8  C   UNL     1       4.113  10.945  47.434  1.00  0.00     0.031 C 
ATOM      9  C   UNL     1       3.871  10.851  45.927  1.00  0.00     0.005 C 
ATOM     10  C   UNL     1       2.538  10.154  45.656  1.00  0.00     0.008 C 
ATOM     11  C   UNL     1       1.319  11.010  46.124  1.00  0.00    -0.018 C 
ATOM     12  C   UNL     1       0.879  11.925  44.941  1.00  0.00     0.088 C 
ATOM     13  C   UNL     1      -0.001  13.039  45.415  1.00  0.00     0.159 C 
ATOM     14  O   UNL     1      -1.158  13.166  44.933  1.00  0.00    -0.295 OA
ATOM     15  C   UNL     1       0.155  10.034  46.425  1.00  0.00     0.012 C 
ATOM     16  C   UNL     1      -1.104  15.764  45.927  1.00  0.00     0.039 C 
ENDROOT
TORSDOF 0
ENDMDL
MODEL 3
REMARK VINA RESULT:    -5.534      1.950      5.551
REMARK INTER + INTRA:          -5.534
REMARK INTER:                  -5.534
REMARK INTRA:                   0.000
REMARK UNBOUND:                 0.000
REMARK SMILES C=C1CCC[C@]2(C)CC(=O)C(=C(C)C)C[C@H]12
REMARK SMILES IDX 13 1 12 2 11 3 15 4 16 5 2 6 1 7 3 8 4 9 5 10 6 11 8 12 9 13
REMARK SMILES IDX 10 14 7 15 14 16
REMARK H PARENT
REMARK Flexibility Score: inf
ROOT
ATOM      1  C   UNL     1      -0.557  14.775  44.924  1.00  0.00     0.039 C 
ATOM      2  C   UNL     1      -0.705  13.390  45.515  1.00  0.00    -0.070 C 
ATOM      3  C   UNL     1       0.373  12.720  46.017  1.00  0.00    -0.006 C 
ATOM      4  C   UNL     1       1.780  13.292  45.952  1.00  0.00     0.047 C 
ATOM      5  C   UNL     1       2.623  12.870  47.181  1.00  0.00     0.025 C 
ATOM      6  C   UNL     1       4.008  13.497  47.062  1.00  0.00    -0.073 C 
ATOM      7  C   UNL     1       4.231  14.733  47.538  1.00  0.00     0.008 C 
ATOM      8  C   UNL     1       5.125  12.786  46.333  1.00  0.00     0.031 C 
ATOM      9  C   UNL     1       4.745  11.355  45.952  1.00  0.00     0.005 C 
ATOM     10  C   UNL     1       4.053  10.668  47.129  1.00  0.00     0.008 C 
ATOM     11  C   UNL     1       2.659  11.298  47.442  1.00  0.00    -0.018 C 
ATOM     12  C   UNL     1       1.582  10.549  46.601  1.00  0.00     0.088 C 
ATOM     13  C   UNL     1       0.307  11.328  46.533  1.00  0.00     0.159 C 
ATOM     14  O   UNL     1      -0.764  10.808  46.946  1.00  0.00    -0.295 OA
ATOM     15  C   UNL     1       2.358  11.036  48.938  1.00  0.00     0.012 C 
ATOM     16  C   UNL     1      -2.085  12.774  45.487  1.00  0.00     0.039 C 
ENDROOT
TORSDOF 0
ENDMDL
MODEL 4
REMARK VINA RESULT:    -4.989      0.700      0.700
REMARK INTER + INTRA:          -4.989
REMARK INTER:                  -4.989
REMARK INTRA:                   0.000
REMARK UNBOUND:                 0.000
REMARK SMILES C=C1CCC[C@]2(C)CC(=O)C(=C(C)C)C[C@H]12
REMARK SMILES IDX 13 1 12 2 11 3 15 4 16 5 2 6 1 7 3 8 4 9 5 10 6 11 8 12 9 13
REMARK SMILES IDX 10 14 7 15 14 16
REMARK H PARENT
REMARK Flexibility Score: inf
ROOT
ATOM      1  C   UNL     1       2.141   9.543  46.080  1.00  0.00     0.039 C 
ATOM      2  C   UNL     1       2.665  10.943  46.309  1.00  0.00    -0.070 C 
ATOM      3  C   UNL     1       1.854  12.031  46.164  1.00  0.00    -0.006 C 
ATOM      4  C   UNL     1       0.411  11.906  45.703  1.00  0.00     0.047 C 
ATOM      5  C   UNL     1      -0.490  12.983  46.356  1.00  0.00     0.025 C 
ATOM      6  C   UNL     1      -1.922  12.784  45.870  1.00  0.00    -0.073 C 
ATOM      7  C   UNL     1      -2.741  11.940  46.518  1.00  0.00     0.008 C 
ATOM      8  C   UNL     1      -2.418  13.453  44.608  1.00  0.00     0.031 C 
ATOM      9  C   UNL     1      -1.408  14.460  44.056  1.00  0.00     0.005 C 
ATOM     10  C   UNL     1      -0.846  15.312  45.194  1.00  0.00     0.008 C 
ATOM     11  C   UNL     1       0.037  14.476  46.174  1.00  0.00    -0.018 C 
ATOM     12  C   UNL     1       1.508  14.510  45.658  1.00  0.00     0.088 C 
ATOM     13  C   UNL     1       2.331  13.433  46.293  1.00  0.00     0.159 C 
ATOM     14  O   UNL     1       3.364  13.741  46.944  1.00  0.00    -0.295 OA
ATOM     15  C   UNL     1       0.002  15.187  47.549  1.00  0.00     0.012 C 
ATOM     16  C   UNL     1       4.128  11.080  46.666  1.00  0.00     0.039 C 
ENDROOT
TORSDOF 0
ENDMDL
MODEL 5
REMARK VINA RESULT:    -4.131      1.675      3.392
REMARK INTER + INTRA:          -4.131
REMARK INTER:                  -4.131
REMARK INTRA:                   0.000
REMARK UNBOUND:                 0.000
REMARK SMILES C=C1CCC[C@]2(C)CC(=O)C(=C(C)C)C[C@H]12
REMARK SMILES IDX 13 1 12 2 11 3 15 4 16 5 2 6 1 7 3 8 4 9 5 10 6 11 8 12 9 13
REMARK SMILES IDX 10 14 7 15 14 16
REMARK H PARENT
REMARK Flexibility Score: inf
ROOT
ATOM      1  C   UNL     1       3.252  14.626  47.000  1.00  0.00     0.039 C 
ATOM      2  C   UNL     1       2.284  13.542  46.579  1.00  0.00    -0.070 C 
ATOM      3  C   UNL     1       1.003  13.845  46.216  1.00  0.00    -0.006 C 
ATOM      4  C   UNL     1       0.461  15.264  46.277  1.00  0.00     0.047 C 
ATOM      5  C   UNL     1      -0.569  15.527  45.151  1.00  0.00     0.025 C 
ATOM      6  C   UNL     1      -1.051  16.971  45.257  1.00  0.00    -0.073 C 
ATOM      7  C   UNL     1      -0.372  17.953  44.642  1.00  0.00     0.008 C 
ATOM      8  C   UNL     1      -2.235  17.336  46.122  1.00  0.00     0.031 C 
ATOM      9  C   UNL     1      -2.958  16.101  46.660  1.00  0.00     0.005 C 
ATOM     10  C   UNL     1      -3.125  15.068  45.545  1.00  0.00     0.008 C 
ATOM     11  C   UNL     1      -1.758  14.467  45.090  1.00  0.00    -0.018 C 
ATOM     12  C   UNL     1      -1.458  13.213  45.966  1.00  0.00     0.088 C 
ATOM     13  C   UNL     1      -0.017  12.819  45.876  1.00  0.00     0.159 C 
ATOM     14  O   UNL     1       0.289  11.663  45.480  1.00  0.00    -0.295 OA
ATOM     15  C   UNL     1      -1.925  13.992  43.626  1.00  0.00     0.012 C 
ATOM     16  C   UNL     1       2.787  12.117  46.618  1.00  0.00     0.039 C 
ENDROOT
TORSDOF 0
ENDMDL
MODEL 6
REMARK VINA RESULT:    -4.059      1.811      2.652
REMARK INTER + INTRA:          -4.059
REMARK INTER:                  -4.059
REMARK INTRA:                   0.000
REMARK UNBOUND:                 0.000
REMARK SMILES C=C1CCC[C@]2(C)CC(=O)C(=C(C)C)C[C@H]12
REMARK SMILES IDX 13 1 12 2 11 3 15 4 16 5 2 6 1 7 3 8 4 9 5 10 6 11 8 12 9 13
REMARK SMILES IDX 10 14 7 15 14 16
REMARK H PARENT
REMARK Flexibility Score: inf
ROOT
ATOM      1  C   UNL     1       1.329  12.357  45.116  1.00  0.00     0.039 C 
ATOM      2  C   UNL     1       1.190  13.379  46.223  1.00  0.00    -0.070 C 
ATOM      3  C   UNL     1       0.404  14.484  46.065  1.00  0.00    -0.006 C 
ATOM      4  C   UNL     1      -0.314  14.783  44.759  1.00  0.00     0.047 C 
ATOM      5  C   UNL     1      -1.670  15.492  45.006  1.00  0.00     0.025 C 
ATOM      6  C   UNL     1      -2.345  15.738  43.661  1.00  0.00    -0.073 C 
ATOM      7  C   UNL     1      -3.125  14.791  43.116  1.00  0.00     0.008 C 
ATOM      8  C   UNL     1      -2.080  17.003  42.877  1.00  0.00     0.031 C 
ATOM      9  C   UNL     1      -1.267  18.019  43.678  1.00  0.00     0.005 C 
ATOM     10  C   UNL     1      -1.809  18.113  45.104  1.00  0.00     0.008 C 
ATOM     11  C   UNL     1      -1.570  16.799  45.913  1.00  0.00    -0.018 C 
ATOM     12  C   UNL     1      -0.186  16.905  46.622  1.00  0.00     0.088 C 
ATOM     13  C   UNL     1       0.294  15.563  47.080  1.00  0.00     0.159 C 
ATOM     14  O   UNL     1       0.547  15.376  48.301  1.00  0.00    -0.295 OA
ATOM     15  C   UNL     1      -2.659  16.726  47.012  1.00  0.00     0.012 C 
ATOM     16  C   UNL     1       1.986  13.139  47.485  1.00  0.00     0.039 C 
ENDROOT
TORSDOF 0
ENDMDL
MODEL 7
REMARK VINA RESULT:    -3.604      1.483      4.789
REMARK INTER + INTRA:          -3.604
REMARK INTER:                  -3.604
REMARK INTRA:                   0.000
REMARK UNBOUND:                 0.000
REMARK SMILES C=C1CCC[C@]2(C)CC(=O)C(=C(C)C)C[C@H]12
REMARK SMILES IDX 13 1 12 2 11 3 15 4 16 5 2 6 1 7 3 8 4 9 5 10 6 11 8 12 9 13
REMARK SMILES IDX 10 14 7 15 14 16
REMARK H PARENT
REMARK Flexibility Score: inf
ROOT
ATOM      1  C   UNL     1      -2.583  13.238  45.120  1.00  0.00     0.039 C 
ATOM      2  C   UNL     1      -1.717  14.318  45.731  1.00  0.00    -0.070 C 
ATOM      3  C   UNL     1      -0.463  14.037  46.192  1.00  0.00    -0.006 C 
ATOM      4  C   UNL     1       0.104  12.627  46.180  1.00  0.00     0.047 C 
ATOM      5  C   UNL     1       1.635  12.632  45.942  1.00  0.00     0.025 C 
ATOM      6  C   UNL     1       2.131  11.190  45.917  1.00  0.00    -0.073 C 
ATOM      7  C   UNL     1       2.120  10.494  44.768  1.00  0.00     0.008 C 
ATOM      8  C   UNL     1       2.555  10.489  47.188  1.00  0.00     0.031 C 
ATOM      9  C   UNL     1       2.615  11.444  48.380  1.00  0.00     0.005 C 
ATOM     10  C   UNL     1       3.301  12.747  47.970  1.00  0.00     0.008 C 
ATOM     11  C   UNL     1       2.450  13.564  46.947  1.00  0.00    -0.018 C 
ATOM     12  C   UNL     1       1.508  14.517  47.743  1.00  0.00     0.088 C 
ATOM     13  C   UNL     1       0.401  15.033  46.878  1.00  0.00     0.159 C 
ATOM     14  O   UNL     1       0.259  16.275  46.724  1.00  0.00    -0.295 OA
ATOM     15  C   UNL     1       3.428  14.441  46.127  1.00  0.00     0.012 C 
ATOM     16  C   UNL     1      -2.317  15.701  45.842  1.00  0.00     0.039 C 
ENDROOT
TORSDOF 0
ENDMDL
MODEL 8
REMARK VINA RESULT:    -3.491      1.841      4.057
REMARK INTER + INTRA:          -3.491
REMARK INTER:                  -3.491
REMARK INTRA:                   0.000
REMARK UNBOUND:                 0.000
REMARK SMILES C=C1CCC[C@]2(C)CC(=O)C(=C(C)C)C[C@H]12
REMARK SMILES IDX 13 1 12 2 11 3 15 4 16 5 2 6 1 7 3 8 4 9 5 10 6 11 8 12 9 13
REMARK SMILES IDX 10 14 7 15 14 16
REMARK H PARENT
REMARK Flexibility Score: inf
ROOT
ATOM      1  C   UNL     1       3.716  15.354  47.367  1.00  0.00     0.039 C 
ATOM      2  C   UNL     1       4.119  13.904  47.211  1.00  0.00    -0.070 C 
ATOM      3  C   UNL     1       3.206  12.954  46.856  1.00  0.00    -0.006 C 
ATOM      4  C   UNL     1       1.733  13.280  46.667  1.00  0.00     0.047 C 
ATOM      5  C   UNL     1       1.094  12.404  45.561  1.00  0.00     0.025 C 
ATOM      6  C   UNL     1      -0.370  12.801  45.408  1.00  0.00    -0.073 C 
ATOM      7  C   UNL     1      -0.713  13.804  44.583  1.00  0.00     0.008 C 
ATOM      8  C   UNL     1      -1.447  12.143  46.241  1.00  0.00     0.031 C 
ATOM      9  C   UNL     1      -0.912  10.956  47.041  1.00  0.00     0.005 C 
ATOM     10  C   UNL     1      -0.009  10.096  46.157  1.00  0.00     0.008 C 
ATOM     11  C   UNL     1       1.308  10.837  45.763  1.00  0.00    -0.018 C 
ATOM     12  C   UNL     1       2.384  10.536  46.850  1.00  0.00     0.088 C 
ATOM     13  C   UNL     1       3.522  11.504  46.769  1.00  0.00     0.159 C 
ATOM     14  O   UNL     1       4.693  11.075  46.591  1.00  0.00    -0.295 OA
ATOM     15  C   UNL     1       1.801  10.227  44.427  1.00  0.00     0.012 C 
ATOM     16  C   UNL     1       5.561  13.556  47.500  1.00  0.00     0.039 C 
ENDROOT
TORSDOF 0
ENDMDL
