MODEL 1
REMARK VINA RESULT:    -5.990      0.000      0.000
REMARK INTER + INTRA:          -9.978
REMARK INTER:                  -8.791
REMARK INTRA:                  -1.187
REMARK UNBOUND:                -1.187
REMARK SMILES O=c1c(O[C@@H]2O[C@H](CO)[C@@H](O)[C@@H](O)[C@@H]2O)c(-c2ccc(O)c(O)c2)oc2cc(O)cc(O)c12
REMARK SMILES IDX 4 1 3 2 16 3 25 4 2 5 26 6 1 7 33 8 27 9 31 10 28 11 30 12
REMARK SMILES IDX 17 13 18 14 19 15 20 16 24 17 22 18 21 19 23 21 32 23 29 25
REMARK SMILES IDX 5 27 14 28 6 29 12 30 7 31 10 32 15 33 13 35 8 37 9 38 11 40
REMARK H PARENT 21 20 23 22 32 24 29 26 15 34 13 36 9 39 11 41
REMARK Flexibility Score: inf
ROOT
ATOM      1  O   UNL     1      17.463  -3.100 -13.761  1.00  0.00    -0.454 OA
ENDROOT
BRANCH   1   2
ATOM      2  C   UNL     1      17.932  -2.959 -15.073  1.00  0.00     0.214 A 
ATOM      3  C   UNL     1      17.972  -4.045 -15.969  1.00  0.00     0.180 A 
ATOM      4  O   UNL     1      18.529  -3.888 -17.164  1.00  0.00    -0.452 OA
ATOM      5  C   UNL     1      18.382  -1.706 -15.505  1.00  0.00     0.239 A 
ATOM      6  C   UNL     1      19.003  -2.728 -17.604  1.00  0.00     0.146 A 
ATOM      7  O   UNL     1      18.349  -0.747 -14.690  1.00  0.00    -0.285 OA
ATOM      8  C   UNL     1      18.906  -1.554 -16.810  1.00  0.00     0.111 A 
ATOM      9  C   UNL     1      19.597  -2.684 -18.867  1.00  0.00     0.094 A 
ATOM     10  C   UNL     1      19.378  -0.323 -17.356  1.00  0.00     0.134 A 
ATOM     11  C   UNL     1      20.108  -1.489 -19.366  1.00  0.00     0.123 A 
ATOM     12  C   UNL     1      19.999  -0.319 -18.612  1.00  0.00     0.093 A 
BRANCH   3  13
ATOM     13  C   UNL     1      17.404  -5.370 -15.635  1.00  0.00     0.025 A 
ATOM     14  C   UNL     1      18.054  -6.232 -14.735  1.00  0.00     0.016 A 
ATOM     15  C   UNL     1      17.502  -7.478 -14.427  1.00  0.00     0.051 A 
ATOM     16  C   UNL     1      16.289  -7.874 -14.999  1.00  0.00     0.157 A 
ATOM     17  C   UNL     1      16.175  -5.761 -16.191  1.00  0.00     0.062 A 
ATOM     18  C   UNL     1      15.619  -7.011 -15.883  1.00  0.00     0.158 A 
BRANCH  16  19
ATOM     19  O   UNL     1      15.763  -9.124 -14.675  1.00  0.00    -0.504 OA
ATOM     20  H   UNL     1      16.053  -9.633 -13.848  1.00  0.00     0.293 HD
ENDBRANCH  16  19
BRANCH  18  21
ATOM     21  O   UNL     1      14.406  -7.396 -16.450  1.00  0.00    -0.504 OA
ATOM     22  H   UNL     1      13.955  -6.841 -17.169  1.00  0.00     0.293 HD
ENDBRANCH  18  21
ENDBRANCH   3  13
BRANCH  10  23
ATOM     23  O   UNL     1      19.240   0.916 -16.723  1.00  0.00    -0.507 OA
ATOM     24  H   UNL     1      18.398   1.241 -16.274  1.00  0.00     0.293 HD
ENDBRANCH  10  23
BRANCH  11  25
ATOM     25  O   UNL     1      20.714  -1.472 -20.621  1.00  0.00    -0.508 OA
ATOM     26  H   UNL     1      21.203  -2.281 -20.984  1.00  0.00     0.293 HD
ENDBRANCH  11  25
ENDBRANCH   1   2
BRANCH   1  27
ATOM     27  C   UNL     1      18.268  -3.584 -12.682  1.00  0.00     0.339 C 
ATOM     28  C   UNL     1      18.469  -2.515 -11.594  1.00  0.00     0.214 C 
ATOM     29  O   UNL     1      17.727  -4.785 -12.155  1.00  0.00    -0.332 OA
ATOM     30  C   UNL     1      17.131  -2.203 -10.915  1.00  0.00     0.180 C 
ATOM     31  C   UNL     1      16.485  -4.620 -11.477  1.00  0.00     0.179 C 
ATOM     32  C   UNL     1      16.498  -3.505 -10.393  1.00  0.00     0.177 C 
BRANCH  28  33
ATOM     33  O   UNL     1      19.008  -1.353 -12.168  1.00  0.00    -0.384 OA
ATOM     34  H   UNL     1      18.282  -0.674 -12.184  1.00  0.00     0.211 HD
ENDBRANCH  28  33
BRANCH  30  35
ATOM     35  O   UNL     1      17.343  -1.309  -9.853  1.00  0.00    -0.387 OA
ATOM     36  H   UNL     1      17.093  -1.789  -9.020  1.00  0.00     0.211 HD
ENDBRANCH  30  35
BRANCH  31  37
ATOM     37  C   UNL     1      15.273  -4.584 -12.436  1.00  0.00     0.191 C 
BRANCH  37  38
ATOM     38  O   UNL     1      14.789  -5.866 -12.723  1.00  0.00    -0.394 OA
ATOM     39  H   UNL     1      14.309  -6.169 -11.909  1.00  0.00     0.210 HD
ENDBRANCH  37  38
ENDBRANCH  31  37
BRANCH  32  40
ATOM     40  O   UNL     1      17.223  -3.951  -9.272  1.00  0.00    -0.387 OA
ATOM     41  H   UNL     1      18.083  -4.314  -9.609  1.00  0.00     0.211 HD
ENDBRANCH  32  40
ENDBRANCH   1  27
TORSDOF 12
ENDMDL
MODEL 2
REMARK VINA RESULT:    -5.988     12.599     14.326
REMARK INTER + INTRA:          -9.975
REMARK INTER:                  -9.486
REMARK INTRA:                  -0.489
REMARK UNBOUND:                -1.187
REMARK SMILES O=c1c(O[C@@H]2O[C@H](CO)[C@@H](O)[C@@H](O)[C@@H]2O)c(-c2ccc(O)c(O)c2)oc2cc(O)cc(O)c12
REMARK SMILES IDX 4 1 3 2 16 3 25 4 2 5 26 6 1 7 33 8 27 9 31 10 28 11 30 12
REMARK SMILES IDX 17 13 18 14 19 15 20 16 24 17 22 18 21 19 23 21 32 23 29 25
REMARK SMILES IDX 5 27 14 28 6 29 12 30 7 31 10 32 15 33 13 35 8 37 9 38 11 40
REMARK H PARENT 21 20 23 22 32 24 29 26 15 34 13 36 9 39 11 41
REMARK Flexibility Score: inf
ROOT
ATOM      1  O   UNL     1       8.542   4.491 -18.394  1.00  0.00    -0.454 OA
ENDROOT
BRANCH   1   2
ATOM      2  C   UNL     1       7.616   5.103 -17.539  1.00  0.00     0.214 A 
ATOM      3  C   UNL     1       6.374   4.511 -17.240  1.00  0.00     0.180 A 
ATOM      4  O   UNL     1       5.486   5.181 -16.515  1.00  0.00    -0.452 OA
ATOM      5  C   UNL     1       7.930   6.344 -16.971  1.00  0.00     0.239 A 
ATOM      6  C   UNL     1       5.724   6.376 -15.987  1.00  0.00     0.146 A 
ATOM      7  O   UNL     1       9.040   6.866 -17.255  1.00  0.00    -0.285 OA
ATOM      8  C   UNL     1       6.989   7.002 -16.146  1.00  0.00     0.111 A 
ATOM      9  C   UNL     1       4.706   7.004 -15.268  1.00  0.00     0.094 A 
ATOM     10  C   UNL     1       7.210   8.259 -15.507  1.00  0.00     0.134 A 
ATOM     11  C   UNL     1       4.913   8.257 -14.698  1.00  0.00     0.123 A 
ATOM     12  C   UNL     1       6.157   8.879 -14.821  1.00  0.00     0.093 A 
BRANCH   3  13
ATOM     13  C   UNL     1       6.014   3.150 -17.697  1.00  0.00     0.025 A 
ATOM     14  C   UNL     1       5.291   2.951 -18.887  1.00  0.00     0.016 A 
ATOM     15  C   UNL     1       4.964   1.660 -19.306  1.00  0.00     0.051 A 
ATOM     16  C   UNL     1       5.365   0.550 -18.556  1.00  0.00     0.157 A 
ATOM     17  C   UNL     1       6.435   2.033 -16.957  1.00  0.00     0.062 A 
ATOM     18  C   UNL     1       6.108   0.735 -17.377  1.00  0.00     0.158 A 
BRANCH  16  19
ATOM     19  O   UNL     1       5.022  -0.728 -18.998  1.00  0.00    -0.504 OA
ATOM     20  H   UNL     1       5.448  -1.563 -18.614  1.00  0.00     0.293 HD
ENDBRANCH  16  19
BRANCH  18  21
ATOM     21  O   UNL     1       6.518  -0.367 -16.629  1.00  0.00    -0.504 OA
ATOM     22  H   UNL     1       7.440  -0.411 -16.210  1.00  0.00     0.293 HD
ENDBRANCH  18  21
ENDBRANCH   3  13
BRANCH  10  23
ATOM     23  O   UNL     1       8.440   8.923 -15.495  1.00  0.00    -0.507 OA
ATOM     24  H   UNL     1       8.896   9.303 -16.309  1.00  0.00     0.293 HD
ENDBRANCH  10  23
BRANCH  11  25
ATOM     25  O   UNL     1       3.876   8.875 -14.002  1.00  0.00    -0.508 OA
ATOM     26  H   UNL     1       3.242   9.521 -14.458  1.00  0.00     0.293 HD
ENDBRANCH  11  25
ENDBRANCH   1   2
BRANCH   1  27
ATOM     27  C   UNL     1       8.931   3.118 -18.282  1.00  0.00     0.339 C 
ATOM     28  C   UNL     1       9.254   2.503 -19.655  1.00  0.00     0.214 C 
ATOM     29  O   UNL     1      10.007   2.978 -17.369  1.00  0.00    -0.332 OA
ATOM     30  C   UNL     1      10.499   3.169 -20.247  1.00  0.00     0.180 C 
ATOM     31  C   UNL     1      11.236   3.544 -17.819  1.00  0.00     0.179 C 
ATOM     32  C   UNL     1      11.662   3.083 -19.242  1.00  0.00     0.177 C 
BRANCH  28  33
ATOM     33  O   UNL     1       8.156   2.667 -20.515  1.00  0.00    -0.384 OA
ATOM     34  H   UNL     1       7.438   3.107 -19.988  1.00  0.00     0.211 HD
ENDBRANCH  28  33
BRANCH  30  35
ATOM     35  O   UNL     1      10.848   2.527 -21.446  1.00  0.00    -0.387 OA
ATOM     36  H   UNL     1      11.563   3.074 -21.865  1.00  0.00     0.211 HD
ENDBRANCH  30  35
BRANCH  31  37
ATOM     37  C   UNL     1      11.324   5.068 -17.572  1.00  0.00     0.191 C 
BRANCH  37  38
ATOM     38  O   UNL     1      11.262   5.800 -18.764  1.00  0.00    -0.394 OA
ATOM     39  H   UNL     1      11.757   6.643 -18.597  1.00  0.00     0.210 HD
ENDBRANCH  37  38
ENDBRANCH  31  37
BRANCH  32  40
ATOM     40  O   UNL     1      12.121   1.754 -19.185  1.00  0.00    -0.387 OA
ATOM     41  H   UNL     1      11.326   1.179 -19.034  1.00  0.00     0.211 HD
ENDBRANCH  32  40
ENDBRANCH   1  27
TORSDOF 12
ENDMDL
MODEL 3
REMARK VINA RESULT:    -5.870      3.810      7.136
REMARK INTER + INTRA:          -9.802
REMARK INTER:                  -8.211
REMARK INTRA:                  -1.591
REMARK UNBOUND:                -1.187
REMARK SMILES O=c1c(O[C@@H]2O[C@H](CO)[C@@H](O)[C@@H](O)[C@@H]2O)c(-c2ccc(O)c(O)c2)oc2cc(O)cc(O)c12
REMARK SMILES IDX 4 1 3 2 16 3 25 4 2 5 26 6 1 7 33 8 27 9 31 10 28 11 30 12
REMARK SMILES IDX 17 13 18 14 19 15 20 16 24 17 22 18 21 19 23 21 32 23 29 25
REMARK SMILES IDX 5 27 14 28 6 29 12 30 7 31 10 32 15 33 13 35 8 37 9 38 11 40
REMARK H PARENT 21 20 23 22 32 24 29 26 15 34 13 36 9 39 11 41
REMARK Flexibility Score: inf
ROOT
ATOM      1  O   UNL     1      18.770   0.458 -10.616  1.00  0.00    -0.454 OA
ENDROOT
BRANCH   1   2
ATOM      2  C   UNL     1      18.658  -0.744 -11.327  1.00  0.00     0.214 A 
ATOM      3  C   UNL     1      19.011  -1.982 -10.756  1.00  0.00     0.180 A 
ATOM      4  O   UNL     1      18.994  -3.078 -11.506  1.00  0.00    -0.452 OA
ATOM      5  C   UNL     1      18.189  -0.714 -12.646  1.00  0.00     0.239 A 
ATOM      6  C   UNL     1      18.593  -3.092 -12.772  1.00  0.00     0.146 A 
ATOM      7  O   UNL     1      17.886   0.401 -13.146  1.00  0.00    -0.285 OA
ATOM      8  C   UNL     1      18.116  -1.910 -13.398  1.00  0.00     0.111 A 
ATOM      9  C   UNL     1      18.646  -4.297 -13.477  1.00  0.00     0.094 A 
ATOM     10  C   UNL     1      17.642  -1.996 -14.741  1.00  0.00     0.134 A 
ATOM     11  C   UNL     1      18.236  -4.356 -14.805  1.00  0.00     0.123 A 
ATOM     12  C   UNL     1      17.740  -3.211 -15.431  1.00  0.00     0.093 A 
BRANCH   3  13
ATOM     13  C   UNL     1      19.398  -2.118  -9.334  1.00  0.00     0.025 A 
ATOM     14  C   UNL     1      20.736  -1.970  -8.928  1.00  0.00     0.016 A 
ATOM     15  C   UNL     1      21.083  -2.097  -7.581  1.00  0.00     0.051 A 
ATOM     16  C   UNL     1      20.101  -2.357  -6.620  1.00  0.00     0.157 A 
ATOM     17  C   UNL     1      18.411  -2.358  -8.364  1.00  0.00     0.062 A 
ATOM     18  C   UNL     1      18.758  -2.485  -7.011  1.00  0.00     0.158 A 
BRANCH  16  19
ATOM     19  O   UNL     1      20.478  -2.481  -5.283  1.00  0.00    -0.504 OA
ATOM     20  H   UNL     1      21.255  -1.962  -4.892  1.00  0.00     0.293 HD
ENDBRANCH  16  19
BRANCH  18  21
ATOM     21  O   UNL     1      17.773  -2.736  -6.058  1.00  0.00    -0.504 OA
ATOM     22  H   UNL     1      18.003  -2.884  -5.082  1.00  0.00     0.293 HD
ENDBRANCH  18  21
ENDBRANCH   3  13
BRANCH  10  23
ATOM     23  O   UNL     1      17.047  -0.933 -15.429  1.00  0.00    -0.507 OA
ATOM     24  H   UNL     1      17.482  -0.420 -16.179  1.00  0.00     0.293 HD
ENDBRANCH  10  23
BRANCH  11  25
ATOM     25  O   UNL     1      18.316  -5.565 -15.496  1.00  0.00    -0.508 OA
ATOM     26  H   UNL     1      18.595  -6.422 -15.033  1.00  0.00     0.293 HD
ENDBRANCH  11  25
ENDBRANCH   1   2
BRANCH   1  27
ATOM     27  C   UNL     1      19.980   1.218 -10.536  1.00  0.00     0.339 C 
ATOM     28  C   UNL     1      19.800   2.639 -11.097  1.00  0.00     0.214 C 
ATOM     29  O   UNL     1      20.475   1.229  -9.207  1.00  0.00    -0.332 OA
ATOM     30  C   UNL     1      18.834   3.432 -10.212  1.00  0.00     0.180 C 
ATOM     31  C   UNL     1      19.668   1.958  -8.286  1.00  0.00     0.179 C 
ATOM     32  C   UNL     1      19.321   3.400  -8.752  1.00  0.00     0.177 C 
BRANCH  28  33
ATOM     33  O   UNL     1      19.313   2.568 -12.412  1.00  0.00    -0.384 OA
ATOM     34  H   UNL     1      20.013   2.955 -13.001  1.00  0.00     0.211 HD
ENDBRANCH  28  33
BRANCH  30  35
ATOM     35  O   UNL     1      18.761   4.757 -10.669  1.00  0.00    -0.387 OA
ATOM     36  H   UNL     1      17.924   5.143 -10.298  1.00  0.00     0.211 HD
ENDBRANCH  30  35
BRANCH  31  37
ATOM     37  C   UNL     1      18.470   1.139  -7.753  1.00  0.00     0.191 C 
BRANCH  37  38
ATOM     38  O   UNL     1      17.385   1.953  -7.408  1.00  0.00    -0.394 OA
ATOM     39  H   UNL     1      17.597   2.858  -7.754  1.00  0.00     0.210 HD
ENDBRANCH  37  38
ENDBRANCH  31  37
BRANCH  32  40
ATOM     40  O   UNL     1      20.461   4.217  -8.632  1.00  0.00    -0.387 OA
ATOM     41  H   UNL     1      20.714   4.222  -7.673  1.00  0.00     0.211 HD
ENDBRANCH  32  40
ENDBRANCH   1  27
TORSDOF 12
ENDMDL
MODEL 4
REMARK VINA RESULT:    -5.863     10.313     12.404
REMARK INTER + INTRA:          -9.792
REMARK INTER:                  -8.119
REMARK INTRA:                  -1.673
REMARK UNBOUND:                -1.187
REMARK SMILES O=c1c(O[C@@H]2O[C@H](CO)[C@@H](O)[C@@H](O)[C@@H]2O)c(-c2ccc(O)c(O)c2)oc2cc(O)cc(O)c12
REMARK SMILES IDX 4 1 3 2 16 3 25 4 2 5 26 6 1 7 33 8 27 9 31 10 28 11 30 12
REMARK SMILES IDX 17 13 18 14 19 15 20 16 24 17 22 18 21 19 23 21 32 23 29 25
REMARK SMILES IDX 5 27 14 28 6 29 12 30 7 31 10 32 15 33 13 35 8 37 9 38 11 40
REMARK H PARENT 21 20 23 22 32 24 29 26 15 34 13 36 9 39 11 41
REMARK Flexibility Score: inf
ROOT
ATOM      1  O   UNL     1      10.015   2.877 -15.540  1.00  0.00    -0.454 OA
ENDROOT
BRANCH   1   2
ATOM      2  C   UNL     1       9.036   2.706 -16.527  1.00  0.00     0.214 A 
ATOM      3  C   UNL     1       9.091   3.390 -17.757  1.00  0.00     0.180 A 
ATOM      4  O   UNL     1       8.083   3.280 -18.613  1.00  0.00    -0.452 OA
ATOM      5  C   UNL     1       7.967   1.836 -16.282  1.00  0.00     0.239 A 
ATOM      6  C   UNL     1       7.030   2.497 -18.408  1.00  0.00     0.146 A 
ATOM      7  O   UNL     1       7.925   1.239 -15.174  1.00  0.00    -0.285 OA
ATOM      8  C   UNL     1       6.941   1.688 -17.245  1.00  0.00     0.111 A 
ATOM      9  C   UNL     1       6.011   2.483 -19.363  1.00  0.00     0.094 A 
ATOM     10  C   UNL     1       5.816   0.821 -17.104  1.00  0.00     0.134 A 
ATOM     11  C   UNL     1       4.889   1.677 -19.187  1.00  0.00     0.123 A 
ATOM     12  C   UNL     1       4.795   0.855 -18.062  1.00  0.00     0.093 A 
BRANCH   3  13
ATOM     13  C   UNL     1      10.246   4.231 -18.145  1.00  0.00     0.025 A 
ATOM     14  C   UNL     1      11.424   3.656 -18.652  1.00  0.00     0.016 A 
ATOM     15  C   UNL     1      12.503   4.465 -19.019  1.00  0.00     0.051 A 
ATOM     16  C   UNL     1      12.416   5.855 -18.901  1.00  0.00     0.157 A 
ATOM     17  C   UNL     1      10.153   5.629 -18.048  1.00  0.00     0.062 A 
ATOM     18  C   UNL     1      11.234   6.442 -18.416  1.00  0.00     0.158 A 
BRANCH  16  19
ATOM     19  O   UNL     1      13.509   6.637 -19.272  1.00  0.00    -0.504 OA
ATOM     20  H   UNL     1      14.338   6.238 -19.696  1.00  0.00     0.293 HD
ENDBRANCH  16  19
BRANCH  18  21
ATOM     21  O   UNL     1      11.137   7.828 -18.304  1.00  0.00    -0.504 OA
ATOM     22  H   UNL     1      10.258   8.312 -18.439  1.00  0.00     0.293 HD
ENDBRANCH  18  21
ENDBRANCH   3  13
BRANCH  10  23
ATOM     23  O   UNL     1       5.667  -0.103 -16.065  1.00  0.00    -0.507 OA
ATOM     24  H   UNL     1       4.811  -0.265 -15.558  1.00  0.00     0.293 HD
ENDBRANCH  10  23
BRANCH  11  25
ATOM     25  O   UNL     1       3.875   1.694 -20.142  1.00  0.00    -0.508 OA
ATOM     26  H   UNL     1       3.550   0.842 -20.585  1.00  0.00     0.293 HD
ENDBRANCH  11  25
ENDBRANCH   1   2
BRANCH   1  27
ATOM     27  C   UNL     1      10.067   4.010 -14.667  1.00  0.00     0.339 C 
ATOM     28  C   UNL     1       9.914   3.602 -13.192  1.00  0.00     0.214 C 
ATOM     29  O   UNL     1      11.250   4.760 -14.892  1.00  0.00    -0.332 OA
ATOM     30  C   UNL     1      11.122   2.771 -12.751  1.00  0.00     0.180 C 
ATOM     31  C   UNL     1      12.448   4.096 -14.500  1.00  0.00     0.179 C 
ATOM     32  C   UNL     1      12.420   3.543 -13.048  1.00  0.00     0.177 C 
BRANCH  28  33
ATOM     33  O   UNL     1       8.728   2.868 -13.027  1.00  0.00    -0.384 OA
ATOM     34  H   UNL     1       8.850   2.009 -13.511  1.00  0.00     0.211 HD
ENDBRANCH  28  33
BRANCH  30  35
ATOM     35  O   UNL     1      11.025   2.496 -11.378  1.00  0.00    -0.387 OA
ATOM     36  H   UNL     1      11.845   2.862 -10.954  1.00  0.00     0.211 HD
ENDBRANCH  30  35
BRANCH  31  37
ATOM     37  C   UNL     1      12.965   3.103 -15.567  1.00  0.00     0.191 C 
BRANCH  37  38
ATOM     38  O   UNL     1      12.804   1.771 -15.170  1.00  0.00    -0.394 OA
ATOM     39  H   UNL     1      11.903   1.710 -14.760  1.00  0.00     0.210 HD
ENDBRANCH  37  38
ENDBRANCH  31  37
BRANCH  32  40
ATOM     40  O   UNL     1      12.536   4.610 -12.138  1.00  0.00    -0.387 OA
ATOM     41  H   UNL     1      13.268   4.377 -11.510  1.00  0.00     0.211 HD
ENDBRANCH  32  40
ENDBRANCH   1  27
TORSDOF 12
ENDMDL
MODEL 5
REMARK VINA RESULT:    -5.847      3.706      7.599
REMARK INTER + INTRA:          -9.769
REMARK INTER:                  -8.517
REMARK INTRA:                  -1.251
REMARK UNBOUND:                -1.187
REMARK SMILES O=c1c(O[C@@H]2O[C@H](CO)[C@@H](O)[C@@H](O)[C@@H]2O)c(-c2ccc(O)c(O)c2)oc2cc(O)cc(O)c12
REMARK SMILES IDX 4 1 3 2 16 3 25 4 2 5 26 6 1 7 33 8 27 9 31 10 28 11 30 12
REMARK SMILES IDX 17 13 18 14 19 15 20 16 24 17 22 18 21 19 23 21 32 23 29 25
REMARK SMILES IDX 5 27 14 28 6 29 12 30 7 31 10 32 15 33 13 35 8 37 9 38 11 40
REMARK H PARENT 21 20 23 22 32 24 29 26 15 34 13 36 9 39 11 41
REMARK Flexibility Score: inf
ROOT
ATOM      1  O   UNL     1      16.414  -2.103 -11.989  1.00  0.00    -0.454 OA
ENDROOT
BRANCH   1   2
ATOM      2  C   UNL     1      15.657  -0.996 -11.587  1.00  0.00     0.214 A 
ATOM      3  C   UNL     1      15.880  -0.350 -10.355  1.00  0.00     0.180 A 
ATOM      4  O   UNL     1      15.064   0.624  -9.968  1.00  0.00    -0.452 OA
ATOM      5  C   UNL     1      14.644  -0.521 -12.428  1.00  0.00     0.239 A 
ATOM      6  C   UNL     1      14.067   1.083 -10.716  1.00  0.00     0.146 A 
ATOM      7  O   UNL     1      14.449  -1.113 -13.521  1.00  0.00    -0.285 OA
ATOM      8  C   UNL     1      13.835   0.565 -12.017  1.00  0.00     0.111 A 
ATOM      9  C   UNL     1      13.251   2.090 -10.196  1.00  0.00     0.094 A 
ATOM     10  C   UNL     1      12.787   1.136 -12.799  1.00  0.00     0.134 A 
ATOM     11  C   UNL     1      12.194   2.599 -10.945  1.00  0.00     0.123 A 
ATOM     12  C   UNL     1      11.965   2.121 -12.237  1.00  0.00     0.093 A 
BRANCH   3  13
ATOM     13  C   UNL     1      17.006  -0.709  -9.464  1.00  0.00     0.025 A 
ATOM     14  C   UNL     1      18.019   0.220  -9.164  1.00  0.00     0.016 A 
ATOM     15  C   UNL     1      19.072  -0.134  -8.318  1.00  0.00     0.051 A 
ATOM     16  C   UNL     1      19.122  -1.410  -7.747  1.00  0.00     0.157 A 
ATOM     17  C   UNL     1      17.047  -1.981  -8.873  1.00  0.00     0.062 A 
ATOM     18  C   UNL     1      18.104  -2.338  -8.022  1.00  0.00     0.158 A 
BRANCH  16  19
ATOM     19  O   UNL     1      20.187  -1.736  -6.908  1.00  0.00    -0.504 OA
ATOM     20  H   UNL     1      20.873  -1.050  -6.617  1.00  0.00     0.293 HD
ENDBRANCH  16  19
BRANCH  18  21
ATOM     21  O   UNL     1      18.143  -3.609  -7.450  1.00  0.00    -0.504 OA
ATOM     22  H   UNL     1      17.300  -4.151  -7.300  1.00  0.00     0.293 HD
ENDBRANCH  18  21
ENDBRANCH   3  13
BRANCH  10  23
ATOM     23  O   UNL     1      12.529   0.793 -14.130  1.00  0.00    -0.507 OA
ATOM     24  H   UNL     1      13.230   0.509 -14.796  1.00  0.00     0.293 HD
ENDBRANCH  10  23
BRANCH  11  25
ATOM     25  O   UNL     1      11.380   3.590 -10.399  1.00  0.00    -0.508 OA
ATOM     26  H   UNL     1      11.720   4.533 -10.249  1.00  0.00     0.293 HD
ENDBRANCH  11  25
ENDBRANCH   1   2
BRANCH   1  27
ATOM     27  C   UNL     1      17.185  -2.137 -13.194  1.00  0.00     0.339 C 
ATOM     28  C   UNL     1      18.654  -2.501 -12.922  1.00  0.00     0.214 C 
ATOM     29  O   UNL     1      16.588  -3.004 -14.145  1.00  0.00    -0.332 OA
ATOM     30  C   UNL     1      18.749  -3.942 -12.411  1.00  0.00     0.180 C 
ATOM     31  C   UNL     1      16.632  -4.383 -13.789  1.00  0.00     0.179 C 
ATOM     32  C   UNL     1      18.049  -4.891 -13.400  1.00  0.00     0.177 C 
BRANCH  28  33
ATOM     33  O   UNL     1      19.194  -1.612 -11.980  1.00  0.00    -0.384 OA
ATOM     34  H   UNL     1      18.431  -1.230 -11.471  1.00  0.00     0.211 HD
ENDBRANCH  28  33
BRANCH  30  35
ATOM     35  O   UNL     1      20.099  -4.300 -12.270  1.00  0.00    -0.387 OA
ATOM     36  H   UNL     1      20.322  -4.886 -13.041  1.00  0.00     0.211 HD
ENDBRANCH  30  35
BRANCH  31  37
ATOM     37  C   UNL     1      15.501  -4.793 -12.818  1.00  0.00     0.191 C 
BRANCH  37  38
ATOM     38  O   UNL     1      14.342  -4.031 -13.006  1.00  0.00    -0.394 OA
ATOM     39  H   UNL     1      14.047  -4.201 -13.938  1.00  0.00     0.210 HD
ENDBRANCH  37  38
ENDBRANCH  31  37
BRANCH  32  40
ATOM     40  O   UNL     1      18.838  -5.010 -14.558  1.00  0.00    -0.387 OA
ATOM     41  H   UNL     1      19.759  -5.230 -14.260  1.00  0.00     0.211 HD
ENDBRANCH  32  40
ENDBRANCH   1  27
TORSDOF 12
ENDMDL
MODEL 6
REMARK VINA RESULT:    -5.834      3.785      7.656
REMARK INTER + INTRA:          -9.750
REMARK INTER:                  -8.106
REMARK INTRA:                  -1.643
REMARK UNBOUND:                -1.187
REMARK SMILES O=c1c(O[C@@H]2O[C@H](CO)[C@@H](O)[C@@H](O)[C@@H]2O)c(-c2ccc(O)c(O)c2)oc2cc(O)cc(O)c12
REMARK SMILES IDX 4 1 3 2 16 3 25 4 2 5 26 6 1 7 33 8 27 9 31 10 28 11 30 12
REMARK SMILES IDX 17 13 18 14 19 15 20 16 24 17 22 18 21 19 23 21 32 23 29 25
REMARK SMILES IDX 5 27 14 28 6 29 12 30 7 31 10 32 15 33 13 35 8 37 9 38 11 40
REMARK H PARENT 21 20 23 22 32 24 29 26 15 34 13 36 9 39 11 41
REMARK Flexibility Score: inf
ROOT
ATOM      1  O   UNL     1      16.420  -2.308 -12.184  1.00  0.00    -0.454 OA
ENDROOT
BRANCH   1   2
ATOM      2  C   UNL     1      15.848  -1.142 -11.659  1.00  0.00     0.214 A 
ATOM      3  C   UNL     1      16.282  -0.583 -10.442  1.00  0.00     0.180 A 
ATOM      4  O   UNL     1      15.635   0.458  -9.931  1.00  0.00    -0.452 OA
ATOM      5  C   UNL     1      14.809  -0.519 -12.361  1.00  0.00     0.239 A 
ATOM      6  C   UNL     1      14.620   1.059 -10.541  1.00  0.00     0.146 A 
ATOM      7  O   UNL     1      14.425  -1.035 -13.442  1.00  0.00    -0.285 OA
ATOM      8  C   UNL     1      14.184   0.631 -11.823  1.00  0.00     0.111 A 
ATOM      9  C   UNL     1      13.990   2.127  -9.897  1.00  0.00     0.094 A 
ATOM     10  C   UNL     1      13.128   1.351 -12.458  1.00  0.00     0.134 A 
ATOM     11  C   UNL     1      12.922   2.785 -10.500  1.00  0.00     0.123 A 
ATOM     12  C   UNL     1      12.495   2.395 -11.771  1.00  0.00     0.093 A 
BRANCH   3  13
ATOM     13  C   UNL     1      17.452  -1.106  -9.701  1.00  0.00     0.025 A 
ATOM     14  C   UNL     1      18.761  -0.744 -10.062  1.00  0.00     0.016 A 
ATOM     15  C   UNL     1      19.854  -1.243  -9.349  1.00  0.00     0.051 A 
ATOM     16  C   UNL     1      19.656  -2.096  -8.259  1.00  0.00     0.157 A 
ATOM     17  C   UNL     1      17.255  -1.945  -8.592  1.00  0.00     0.062 A 
ATOM     18  C   UNL     1      18.350  -2.447  -7.874  1.00  0.00     0.158 A 
BRANCH  16  19
ATOM     19  O   UNL     1      20.766  -2.581  -7.567  1.00  0.00    -0.504 OA
ATOM     20  H   UNL     1      21.074  -2.176  -6.692  1.00  0.00     0.293 HD
ENDBRANCH  16  19
BRANCH  18  21
ATOM     21  O   UNL     1      18.146  -3.289  -6.784  1.00  0.00    -0.504 OA
ATOM     22  H   UNL     1      17.224  -3.430  -6.387  1.00  0.00     0.293 HD
ENDBRANCH  18  21
ENDBRANCH   3  13
BRANCH  10  23
ATOM     23  O   UNL     1      12.684   1.100 -13.760  1.00  0.00    -0.507 OA
ATOM     24  H   UNL     1      11.988   1.645 -14.245  1.00  0.00     0.293 HD
ENDBRANCH  10  23
BRANCH  11  25
ATOM     25  O   UNL     1      12.296   3.835  -9.831  1.00  0.00    -0.508 OA
ATOM     26  H   UNL     1      11.295   3.980  -9.892  1.00  0.00     0.293 HD
ENDBRANCH  11  25
ENDBRANCH   1   2
BRANCH   1  27
ATOM     27  C   UNL     1      16.088  -3.624 -11.731  1.00  0.00     0.339 C 
ATOM     28  C   UNL     1      15.369  -4.438 -12.820  1.00  0.00     0.214 C 
ATOM     29  O   UNL     1      17.240  -4.290 -11.242  1.00  0.00    -0.332 OA
ATOM     30  C   UNL     1      16.323  -4.706 -13.988  1.00  0.00     0.180 C 
ATOM     31  C   UNL     1      18.200  -4.614 -12.244  1.00  0.00     0.179 C 
ATOM     32  C   UNL     1      17.609  -5.371 -13.466  1.00  0.00     0.177 C 
BRANCH  28  33
ATOM     33  O   UNL     1      14.237  -3.736 -13.264  1.00  0.00    -0.384 OA
ATOM     34  H   UNL     1      13.530  -4.411 -13.444  1.00  0.00     0.211 HD
ENDBRANCH  28  33
BRANCH  30  35
ATOM     35  O   UNL     1      15.693  -5.540 -14.926  1.00  0.00    -0.387 OA
ATOM     36  H   UNL     1      14.737  -5.273 -14.949  1.00  0.00     0.211 HD
ENDBRANCH  30  35
BRANCH  31  37
ATOM     37  C   UNL     1      19.128  -3.428 -12.596  1.00  0.00     0.191 C 
BRANCH  37  38
ATOM     38  O   UNL     1      20.408  -3.579 -12.052  1.00  0.00    -0.394 OA
ATOM     39  H   UNL     1      21.045  -3.452 -12.801  1.00  0.00     0.210 HD
ENDBRANCH  37  38
ENDBRANCH  31  37
BRANCH  32  40
ATOM     40  O   UNL     1      17.322  -6.699 -13.100  1.00  0.00    -0.387 OA
ATOM     41  H   UNL     1      17.699  -7.283 -13.809  1.00  0.00     0.211 HD
ENDBRANCH  32  40
ENDBRANCH   1  27
TORSDOF 12
ENDMDL
MODEL 7
REMARK VINA RESULT:    -5.805      5.067      9.010
REMARK INTER + INTRA:          -9.707
REMARK INTER:                  -8.060
REMARK INTRA:                  -1.647
REMARK UNBOUND:                -1.187
REMARK SMILES O=c1c(O[C@@H]2O[C@H](CO)[C@@H](O)[C@@H](O)[C@@H]2O)c(-c2ccc(O)c(O)c2)oc2cc(O)cc(O)c12
REMARK SMILES IDX 4 1 3 2 16 3 25 4 2 5 26 6 1 7 33 8 27 9 31 10 28 11 30 12
REMARK SMILES IDX 17 13 18 14 19 15 20 16 24 17 22 18 21 19 23 21 32 23 29 25
REMARK SMILES IDX 5 27 14 28 6 29 12 30 7 31 10 32 15 33 13 35 8 37 9 38 11 40
REMARK H PARENT 21 20 23 22 32 24 29 26 15 34 13 36 9 39 11 41
REMARK Flexibility Score: inf
ROOT
ATOM      1  O   UNL     1      17.476  -0.054 -10.705  1.00  0.00    -0.454 OA
ENDROOT
BRANCH   1   2
ATOM      2  C   UNL     1      18.483  -0.392  -9.793  1.00  0.00     0.214 A 
ATOM      3  C   UNL     1      19.811   0.051  -9.953  1.00  0.00     0.180 A 
ATOM      4  O   UNL     1      20.752  -0.387  -9.125  1.00  0.00    -0.452 OA
ATOM      5  C   UNL     1      18.165  -1.198  -8.694  1.00  0.00     0.239 A 
ATOM      6  C   UNL     1      20.504  -1.183  -8.091  1.00  0.00     0.146 A 
ATOM      7  O   UNL     1      16.977  -1.594  -8.569  1.00  0.00    -0.285 OA
ATOM      8  C   UNL     1      19.179  -1.592  -7.789  1.00  0.00     0.111 A 
ATOM      9  C   UNL     1      21.576  -1.609  -7.303  1.00  0.00     0.094 A 
ATOM     10  C   UNL     1      18.963  -2.399  -6.632  1.00  0.00     0.134 A 
ATOM     11  C   UNL     1      21.361  -2.445  -6.211  1.00  0.00     0.123 A 
ATOM     12  C   UNL     1      20.062  -2.837  -5.882  1.00  0.00     0.093 A 
BRANCH   3  13
ATOM     13  C   UNL     1      20.207   1.004 -11.014  1.00  0.00     0.025 A 
ATOM     14  C   UNL     1      20.218   2.390 -10.778  1.00  0.00     0.016 A 
ATOM     15  C   UNL     1      20.599   3.274 -11.790  1.00  0.00     0.051 A 
ATOM     16  C   UNL     1      20.988   2.791 -13.042  1.00  0.00     0.157 A 
ATOM     17  C   UNL     1      20.619   0.519 -12.266  1.00  0.00     0.062 A 
ATOM     18  C   UNL     1      21.003   1.406 -13.283  1.00  0.00     0.158 A 
BRANCH  16  19
ATOM     19  O   UNL     1      21.361   3.698 -14.034  1.00  0.00    -0.504 OA
ATOM     20  H   UNL     1      22.139   3.524 -14.658  1.00  0.00     0.293 HD
ENDBRANCH  16  19
BRANCH  18  21
ATOM     21  O   UNL     1      21.398   0.917 -14.526  1.00  0.00    -0.504 OA
ATOM     22  H   UNL     1      22.138   1.357 -15.060  1.00  0.00     0.293 HD
ENDBRANCH  18  21
ENDBRANCH   3  13
BRANCH  10  23
ATOM     23  O   UNL     1      17.700  -2.774  -6.165  1.00  0.00    -0.507 OA
ATOM     24  H   UNL     1      16.961  -3.145  -6.742  1.00  0.00     0.293 HD
ENDBRANCH  10  23
BRANCH  11  25
ATOM     25  O   UNL     1      22.447  -2.873  -5.450  1.00  0.00    -0.508 OA
ATOM     26  H   UNL     1      23.120  -2.218  -5.070  1.00  0.00     0.293 HD
ENDBRANCH  11  25
ENDBRANCH   1   2
BRANCH   1  27
ATOM     27  C   UNL     1      17.186  -0.817 -11.880  1.00  0.00     0.339 C 
ATOM     28  C   UNL     1      15.734  -1.326 -11.887  1.00  0.00     0.214 C 
ATOM     29  O   UNL     1      17.495  -0.074 -13.047  1.00  0.00    -0.332 OA
ATOM     30  C   UNL     1      14.766  -0.143 -11.996  1.00  0.00     0.180 C 
ATOM     31  C   UNL     1      16.645   1.048 -13.271  1.00  0.00     0.179 C 
ATOM     32  C   UNL     1      15.128   0.712 -13.223  1.00  0.00     0.177 C 
BRANCH  28  33
ATOM     33  O   UNL     1      15.485  -2.056 -10.714  1.00  0.00    -0.384 OA
ATOM     34  H   UNL     1      15.008  -2.885 -10.985  1.00  0.00     0.211 HD
ENDBRANCH  28  33
BRANCH  30  35
ATOM     35  O   UNL     1      13.452  -0.624 -12.111  1.00  0.00    -0.387 OA
ATOM     36  H   UNL     1      12.980  -0.019 -12.741  1.00  0.00     0.211 HD
ENDBRANCH  30  35
BRANCH  31  37
ATOM     37  C   UNL     1      17.064   2.294 -12.457  1.00  0.00     0.191 C 
BRANCH  37  38
ATOM     38  O   UNL     1      16.219   2.521 -11.365  1.00  0.00    -0.394 OA
ATOM     39  H   UNL     1      16.011   3.491 -11.371  1.00  0.00     0.210 HD
ENDBRANCH  37  38
ENDBRANCH  31  37
BRANCH  32  40
ATOM     40  O   UNL     1      14.766   0.015 -14.390  1.00  0.00    -0.387 OA
ATOM     41  H   UNL     1      14.476   0.694 -15.054  1.00  0.00     0.211 HD
ENDBRANCH  32  40
ENDBRANCH   1  27
TORSDOF 12
ENDMDL
MODEL 8
REMARK VINA RESULT:    -5.771      3.093      4.202
REMARK INTER + INTRA:          -9.658
REMARK INTER:                  -8.025
REMARK INTRA:                  -1.633
REMARK UNBOUND:                -1.187
REMARK SMILES O=c1c(O[C@@H]2O[C@H](CO)[C@@H](O)[C@@H](O)[C@@H]2O)c(-c2ccc(O)c(O)c2)oc2cc(O)cc(O)c12
REMARK SMILES IDX 4 1 3 2 16 3 25 4 2 5 26 6 1 7 33 8 27 9 31 10 28 11 30 12
REMARK SMILES IDX 17 13 18 14 19 15 20 16 24 17 22 18 21 19 23 21 32 23 29 25
REMARK SMILES IDX 5 27 14 28 6 29 12 30 7 31 10 32 15 33 13 35 8 37 9 38 11 40
REMARK H PARENT 21 20 23 22 32 24 29 26 15 34 13 36 9 39 11 41
REMARK Flexibility Score: inf
ROOT
ATOM      1  O   UNL     1      18.056  -0.211 -12.228  1.00  0.00    -0.454 OA
ENDROOT
BRANCH   1   2
ATOM      2  C   UNL     1      18.178  -0.372 -13.615  1.00  0.00     0.214 A 
ATOM      3  C   UNL     1      17.149  -0.940 -14.391  1.00  0.00     0.180 A 
ATOM      4  O   UNL     1      17.355  -1.174 -15.682  1.00  0.00    -0.452 OA
ATOM      5  C   UNL     1      19.358   0.037 -14.247  1.00  0.00     0.239 A 
ATOM      6  C   UNL     1      18.472  -0.838 -16.317  1.00  0.00     0.146 A 
ATOM      7  O   UNL     1      20.272   0.535 -13.539  1.00  0.00    -0.285 OA
ATOM      8  C   UNL     1      19.520  -0.162 -15.638  1.00  0.00     0.111 A 
ATOM      9  C   UNL     1      18.594  -1.160 -17.670  1.00  0.00     0.094 A 
ATOM     10  C   UNL     1      20.673   0.227 -16.384  1.00  0.00     0.134 A 
ATOM     11  C   UNL     1      19.748  -0.828 -18.374  1.00  0.00     0.123 A 
ATOM     12  C   UNL     1      20.780  -0.140 -17.731  1.00  0.00     0.093 A 
BRANCH   3  13
ATOM     13  C   UNL     1      15.826  -1.285 -13.824  1.00  0.00     0.025 A 
ATOM     14  C   UNL     1      14.792  -0.334 -13.764  1.00  0.00     0.016 A 
ATOM     15  C   UNL     1      13.548  -0.678 -13.230  1.00  0.00     0.051 A 
ATOM     16  C   UNL     1      13.312  -1.975 -12.765  1.00  0.00     0.157 A 
ATOM     17  C   UNL     1      15.580  -2.593 -13.377  1.00  0.00     0.062 A 
ATOM     18  C   UNL     1      14.331  -2.940 -12.841  1.00  0.00     0.158 A 
BRANCH  16  19
ATOM     19  O   UNL     1      12.061  -2.289 -12.235  1.00  0.00    -0.504 OA
ATOM     20  H   UNL     1      11.921  -2.453 -11.245  1.00  0.00     0.293 HD
ENDBRANCH  16  19
BRANCH  18  21
ATOM     21  O   UNL     1      14.101  -4.237 -12.386  1.00  0.00    -0.504 OA
ATOM     22  H   UNL     1      14.690  -5.012 -12.669  1.00  0.00     0.293 HD
ENDBRANCH  18  21
ENDBRANCH   3  13
BRANCH  10  23
ATOM     23  O   UNL     1      21.720   0.992 -15.860  1.00  0.00    -0.507 OA
ATOM     24  H   UNL     1      21.726   1.998 -15.806  1.00  0.00     0.293 HD
ENDBRANCH  10  23
BRANCH  11  25
ATOM     25  O   UNL     1      19.857  -1.177 -19.719  1.00  0.00    -0.508 OA
ATOM     26  H   UNL     1      19.104  -1.003 -20.374  1.00  0.00     0.293 HD
ENDBRANCH  11  25
ENDBRANCH   1   2
BRANCH   1  27
ATOM     27  C   UNL     1      18.267  -1.270 -11.290  1.00  0.00     0.339 C 
ATOM     28  C   UNL     1      19.399  -0.940 -10.301  1.00  0.00     0.214 C 
ATOM     29  O   UNL     1      17.057  -1.595 -10.625  1.00  0.00    -0.332 OA
ATOM     30  C   UNL     1      18.988   0.236  -9.410  1.00  0.00     0.180 C 
ATOM     31  C   UNL     1      16.581  -0.581  -9.744  1.00  0.00     0.179 C 
ATOM     32  C   UNL     1      17.643  -0.073  -8.729  1.00  0.00     0.177 C 
BRANCH  28  33
ATOM     33  O   UNL     1      20.569  -0.630 -11.012  1.00  0.00    -0.384 OA
ATOM     34  H   UNL     1      20.505  -1.089 -11.890  1.00  0.00     0.211 HD
ENDBRANCH  28  33
BRANCH  30  35
ATOM     35  O   UNL     1      19.981   0.458  -8.442  1.00  0.00    -0.387 OA
ATOM     36  H   UNL     1      19.901   1.408  -8.163  1.00  0.00     0.211 HD
ENDBRANCH  30  35
BRANCH  31  37
ATOM     37  C   UNL     1      15.792   0.530 -10.475  1.00  0.00     0.191 C 
BRANCH  37  38
ATOM     38  O   UNL     1      14.455   0.587 -10.063  1.00  0.00    -0.394 OA
ATOM     39  H   UNL     1      13.918   0.224 -10.813  1.00  0.00     0.210 HD
ENDBRANCH  37  38
ENDBRANCH  31  37
BRANCH  32  40
ATOM     40  O   UNL     1      17.846  -1.050  -7.737  1.00  0.00    -0.387 OA
ATOM     41  H   UNL     1      18.611  -1.608  -8.032  1.00  0.00     0.211 HD
ENDBRANCH  32  40
ENDBRANCH   1  27
TORSDOF 12
ENDMDL
MODEL 9
REMARK VINA RESULT:    -5.758      2.539      6.000
REMARK INTER + INTRA:          -9.638
REMARK INTER:                  -7.961
REMARK INTRA:                  -1.678
REMARK UNBOUND:                -1.187
REMARK SMILES O=c1c(O[C@@H]2O[C@H](CO)[C@@H](O)[C@@H](O)[C@@H]2O)c(-c2ccc(O)c(O)c2)oc2cc(O)cc(O)c12
REMARK SMILES IDX 4 1 3 2 16 3 25 4 2 5 26 6 1 7 33 8 27 9 31 10 28 11 30 12
REMARK SMILES IDX 17 13 18 14 19 15 20 16 24 17 22 18 21 19 23 21 32 23 29 25
REMARK SMILES IDX 5 27 14 28 6 29 12 30 7 31 10 32 15 33 13 35 8 37 9 38 11 40
REMARK H PARENT 21 20 23 22 32 24 29 26 15 34 13 36 9 39 11 41
REMARK Flexibility Score: inf
ROOT
ATOM      1  O   UNL     1      17.812  -2.919 -11.983  1.00  0.00    -0.454 OA
ENDROOT
BRANCH   1   2
ATOM      2  C   UNL     1      17.544  -3.660 -13.141  1.00  0.00     0.214 A 
ATOM      3  C   UNL     1      17.242  -3.040 -14.369  1.00  0.00     0.180 A 
ATOM      4  O   UNL     1      16.885  -3.784 -15.409  1.00  0.00    -0.452 OA
ATOM      5  C   UNL     1      17.568  -5.059 -13.075  1.00  0.00     0.239 A 
ATOM      6  C   UNL     1      16.857  -5.111 -15.384  1.00  0.00     0.146 A 
ATOM      7  O   UNL     1      17.830  -5.600 -11.970  1.00  0.00    -0.285 OA
ATOM      8  C   UNL     1      17.250  -5.826 -14.221  1.00  0.00     0.111 A 
ATOM      9  C   UNL     1      16.434  -5.793 -16.527  1.00  0.00     0.094 A 
ATOM     10  C   UNL     1      17.257  -7.252 -14.269  1.00  0.00     0.134 A 
ATOM     11  C   UNL     1      16.389  -7.184 -16.544  1.00  0.00     0.123 A 
ATOM     12  C   UNL     1      16.796  -7.905 -15.419  1.00  0.00     0.093 A 
BRANCH   3  13
ATOM     13  C   UNL     1      17.315  -1.573 -14.555  1.00  0.00     0.025 A 
ATOM     14  C   UNL     1      18.548  -0.928 -14.756  1.00  0.00     0.016 A 
ATOM     15  C   UNL     1      18.599   0.457 -14.935  1.00  0.00     0.051 A 
ATOM     16  C   UNL     1      17.423   1.213 -14.932  1.00  0.00     0.157 A 
ATOM     17  C   UNL     1      16.134  -0.814 -14.574  1.00  0.00     0.062 A 
ATOM     18  C   UNL     1      16.183   0.576 -14.754  1.00  0.00     0.158 A 
BRANCH  16  19
ATOM     19  O   UNL     1      17.504   2.594 -15.110  1.00  0.00    -0.504 OA
ATOM     20  H   UNL     1      18.112   3.012 -15.804  1.00  0.00     0.293 HD
ENDBRANCH  16  19
BRANCH  18  21
ATOM     21  O   UNL     1      15.006   1.323 -14.758  1.00  0.00    -0.504 OA
ATOM     22  H   UNL     1      14.980   2.271 -15.114  1.00  0.00     0.293 HD
ENDBRANCH  18  21
ENDBRANCH   3  13
BRANCH  10  23
ATOM     23  O   UNL     1      17.726  -8.066 -13.234  1.00  0.00    -0.507 OA
ATOM     24  H   UNL     1      17.643  -7.853 -12.252  1.00  0.00     0.293 HD
ENDBRANCH  10  23
BRANCH  11  25
ATOM     25  O   UNL     1      15.946  -7.843 -17.689  1.00  0.00    -0.508 OA
ATOM     26  H   UNL     1      16.569  -8.416 -18.245  1.00  0.00     0.293 HD
ENDBRANCH  11  25
ENDBRANCH   1   2
BRANCH   1  27
ATOM     27  C   UNL     1      16.804  -2.242 -11.228  1.00  0.00     0.339 C 
ATOM     28  C   UNL     1      16.629  -2.856  -9.828  1.00  0.00     0.214 C 
ATOM     29  O   UNL     1      17.074  -0.851 -11.168  1.00  0.00    -0.332 OA
ATOM     30  C   UNL     1      17.895  -2.630  -8.996  1.00  0.00     0.180 C 
ATOM     31  C   UNL     1      18.225  -0.510 -10.399  1.00  0.00     0.179 C 
ATOM     32  C   UNL     1      18.241  -1.131  -8.974  1.00  0.00     0.177 C 
BRANCH  28  33
ATOM     33  O   UNL     1      16.360  -4.230  -9.947  1.00  0.00    -0.384 OA
ATOM     34  H   UNL     1      15.957  -4.369 -10.844  1.00  0.00     0.211 HD
ENDBRANCH  28  33
BRANCH  30  35
ATOM     35  O   UNL     1      17.685  -3.098  -7.689  1.00  0.00    -0.387 OA
ATOM     36  H   UNL     1      16.839  -3.619  -7.704  1.00  0.00     0.211 HD
ENDBRANCH  30  35
BRANCH  31  37
ATOM     37  C   UNL     1      19.545  -0.656 -11.191  1.00  0.00     0.191 C 
BRANCH  37  38
ATOM     38  O   UNL     1      20.297  -1.756 -10.764  1.00  0.00    -0.394 OA
ATOM     39  H   UNL     1      21.097  -1.386 -10.310  1.00  0.00     0.210 HD
ENDBRANCH  37  38
ENDBRANCH  31  37
BRANCH  32  40
ATOM     40  O   UNL     1      17.311  -0.458  -8.160  1.00  0.00    -0.387 OA
ATOM     41  H   UNL     1      16.561  -1.087  -7.997  1.00  0.00     0.211 HD
ENDBRANCH  32  40
ENDBRANCH   1  27
TORSDOF 12
ENDMDL
