MODEL 1
REMARK VINA RESULT:    -4.987      0.000      0.000
REMARK INTER + INTRA:         -18.461
REMARK INTER:                 -13.151
REMARK INTRA:                  -5.310
REMARK UNBOUND:                -5.310
REMARK SMILES CCCCCCCCCCCCCCCCCCCCCCCCCCCCCC(=O)[O-]
REMARK SMILES IDX 16 1 17 2 18 3 19 4 20 5 21 6 22 7 23 8 24 9 25 10 26 11
REMARK SMILES IDX 27 12 28 13 29 14 30 15 31 16 32 17 15 18 14 19 13 20 12 21
REMARK SMILES IDX 11 22 10 23 9 24 8 25 7 26 6 27 5 28 4 29 3 30 2 31 1 32
REMARK H PARENT
REMARK Flexibility Score: inf
ROOT
ATOM      1  C   UNL     1     -15.449  -1.986  20.410  1.00  0.00     0.000 C 
ENDROOT
BRANCH   1   2
ATOM      2  C   UNL     1     -16.723  -2.118  21.269  1.00  0.00     0.000 C 
BRANCH   2   3
ATOM      3  C   UNL     1     -16.645  -3.158  22.405  1.00  0.00     0.000 C 
BRANCH   3   4
ATOM      4  C   UNL     1     -17.775  -4.203  22.414  1.00  0.00     0.000 C 
BRANCH   4   5
ATOM      5  C   UNL     1     -17.324  -5.576  21.885  1.00  0.00     0.000 C 
BRANCH   5   6
ATOM      6  C   UNL     1     -15.852  -5.880  22.206  1.00  0.00     0.000 C 
BRANCH   6   7
ATOM      7  C   UNL     1     -15.006  -6.127  20.944  1.00  0.00     0.000 C 
BRANCH   7   8
ATOM      8  C   UNL     1     -15.867  -6.516  19.731  1.00  0.00     0.000 C 
BRANCH   8   9
ATOM      9  C   UNL     1     -15.186  -6.191  18.393  1.00  0.00     0.000 C 
BRANCH   9  10
ATOM     10  C   UNL     1     -16.172  -6.344  17.224  1.00  0.00     0.000 C 
BRANCH  10  11
ATOM     11  C   UNL     1     -16.279  -5.067  16.375  1.00  0.00     0.000 C 
BRANCH  11  12
ATOM     12  C   UNL     1     -17.642  -4.371  16.536  1.00  0.00     0.000 C 
BRANCH  12  13
ATOM     13  C   UNL     1     -18.598  -5.146  17.457  1.00  0.00     0.006 C 
BRANCH  13  14
ATOM     14  C   UNL     1     -18.944  -4.376  18.739  1.00  0.00     0.053 C 
BRANCH  14  15
ATOM     15  C   UNL     1     -20.281  -4.798  19.264  1.00  0.00     0.041 C 
ATOM     16  O   UNL     1     -20.521  -4.750  20.500  1.00  0.00    -0.550 OA
ATOM     17  O   UNL     1     -21.269  -5.230  18.387  1.00  0.00    -0.550 OA
ENDBRANCH  14  15
ENDBRANCH  13  14
ENDBRANCH  12  13
ENDBRANCH  11  12
ENDBRANCH  10  11
ENDBRANCH   9  10
ENDBRANCH   8   9
ENDBRANCH   7   8
ENDBRANCH   6   7
ENDBRANCH   5   6
ENDBRANCH   4   5
ENDBRANCH   3   4
ENDBRANCH   2   3
ENDBRANCH   1   2
BRANCH   1  18
ATOM     18  C   UNL     1     -15.480  -2.761  19.080  1.00  0.00     0.000 C 
BRANCH  18  19
ATOM     19  C   UNL     1     -14.282  -2.439  18.175  1.00  0.00     0.000 C 
BRANCH  19  20
ATOM     20  C   UNL     1     -14.731  -1.667  16.925  1.00  0.00     0.000 C 
BRANCH  20  21
ATOM     21  C   UNL     1     -14.793  -0.147  17.152  1.00  0.00     0.000 C 
BRANCH  21  22
ATOM     22  C   UNL     1     -15.558   0.646  16.073  1.00  0.00     0.000 C 
BRANCH  22  23
ATOM     23  C   UNL     1     -16.985   1.072  16.463  1.00  0.00     0.000 C 
BRANCH  23  24
ATOM     24  C   UNL     1     -17.455   0.446  17.784  1.00  0.00    -0.000 C 
BRANCH  24  25
ATOM     25  C   UNL     1     -18.336  -0.782  17.528  1.00  0.00    -0.000 C 
BRANCH  25  26
ATOM     26  C   UNL     1     -19.810  -0.476  17.835  1.00  0.00    -0.000 C 
BRANCH  26  27
ATOM     27  C   UNL     1     -20.765  -1.595  17.385  1.00  0.00    -0.000 C 
BRANCH  27  28
ATOM     28  C   UNL     1     -21.125  -1.587  15.887  1.00  0.00    -0.000 C 
BRANCH  28  29
ATOM     29  C   UNL     1     -21.276  -3.000  15.299  1.00  0.00    -0.000 C 
BRANCH  29  30
ATOM     30  C   UNL     1     -22.630  -3.650  15.641  1.00  0.00    -0.000 C 
BRANCH  30  31
ATOM     31  C   UNL     1     -23.739  -2.666  16.056  1.00  0.00    -0.003 C 
ATOM     32  C   UNL     1     -24.921  -3.350  16.743  1.00  0.00     0.004 C 
ENDBRANCH  30  31
ENDBRANCH  29  30
ENDBRANCH  28  29
ENDBRANCH  27  28
ENDBRANCH  26  27
ENDBRANCH  25  26
ENDBRANCH  24  25
ENDBRANCH  23  24
ENDBRANCH  22  23
ENDBRANCH  21  22
ENDBRANCH  20  21
ENDBRANCH  19  20
ENDBRANCH  18  19
ENDBRANCH   1  18
TORSDOF 28
ENDMDL
MODEL 2
REMARK VINA RESULT:    -4.956      1.635      4.688
REMARK INTER + INTRA:         -18.378
REMARK INTER:                 -12.279
REMARK INTRA:                  -6.098
REMARK UNBOUND:                -5.310
REMARK SMILES CCCCCCCCCCCCCCCCCCCCCCCCCCCCCC(=O)[O-]
REMARK SMILES IDX 16 1 17 2 18 3 19 4 20 5 21 6 22 7 23 8 24 9 25 10 26 11
REMARK SMILES IDX 27 12 28 13 29 14 30 15 31 16 32 17 15 18 14 19 13 20 12 21
REMARK SMILES IDX 11 22 10 23 9 24 8 25 7 26 6 27 5 28 4 29 3 30 2 31 1 32
REMARK H PARENT
REMARK Flexibility Score: inf
ROOT
ATOM      1  C   UNL     1     -16.990  -3.523  22.868  1.00  0.00     0.000 C 
ENDROOT
BRANCH   1   2
ATOM      2  C   UNL     1     -17.243  -4.971  22.400  1.00  0.00     0.000 C 
BRANCH   2   3
ATOM      3  C   UNL     1     -16.011  -5.897  22.434  1.00  0.00     0.000 C 
BRANCH   3   4
ATOM      4  C   UNL     1     -15.338  -6.141  21.070  1.00  0.00     0.000 C 
BRANCH   4   5
ATOM      5  C   UNL     1     -16.341  -6.159  19.903  1.00  0.00     0.000 C 
BRANCH   5   6
ATOM      6  C   UNL     1     -15.738  -6.737  18.613  1.00  0.00     0.000 C 
BRANCH   6   7
ATOM      7  C   UNL     1     -14.511  -5.948  18.123  1.00  0.00     0.000 C 
BRANCH   7   8
ATOM      8  C   UNL     1     -14.697  -5.406  16.696  1.00  0.00     0.000 C 
BRANCH   8   9
ATOM      9  C   UNL     1     -16.114  -5.644  16.152  1.00  0.00     0.000 C 
BRANCH   9  10
ATOM     10  C   UNL     1     -16.946  -4.353  16.208  1.00  0.00     0.000 C 
BRANCH  10  11
ATOM     11  C   UNL     1     -18.352  -4.585  16.785  1.00  0.00     0.000 C 
BRANCH  11  12
ATOM     12  C   UNL     1     -19.318  -3.434  16.452  1.00  0.00     0.000 C 
BRANCH  12  13
ATOM     13  C   UNL     1     -20.726  -3.656  17.027  1.00  0.00     0.006 C 
BRANCH  13  14
ATOM     14  C   UNL     1     -21.786  -3.874  15.939  1.00  0.00     0.053 C 
BRANCH  14  15
ATOM     15  C   UNL     1     -22.768  -4.923  16.360  1.00  0.00     0.041 C 
ATOM     16  O   UNL     1     -23.927  -4.596  16.728  1.00  0.00    -0.550 OA
ATOM     17  O   UNL     1     -22.408  -6.266  16.333  1.00  0.00    -0.550 OA
ENDBRANCH  14  15
ENDBRANCH  13  14
ENDBRANCH  12  13
ENDBRANCH  11  12
ENDBRANCH  10  11
ENDBRANCH   9  10
ENDBRANCH   8   9
ENDBRANCH   7   8
ENDBRANCH   6   7
ENDBRANCH   5   6
ENDBRANCH   4   5
ENDBRANCH   3   4
ENDBRANCH   2   3
ENDBRANCH   1   2
BRANCH   1  18
ATOM     18  C   UNL     1     -16.552  -2.550  21.758  1.00  0.00     0.000 C 
BRANCH  18  19
ATOM     19  C   UNL     1     -17.444  -2.630  20.510  1.00  0.00     0.000 C 
BRANCH  19  20
ATOM     20  C   UNL     1     -16.609  -2.490  19.229  1.00  0.00     0.000 C 
BRANCH  20  21
ATOM     21  C   UNL     1     -15.110  -2.751  19.460  1.00  0.00     0.000 C 
BRANCH  21  22
ATOM     22  C   UNL     1     -14.164  -2.093  18.436  1.00  0.00     0.000 C 
BRANCH  22  23
ATOM     23  C   UNL     1     -14.857  -1.489  17.200  1.00  0.00     0.000 C 
BRANCH  23  24
ATOM     24  C   UNL     1     -14.346  -0.083  16.857  1.00  0.00    -0.000 C 
BRANCH  24  25
ATOM     25  C   UNL     1     -15.512   0.889  16.643  1.00  0.00    -0.000 C 
BRANCH  25  26
ATOM     26  C   UNL     1     -16.860   0.193  16.885  1.00  0.00    -0.000 C 
BRANCH  26  27
ATOM     27  C   UNL     1     -17.897   1.106  17.561  1.00  0.00    -0.000 C 
BRANCH  27  28
ATOM     28  C   UNL     1     -18.291   0.701  18.994  1.00  0.00    -0.000 C 
BRANCH  28  29
ATOM     29  C   UNL     1     -17.803   1.701  20.056  1.00  0.00    -0.000 C 
BRANCH  29  30
ATOM     30  C   UNL     1     -16.763   1.094  21.017  1.00  0.00    -0.000 C 
BRANCH  30  31
ATOM     31  C   UNL     1     -15.376   0.838  20.399  1.00  0.00    -0.003 C 
ATOM     32  C   UNL     1     -14.346   0.354  21.420  1.00  0.00     0.004 C 
ENDBRANCH  30  31
ENDBRANCH  29  30
ENDBRANCH  28  29
ENDBRANCH  27  28
ENDBRANCH  26  27
ENDBRANCH  25  26
ENDBRANCH  24  25
ENDBRANCH  23  24
ENDBRANCH  22  23
ENDBRANCH  21  22
ENDBRANCH  20  21
ENDBRANCH  19  20
ENDBRANCH  18  19
ENDBRANCH   1  18
TORSDOF 28
ENDMDL
MODEL 3
REMARK VINA RESULT:    -4.951      2.528      5.696
REMARK INTER + INTRA:         -18.366
REMARK INTER:                 -13.218
REMARK INTRA:                  -5.147
REMARK UNBOUND:                -5.310
REMARK SMILES CCCCCCCCCCCCCCCCCCCCCCCCCCCCCC(=O)[O-]
REMARK SMILES IDX 16 1 17 2 18 3 19 4 20 5 21 6 22 7 23 8 24 9 25 10 26 11
REMARK SMILES IDX 27 12 28 13 29 14 30 15 31 16 32 17 15 18 14 19 13 20 12 21
REMARK SMILES IDX 11 22 10 23 9 24 8 25 7 26 6 27 5 28 4 29 3 30 2 31 1 32
REMARK H PARENT
REMARK Flexibility Score: inf
ROOT
ATOM      1  C   UNL     1     -16.585  -4.560  22.326  1.00  0.00     0.000 C 
ENDROOT
BRANCH   1   2
ATOM      2  C   UNL     1     -16.111  -6.024  22.426  1.00  0.00     0.000 C 
BRANCH   2   3
ATOM      3  C   UNL     1     -15.057  -6.447  21.382  1.00  0.00     0.000 C 
BRANCH   3   4
ATOM      4  C   UNL     1     -15.185  -5.763  20.009  1.00  0.00     0.000 C 
BRANCH   4   5
ATOM      5  C   UNL     1     -15.290  -6.767  18.848  1.00  0.00     0.000 C 
BRANCH   5   6
ATOM      6  C   UNL     1     -14.470  -6.341  17.620  1.00  0.00     0.000 C 
BRANCH   6   7
ATOM      7  C   UNL     1     -15.339  -6.115  16.371  1.00  0.00     0.000 C 
BRANCH   7   8
ATOM      8  C   UNL     1     -15.138  -4.716  15.765  1.00  0.00     0.000 C 
BRANCH   8   9
ATOM      9  C   UNL     1     -14.290  -3.800  16.660  1.00  0.00     0.000 C 
BRANCH   9  10
ATOM     10  C   UNL     1     -15.036  -2.493  16.971  1.00  0.00     0.000 C 
BRANCH  10  11
ATOM     11  C   UNL     1     -15.604  -2.465  18.399  1.00  0.00     0.000 C 
BRANCH  11  12
ATOM     12  C   UNL     1     -14.785  -1.561  19.337  1.00  0.00     0.000 C 
BRANCH  12  13
ATOM     13  C   UNL     1     -15.422  -1.418  20.728  1.00  0.00     0.006 C 
BRANCH  13  14
ATOM     14  C   UNL     1     -14.764  -0.320  21.574  1.00  0.00     0.053 C 
BRANCH  14  15
ATOM     15  C   UNL     1     -15.049   1.033  20.999  1.00  0.00     0.041 C 
ATOM     16  O   UNL     1     -16.227   1.356  20.691  1.00  0.00    -0.550 OA
ATOM     17  O   UNL     1     -14.015   1.944  20.816  1.00  0.00    -0.550 OA
ENDBRANCH  14  15
ENDBRANCH  13  14
ENDBRANCH  12  13
ENDBRANCH  11  12
ENDBRANCH  10  11
ENDBRANCH   9  10
ENDBRANCH   8   9
ENDBRANCH   7   8
ENDBRANCH   6   7
ENDBRANCH   5   6
ENDBRANCH   4   5
ENDBRANCH   3   4
ENDBRANCH   2   3
ENDBRANCH   1   2
BRANCH   1  18
ATOM     18  C   UNL     1     -18.102  -4.357  22.491  1.00  0.00     0.000 C 
BRANCH  18  19
ATOM     19  C   UNL     1     -18.912  -5.610  22.127  1.00  0.00     0.000 C 
BRANCH  19  20
ATOM     20  C   UNL     1     -19.469  -5.507  20.699  1.00  0.00     0.000 C 
BRANCH  20  21
ATOM     21  C   UNL     1     -18.872  -6.559  19.748  1.00  0.00     0.000 C 
BRANCH  21  22
ATOM     22  C   UNL     1     -18.722  -6.107  18.281  1.00  0.00     0.000 C 
BRANCH  22  23
ATOM     23  C   UNL     1     -18.284  -4.644  18.089  1.00  0.00     0.000 C 
BRANCH  23  24
ATOM     24  C   UNL     1     -18.540  -4.125  16.667  1.00  0.00    -0.000 C 
BRANCH  24  25
ATOM     25  C   UNL     1     -19.978  -3.614  16.519  1.00  0.00    -0.000 C 
BRANCH  25  26
ATOM     26  C   UNL     1     -20.142  -2.235  17.176  1.00  0.00    -0.000 C 
BRANCH  26  27
ATOM     27  C   UNL     1     -20.991  -1.264  16.336  1.00  0.00    -0.000 C 
BRANCH  27  28
ATOM     28  C   UNL     1     -20.602   0.221  16.458  1.00  0.00    -0.000 C 
BRANCH  28  29
ATOM     29  C   UNL     1     -19.938   0.559  17.804  1.00  0.00    -0.000 C 
BRANCH  29  30
ATOM     30  C   UNL     1     -18.681   1.436  17.648  1.00  0.00    -0.000 C 
BRANCH  30  31
ATOM     31  C   UNL     1     -17.371   0.662  17.412  1.00  0.00    -0.003 C 
ATOM     32  C   UNL     1     -16.620   1.122  16.163  1.00  0.00     0.004 C 
ENDBRANCH  30  31
ENDBRANCH  29  30
ENDBRANCH  28  29
ENDBRANCH  27  28
ENDBRANCH  26  27
ENDBRANCH  25  26
ENDBRANCH  24  25
ENDBRANCH  23  24
ENDBRANCH  22  23
ENDBRANCH  21  22
ENDBRANCH  20  21
ENDBRANCH  19  20
ENDBRANCH  18  19
ENDBRANCH   1  18
TORSDOF 28
ENDMDL
MODEL 4
REMARK VINA RESULT:    -4.914     12.219     15.150
REMARK INTER + INTRA:         -18.267
REMARK INTER:                 -13.959
REMARK INTRA:                  -4.307
REMARK UNBOUND:                -5.310
REMARK SMILES CCCCCCCCCCCCCCCCCCCCCCCCCCCCCC(=O)[O-]
REMARK SMILES IDX 16 1 17 2 18 3 19 4 20 5 21 6 22 7 23 8 24 9 25 10 26 11
REMARK SMILES IDX 27 12 28 13 29 14 30 15 31 16 32 17 15 18 14 19 13 20 12 21
REMARK SMILES IDX 11 22 10 23 9 24 8 25 7 26 6 27 5 28 4 29 3 30 2 31 1 32
REMARK H PARENT
REMARK Flexibility Score: inf
ROOT
ATOM      1  C   UNL     1     -16.020   4.581  30.657  1.00  0.00     0.000 C 
ENDROOT
BRANCH   1   2
ATOM      2  C   UNL     1     -15.726   3.110  31.019  1.00  0.00     0.000 C 
BRANCH   2   3
ATOM      3  C   UNL     1     -16.755   2.445  31.955  1.00  0.00     0.000 C 
BRANCH   3   4
ATOM      4  C   UNL     1     -18.150   3.098  31.963  1.00  0.00     0.000 C 
BRANCH   4   5
ATOM      5  C   UNL     1     -19.186   2.282  32.756  1.00  0.00     0.000 C 
BRANCH   5   6
ATOM      6  C   UNL     1     -20.255   1.645  31.854  1.00  0.00     0.000 C 
BRANCH   6   7
ATOM      7  C   UNL     1     -19.650   0.801  30.718  1.00  0.00     0.000 C 
BRANCH   7   8
ATOM      8  C   UNL     1     -18.881  -0.422  31.245  1.00  0.00     0.000 C 
BRANCH   8   9
ATOM      9  C   UNL     1     -18.236  -1.245  30.120  1.00  0.00     0.000 C 
BRANCH   9  10
ATOM     10  C   UNL     1     -18.088  -0.405  28.842  1.00  0.00     0.000 C 
BRANCH  10  11
ATOM     11  C   UNL     1     -16.618  -0.116  28.496  1.00  0.00     0.000 C 
BRANCH  11  12
ATOM     12  C   UNL     1     -16.417   0.178  26.998  1.00  0.00     0.000 C 
BRANCH  12  13
ATOM     13  C   UNL     1     -14.992   0.653  26.674  1.00  0.00     0.006 C 
BRANCH  13  14
ATOM     14  C   UNL     1     -14.208   1.079  27.922  1.00  0.00     0.053 C 
BRANCH  14  15
ATOM     15  C   UNL     1     -14.055   2.568  27.968  1.00  0.00     0.041 C 
ATOM     16  O   UNL     1     -14.965   3.313  27.517  1.00  0.00    -0.550 OA
ATOM     17  O   UNL     1     -12.914   3.134  28.524  1.00  0.00    -0.550 OA
ENDBRANCH  14  15
ENDBRANCH  13  14
ENDBRANCH  12  13
ENDBRANCH  11  12
ENDBRANCH  10  11
ENDBRANCH   9  10
ENDBRANCH   8   9
ENDBRANCH   7   8
ENDBRANCH   6   7
ENDBRANCH   5   6
ENDBRANCH   4   5
ENDBRANCH   3   4
ENDBRANCH   2   3
ENDBRANCH   1   2
BRANCH   1  18
ATOM     18  C   UNL     1     -14.773   5.465  30.477  1.00  0.00     0.000 C 
BRANCH  18  19
ATOM     19  C   UNL     1     -14.885   6.414  29.274  1.00  0.00     0.000 C 
BRANCH  19  20
ATOM     20  C   UNL     1     -13.731   7.427  29.265  1.00  0.00     0.000 C 
BRANCH  20  21
ATOM     21  C   UNL     1     -14.082   8.739  29.989  1.00  0.00     0.000 C 
BRANCH  21  22
ATOM     22  C   UNL     1     -14.304   8.609  31.510  1.00  0.00     0.000 C 
BRANCH  22  23
ATOM     23  C   UNL     1     -15.053   9.784  32.164  1.00  0.00     0.000 C 
BRANCH  23  24
ATOM     24  C   UNL     1     -16.568   9.549  32.257  1.00  0.00    -0.000 C 
BRANCH  24  25
ATOM     25  C   UNL     1     -16.925   8.109  31.876  1.00  0.00    -0.000 C 
BRANCH  25  26
ATOM     26  C   UNL     1     -17.918   8.080  30.703  1.00  0.00    -0.000 C 
BRANCH  26  27
ATOM     27  C   UNL     1     -17.900   9.372  29.866  1.00  0.00    -0.000 C 
BRANCH  27  28
ATOM     28  C   UNL     1     -17.528   9.187  28.383  1.00  0.00    -0.000 C 
BRANCH  28  29
ATOM     29  C   UNL     1     -16.467  10.190  27.901  1.00  0.00    -0.000 C 
BRANCH  29  30
ATOM     30  C   UNL     1     -16.494  11.514  28.687  1.00  0.00    -0.000 C 
BRANCH  30  31
ATOM     31  C   UNL     1     -15.117  12.029  29.146  1.00  0.00    -0.003 C 
ATOM     32  C   UNL     1     -14.047  11.927  28.061  1.00  0.00     0.004 C 
ENDBRANCH  30  31
ENDBRANCH  29  30
ENDBRANCH  28  29
ENDBRANCH  27  28
ENDBRANCH  26  27
ENDBRANCH  25  26
ENDBRANCH  24  25
ENDBRANCH  23  24
ENDBRANCH  22  23
ENDBRANCH  21  22
ENDBRANCH  20  21
ENDBRANCH  19  20
ENDBRANCH  18  19
ENDBRANCH   1  18
TORSDOF 28
ENDMDL
MODEL 5
REMARK VINA RESULT:    -4.896      2.663      5.296
REMARK INTER + INTRA:         -18.220
REMARK INTER:                 -12.871
REMARK INTRA:                  -5.349
REMARK UNBOUND:                -5.310
REMARK SMILES CCCCCCCCCCCCCCCCCCCCCCCCCCCCCC(=O)[O-]
REMARK SMILES IDX 16 1 17 2 18 3 19 4 20 5 21 6 22 7 23 8 24 9 25 10 26 11
REMARK SMILES IDX 27 12 28 13 29 14 30 15 31 16 32 17 15 18 14 19 13 20 12 21
REMARK SMILES IDX 11 22 10 23 9 24 8 25 7 26 6 27 5 28 4 29 3 30 2 31 1 32
REMARK H PARENT
REMARK Flexibility Score: inf
ROOT
ATOM      1  C   UNL     1     -15.495  -0.016  18.015  1.00  0.00     0.000 C 
ENDROOT
BRANCH   1   2
ATOM      2  C   UNL     1     -15.092  -1.150  17.049  1.00  0.00     0.000 C 
BRANCH   2   3
ATOM      3  C   UNL     1     -14.198  -2.247  17.660  1.00  0.00     0.000 C 
BRANCH   3   4
ATOM      4  C   UNL     1     -14.725  -3.685  17.499  1.00  0.00     0.000 C 
BRANCH   4   5
ATOM      5  C   UNL     1     -15.133  -4.325  18.837  1.00  0.00     0.000 C 
BRANCH   5   6
ATOM      6  C   UNL     1     -15.173  -5.861  18.772  1.00  0.00     0.000 C 
BRANCH   6   7
ATOM      7  C   UNL     1     -15.925  -6.489  19.959  1.00  0.00     0.000 C 
BRANCH   7   8
ATOM      8  C   UNL     1     -15.107  -6.440  21.260  1.00  0.00     0.000 C 
BRANCH   8   9
ATOM      9  C   UNL     1     -15.939  -5.975  22.465  1.00  0.00     0.000 C 
BRANCH   9  10
ATOM     10  C   UNL     1     -17.117  -5.098  22.012  1.00  0.00     0.000 C 
BRANCH  10  11
ATOM     11  C   UNL     1     -16.716  -3.624  21.833  1.00  0.00     0.000 C 
BRANCH  11  12
ATOM     12  C   UNL     1     -16.932  -2.800  23.115  1.00  0.00     0.000 C 
BRANCH  12  13
ATOM     13  C   UNL     1     -16.918  -1.285  22.854  1.00  0.00     0.006 C 
BRANCH  13  14
ATOM     14  C   UNL     1     -15.805  -0.858  21.887  1.00  0.00     0.053 C 
BRANCH  14  15
ATOM     15  C   UNL     1     -14.767  -0.048  22.600  1.00  0.00     0.041 C 
ATOM     16  O   UNL     1     -13.599   0.036  22.137  1.00  0.00    -0.550 OA
ATOM     17  O   UNL     1     -15.093   0.626  23.772  1.00  0.00    -0.550 OA
ENDBRANCH  14  15
ENDBRANCH  13  14
ENDBRANCH  12  13
ENDBRANCH  11  12
ENDBRANCH  10  11
ENDBRANCH   9  10
ENDBRANCH   8   9
ENDBRANCH   7   8
ENDBRANCH   6   7
ENDBRANCH   5   6
ENDBRANCH   4   5
ENDBRANCH   3   4
ENDBRANCH   2   3
ENDBRANCH   1   2
BRANCH   1  18
ATOM     18  C   UNL     1     -16.957  -0.061  18.494  1.00  0.00     0.000 C 
BRANCH  18  19
ATOM     19  C   UNL     1     -17.752  -1.217  17.869  1.00  0.00     0.000 C 
BRANCH  19  20
ATOM     20  C   UNL     1     -18.501  -2.014  18.948  1.00  0.00     0.000 C 
BRANCH  20  21
ATOM     21  C   UNL     1     -18.871  -3.436  18.491  1.00  0.00     0.000 C 
BRANCH  21  22
ATOM     22  C   UNL     1     -18.345  -3.835  17.097  1.00  0.00     0.000 C 
BRANCH  22  23
ATOM     23  C   UNL     1     -18.246  -5.350  16.844  1.00  0.00     0.000 C 
BRANCH  23  24
ATOM     24  C   UNL     1     -18.979  -6.182  17.907  1.00  0.00    -0.000 C 
BRANCH  24  25
ATOM     25  C   UNL     1     -20.221  -6.858  17.316  1.00  0.00    -0.000 C 
BRANCH  25  26
ATOM     26  C   UNL     1     -21.496  -6.082  17.683  1.00  0.00    -0.000 C 
BRANCH  26  27
ATOM     27  C   UNL     1     -22.284  -5.601  16.451  1.00  0.00    -0.000 C 
BRANCH  27  28
ATOM     28  C   UNL     1     -22.502  -4.078  16.366  1.00  0.00    -0.000 C 
BRANCH  28  29
ATOM     29  C   UNL     1     -21.947  -3.465  15.069  1.00  0.00    -0.000 C 
BRANCH  29  30
ATOM     30  C   UNL     1     -20.944  -2.325  15.327  1.00  0.00    -0.000 C 
BRANCH  30  31
ATOM     31  C   UNL     1     -21.310  -1.384  16.490  1.00  0.00    -0.003 C 
ATOM     32  C   UNL     1     -21.052   0.089  16.172  1.00  0.00     0.004 C 
ENDBRANCH  30  31
ENDBRANCH  29  30
ENDBRANCH  28  29
ENDBRANCH  27  28
ENDBRANCH  26  27
ENDBRANCH  25  26
ENDBRANCH  24  25
ENDBRANCH  23  24
ENDBRANCH  22  23
ENDBRANCH  21  22
ENDBRANCH  20  21
ENDBRANCH  19  20
ENDBRANCH  18  19
ENDBRANCH   1  18
TORSDOF 28
ENDMDL
MODEL 6
REMARK VINA RESULT:    -4.874     11.794     14.674
REMARK INTER + INTRA:         -18.161
REMARK INTER:                 -13.081
REMARK INTRA:                  -5.081
REMARK UNBOUND:                -5.310
REMARK SMILES CCCCCCCCCCCCCCCCCCCCCCCCCCCCCC(=O)[O-]
REMARK SMILES IDX 16 1 17 2 18 3 19 4 20 5 21 6 22 7 23 8 24 9 25 10 26 11
REMARK SMILES IDX 27 12 28 13 29 14 30 15 31 16 32 17 15 18 14 19 13 20 12 21
REMARK SMILES IDX 11 22 10 23 9 24 8 25 7 26 6 27 5 28 4 29 3 30 2 31 1 32
REMARK H PARENT
REMARK Flexibility Score: inf
ROOT
ATOM      1  C   UNL     1     -13.633   3.444  28.493  1.00  0.00     0.000 C 
ENDROOT
BRANCH   1   2
ATOM      2  C   UNL     1     -15.050   2.999  28.912  1.00  0.00     0.000 C 
BRANCH   2   3
ATOM      3  C   UNL     1     -15.152   2.369  30.315  1.00  0.00     0.000 C 
BRANCH   3   4
ATOM      4  C   UNL     1     -15.938   3.197  31.349  1.00  0.00     0.000 C 
BRANCH   4   5
ATOM      5  C   UNL     1     -16.975   4.132  30.702  1.00  0.00     0.000 C 
BRANCH   5   6
ATOM      6  C   UNL     1     -18.342   4.075  31.402  1.00  0.00     0.000 C 
BRANCH   6   7
ATOM      7  C   UNL     1     -18.488   2.853  32.326  1.00  0.00     0.000 C 
BRANCH   7   8
ATOM      8  C   UNL     1     -19.502   1.830  31.787  1.00  0.00     0.000 C 
BRANCH   8   9
ATOM      9  C   UNL     1     -18.985   0.386  31.866  1.00  0.00     0.000 C 
BRANCH   9  10
ATOM     10  C   UNL     1     -18.002   0.092  30.722  1.00  0.00     0.000 C 
BRANCH  10  11
ATOM     11  C   UNL     1     -18.659   0.216  29.337  1.00  0.00     0.000 C 
BRANCH  11  12
ATOM     12  C   UNL     1     -17.677   0.730  28.269  1.00  0.00     0.000 C 
BRANCH  12  13
ATOM     13  C   UNL     1     -16.984  -0.409  27.503  1.00  0.00     0.006 C 
BRANCH  13  14
ATOM     14  C   UNL     1     -16.737  -0.070  26.027  1.00  0.00     0.053 C 
BRANCH  14  15
ATOM     15  C   UNL     1     -15.479   0.727  25.872  1.00  0.00     0.041 C 
ATOM     16  O   UNL     1     -15.415   1.654  25.021  1.00  0.00    -0.550 OA
ATOM     17  O   UNL     1     -14.378   0.455  26.677  1.00  0.00    -0.550 OA
ENDBRANCH  14  15
ENDBRANCH  13  14
ENDBRANCH  12  13
ENDBRANCH  11  12
ENDBRANCH  10  11
ENDBRANCH   9  10
ENDBRANCH   8   9
ENDBRANCH   7   8
ENDBRANCH   6   7
ENDBRANCH   5   6
ENDBRANCH   4   5
ENDBRANCH   3   4
ENDBRANCH   2   3
ENDBRANCH   1   2
BRANCH   1  18
ATOM     18  C   UNL     1     -13.502   4.935  28.135  1.00  0.00     0.000 C 
BRANCH  18  19
ATOM     19  C   UNL     1     -14.310   5.845  29.073  1.00  0.00     0.000 C 
BRANCH  19  20
ATOM     20  C   UNL     1     -15.231   6.778  28.272  1.00  0.00     0.000 C 
BRANCH  20  21
ATOM     21  C   UNL     1     -14.600   8.156  28.007  1.00  0.00     0.000 C 
BRANCH  21  22
ATOM     22  C   UNL     1     -14.051   8.877  29.255  1.00  0.00     0.000 C 
BRANCH  22  23
ATOM     23  C   UNL     1     -14.377  10.379  29.338  1.00  0.00     0.000 C 
BRANCH  23  24
ATOM     24  C   UNL     1     -15.006  10.781  30.680  1.00  0.00    -0.000 C 
BRANCH  24  25
ATOM     25  C   UNL     1     -15.080   9.582  31.633  1.00  0.00    -0.000 C 
BRANCH  25  26
ATOM     26  C   UNL     1     -16.526   9.327  32.084  1.00  0.00    -0.000 C 
BRANCH  26  27
ATOM     27  C   UNL     1     -17.070   7.963  31.622  1.00  0.00    -0.000 C 
BRANCH  27  28
ATOM     28  C   UNL     1     -17.802   7.973  30.267  1.00  0.00    -0.000 C 
BRANCH  28  29
ATOM     29  C   UNL     1     -18.401   9.347  29.920  1.00  0.00    -0.000 C 
BRANCH  29  30
ATOM     30  C   UNL     1     -17.874   9.910  28.587  1.00  0.00    -0.000 C 
BRANCH  30  31
ATOM     31  C   UNL     1     -18.441  11.286  28.191  1.00  0.00    -0.003 C 
ATOM     32  C   UNL     1     -17.354  12.324  27.915  1.00  0.00     0.004 C 
ENDBRANCH  30  31
ENDBRANCH  29  30
ENDBRANCH  28  29
ENDBRANCH  27  28
ENDBRANCH  26  27
ENDBRANCH  25  26
ENDBRANCH  24  25
ENDBRANCH  23  24
ENDBRANCH  22  23
ENDBRANCH  21  22
ENDBRANCH  20  21
ENDBRANCH  19  20
ENDBRANCH  18  19
ENDBRANCH   1  18
TORSDOF 28
ENDMDL
MODEL 7
REMARK VINA RESULT:    -4.852     11.908     15.889
REMARK INTER + INTRA:         -18.104
REMARK INTER:                 -13.390
REMARK INTRA:                  -4.715
REMARK UNBOUND:                -5.310
REMARK SMILES CCCCCCCCCCCCCCCCCCCCCCCCCCCCCC(=O)[O-]
REMARK SMILES IDX 16 1 17 2 18 3 19 4 20 5 21 6 22 7 23 8 24 9 25 10 26 11
REMARK SMILES IDX 27 12 28 13 29 14 30 15 31 16 32 17 15 18 14 19 13 20 12 21
REMARK SMILES IDX 11 22 10 23 9 24 8 25 7 26 6 27 5 28 4 29 3 30 2 31 1 32
REMARK H PARENT
REMARK Flexibility Score: inf
ROOT
ATOM      1  C   UNL     1     -15.955   3.616  31.125  1.00  0.00     0.000 C 
ENDROOT
BRANCH   1   2
ATOM      2  C   UNL     1     -16.884   4.749  30.643  1.00  0.00     0.000 C 
BRANCH   2   3
ATOM      3  C   UNL     1     -16.299   6.171  30.757  1.00  0.00     0.000 C 
BRANCH   3   4
ATOM      4  C   UNL     1     -14.764   6.242  30.862  1.00  0.00     0.000 C 
BRANCH   4   5
ATOM      5  C   UNL     1     -14.238   7.684  30.964  1.00  0.00     0.000 C 
BRANCH   5   6
ATOM      6  C   UNL     1     -14.685   8.388  32.255  1.00  0.00     0.000 C 
BRANCH   6   7
ATOM      7  C   UNL     1     -14.974   9.885  32.048  1.00  0.00     0.000 C 
BRANCH   7   8
ATOM      8  C   UNL     1     -15.483  10.191  30.629  1.00  0.00     0.000 C 
BRANCH   8   9
ATOM      9  C   UNL     1     -14.794  11.414  30.004  1.00  0.00     0.000 C 
BRANCH   9  10
ATOM     10  C   UNL     1     -14.460  11.158  28.526  1.00  0.00     0.000 C 
BRANCH  10  11
ATOM     11  C   UNL     1     -13.462  10.004  28.339  1.00  0.00     0.000 C 
BRANCH  11  12
ATOM     12  C   UNL     1     -13.843   9.085  27.165  1.00  0.00     0.000 C 
BRANCH  12  13
ATOM     13  C   UNL     1     -15.124   8.278  27.436  1.00  0.00     0.006 C 
BRANCH  13  14
ATOM     14  C   UNL     1     -16.273   8.652  26.491  1.00  0.00     0.053 C 
BRANCH  14  15
ATOM     15  C   UNL     1     -17.541   8.865  27.258  1.00  0.00     0.041 C 
ATOM     16  O   UNL     1     -17.620   8.510  28.464  1.00  0.00    -0.550 OA
ATOM     17  O   UNL     1     -18.633   9.471  26.646  1.00  0.00    -0.550 OA
ENDBRANCH  14  15
ENDBRANCH  13  14
ENDBRANCH  12  13
ENDBRANCH  11  12
ENDBRANCH  10  11
ENDBRANCH   9  10
ENDBRANCH   8   9
ENDBRANCH   7   8
ENDBRANCH   6   7
ENDBRANCH   5   6
ENDBRANCH   4   5
ENDBRANCH   3   4
ENDBRANCH   2   3
ENDBRANCH   1   2
BRANCH   1  18
ATOM     18  C   UNL     1     -16.663   2.471  31.871  1.00  0.00     0.000 C 
BRANCH  18  19
ATOM     19  C   UNL     1     -18.103   2.824  32.273  1.00  0.00     0.000 C 
BRANCH  19  20
ATOM     20  C   UNL     1     -18.886   1.564  32.673  1.00  0.00     0.000 C 
BRANCH  20  21
ATOM     21  C   UNL     1     -19.464   0.810  31.462  1.00  0.00     0.000 C 
BRANCH  21  22
ATOM     22  C   UNL     1     -18.810  -0.555  31.167  1.00  0.00     0.000 C 
BRANCH  22  23
ATOM     23  C   UNL     1     -17.850  -0.573  29.963  1.00  0.00     0.000 C 
BRANCH  23  24
ATOM     24  C   UNL     1     -18.309   0.342  28.819  1.00  0.00    -0.000 C 
BRANCH  24  25
ATOM     25  C   UNL     1     -17.175   1.268  28.366  1.00  0.00    -0.000 C 
BRANCH  25  26
ATOM     26  C   UNL     1     -16.324   0.603  27.274  1.00  0.00    -0.000 C 
BRANCH  26  27
ATOM     27  C   UNL     1     -15.089   1.434  26.881  1.00  0.00    -0.000 C 
BRANCH  27  28
ATOM     28  C   UNL     1     -14.894   2.736  27.680  1.00  0.00    -0.000 C 
BRANCH  28  29
ATOM     29  C   UNL     1     -13.603   2.740  28.515  1.00  0.00    -0.000 C 
BRANCH  29  30
ATOM     30  C   UNL     1     -13.124   1.323  28.885  1.00  0.00    -0.000 C 
BRANCH  30  31
ATOM     31  C   UNL     1     -13.758   0.731  30.157  1.00  0.00    -0.003 C 
ATOM     32  C   UNL     1     -14.128  -0.744  30.011  1.00  0.00     0.004 C 
ENDBRANCH  30  31
ENDBRANCH  29  30
ENDBRANCH  28  29
ENDBRANCH  27  28
ENDBRANCH  26  27
ENDBRANCH  25  26
ENDBRANCH  24  25
ENDBRANCH  23  24
ENDBRANCH  22  23
ENDBRANCH  21  22
ENDBRANCH  20  21
ENDBRANCH  19  20
ENDBRANCH  18  19
ENDBRANCH   1  18
TORSDOF 28
ENDMDL
MODEL 8
REMARK VINA RESULT:    -4.841     12.141     15.926
REMARK INTER + INTRA:         -18.075
REMARK INTER:                 -13.558
REMARK INTRA:                  -4.517
REMARK UNBOUND:                -5.310
REMARK SMILES CCCCCCCCCCCCCCCCCCCCCCCCCCCCCC(=O)[O-]
REMARK SMILES IDX 16 1 17 2 18 3 19 4 20 5 21 6 22 7 23 8 24 9 25 10 26 11
REMARK SMILES IDX 27 12 28 13 29 14 30 15 31 16 32 17 15 18 14 19 13 20 12 21
REMARK SMILES IDX 11 22 10 23 9 24 8 25 7 26 6 27 5 28 4 29 3 30 2 31 1 32
REMARK H PARENT
REMARK Flexibility Score: inf
ROOT
ATOM      1  C   UNL     1     -14.063   4.515  28.224  1.00  0.00     0.000 C 
ENDROOT
BRANCH   1   2
ATOM      2  C   UNL     1     -13.484   5.942  28.138  1.00  0.00     0.000 C 
BRANCH   2   3
ATOM      3  C   UNL     1     -14.355   7.044  28.772  1.00  0.00     0.000 C 
BRANCH   3   4
ATOM      4  C   UNL     1     -15.584   7.464  27.946  1.00  0.00     0.000 C 
BRANCH   4   5
ATOM      5  C   UNL     1     -16.905   7.321  28.723  1.00  0.00     0.000 C 
BRANCH   5   6
ATOM      6  C   UNL     1     -16.710   6.685  30.109  1.00  0.00     0.000 C 
BRANCH   6   7
ATOM      7  C   UNL     1     -17.651   7.277  31.174  1.00  0.00     0.000 C 
BRANCH   7   8
ATOM      8  C   UNL     1     -17.312   8.739  31.506  1.00  0.00     0.000 C 
BRANCH   8   9
ATOM      9  C   UNL     1     -16.171   8.865  32.526  1.00  0.00     0.000 C 
BRANCH   9  10
ATOM     10  C   UNL     1     -14.889   9.384  31.855  1.00  0.00     0.000 C 
BRANCH  10  11
ATOM     11  C   UNL     1     -14.996  10.864  31.452  1.00  0.00     0.000 C 
BRANCH  11  12
ATOM     12  C   UNL     1     -14.690  11.087  29.960  1.00  0.00     0.000 C 
BRANCH  12  13
ATOM     13  C   UNL     1     -15.962  11.201  29.105  1.00  0.00     0.006 C 
BRANCH  13  14
ATOM     14  C   UNL     1     -15.680  11.094  27.601  1.00  0.00     0.053 C 
BRANCH  14  15
ATOM     15  C   UNL     1     -16.930  10.751  26.851  1.00  0.00     0.041 C 
ATOM     16  O   UNL     1     -16.912  10.661  25.595  1.00  0.00    -0.550 OA
ATOM     17  O   UNL     1     -18.114  10.517  27.541  1.00  0.00    -0.550 OA
ENDBRANCH  14  15
ENDBRANCH  13  14
ENDBRANCH  12  13
ENDBRANCH  11  12
ENDBRANCH  10  11
ENDBRANCH   9  10
ENDBRANCH   8   9
ENDBRANCH   7   8
ENDBRANCH   6   7
ENDBRANCH   5   6
ENDBRANCH   4   5
ENDBRANCH   3   4
ENDBRANCH   2   3
ENDBRANCH   1   2
BRANCH   1  18
ATOM     18  C   UNL     1     -13.025   3.410  28.492  1.00  0.00     0.000 C 
BRANCH  18  19
ATOM     19  C   UNL     1     -13.639   2.001  28.475  1.00  0.00     0.000 C 
BRANCH  19  20
ATOM     20  C   UNL     1     -14.834   1.935  27.512  1.00  0.00     0.000 C 
BRANCH  20  21
ATOM     21  C   UNL     1     -14.941   0.583  26.784  1.00  0.00     0.000 C 
BRANCH  21  22
ATOM     22  C   UNL     1     -16.214  -0.229  27.096  1.00  0.00     0.000 C 
BRANCH  22  23
ATOM     23  C   UNL     1     -16.508  -0.436  28.593  1.00  0.00     0.000 C 
BRANCH  23  24
ATOM     24  C   UNL     1     -17.985  -0.216  28.948  1.00  0.00    -0.000 C 
BRANCH  24  25
ATOM     25  C   UNL     1     -18.434  -1.176  30.056  1.00  0.00    -0.000 C 
BRANCH  25  26
ATOM     26  C   UNL     1     -18.499  -0.459  31.413  1.00  0.00    -0.000 C 
BRANCH  26  27
ATOM     27  C   UNL     1     -19.444   0.757  31.408  1.00  0.00    -0.000 C 
BRANCH  27  28
ATOM     28  C   UNL     1     -19.379   1.642  32.667  1.00  0.00    -0.000 C 
BRANCH  28  29
ATOM     29  C   UNL     1     -18.351   2.780  32.549  1.00  0.00    -0.000 C 
BRANCH  29  30
ATOM     30  C   UNL     1     -18.134   3.242  31.095  1.00  0.00    -0.000 C 
BRANCH  30  31
ATOM     31  C   UNL     1     -16.749   2.917  30.508  1.00  0.00    -0.003 C 
ATOM     32  C   UNL     1     -15.597   3.368  31.405  1.00  0.00     0.004 C 
ENDBRANCH  30  31
ENDBRANCH  29  30
ENDBRANCH  28  29
ENDBRANCH  27  28
ENDBRANCH  26  27
ENDBRANCH  25  26
ENDBRANCH  24  25
ENDBRANCH  23  24
ENDBRANCH  22  23
ENDBRANCH  21  22
ENDBRANCH  20  21
ENDBRANCH  19  20
ENDBRANCH  18  19
ENDBRANCH   1  18
TORSDOF 28
ENDMDL
MODEL 9
REMARK VINA RESULT:    -4.826      1.948      6.415
REMARK INTER + INTRA:         -18.034
REMARK INTER:                 -12.133
REMARK INTRA:                  -5.901
REMARK UNBOUND:                -5.310
REMARK SMILES CCCCCCCCCCCCCCCCCCCCCCCCCCCCCC(=O)[O-]
REMARK SMILES IDX 16 1 17 2 18 3 19 4 20 5 21 6 22 7 23 8 24 9 25 10 26 11
REMARK SMILES IDX 27 12 28 13 29 14 30 15 31 16 32 17 15 18 14 19 13 20 12 21
REMARK SMILES IDX 11 22 10 23 9 24 8 25 7 26 6 27 5 28 4 29 3 30 2 31 1 32
REMARK H PARENT
REMARK Flexibility Score: inf
ROOT
ATOM      1  C   UNL     1     -17.322  -2.755  17.630  1.00  0.00     0.000 C 
ENDROOT
BRANCH   1   2
ATOM      2  C   UNL     1     -18.398  -3.857  17.538  1.00  0.00     0.000 C 
BRANCH   2   3
ATOM      3  C   UNL     1     -19.363  -3.935  18.738  1.00  0.00     0.000 C 
BRANCH   3   4
ATOM      4  C   UNL     1     -19.830  -5.355  19.111  1.00  0.00     0.000 C 
BRANCH   4   5
ATOM      5  C   UNL     1     -19.288  -6.432  18.156  1.00  0.00     0.000 C 
BRANCH   5   6
ATOM      6  C   UNL     1     -20.378  -7.018  17.243  1.00  0.00     0.000 C 
BRANCH   6   7
ATOM      7  C   UNL     1     -21.761  -6.389  17.488  1.00  0.00     0.000 C 
BRANCH   7   8
ATOM      8  C   UNL     1     -22.296  -5.655  16.247  1.00  0.00     0.000 C 
BRANCH   8   9
ATOM      9  C   UNL     1     -22.935  -4.301  16.590  1.00  0.00     0.000 C 
BRANCH   9  10
ATOM     10  C   UNL     1     -22.693  -3.281  15.466  1.00  0.00     0.000 C 
BRANCH  10  11
ATOM     11  C   UNL     1     -21.232  -2.809  15.406  1.00  0.00     0.000 C 
BRANCH  11  12
ATOM     12  C   UNL     1     -21.086  -1.312  15.733  1.00  0.00     0.000 C 
BRANCH  12  13
ATOM     13  C   UNL     1     -20.902  -1.050  17.237  1.00  0.00     0.006 C 
BRANCH  13  14
ATOM     14  C   UNL     1     -19.852   0.030  17.529  1.00  0.00     0.053 C 
BRANCH  14  15
ATOM     15  C   UNL     1     -19.739   0.274  19.002  1.00  0.00     0.041 C 
ATOM     16  O   UNL     1     -20.549   1.045  19.581  1.00  0.00    -0.550 OA
ATOM     17  O   UNL     1     -18.748  -0.363  19.740  1.00  0.00    -0.550 OA
ENDBRANCH  14  15
ENDBRANCH  13  14
ENDBRANCH  12  13
ENDBRANCH  11  12
ENDBRANCH  10  11
ENDBRANCH   9  10
ENDBRANCH   8   9
ENDBRANCH   7   8
ENDBRANCH   6   7
ENDBRANCH   5   6
ENDBRANCH   4   5
ENDBRANCH   3   4
ENDBRANCH   2   3
ENDBRANCH   1   2
BRANCH   1  18
ATOM     18  C   UNL     1     -16.372  -2.875  18.834  1.00  0.00     0.000 C 
BRANCH  18  19
ATOM     19  C   UNL     1     -14.891  -2.839  18.429  1.00  0.00     0.000 C 
BRANCH  19  20
ATOM     20  C   UNL     1     -14.731  -3.044  16.915  1.00  0.00     0.000 C 
BRANCH  20  21
ATOM     21  C   UNL     1     -14.175  -4.433  16.555  1.00  0.00     0.000 C 
BRANCH  21  22
ATOM     22  C   UNL     1     -15.190  -5.398  15.910  1.00  0.00     0.000 C 
BRANCH  22  23
ATOM     23  C   UNL     1     -15.834  -6.410  16.875  1.00  0.00     0.000 C 
BRANCH  23  24
ATOM     24  C   UNL     1     -15.022  -6.605  18.165  1.00  0.00    -0.000 C 
BRANCH  24  25
ATOM     25  C   UNL     1     -15.904  -6.416  19.404  1.00  0.00    -0.000 C 
BRANCH  25  26
ATOM     26  C   UNL     1     -15.062  -6.008  20.622  1.00  0.00    -0.000 C 
BRANCH  26  27
ATOM     27  C   UNL     1     -15.851  -6.050  21.943  1.00  0.00    -0.000 C 
BRANCH  27  28
ATOM     28  C   UNL     1     -17.372  -5.848  21.804  1.00  0.00    -0.000 C 
BRANCH  28  29
ATOM     29  C   UNL     1     -17.846  -4.480  22.323  1.00  0.00    -0.000 C 
BRANCH  29  30
ATOM     30  C   UNL     1     -16.690  -3.604  22.842  1.00  0.00    -0.000 C 
BRANCH  30  31
ATOM     31  C   UNL     1     -16.740  -2.130  22.401  1.00  0.00    -0.003 C 
ATOM     32  C   UNL     1     -17.028  -1.168  23.553  1.00  0.00     0.004 C 
ENDBRANCH  30  31
ENDBRANCH  29  30
ENDBRANCH  28  29
ENDBRANCH  27  28
ENDBRANCH  26  27
ENDBRANCH  25  26
ENDBRANCH  24  25
ENDBRANCH  23  24
ENDBRANCH  22  23
ENDBRANCH  21  22
ENDBRANCH  20  21
ENDBRANCH  19  20
ENDBRANCH  18  19
ENDBRANCH   1  18
TORSDOF 28
ENDMDL
