MODEL 1
REMARK VINA RESULT:    54.857      0.000      0.000
REMARK INTER + INTRA:          84.894
REMARK INTER:                  80.512
REMARK INTRA:                   4.382
REMARK UNBOUND:                 4.382
REMARK SMILES O=c1c(O[C@H]2O[C@H](CO)[C@@H](O)[C@H](O)[C@@H]2O)c(-c2ccc(O)c(O)c2)oc2cc(O)cc(O)c12
REMARK SMILES IDX 4 1 3 2 16 3 25 4 2 5 26 6 1 7 33 8 27 9 31 10 28 11 30 12
REMARK SMILES IDX 17 13 18 14 19 15 20 16 24 17 22 18 21 19 23 21 32 23 29 25
REMARK SMILES IDX 5 27 14 28 6 29 12 30 7 31 10 32 15 33 13 35 8 37 9 38 11 40
REMARK H PARENT 21 20 23 22 32 24 29 26 15 34 13 36 9 39 11 41
REMARK Flexibility Score: inf
ROOT
ATOM      1  O   UNL     1       1.621  -1.413  -0.883  1.00  0.00    -0.454 OA
ENDROOT
BRANCH   1   2
ATOM      2  C   UNL     1       1.328  -0.955   0.409  1.00  0.00     0.214 A 
ATOM      3  C   UNL     1       2.355  -0.839   1.361  1.00  0.00     0.180 A 
ATOM      4  O   UNL     1       2.083  -0.377   2.576  1.00  0.00    -0.452 OA
ATOM      5  C   UNL     1       0.014  -0.630   0.788  1.00  0.00     0.239 A 
ATOM      6  C   UNL     1       0.865  -0.015   2.964  1.00  0.00     0.146 A 
ATOM      7  O   UNL     1      -0.928  -0.887  -0.007  1.00  0.00    -0.285 OA
ATOM      8  C   UNL     1      -0.234  -0.087   2.070  1.00  0.00     0.111 A 
ATOM      9  C   UNL     1       0.682   0.425   4.278  1.00  0.00     0.094 A 
ATOM     10  C   UNL     1      -1.513   0.352   2.524  1.00  0.00     0.134 A 
ATOM     11  C   UNL     1      -0.584   0.791   4.732  1.00  0.00     0.123 A 
ATOM     12  C   UNL     1      -1.674   0.750   3.857  1.00  0.00     0.093 A 
BRANCH   3  13
ATOM     13  C   UNL     1       3.750  -1.202   1.047  1.00  0.00     0.025 A 
ATOM     14  C   UNL     1       4.241  -1.125  -0.264  1.00  0.00     0.016 A 
ATOM     15  C   UNL     1       5.567  -1.458  -0.538  1.00  0.00     0.051 A 
ATOM     16  C   UNL     1       6.420  -1.890   0.483  1.00  0.00     0.157 A 
ATOM     17  C   UNL     1       4.592  -1.661   2.069  1.00  0.00     0.062 A 
ATOM     18  C   UNL     1       5.924  -1.994   1.804  1.00  0.00     0.158 A 
BRANCH  16  19
ATOM     19  O   UNL     1       7.734  -2.208   0.143  1.00  0.00    -0.504 OA
ATOM     20  H   UNL     1       8.190  -3.072   0.396  1.00  0.00     0.293 HD
ENDBRANCH  16  19
BRANCH  18  21
ATOM     21  O   UNL     1       6.714  -2.421   2.874  1.00  0.00    -0.504 OA
ATOM     22  H   UNL     1       7.714  -2.316   2.909  1.00  0.00     0.293 HD
ENDBRANCH  18  21
ENDBRANCH   3  13
BRANCH  10  23
ATOM     23  O   UNL     1      -2.637   0.447   1.701  1.00  0.00    -0.507 OA
ATOM     24  H   UNL     1      -3.589   0.337   2.022  1.00  0.00     0.293 HD
ENDBRANCH  10  23
BRANCH  11  25
ATOM     25  O   UNL     1      -0.748   1.203   6.052  1.00  0.00    -0.508 OA
ATOM     26  H   UNL     1      -0.340   0.688   6.824  1.00  0.00     0.293 HD
ENDBRANCH  11  25
ENDBRANCH   1   2
BRANCH   1  27
ATOM     27  C   UNL     1       1.457  -2.773  -1.300  1.00  0.00     0.339 C 
ATOM     28  C   UNL     1       0.455  -2.855  -2.472  1.00  0.00     0.214 C 
ATOM     29  O   UNL     1       1.066  -3.595  -0.209  1.00  0.00    -0.332 OA
ATOM     30  C   UNL     1      -0.980  -2.565  -1.987  1.00  0.00     0.180 C 
ATOM     31  C   UNL     1      -0.190  -3.202   0.325  1.00  0.00     0.179 C 
ATOM     32  C   UNL     1      -1.316  -3.383  -0.723  1.00  0.00     0.177 C 
BRANCH  28  33
ATOM     33  O   UNL     1       0.544  -4.099  -3.125  1.00  0.00    -0.384 OA
ATOM     34  H   UNL     1       0.006  -4.757  -2.613  1.00  0.00     0.211 HD
ENDBRANCH  28  33
BRANCH  30  35
ATOM     35  O   UNL     1      -1.919  -2.784  -3.009  1.00  0.00    -0.387 OA
ATOM     36  H   UNL     1      -1.473  -2.610  -3.878  1.00  0.00     0.211 HD
ENDBRANCH  30  35
BRANCH  31  37
ATOM     37  C   UNL     1      -0.473  -4.041   1.577  1.00  0.00     0.191 C 
BRANCH  37  38
ATOM     38  O   UNL     1      -0.423  -3.223   2.715  1.00  0.00    -0.394 OA
ATOM     39  H   UNL     1       0.300  -2.562   2.548  1.00  0.00     0.210 HD
ENDBRANCH  37  38
ENDBRANCH  31  37
BRANCH  32  40
ATOM     40  O   UNL     1      -2.568  -3.000  -0.214  1.00  0.00    -0.387 OA
ATOM     41  H   UNL     1      -2.442  -2.732   0.733  1.00  0.00     0.211 HD
ENDBRANCH  32  40
ENDBRANCH   1  27
TORSDOF 12
ENDMDL
MODEL 2
REMARK VINA RESULT:    55.206      1.114      5.388
REMARK INTER + INTRA:          85.406
REMARK INTER:                  83.206
REMARK INTRA:                   2.201
REMARK UNBOUND:                 4.382
REMARK SMILES O=c1c(O[C@H]2O[C@H](CO)[C@@H](O)[C@H](O)[C@@H]2O)c(-c2ccc(O)c(O)c2)oc2cc(O)cc(O)c12
REMARK SMILES IDX 4 1 3 2 16 3 25 4 2 5 26 6 1 7 33 8 27 9 31 10 28 11 30 12
REMARK SMILES IDX 17 13 18 14 19 15 20 16 24 17 22 18 21 19 23 21 32 23 29 25
REMARK SMILES IDX 5 27 14 28 6 29 12 30 7 31 10 32 15 33 13 35 8 37 9 38 11 40
REMARK H PARENT 21 20 23 22 32 24 29 26 15 34 13 36 9 39 11 41
REMARK Flexibility Score: inf
ROOT
ATOM      1  O   UNL     1       1.662  -1.295  -0.794  1.00  0.00    -0.454 OA
ENDROOT
BRANCH   1   2
ATOM      2  C   UNL     1       2.619  -1.271   0.230  1.00  0.00     0.214 A 
ATOM      3  C   UNL     1       2.257  -0.846   1.519  1.00  0.00     0.180 A 
ATOM      4  O   UNL     1       3.155  -0.852   2.496  1.00  0.00    -0.452 OA
ATOM      5  C   UNL     1       3.954  -1.643  -0.010  1.00  0.00     0.239 A 
ATOM      6  C   UNL     1       4.416  -1.237   2.327  1.00  0.00     0.146 A 
ATOM      7  O   UNL     1       4.318  -1.867  -1.194  1.00  0.00    -0.285 OA
ATOM      8  C   UNL     1       4.873  -1.693   1.063  1.00  0.00     0.111 A 
ATOM      9  C   UNL     1       5.290  -1.170   3.415  1.00  0.00     0.094 A 
ATOM     10  C   UNL     1       6.225  -2.134   0.946  1.00  0.00     0.134 A 
ATOM     11  C   UNL     1       6.625  -1.543   3.274  1.00  0.00     0.123 A 
ATOM     12  C   UNL     1       7.087  -2.018   2.043  1.00  0.00     0.093 A 
BRANCH   3  13
ATOM     13  C   UNL     1       0.884  -0.402   1.832  1.00  0.00     0.025 A 
ATOM     14  C   UNL     1      -0.040  -0.132   0.814  1.00  0.00     0.016 A 
ATOM     15  C   UNL     1      -1.336   0.272   1.131  1.00  0.00     0.051 A 
ATOM     16  C   UNL     1      -1.728   0.431   2.465  1.00  0.00     0.157 A 
ATOM     17  C   UNL     1       0.506  -0.218   3.169  1.00  0.00     0.062 A 
ATOM     18  C   UNL     1      -0.793   0.184   3.497  1.00  0.00     0.158 A 
BRANCH  16  19
ATOM     19  O   UNL     1      -3.038   0.837   2.715  1.00  0.00    -0.504 OA
ATOM     20  H   UNL     1      -3.470   1.645   2.292  1.00  0.00     0.293 HD
ENDBRANCH  16  19
BRANCH  18  21
ATOM     21  O   UNL     1      -1.109   0.324   4.850  1.00  0.00    -0.504 OA
ATOM     22  H   UNL     1      -0.953   1.167   5.377  1.00  0.00     0.293 HD
ENDBRANCH  18  21
ENDBRANCH   3  13
BRANCH  10  23
ATOM     23  O   UNL     1       6.751  -2.719  -0.208  1.00  0.00    -0.507 OA
ATOM     24  H   UNL     1       7.100  -2.200  -1.001  1.00  0.00     0.293 HD
ENDBRANCH  10  23
BRANCH  11  25
ATOM     25  O   UNL     1       7.485  -1.446   4.365  1.00  0.00    -0.508 OA
ATOM     26  H   UNL     1       7.581  -0.584   4.891  1.00  0.00     0.293 HD
ENDBRANCH  11  25
ENDBRANCH   1   2
BRANCH   1  27
ATOM     27  C   UNL     1       1.157  -2.500  -1.381  1.00  0.00     0.339 C 
ATOM     28  C   UNL     1      -0.065  -2.189  -2.272  1.00  0.00     0.214 C 
ATOM     29  O   UNL     1       0.854  -3.463  -0.381  1.00  0.00    -0.332 OA
ATOM     30  C   UNL     1      -1.284  -1.797  -1.412  1.00  0.00     0.180 C 
ATOM     31  C   UNL     1      -0.163  -3.008   0.500  1.00  0.00     0.179 C 
ATOM     32  C   UNL     1      -1.497  -2.800  -0.259  1.00  0.00     0.177 C 
BRANCH  28  33
ATOM     33  O   UNL     1      -0.355  -3.270  -3.125  1.00  0.00    -0.384 OA
ATOM     34  H   UNL     1      -0.846  -2.921  -3.913  1.00  0.00     0.211 HD
ENDBRANCH  28  33
BRANCH  30  35
ATOM     35  O   UNL     1      -2.440  -1.659  -2.197  1.00  0.00    -0.387 OA
ATOM     36  H   UNL     1      -2.839  -0.771  -2.002  1.00  0.00     0.211 HD
ENDBRANCH  30  35
BRANCH  31  37
ATOM     37  C   UNL     1      -0.332  -4.037   1.624  1.00  0.00     0.191 C 
BRANCH  37  38
ATOM     38  O   UNL     1      -0.385  -3.380   2.861  1.00  0.00    -0.394 OA
ATOM     39  H   UNL     1      -1.341  -3.155   3.014  1.00  0.00     0.210 HD
ENDBRANCH  37  38
ENDBRANCH  31  37
BRANCH  32  40
ATOM     40  O   UNL     1      -2.517  -2.350   0.596  1.00  0.00    -0.387 OA
ATOM     41  H   UNL     1      -3.364  -2.781   0.312  1.00  0.00     0.211 HD
ENDBRANCH  32  40
ENDBRANCH   1  27
TORSDOF 12
ENDMDL
