MODEL 1
REMARK VINA RESULT:    -5.723      0.000      0.000
REMARK INTER + INTRA:          -8.169
REMARK INTER:                  -7.228
REMARK INTRA:                  -0.941
REMARK UNBOUND:                -0.941
REMARK SMILES O=C(C=Cc1ccc(O)cc1)c1ccc(O)cc1O
REMARK SMILES IDX 4 1 3 2 5 3 6 4 7 5 8 6 11 7 10 8 9 9 2 11 1 12 12 13 18 14
REMARK SMILES IDX 13 15 17 16 14 17 15 18 19 19 16 21
REMARK H PARENT 9 10 19 20 16 22
REMARK Flexibility Score: inf
ROOT
ATOM      1  C   UNL     1     -16.335  -5.770 -18.044  1.00  0.00     0.012 C 
ATOM      2  C   UNL     1     -17.458  -5.782 -17.306  1.00  0.00     0.053 C 
ENDROOT
BRANCH   1   3
ATOM      3  C   UNL     1     -15.120  -4.988 -17.741  1.00  0.00    -0.025 A 
ATOM      4  C   UNL     1     -14.996  -3.683 -18.241  1.00  0.00     0.012 A 
ATOM      5  C   UNL     1     -13.832  -2.946 -18.009  1.00  0.00     0.047 A 
ATOM      6  C   UNL     1     -12.770  -3.512 -17.295  1.00  0.00     0.115 A 
ATOM      7  C   UNL     1     -14.039  -5.565 -17.051  1.00  0.00     0.012 A 
ATOM      8  C   UNL     1     -12.875  -4.826 -16.818  1.00  0.00     0.047 A 
BRANCH   6   9
ATOM      9  O   UNL     1     -11.616  -2.765 -17.070  1.00  0.00    -0.508 OA
ATOM     10  H   UNL     1     -10.694  -3.151 -17.236  1.00  0.00     0.293 HD
ENDBRANCH   6   9
ENDBRANCH   1   3
BRANCH   2  11
ATOM     11  C   UNL     1     -17.749  -4.887 -16.159  1.00  0.00     0.189 C 
ATOM     12  O   UNL     1     -18.045  -5.362 -15.030  1.00  0.00    -0.289 OA
BRANCH  11  13
ATOM     13  C   UNL     1     -17.694  -3.418 -16.315  1.00  0.00     0.064 A 
ATOM     14  C   UNL     1     -17.103  -2.587 -15.339  1.00  0.00     0.130 A 
ATOM     15  C   UNL     1     -18.273  -2.833 -17.454  1.00  0.00     0.020 A 
ATOM     16  C   UNL     1     -17.062  -1.199 -15.538  1.00  0.00     0.093 A 
ATOM     17  C   UNL     1     -18.233  -1.450 -17.640  1.00  0.00     0.047 A 
ATOM     18  C   UNL     1     -17.624  -0.630 -16.687  1.00  0.00     0.119 A 
BRANCH  14  19
ATOM     19  O   UNL     1     -16.585  -3.133 -14.165  1.00  0.00    -0.507 OA
ATOM     20  H   UNL     1     -15.680  -2.855 -13.803  1.00  0.00     0.293 HD
ENDBRANCH  14  19
BRANCH  18  21
ATOM     21  O   UNL     1     -17.588   0.748 -16.888  1.00  0.00    -0.508 OA
ATOM     22  H   UNL     1     -17.163   1.372 -16.212  1.00  0.00     0.293 HD
ENDBRANCH  18  21
ENDBRANCH  11  13
ENDBRANCH   2  11
TORSDOF 6
ENDMDL
MODEL 2
REMARK VINA RESULT:    -5.702      2.262      3.695
REMARK INTER + INTRA:          -8.144
REMARK INTER:                  -7.193
REMARK INTRA:                  -0.951
REMARK UNBOUND:                -0.941
REMARK SMILES O=C(C=Cc1ccc(O)cc1)c1ccc(O)cc1O
REMARK SMILES IDX 4 1 3 2 5 3 6 4 7 5 8 6 11 7 10 8 9 9 2 11 1 12 12 13 18 14
REMARK SMILES IDX 13 15 17 16 14 17 15 18 19 19 16 21
REMARK H PARENT 9 10 19 20 16 22
REMARK Flexibility Score: inf
ROOT
ATOM      1  C   UNL     1     -16.759  -3.010 -14.875  1.00  0.00     0.012 C 
ATOM      2  C   UNL     1     -17.565  -1.937 -14.826  1.00  0.00     0.053 C 
ENDROOT
BRANCH   1   3
ATOM      3  C   UNL     1     -16.032  -3.481 -16.070  1.00  0.00    -0.025 A 
ATOM      4  C   UNL     1     -14.890  -2.788 -16.500  1.00  0.00     0.012 A 
ATOM      5  C   UNL     1     -14.218  -3.186 -17.660  1.00  0.00     0.047 A 
ATOM      6  C   UNL     1     -14.692  -4.266 -18.413  1.00  0.00     0.115 A 
ATOM      7  C   UNL     1     -16.523  -4.546 -16.846  1.00  0.00     0.012 A 
ATOM      8  C   UNL     1     -15.849  -4.944 -18.005  1.00  0.00     0.047 A 
BRANCH   6   9
ATOM      9  O   UNL     1     -14.011  -4.653 -19.565  1.00  0.00    -0.508 OA
ATOM     10  H   UNL     1     -13.221  -4.125 -19.915  1.00  0.00     0.293 HD
ENDBRANCH   6   9
ENDBRANCH   1   3
BRANCH   2  11
ATOM     11  C   UNL     1     -18.012  -1.136 -15.992  1.00  0.00     0.189 C 
ATOM     12  O   UNL     1     -18.744  -1.646 -16.882  1.00  0.00    -0.289 OA
BRANCH  11  13
ATOM     13  C   UNL     1     -17.613   0.280 -16.132  1.00  0.00     0.064 A 
ATOM     14  C   UNL     1     -16.864   0.738 -17.238  1.00  0.00     0.130 A 
ATOM     15  C   UNL     1     -17.964   1.188 -15.118  1.00  0.00     0.020 A 
ATOM     16  C   UNL     1     -16.521   2.095 -17.334  1.00  0.00     0.093 A 
ATOM     17  C   UNL     1     -17.611   2.536 -15.219  1.00  0.00     0.047 A 
ATOM     18  C   UNL     1     -16.894   2.994 -16.327  1.00  0.00     0.119 A 
BRANCH  14  19
ATOM     19  O   UNL     1     -16.441  -0.154 -18.223  1.00  0.00    -0.507 OA
ATOM     20  H   UNL     1     -15.625   0.033 -18.795  1.00  0.00     0.293 HD
ENDBRANCH  14  19
BRANCH  18  21
ATOM     21  O   UNL     1     -16.553   4.341 -16.416  1.00  0.00    -0.508 OA
ATOM     22  H   UNL     1     -16.489   4.928 -15.592  1.00  0.00     0.293 HD
ENDBRANCH  18  21
ENDBRANCH  11  13
ENDBRANCH   2  11
TORSDOF 6
ENDMDL
MODEL 3
REMARK VINA RESULT:    -5.569      1.451      4.573
REMARK INTER + INTRA:          -7.975
REMARK INTER:                  -6.618
REMARK INTRA:                  -1.356
REMARK UNBOUND:                -0.941
REMARK SMILES O=C(C=Cc1ccc(O)cc1)c1ccc(O)cc1O
REMARK SMILES IDX 4 1 3 2 5 3 6 4 7 5 8 6 11 7 10 8 9 9 2 11 1 12 12 13 18 14
REMARK SMILES IDX 13 15 17 16 14 17 15 18 19 19 16 21
REMARK H PARENT 9 10 19 20 16 22
REMARK Flexibility Score: inf
ROOT
ATOM      1  C   UNL     1     -19.125  -4.328 -17.299  1.00  0.00     0.012 C 
ATOM      2  C   UNL     1     -18.276  -5.359 -17.444  1.00  0.00     0.053 C 
ENDROOT
BRANCH   1   3
ATOM      3  C   UNL     1     -18.803  -3.038 -16.657  1.00  0.00    -0.025 A 
ATOM      4  C   UNL     1     -18.230  -2.011 -17.422  1.00  0.00     0.012 A 
ATOM      5  C   UNL     1     -17.870  -0.801 -16.822  1.00  0.00     0.047 A 
ATOM      6  C   UNL     1     -18.056  -0.614 -15.447  1.00  0.00     0.115 A 
ATOM      7  C   UNL     1     -18.959  -2.858 -15.272  1.00  0.00     0.012 A 
ATOM      8  C   UNL     1     -18.599  -1.647 -14.672  1.00  0.00     0.047 A 
BRANCH   6   9
ATOM      9  O   UNL     1     -17.694   0.598 -14.863  1.00  0.00    -0.508 OA
ATOM     10  H   UNL     1     -17.180   1.302 -15.380  1.00  0.00     0.293 HD
ENDBRANCH   6   9
ENDBRANCH   1   3
BRANCH   2  11
ATOM     11  C   UNL     1     -16.927  -5.462 -16.837  1.00  0.00     0.189 C 
ATOM     12  O   UNL     1     -16.741  -6.141 -15.791  1.00  0.00    -0.289 OA
BRANCH  11  13
ATOM     13  C   UNL     1     -15.769  -4.776 -17.449  1.00  0.00     0.064 A 
ATOM     14  C   UNL     1     -15.093  -3.726 -16.792  1.00  0.00     0.130 A 
ATOM     15  C   UNL     1     -15.352  -5.163 -18.734  1.00  0.00     0.020 A 
ATOM     16  C   UNL     1     -13.991  -3.115 -17.407  1.00  0.00     0.093 A 
ATOM     17  C   UNL     1     -14.258  -4.543 -19.342  1.00  0.00     0.047 A 
ATOM     18  C   UNL     1     -13.572  -3.522 -18.679  1.00  0.00     0.119 A 
BRANCH  14  19
ATOM     19  O   UNL     1     -15.530  -3.273 -15.547  1.00  0.00    -0.507 OA
ATOM     20  H   UNL     1     -16.152  -2.478 -15.458  1.00  0.00     0.293 HD
ENDBRANCH  14  19
BRANCH  18  21
ATOM     21  O   UNL     1     -12.480  -2.916 -19.296  1.00  0.00    -0.508 OA
ATOM     22  H   UNL     1     -11.646  -3.441 -19.534  1.00  0.00     0.293 HD
ENDBRANCH  18  21
ENDBRANCH  11  13
ENDBRANCH   2  11
TORSDOF 6
ENDMDL
MODEL 4
REMARK VINA RESULT:    -5.546      1.493      4.607
REMARK INTER + INTRA:          -7.946
REMARK INTER:                  -6.586
REMARK INTRA:                  -1.360
REMARK UNBOUND:                -0.941
REMARK SMILES O=C(C=Cc1ccc(O)cc1)c1ccc(O)cc1O
REMARK SMILES IDX 4 1 3 2 5 3 6 4 7 5 8 6 11 7 10 8 9 9 2 11 1 12 12 13 18 14
REMARK SMILES IDX 13 15 17 16 14 17 15 18 19 19 16 21
REMARK H PARENT 9 10 19 20 16 22
REMARK Flexibility Score: inf
ROOT
ATOM      1  C   UNL     1     -19.062  -2.904 -17.978  1.00  0.00     0.012 C 
ATOM      2  C   UNL     1     -18.569  -1.663 -17.826  1.00  0.00     0.053 C 
ENDROOT
BRANCH   1   3
ATOM      3  C   UNL     1     -18.678  -4.082 -17.175  1.00  0.00    -0.025 A 
ATOM      4  C   UNL     1     -19.125  -4.187 -15.849  1.00  0.00     0.012 A 
ATOM      5  C   UNL     1     -18.730  -5.269 -15.056  1.00  0.00     0.047 A 
ATOM      6  C   UNL     1     -17.867  -6.242 -15.571  1.00  0.00     0.115 A 
ATOM      7  C   UNL     1     -17.787  -5.045 -17.680  1.00  0.00     0.012 A 
ATOM      8  C   UNL     1     -17.394  -6.127 -16.885  1.00  0.00     0.047 A 
BRANCH   6   9
ATOM      9  O   UNL     1     -17.484  -7.316 -14.770  1.00  0.00    -0.508 OA
ATOM     10  H   UNL     1     -17.248  -7.189 -13.793  1.00  0.00     0.293 HD
ENDBRANCH   6   9
ENDBRANCH   1   3
BRANCH   2  11
ATOM     11  C   UNL     1     -17.432  -1.285 -16.951  1.00  0.00     0.189 C 
ATOM     12  O   UNL     1     -17.573  -0.414 -16.051  1.00  0.00    -0.289 OA
BRANCH  11  13
ATOM     13  C   UNL     1     -16.110  -1.926 -17.112  1.00  0.00     0.064 A 
ATOM     14  C   UNL     1     -15.506  -2.660 -16.069  1.00  0.00     0.130 A 
ATOM     15  C   UNL     1     -15.425  -1.774 -18.330  1.00  0.00     0.020 A 
ATOM     16  C   UNL     1     -14.256  -3.263 -16.275  1.00  0.00     0.093 A 
ATOM     17  C   UNL     1     -14.178  -2.371 -18.523  1.00  0.00     0.047 A 
ATOM     18  C   UNL     1     -13.592  -3.121 -17.499  1.00  0.00     0.119 A 
BRANCH  14  19
ATOM     19  O   UNL     1     -16.130  -2.768 -14.827  1.00  0.00    -0.507 OA
ATOM     20  H   UNL     1     -16.989  -3.293 -14.707  1.00  0.00     0.293 HD
ENDBRANCH  14  19
BRANCH  18  21
ATOM     21  O   UNL     1     -12.350  -3.715 -17.707  1.00  0.00    -0.508 OA
ATOM     22  H   UNL     1     -12.138  -4.640 -17.351  1.00  0.00     0.293 HD
ENDBRANCH  18  21
ENDBRANCH  11  13
ENDBRANCH   2  11
TORSDOF 6
ENDMDL
MODEL 5
REMARK VINA RESULT:    -5.437      2.159      5.892
REMARK INTER + INTRA:          -7.809
REMARK INTER:                  -6.820
REMARK INTRA:                  -0.989
REMARK UNBOUND:                -0.941
REMARK SMILES O=C(C=Cc1ccc(O)cc1)c1ccc(O)cc1O
REMARK SMILES IDX 4 1 3 2 5 3 6 4 7 5 8 6 11 7 10 8 9 9 2 11 1 12 12 13 18 14
REMARK SMILES IDX 13 15 17 16 14 17 15 18 19 19 16 21
REMARK H PARENT 9 10 19 20 16 22
REMARK Flexibility Score: inf
ROOT
ATOM      1  C   UNL     1     -16.038  -3.477 -18.353  1.00  0.00     0.012 C 
ATOM      2  C   UNL     1     -14.764  -3.891 -18.453  1.00  0.00     0.053 C 
ENDROOT
BRANCH   1   3
ATOM      3  C   UNL     1     -16.501  -2.315 -17.568  1.00  0.00    -0.025 A 
ATOM      4  C   UNL     1     -17.167  -2.527 -16.351  1.00  0.00     0.012 A 
ATOM      5  C   UNL     1     -17.659  -1.442 -15.619  1.00  0.00     0.047 A 
ATOM      6  C   UNL     1     -17.513  -0.139 -16.106  1.00  0.00     0.115 A 
ATOM      7  C   UNL     1     -16.384  -1.007 -18.070  1.00  0.00     0.012 A 
ATOM      8  C   UNL     1     -16.876   0.077 -17.336  1.00  0.00     0.047 A 
BRANCH   6   9
ATOM      9  O   UNL     1     -18.006   0.933 -15.364  1.00  0.00    -0.508 OA
ATOM     10  H   UNL     1     -17.387   1.622 -14.955  1.00  0.00     0.293 HD
ENDBRANCH   6   9
ENDBRANCH   1   3
BRANCH   2  11
ATOM     11  C   UNL     1     -13.620  -3.372 -17.663  1.00  0.00     0.189 C 
ATOM     12  O   UNL     1     -13.573  -3.534 -16.414  1.00  0.00    -0.289 OA
BRANCH  11  13
ATOM     13  C   UNL     1     -12.508  -2.659 -18.326  1.00  0.00     0.064 A 
ATOM     14  C   UNL     1     -11.176  -2.769 -17.870  1.00  0.00     0.130 A 
ATOM     15  C   UNL     1     -12.791  -1.826 -19.422  1.00  0.00     0.020 A 
ATOM     16  C   UNL     1     -10.152  -2.084 -18.540  1.00  0.00     0.093 A 
ATOM     17  C   UNL     1     -11.765  -1.143 -20.078  1.00  0.00     0.047 A 
ATOM     18  C   UNL     1     -10.444  -1.273 -19.643  1.00  0.00     0.119 A 
BRANCH  14  19
ATOM     19  O   UNL     1     -10.876  -3.531 -16.741  1.00  0.00    -0.507 OA
ATOM     20  H   UNL     1     -10.280  -3.176 -16.002  1.00  0.00     0.293 HD
ENDBRANCH  14  19
BRANCH  18  21
ATOM     21  O   UNL     1      -9.430  -0.589 -20.310  1.00  0.00    -0.508 OA
ATOM     22  H   UNL     1      -8.839  -1.049 -20.993  1.00  0.00     0.293 HD
ENDBRANCH  18  21
ENDBRANCH  11  13
ENDBRANCH   2  11
TORSDOF 6
ENDMDL
MODEL 6
REMARK VINA RESULT:    -5.348      2.129      5.145
REMARK INTER + INTRA:          -7.696
REMARK INTER:                  -6.473
REMARK INTRA:                  -1.223
REMARK UNBOUND:                -0.941
REMARK SMILES O=C(C=Cc1ccc(O)cc1)c1ccc(O)cc1O
REMARK SMILES IDX 4 1 3 2 5 3 6 4 7 5 8 6 11 7 10 8 9 9 2 11 1 12 12 13 18 14
REMARK SMILES IDX 13 15 17 16 14 17 15 18 19 19 16 21
REMARK H PARENT 9 10 19 20 16 22
REMARK Flexibility Score: inf
ROOT
ATOM      1  C   UNL     1     -13.751  -3.886 -16.856  1.00  0.00     0.012 C 
ATOM      2  C   UNL     1     -13.879  -5.164 -17.248  1.00  0.00     0.053 C 
ENDROOT
BRANCH   1   3
ATOM      3  C   UNL     1     -14.828  -2.877 -16.863  1.00  0.00    -0.025 A 
ATOM      4  C   UNL     1     -15.699  -2.790 -15.766  1.00  0.00     0.012 A 
ATOM      5  C   UNL     1     -16.757  -1.876 -15.776  1.00  0.00     0.047 A 
ATOM      6  C   UNL     1     -16.971  -1.057 -16.890  1.00  0.00     0.115 A 
ATOM      7  C   UNL     1     -15.064  -2.074 -17.993  1.00  0.00     0.012 A 
ATOM      8  C   UNL     1     -16.123  -1.160 -18.001  1.00  0.00     0.047 A 
BRANCH   6   9
ATOM      9  O   UNL     1     -18.028  -0.150 -16.884  1.00  0.00    -0.508 OA
ATOM     10  H   UNL     1     -18.992  -0.461 -16.866  1.00  0.00     0.293 HD
ENDBRANCH   6   9
ENDBRANCH   1   3
BRANCH   2  11
ATOM     11  C   UNL     1     -15.066  -5.750 -17.920  1.00  0.00     0.189 C 
ATOM     12  O   UNL     1     -15.203  -5.669 -19.170  1.00  0.00    -0.289 OA
BRANCH  11  13
ATOM     13  C   UNL     1     -16.108  -6.446 -17.138  1.00  0.00     0.064 A 
ATOM     14  C   UNL     1     -17.420  -5.936 -17.024  1.00  0.00     0.130 A 
ATOM     15  C   UNL     1     -15.773  -7.634 -16.465  1.00  0.00     0.020 A 
ATOM     16  C   UNL     1     -18.379  -6.641 -16.282  1.00  0.00     0.093 A 
ATOM     17  C   UNL     1     -16.734  -8.324 -15.722  1.00  0.00     0.047 A 
ATOM     18  C   UNL     1     -18.039  -7.833 -15.632  1.00  0.00     0.119 A 
BRANCH  14  19
ATOM     19  O   UNL     1     -17.761  -4.723 -17.622  1.00  0.00    -0.507 OA
ATOM     20  H   UNL     1     -18.603  -4.622 -18.176  1.00  0.00     0.293 HD
ENDBRANCH  14  19
BRANCH  18  21
ATOM     21  O   UNL     1     -18.987  -8.535 -14.892  1.00  0.00    -0.508 OA
ATOM     22  H   UNL     1     -19.272  -8.229 -13.969  1.00  0.00     0.293 HD
ENDBRANCH  18  21
ENDBRANCH  11  13
ENDBRANCH   2  11
TORSDOF 6
ENDMDL
MODEL 7
REMARK VINA RESULT:    -5.308      3.040      4.362
REMARK INTER + INTRA:          -7.645
REMARK INTER:                  -6.589
REMARK INTRA:                  -1.057
REMARK UNBOUND:                -0.941
REMARK SMILES O=C(C=Cc1ccc(O)cc1)c1ccc(O)cc1O
REMARK SMILES IDX 4 1 3 2 5 3 6 4 7 5 8 6 11 7 10 8 9 9 2 11 1 12 12 13 18 14
REMARK SMILES IDX 13 15 17 16 14 17 15 18 19 19 16 21
REMARK H PARENT 9 10 19 20 16 22
REMARK Flexibility Score: inf
ROOT
ATOM      1  C   UNL     1     -12.279  -3.297 -20.230  1.00  0.00     0.012 C 
ATOM      2  C   UNL     1     -13.059  -3.900 -19.318  1.00  0.00     0.053 C 
ENDROOT
BRANCH   1   3
ATOM      3  C   UNL     1     -11.460  -2.091 -19.992  1.00  0.00    -0.025 A 
ATOM      4  C   UNL     1     -11.923  -0.844 -20.440  1.00  0.00     0.012 A 
ATOM      5  C   UNL     1     -11.139   0.301 -20.271  1.00  0.00     0.047 A 
ATOM      6  C   UNL     1      -9.877   0.209 -19.674  1.00  0.00     0.115 A 
ATOM      7  C   UNL     1     -10.179  -2.185 -19.420  1.00  0.00     0.012 A 
ATOM      8  C   UNL     1      -9.397  -1.038 -19.251  1.00  0.00     0.047 A 
BRANCH   6   9
ATOM      9  O   UNL     1      -9.108   1.359 -19.509  1.00  0.00    -0.508 OA
ATOM     10  H   UNL     1      -9.247   2.176 -20.092  1.00  0.00     0.293 HD
ENDBRANCH   6   9
ENDBRANCH   1   3
BRANCH   2  11
ATOM     11  C   UNL     1     -13.380  -3.374 -17.968  1.00  0.00     0.189 C 
ATOM     12  O   UNL     1     -12.550  -3.471 -17.025  1.00  0.00    -0.289 OA
BRANCH  11  13
ATOM     13  C   UNL     1     -14.679  -2.720 -17.703  1.00  0.00     0.064 A 
ATOM     14  C   UNL     1     -15.685  -3.344 -16.934  1.00  0.00     0.130 A 
ATOM     15  C   UNL     1     -14.927  -1.453 -18.259  1.00  0.00     0.020 A 
ATOM     16  C   UNL     1     -16.896  -2.677 -16.698  1.00  0.00     0.093 A 
ATOM     17  C   UNL     1     -16.139  -0.800 -18.024  1.00  0.00     0.047 A 
ATOM     18  C   UNL     1     -17.124  -1.407 -17.240  1.00  0.00     0.119 A 
BRANCH  14  19
ATOM     19  O   UNL     1     -15.493  -4.631 -16.431  1.00  0.00    -0.507 OA
ATOM     20  H   UNL     1     -15.500  -4.818 -15.434  1.00  0.00     0.293 HD
ENDBRANCH  14  19
BRANCH  18  21
ATOM     21  O   UNL     1     -18.326  -0.742 -17.011  1.00  0.00    -0.508 OA
ATOM     22  H   UNL     1     -18.849  -0.872 -16.153  1.00  0.00     0.293 HD
ENDBRANCH  18  21
ENDBRANCH  11  13
ENDBRANCH   2  11
TORSDOF 6
ENDMDL
MODEL 8
REMARK VINA RESULT:    -5.238      1.732      2.159
REMARK INTER + INTRA:          -7.558
REMARK INTER:                  -6.248
REMARK INTRA:                  -1.309
REMARK UNBOUND:                -0.941
REMARK SMILES O=C(C=Cc1ccc(O)cc1)c1ccc(O)cc1O
REMARK SMILES IDX 4 1 3 2 5 3 6 4 7 5 8 6 11 7 10 8 9 9 2 11 1 12 12 13 18 14
REMARK SMILES IDX 13 15 17 16 14 17 15 18 19 19 16 21
REMARK H PARENT 9 10 19 20 16 22
REMARK Flexibility Score: inf
ROOT
ATOM      1  C   UNL     1     -16.205  -5.898 -16.723  1.00  0.00     0.012 C 
ATOM      2  C   UNL     1     -17.500  -5.659 -16.460  1.00  0.00     0.053 C 
ENDROOT
BRANCH   1   3
ATOM      3  C   UNL     1     -15.307  -5.006 -17.481  1.00  0.00    -0.025 A 
ATOM      4  C   UNL     1     -15.012  -5.300 -18.822  1.00  0.00     0.012 A 
ATOM      5  C   UNL     1     -14.124  -4.497 -19.541  1.00  0.00     0.047 A 
ATOM      6  C   UNL     1     -13.502  -3.406 -18.924  1.00  0.00     0.115 A 
ATOM      7  C   UNL     1     -14.657  -3.927 -16.856  1.00  0.00     0.012 A 
ATOM      8  C   UNL     1     -13.769  -3.124 -17.578  1.00  0.00     0.047 A 
BRANCH   6   9
ATOM      9  O   UNL     1     -12.620  -2.612 -19.655  1.00  0.00    -0.508 OA
ATOM     10  H   UNL     1     -11.623  -2.626 -19.476  1.00  0.00     0.293 HD
ENDBRANCH   6   9
ENDBRANCH   1   3
BRANCH   2  11
ATOM     11  C   UNL     1     -18.309  -4.551 -17.026  1.00  0.00     0.189 C 
ATOM     12  O   UNL     1     -19.125  -4.762 -17.963  1.00  0.00    -0.289 OA
BRANCH  11  13
ATOM     13  C   UNL     1     -18.179  -3.177 -16.498  1.00  0.00     0.064 A 
ATOM     14  C   UNL     1     -17.742  -2.106 -17.306  1.00  0.00     0.130 A 
ATOM     15  C   UNL     1     -18.472  -2.939 -15.144  1.00  0.00     0.020 A 
ATOM     16  C   UNL     1     -17.648  -0.816 -16.763  1.00  0.00     0.093 A 
ATOM     17  C   UNL     1     -18.369  -1.652 -14.610  1.00  0.00     0.047 A 
ATOM     18  C   UNL     1     -17.962  -0.587 -15.418  1.00  0.00     0.119 A 
BRANCH  14  19
ATOM     19  O   UNL     1     -17.376  -2.326 -18.634  1.00  0.00    -0.507 OA
ATOM     20  H   UNL     1     -16.898  -1.617 -19.179  1.00  0.00     0.293 HD
ENDBRANCH  14  19
BRANCH  18  21
ATOM     21  O   UNL     1     -17.868   0.691 -14.874  1.00  0.00    -0.508 OA
ATOM     22  H   UNL     1     -17.886   1.519 -15.458  1.00  0.00     0.293 HD
ENDBRANCH  18  21
ENDBRANCH  11  13
ENDBRANCH   2  11
TORSDOF 6
ENDMDL
MODEL 9
REMARK VINA RESULT:    -5.217      2.484      4.730
REMARK INTER + INTRA:          -7.530
REMARK INTER:                  -6.261
REMARK INTRA:                  -1.269
REMARK UNBOUND:                -0.941
REMARK SMILES O=C(C=Cc1ccc(O)cc1)c1ccc(O)cc1O
REMARK SMILES IDX 4 1 3 2 5 3 6 4 7 5 8 6 11 7 10 8 9 9 2 11 1 12 12 13 18 14
REMARK SMILES IDX 13 15 17 16 14 17 15 18 19 19 16 21
REMARK H PARENT 9 10 19 20 16 22
REMARK Flexibility Score: inf
ROOT
ATOM      1  C   UNL     1     -11.227  -4.902 -19.520  1.00  0.00     0.012 C 
ATOM      2  C   UNL     1     -11.605  -5.725 -18.528  1.00  0.00     0.053 C 
ENDROOT
BRANCH   1   3
ATOM      3  C   UNL     1     -11.253  -3.427 -19.464  1.00  0.00    -0.025 A 
ATOM      4  C   UNL     1     -10.193  -2.741 -18.852  1.00  0.00     0.012 A 
ATOM      5  C   UNL     1     -10.224  -1.348 -18.743  1.00  0.00     0.047 A 
ATOM      6  C   UNL     1     -11.324  -0.627 -19.223  1.00  0.00     0.115 A 
ATOM      7  C   UNL     1     -12.370  -2.703 -19.918  1.00  0.00     0.012 A 
ATOM      8  C   UNL     1     -12.399  -1.309 -19.809  1.00  0.00     0.047 A 
BRANCH   6   9
ATOM      9  O   UNL     1     -11.340   0.761 -19.110  1.00  0.00    -0.508 OA
ATOM     10  H   UNL     1     -11.139   1.359 -19.904  1.00  0.00     0.293 HD
ENDBRANCH   6   9
ENDBRANCH   1   3
BRANCH   2  11
ATOM     11  C   UNL     1     -12.279  -5.315 -17.271  1.00  0.00     0.189 C 
ATOM     12  O   UNL     1     -11.617  -5.140 -16.213  1.00  0.00    -0.289 OA
BRANCH  11  13
ATOM     13  C   UNL     1     -13.740  -5.096 -17.236  1.00  0.00     0.064 A 
ATOM     14  C   UNL     1     -14.298  -3.849 -16.877  1.00  0.00     0.130 A 
ATOM     15  C   UNL     1     -14.595  -6.169 -17.539  1.00  0.00     0.020 A 
ATOM     16  C   UNL     1     -15.691  -3.686 -16.872  1.00  0.00     0.093 A 
ATOM     17  C   UNL     1     -15.982  -5.998 -17.523  1.00  0.00     0.047 A 
ATOM     18  C   UNL     1     -16.533  -4.757 -17.195  1.00  0.00     0.119 A 
BRANCH  14  19
ATOM     19  O   UNL     1     -13.475  -2.788 -16.503  1.00  0.00    -0.507 OA
ATOM     20  H   UNL     1     -13.221  -2.627 -15.535  1.00  0.00     0.293 HD
ENDBRANCH  14  19
BRANCH  18  21
ATOM     21  O   UNL     1     -17.917  -4.600 -17.188  1.00  0.00    -0.508 OA
ATOM     22  H   UNL     1     -18.446  -4.520 -18.049  1.00  0.00     0.293 HD
ENDBRANCH  18  21
ENDBRANCH  11  13
ENDBRANCH   2  11
TORSDOF 6
ENDMDL
