MODEL 1
REMARK VINA RESULT:    -5.394      0.000      0.000
REMARK INTER + INTRA:         -10.828
REMARK INTER:                  -9.493
REMARK INTRA:                  -1.335
REMARK UNBOUND:                -1.335
REMARK SMILES CCCCCCCCCCCCCCC(=O)[O-]
REMARK SMILES IDX 9 1 10 2 11 3 12 4 13 5 14 6 15 7 16 8 17 9 8 10 7 11 6 12
REMARK SMILES IDX 5 13 4 14 3 15 2 16 1 17
REMARK H PARENT
REMARK Flexibility Score: inf
ROOT
ATOM      1  C   UNL     1       9.374  23.244  -9.378  1.00  0.00     0.000 C 
ENDROOT
BRANCH   1   2
ATOM      2  C   UNL     1       8.290  22.213  -9.737  1.00  0.00     0.000 C 
BRANCH   2   3
ATOM      3  C   UNL     1       6.900  22.839  -9.980  1.00  0.00     0.000 C 
BRANCH   3   4
ATOM      4  C   UNL     1       6.423  23.680  -8.784  1.00  0.00     0.000 C 
BRANCH   4   5
ATOM      5  C   UNL     1       5.280  23.018  -7.996  1.00  0.00     0.006 C 
BRANCH   5   6
ATOM      6  C   UNL     1       5.387  23.197  -6.470  1.00  0.00     0.053 C 
BRANCH   6   7
ATOM      7  C   UNL     1       6.697  23.785  -6.046  1.00  0.00     0.041 C 
ATOM      8  O   UNL     1       6.769  24.991  -5.693  1.00  0.00    -0.550 OA
ATOM      9  O   UNL     1       7.837  22.990  -6.008  1.00  0.00    -0.550 OA
ENDBRANCH   6   7
ENDBRANCH   5   6
ENDBRANCH   4   5
ENDBRANCH   3   4
ENDBRANCH   2   3
ENDBRANCH   1   2
BRANCH   1  10
ATOM     10  C   UNL     1      10.610  23.157 -10.289  1.00  0.00     0.000 C 
BRANCH  10  11
ATOM     11  C   UNL     1      11.676  24.212  -9.925  1.00  0.00    -0.000 C 
BRANCH  11  12
ATOM     12  C   UNL     1      11.864  24.402  -8.410  1.00  0.00    -0.000 C 
BRANCH  12  13
ATOM     13  C   UNL     1      13.276  24.020  -7.933  1.00  0.00    -0.000 C 
BRANCH  13  14
ATOM     14  C   UNL     1      13.320  22.630  -7.277  1.00  0.00    -0.000 C 
BRANCH  14  15
ATOM     15  C   UNL     1      11.915  22.076  -6.976  1.00  0.00    -0.000 C 
BRANCH  15  16
ATOM     16  C   UNL     1      11.622  20.772  -7.734  1.00  0.00    -0.003 C 
ATOM     17  C   UNL     1      10.271  20.160  -7.364  1.00  0.00     0.004 C 
ENDBRANCH  15  16
ENDBRANCH  14  15
ENDBRANCH  13  14
ENDBRANCH  12  13
ENDBRANCH  11  12
ENDBRANCH  10  11
ENDBRANCH   1  10
TORSDOF 13
ENDMDL
MODEL 2
REMARK VINA RESULT:    -5.348      2.571      5.943
REMARK INTER + INTRA:         -10.747
REMARK INTER:                  -9.081
REMARK INTRA:                  -1.666
REMARK UNBOUND:                -1.335
REMARK SMILES CCCCCCCCCCCCCCC(=O)[O-]
REMARK SMILES IDX 9 1 10 2 11 3 12 4 13 5 14 6 15 7 16 8 17 9 8 10 7 11 6 12
REMARK SMILES IDX 5 13 4 14 3 15 2 16 1 17
REMARK H PARENT
REMARK Flexibility Score: inf
ROOT
ATOM      1  C   UNL     1       8.796  21.747  -4.992  1.00  0.00     0.000 C 
ENDROOT
BRANCH   1   2
ATOM      2  C   UNL     1       9.197  21.287  -6.406  1.00  0.00     0.000 C 
BRANCH   2   3
ATOM      3  C   UNL     1      10.605  21.754  -6.830  1.00  0.00     0.000 C 
BRANCH   3   4
ATOM      4  C   UNL     1      10.950  21.333  -8.268  1.00  0.00     0.000 C 
BRANCH   4   5
ATOM      5  C   UNL     1      10.518  22.368  -9.322  1.00  0.00     0.006 C 
BRANCH   5   6
ATOM      6  C   UNL     1      10.633  23.828  -8.848  1.00  0.00     0.053 C 
BRANCH   6   7
ATOM      7  C   UNL     1      11.946  24.452  -9.210  1.00  0.00     0.041 C 
ATOM      8  O   UNL     1      12.905  24.435  -8.394  1.00  0.00    -0.550 OA
ATOM      9  O   UNL     1      12.123  25.023 -10.464  1.00  0.00    -0.550 OA
ENDBRANCH   6   7
ENDBRANCH   5   6
ENDBRANCH   4   5
ENDBRANCH   3   4
ENDBRANCH   2   3
ENDBRANCH   1   2
BRANCH   1  10
ATOM     10  C   UNL     1       7.502  22.577  -4.976  1.00  0.00     0.000 C 
BRANCH  10  11
ATOM     11  C   UNL     1       7.028  22.941  -6.400  1.00  0.00    -0.000 C 
BRANCH  11  12
ATOM     12  C   UNL     1       7.002  24.454  -6.674  1.00  0.00    -0.000 C 
BRANCH  12  13
ATOM     13  C   UNL     1       7.159  24.792  -8.166  1.00  0.00    -0.000 C 
BRANCH  13  14
ATOM     14  C   UNL     1       7.098  23.543  -9.062  1.00  0.00    -0.000 C 
BRANCH  14  15
ATOM     15  C   UNL     1       5.898  23.568 -10.025  1.00  0.00    -0.000 C 
BRANCH  15  16
ATOM     16  C   UNL     1       4.952  22.374  -9.817  1.00  0.00    -0.003 C 
ATOM     17  C   UNL     1       4.066  22.527  -8.581  1.00  0.00     0.004 C 
ENDBRANCH  15  16
ENDBRANCH  14  15
ENDBRANCH  13  14
ENDBRANCH  12  13
ENDBRANCH  11  12
ENDBRANCH  10  11
ENDBRANCH   1  10
TORSDOF 13
ENDMDL
MODEL 3
REMARK VINA RESULT:    -5.313      1.043      3.491
REMARK INTER + INTRA:         -10.686
REMARK INTER:                  -8.988
REMARK INTRA:                  -1.698
REMARK UNBOUND:                -1.335
REMARK SMILES CCCCCCCCCCCCCCC(=O)[O-]
REMARK SMILES IDX 9 1 10 2 11 3 12 4 13 5 14 6 15 7 16 8 17 9 8 10 7 11 6 12
REMARK SMILES IDX 5 13 4 14 3 15 2 16 1 17
REMARK H PARENT
REMARK Flexibility Score: inf
ROOT
ATOM      1  C   UNL     1      12.162  22.334  -6.866  1.00  0.00     0.000 C 
ENDROOT
BRANCH   1   2
ATOM      2  C   UNL     1      11.697  21.032  -7.543  1.00  0.00     0.000 C 
BRANCH   2   3
ATOM      3  C   UNL     1      10.222  20.680  -7.255  1.00  0.00     0.000 C 
BRANCH   3   4
ATOM      4  C   UNL     1       9.646  21.498  -6.087  1.00  0.00     0.000 C 
BRANCH   4   5
ATOM      5  C   UNL     1       8.373  22.276  -6.462  1.00  0.00     0.006 C 
BRANCH   5   6
ATOM      6  C   UNL     1       7.594  22.821  -5.251  1.00  0.00     0.053 C 
BRANCH   6   7
ATOM      7  C   UNL     1       6.472  23.733  -5.648  1.00  0.00     0.041 C 
ATOM      8  O   UNL     1       6.614  24.982  -5.580  1.00  0.00    -0.550 OA
ATOM      9  O   UNL     1       5.281  23.202  -6.126  1.00  0.00    -0.550 OA
ENDBRANCH   6   7
ENDBRANCH   5   6
ENDBRANCH   4   5
ENDBRANCH   3   4
ENDBRANCH   2   3
ENDBRANCH   1   2
BRANCH   1  10
ATOM     10  C   UNL     1      13.446  22.907  -7.487  1.00  0.00     0.000 C 
BRANCH  10  11
ATOM     11  C   UNL     1      13.242  24.339  -8.026  1.00  0.00    -0.000 C 
BRANCH  11  12
ATOM     12  C   UNL     1      11.845  24.581  -8.622  1.00  0.00    -0.000 C 
BRANCH  12  13
ATOM     13  C   UNL     1      11.774  24.259 -10.124  1.00  0.00    -0.000 C 
BRANCH  13  14
ATOM     14  C   UNL     1      10.741  23.165 -10.444  1.00  0.00    -0.000 C 
BRANCH  14  15
ATOM     15  C   UNL     1       9.489  23.260  -9.555  1.00  0.00    -0.000 C 
BRANCH  15  16
ATOM     16  C   UNL     1       8.344  22.364 -10.053  1.00  0.00    -0.003 C 
ATOM     17  C   UNL     1       6.962  22.934  -9.737  1.00  0.00     0.004 C 
ENDBRANCH  15  16
ENDBRANCH  14  15
ENDBRANCH  13  14
ENDBRANCH  12  13
ENDBRANCH  11  12
ENDBRANCH  10  11
ENDBRANCH   1  10
TORSDOF 13
ENDMDL
MODEL 4
REMARK VINA RESULT:    -5.311      2.024      2.638
REMARK INTER + INTRA:         -10.682
REMARK INTER:                  -9.156
REMARK INTRA:                  -1.526
REMARK UNBOUND:                -1.335
REMARK SMILES CCCCCCCCCCCCCCC(=O)[O-]
REMARK SMILES IDX 9 1 10 2 11 3 12 4 13 5 14 6 15 7 16 8 17 9 8 10 7 11 6 12
REMARK SMILES IDX 5 13 4 14 3 15 2 16 1 17
REMARK H PARENT
REMARK Flexibility Score: inf
ROOT
ATOM      1  C   UNL     1      11.143  23.982 -10.767  1.00  0.00     0.000 C 
ENDROOT
BRANCH   1   2
ATOM      2  C   UNL     1      10.631  22.695 -10.097  1.00  0.00     0.000 C 
BRANCH   2   3
ATOM      3  C   UNL     1       9.100  22.667  -9.903  1.00  0.00     0.000 C 
BRANCH   3   4
ATOM      4  C   UNL     1       8.677  23.212  -8.529  1.00  0.00     0.000 C 
BRANCH   4   5
ATOM      5  C   UNL     1       7.553  24.260  -8.613  1.00  0.00     0.006 C 
BRANCH   5   6
ATOM      6  C   UNL     1       6.140  23.676  -8.435  1.00  0.00     0.053 C 
BRANCH   6   7
ATOM      7  C   UNL     1       5.474  23.362  -9.740  1.00  0.00     0.041 C 
ATOM      8  O   UNL     1       5.118  24.290 -10.512  1.00  0.00    -0.550 OA
ATOM      9  O   UNL     1       5.279  22.040 -10.120  1.00  0.00    -0.550 OA
ENDBRANCH   6   7
ENDBRANCH   5   6
ENDBRANCH   4   5
ENDBRANCH   3   4
ENDBRANCH   2   3
ENDBRANCH   1   2
BRANCH   1  10
ATOM     10  C   UNL     1      12.125  24.768  -9.882  1.00  0.00     0.000 C 
BRANCH  10  11
ATOM     11  C   UNL     1      12.128  24.260  -8.424  1.00  0.00    -0.000 C 
BRANCH  11  12
ATOM     12  C   UNL     1      13.536  24.138  -7.816  1.00  0.00    -0.000 C 
BRANCH  12  13
ATOM     13  C   UNL     1      13.740  22.822  -7.046  1.00  0.00    -0.000 C 
BRANCH  13  14
ATOM     14  C   UNL     1      12.465  21.963  -7.001  1.00  0.00    -0.000 C 
BRANCH  14  15
ATOM     15  C   UNL     1      12.564  20.715  -7.896  1.00  0.00    -0.000 C 
BRANCH  15  16
ATOM     16  C   UNL     1      11.321  19.818  -7.794  1.00  0.00    -0.003 C 
ATOM     17  C   UNL     1      10.152  20.499  -7.083  1.00  0.00     0.004 C 
ENDBRANCH  15  16
ENDBRANCH  14  15
ENDBRANCH  13  14
ENDBRANCH  12  13
ENDBRANCH  11  12
ENDBRANCH  10  11
ENDBRANCH   1  10
TORSDOF 13
ENDMDL
MODEL 5
REMARK VINA RESULT:    -5.272      3.777      7.444
REMARK INTER + INTRA:         -10.613
REMARK INTER:                  -9.649
REMARK INTRA:                  -0.964
REMARK UNBOUND:                -1.335
REMARK SMILES CCCCCCCCCCCCCCC(=O)[O-]
REMARK SMILES IDX 9 1 10 2 11 3 12 4 13 5 14 6 15 7 16 8 17 9 8 10 7 11 6 12
REMARK SMILES IDX 5 13 4 14 3 15 2 16 1 17
REMARK H PARENT
REMARK Flexibility Score: inf
ROOT
ATOM      1  C   UNL     1       5.736  23.498  -8.565  1.00  0.00     0.000 C 
ENDROOT
BRANCH   1   2
ATOM      2  C   UNL     1       7.120  24.100  -8.264  1.00  0.00     0.000 C 
BRANCH   2   3
ATOM      3  C   UNL     1       7.960  23.255  -7.282  1.00  0.00     0.000 C 
BRANCH   3   4
ATOM      4  C   UNL     1       9.142  22.558  -7.978  1.00  0.00     0.000 C 
BRANCH   4   5
ATOM      5  C   UNL     1       9.420  23.104  -9.389  1.00  0.00     0.006 C 
BRANCH   5   6
ATOM      6  C   UNL     1      10.874  22.913  -9.858  1.00  0.00     0.053 C 
BRANCH   6   7
ATOM      7  C   UNL     1      11.757  24.068  -9.493  1.00  0.00     0.041 C 
ATOM      8  O   UNL     1      12.291  24.125  -8.355  1.00  0.00    -0.550 OA
ATOM      9  O   UNL     1      12.018  25.065 -10.425  1.00  0.00    -0.550 OA
ENDBRANCH   6   7
ENDBRANCH   5   6
ENDBRANCH   4   5
ENDBRANCH   3   4
ENDBRANCH   2   3
ENDBRANCH   1   2
BRANCH   1  10
ATOM     10  C   UNL     1       5.748  22.541  -9.769  1.00  0.00     0.000 C 
BRANCH  10  11
ATOM     11  C   UNL     1       5.486  23.279 -11.099  1.00  0.00    -0.000 C 
BRANCH  11  12
ATOM     12  C   UNL     1       4.701  24.592 -10.933  1.00  0.00    -0.000 C 
BRANCH  12  13
ATOM     13  C   UNL     1       3.969  25.015 -12.218  1.00  0.00    -0.000 C 
BRANCH  13  14
ATOM     14  C   UNL     1       4.020  26.534 -12.452  1.00  0.00    -0.000 C 
BRANCH  14  15
ATOM     15  C   UNL     1       5.000  27.243 -11.501  1.00  0.00    -0.000 C 
BRANCH  15  16
ATOM     16  C   UNL     1       4.926  28.774 -11.614  1.00  0.00    -0.003 C 
ATOM     17  C   UNL     1       3.504  29.285 -11.843  1.00  0.00     0.004 C 
ENDBRANCH  15  16
ENDBRANCH  14  15
ENDBRANCH  13  14
ENDBRANCH  12  13
ENDBRANCH  11  12
ENDBRANCH  10  11
ENDBRANCH   1  10
TORSDOF 13
ENDMDL
MODEL 6
REMARK VINA RESULT:    -5.244      2.667      5.307
REMARK INTER + INTRA:         -10.564
REMARK INTER:                  -8.819
REMARK INTRA:                  -1.745
REMARK UNBOUND:                -1.335
REMARK SMILES CCCCCCCCCCCCCCC(=O)[O-]
REMARK SMILES IDX 9 1 10 2 11 3 12 4 13 5 14 6 15 7 16 8 17 9 8 10 7 11 6 12
REMARK SMILES IDX 5 13 4 14 3 15 2 16 1 17
REMARK H PARENT
REMARK Flexibility Score: inf
ROOT
ATOM      1  C   UNL     1       7.197  22.562  -9.539  1.00  0.00     0.000 C 
ENDROOT
BRANCH   1   2
ATOM      2  C   UNL     1       8.638  22.536 -10.079  1.00  0.00     0.000 C 
BRANCH   2   3
ATOM      3  C   UNL     1       9.635  23.339  -9.218  1.00  0.00     0.000 C 
BRANCH   3   4
ATOM      4  C   UNL     1      11.042  23.375  -9.837  1.00  0.00     0.000 C 
BRANCH   4   5
ATOM      5  C   UNL     1      12.064  24.135  -8.973  1.00  0.00     0.006 C 
BRANCH   5   6
ATOM      6  C   UNL     1      12.500  23.377  -7.706  1.00  0.00     0.053 C 
BRANCH   6   7
ATOM      7  C   UNL     1      13.936  23.617  -7.353  1.00  0.00     0.041 C 
ATOM      8  O   UNL     1      14.751  22.658  -7.319  1.00  0.00    -0.550 OA
ATOM      9  O   UNL     1      14.382  24.907  -7.095  1.00  0.00    -0.550 OA
ENDBRANCH   6   7
ENDBRANCH   5   6
ENDBRANCH   4   5
ENDBRANCH   3   4
ENDBRANCH   2   3
ENDBRANCH   1   2
BRANCH   1  10
ATOM     10  C   UNL     1       6.869  23.854  -8.771  1.00  0.00     0.000 C 
BRANCH  10  11
ATOM     11  C   UNL     1       6.279  23.565  -7.374  1.00  0.00    -0.000 C 
BRANCH  11  12
ATOM     12  C   UNL     1       7.331  23.548  -6.252  1.00  0.00    -0.000 C 
BRANCH  12  13
ATOM     13  C   UNL     1       7.145  22.372  -5.279  1.00  0.00    -0.000 C 
BRANCH  13  14
ATOM     14  C   UNL     1       8.468  21.656  -4.959  1.00  0.00    -0.000 C 
BRANCH  14  15
ATOM     15  C   UNL     1       9.466  21.715  -6.130  1.00  0.00    -0.000 C 
BRANCH  15  16
ATOM     16  C   UNL     1       9.531  20.395  -6.914  1.00  0.00    -0.003 C 
ATOM     17  C   UNL     1      10.850  20.213  -7.663  1.00  0.00     0.004 C 
ENDBRANCH  15  16
ENDBRANCH  14  15
ENDBRANCH  13  14
ENDBRANCH  12  13
ENDBRANCH  11  12
ENDBRANCH  10  11
ENDBRANCH   1  10
TORSDOF 13
ENDMDL
MODEL 7
REMARK VINA RESULT:    -5.239      2.380      6.272
REMARK INTER + INTRA:         -10.556
REMARK INTER:                  -9.472
REMARK INTRA:                  -1.084
REMARK UNBOUND:                -1.335
REMARK SMILES CCCCCCCCCCCCCCC(=O)[O-]
REMARK SMILES IDX 9 1 10 2 11 3 12 4 13 5 14 6 15 7 16 8 17 9 8 10 7 11 6 12
REMARK SMILES IDX 5 13 4 14 3 15 2 16 1 17
REMARK H PARENT
REMARK Flexibility Score: inf
ROOT
ATOM      1  C   UNL     1       8.305  22.992  -9.071  1.00  0.00     0.000 C 
ENDROOT
BRANCH   1   2
ATOM      2  C   UNL     1       9.762  22.518  -8.924  1.00  0.00     0.000 C 
BRANCH   2   3
ATOM      3  C   UNL     1       9.906  21.207  -8.122  1.00  0.00     0.000 C 
BRANCH   3   4
ATOM      4  C   UNL     1      11.335  21.005  -7.589  1.00  0.00     0.000 C 
BRANCH   4   5
ATOM      5  C   UNL     1      11.869  22.223  -6.815  1.00  0.00     0.006 C 
BRANCH   5   6
ATOM      6  C   UNL     1      13.368  22.496  -7.036  1.00  0.00     0.053 C 
BRANCH   6   7
ATOM      7  C   UNL     1      13.634  23.871  -7.568  1.00  0.00     0.041 C 
ATOM      8  O   UNL     1      14.706  24.467  -7.284  1.00  0.00    -0.550 OA
ATOM      9  O   UNL     1      12.711  24.482  -8.408  1.00  0.00    -0.550 OA
ENDBRANCH   6   7
ENDBRANCH   5   6
ENDBRANCH   4   5
ENDBRANCH   3   4
ENDBRANCH   2   3
ENDBRANCH   1   2
BRANCH   1  10
ATOM     10  C   UNL     1       7.566  22.306 -10.231  1.00  0.00     0.000 C 
BRANCH  10  11
ATOM     11  C   UNL     1       6.036  22.490 -10.135  1.00  0.00    -0.000 C 
BRANCH  11  12
ATOM     12  C   UNL     1       5.592  23.355  -8.943  1.00  0.00    -0.000 C 
BRANCH  12  13
ATOM     13  C   UNL     1       4.634  22.615  -7.995  1.00  0.00    -0.000 C 
BRANCH  13  14
ATOM     14  C   UNL     1       4.656  23.190  -6.568  1.00  0.00    -0.000 C 
BRANCH  14  15
ATOM     15  C   UNL     1       5.967  22.872  -5.827  1.00  0.00    -0.000 C 
BRANCH  15  16
ATOM     16  C   UNL     1       6.939  24.063  -5.815  1.00  0.00    -0.003 C 
ATOM     17  C   UNL     1       6.305  25.342  -5.269  1.00  0.00     0.004 C 
ENDBRANCH  15  16
ENDBRANCH  14  15
ENDBRANCH  13  14
ENDBRANCH  12  13
ENDBRANCH  11  12
ENDBRANCH  10  11
ENDBRANCH   1  10
TORSDOF 13
ENDMDL
MODEL 8
REMARK VINA RESULT:    -5.224      2.325      6.126
REMARK INTER + INTRA:         -10.529
REMARK INTER:                  -8.879
REMARK INTRA:                  -1.650
REMARK UNBOUND:                -1.335
REMARK SMILES CCCCCCCCCCCCCCC(=O)[O-]
REMARK SMILES IDX 9 1 10 2 11 3 12 4 13 5 14 6 15 7 16 8 17 9 8 10 7 11 6 12
REMARK SMILES IDX 5 13 4 14 3 15 2 16 1 17
REMARK H PARENT
REMARK Flexibility Score: inf
ROOT
ATOM      1  C   UNL     1       9.976  21.275  -8.198  1.00  0.00     0.000 C 
ENDROOT
BRANCH   1   2
ATOM      2  C   UNL     1      11.250  20.975  -7.389  1.00  0.00     0.000 C 
BRANCH   2   3
ATOM      3  C   UNL     1      11.945  22.240  -6.841  1.00  0.00     0.000 C 
BRANCH   3   4
ATOM      4  C   UNL     1      13.170  22.641  -7.681  1.00  0.00     0.000 C 
BRANCH   4   5
ATOM      5  C   UNL     1      13.172  24.128  -8.074  1.00  0.00     0.006 C 
BRANCH   5   6
ATOM      6  C   UNL     1      11.847  24.616  -8.686  1.00  0.00     0.053 C 
BRANCH   6   7
ATOM      7  C   UNL     1      11.750  24.337 -10.155  1.00  0.00     0.041 C 
ATOM      8  O   UNL     1      12.137  25.193 -10.992  1.00  0.00    -0.550 OA
ATOM      9  O   UNL     1      11.262  23.114 -10.599  1.00  0.00    -0.550 OA
ENDBRANCH   6   7
ENDBRANCH   5   6
ENDBRANCH   4   5
ENDBRANCH   3   4
ENDBRANCH   2   3
ENDBRANCH   1   2
BRANCH   1  10
ATOM     10  C   UNL     1       9.116  22.385  -7.572  1.00  0.00     0.000 C 
BRANCH  10  11
ATOM     11  C   UNL     1       8.484  23.303  -8.640  1.00  0.00    -0.000 C 
BRANCH  11  12
ATOM     12  C   UNL     1       7.740  22.538  -9.749  1.00  0.00    -0.000 C 
BRANCH  12  13
ATOM     13  C   UNL     1       6.212  22.673  -9.642  1.00  0.00    -0.000 C 
BRANCH  13  14
ATOM     14  C   UNL     1       5.782  23.624  -8.512  1.00  0.00    -0.000 C 
BRANCH  14  15
ATOM     15  C   UNL     1       4.941  22.915  -7.435  1.00  0.00    -0.000 C 
BRANCH  15  16
ATOM     16  C   UNL     1       5.567  23.024  -6.035  1.00  0.00    -0.003 C 
ATOM     17  C   UNL     1       6.346  24.323  -5.833  1.00  0.00     0.004 C 
ENDBRANCH  15  16
ENDBRANCH  14  15
ENDBRANCH  13  14
ENDBRANCH  12  13
ENDBRANCH  11  12
ENDBRANCH  10  11
ENDBRANCH   1  10
TORSDOF 13
ENDMDL
MODEL 9
REMARK VINA RESULT:    -5.195      2.450      5.987
REMARK INTER + INTRA:         -10.478
REMARK INTER:                  -8.835
REMARK INTRA:                  -1.643
REMARK UNBOUND:                -1.335
REMARK SMILES CCCCCCCCCCCCCCC(=O)[O-]
REMARK SMILES IDX 9 1 10 2 11 3 12 4 13 5 14 6 15 7 16 8 17 9 8 10 7 11 6 12
REMARK SMILES IDX 5 13 4 14 3 15 2 16 1 17
REMARK H PARENT
REMARK Flexibility Score: inf
ROOT
ATOM      1  C   UNL     1       6.935  22.520 -10.224  1.00  0.00     0.000 C 
ENDROOT
BRANCH   1   2
ATOM      2  C   UNL     1       7.430  23.618  -9.266  1.00  0.00     0.000 C 
BRANCH   2   3
ATOM      3  C   UNL     1       8.845  23.358  -8.709  1.00  0.00     0.000 C 
BRANCH   3   4
ATOM      4  C   UNL     1       9.041  21.895  -8.276  1.00  0.00     0.000 C 
BRANCH   4   5
ATOM      5  C   UNL     1      10.129  21.722  -7.203  1.00  0.00     0.006 C 
BRANCH   5   6
ATOM      6  C   UNL     1      11.558  21.636  -7.769  1.00  0.00     0.053 C 
BRANCH   6   7
ATOM      7  C   UNL     1      12.461  22.701  -7.227  1.00  0.00     0.041 C 
ATOM      8  O   UNL     1      12.618  23.782  -7.854  1.00  0.00    -0.550 OA
ATOM      9  O   UNL     1      13.104  22.515  -6.009  1.00  0.00    -0.550 OA
ENDBRANCH   6   7
ENDBRANCH   5   6
ENDBRANCH   4   5
ENDBRANCH   3   4
ENDBRANCH   2   3
ENDBRANCH   1   2
BRANCH   1  10
ATOM     10  C   UNL     1       5.460  22.147  -9.998  1.00  0.00     0.000 C 
BRANCH  10  11
ATOM     11  C   UNL     1       4.746  23.145  -9.062  1.00  0.00    -0.000 C 
BRANCH  11  12
ATOM     12  C   UNL     1       4.199  22.502  -7.776  1.00  0.00    -0.000 C 
BRANCH  12  13
ATOM     13  C   UNL     1       4.610  23.266  -6.506  1.00  0.00    -0.000 C 
BRANCH  13  14
ATOM     14  C   UNL     1       5.834  22.642  -5.814  1.00  0.00    -0.000 C 
BRANCH  14  15
ATOM     15  C   UNL     1       6.952  23.669  -5.558  1.00  0.00    -0.000 C 
BRANCH  15  16
ATOM     16  C   UNL     1       6.542  25.096  -5.956  1.00  0.00    -0.003 C 
ATOM     17  C   UNL     1       5.962  25.894  -4.789  1.00  0.00     0.004 C 
ENDBRANCH  15  16
ENDBRANCH  14  15
ENDBRANCH  13  14
ENDBRANCH  12  13
ENDBRANCH  11  12
ENDBRANCH  10  11
ENDBRANCH   1  10
TORSDOF 13
ENDMDL
