MODEL 1
REMARK VINA RESULT:    20.123      0.000      0.000
REMARK INTER + INTRA:          29.753
REMARK INTER:                  27.182
REMARK INTRA:                   2.571
REMARK UNBOUND:                 2.571
REMARK SMILES O=c1c(-c2ccc(O)cc2)coc2c([C@@H]3O[C@@H](CO)[C@@H](O)[C@@H](O)[C@H]3O)c(O)ccc12
REMARK SMILES IDX 3 1 11 2 12 3 13 4 30 5 2 6 1 7 29 8 28 9 26 10 14 11 4 12
REMARK SMILES IDX 5 13 6 14 7 15 10 16 9 17 8 18 15 20 24 21 16 22 22 23 17 24
REMARK SMILES IDX 20 25 25 26 23 28 18 30 19 31 21 33 27 35
REMARK H PARENT 8 19 25 27 23 29 19 32 21 34 27 36
REMARK Flexibility Score: inf
ROOT
ATOM      1  C   UNL     1      31.958  24.334  34.038  1.00  0.00     0.065 A 
ATOM      2  C   UNL     1      33.123  24.061  33.307  1.00  0.00     0.208 A 
ATOM      3  O   UNL     1      33.126  24.120  31.982  1.00  0.00    -0.463 OA
ATOM      4  C   UNL     1      32.050  24.437  31.265  1.00  0.00     0.147 A 
ATOM      5  C   UNL     1      30.831  24.726  31.921  1.00  0.00     0.066 A 
ATOM      6  C   UNL     1      30.791  24.665  33.325  1.00  0.00     0.200 A 
ATOM      7  O   UNL     1      29.712  24.887  33.942  1.00  0.00    -0.288 OA
ATOM      8  C   UNL     1      29.699  25.065  31.163  1.00  0.00     0.020 A 
ATOM      9  C   UNL     1      29.778  25.125  29.774  1.00  0.00     0.047 A 
ATOM     10  C   UNL     1      30.980  24.845  29.113  1.00  0.00     0.125 A 
ATOM     11  C   UNL     1      32.130  24.482  29.851  1.00  0.00     0.069 A 
ENDROOT
BRANCH   1  12
ATOM     12  C   UNL     1      31.982  24.267  35.521  1.00  0.00    -0.011 A 
ATOM     13  C   UNL     1      31.127  23.385  36.205  1.00  0.00     0.013 A 
ATOM     14  C   UNL     1      31.152  23.314  37.601  1.00  0.00     0.047 A 
ATOM     15  C   UNL     1      32.036  24.115  38.330  1.00  0.00     0.115 A 
ATOM     16  C   UNL     1      32.873  25.066  36.261  1.00  0.00     0.013 A 
ATOM     17  C   UNL     1      32.897  24.991  37.657  1.00  0.00     0.047 A 
BRANCH  15  18
ATOM     18  O   UNL     1      32.050  24.032  39.721  1.00  0.00    -0.508 OA
ATOM     19  H   UNL     1      32.869  23.708  40.223  1.00  0.00     0.293 HD
ENDBRANCH  15  18
ENDBRANCH   1  12
BRANCH  11  20
ATOM     20  C   UNL     1      33.444  24.195  29.138  1.00  0.00     0.188 C 
ATOM     21  C   UNL     1      33.247  24.284  27.605  1.00  0.00     0.179 C 
ATOM     22  O   UNL     1      34.418  25.125  29.584  1.00  0.00    -0.362 OA
ATOM     23  C   UNL     1      34.564  23.983  26.878  1.00  0.00     0.177 C 
ATOM     24  C   UNL     1      35.702  24.922  29.007  1.00  0.00     0.176 C 
ATOM     25  C   UNL     1      35.687  24.870  27.450  1.00  0.00     0.177 C 
BRANCH  21  26
ATOM     26  O   UNL     1      32.223  23.429  27.158  1.00  0.00    -0.387 OA
ATOM     27  H   UNL     1      32.480  22.497  27.383  1.00  0.00     0.211 HD
ENDBRANCH  21  26
BRANCH  23  28
ATOM     28  O   UNL     1      34.886  22.619  26.991  1.00  0.00    -0.387 OA
ATOM     29  H   UNL     1      35.870  22.541  26.890  1.00  0.00     0.211 HD
ENDBRANCH  23  28
BRANCH  24  30
ATOM     30  C   UNL     1      36.507  23.814  29.725  1.00  0.00     0.191 C 
BRANCH  30  31
ATOM     31  O   UNL     1      36.859  22.771  28.863  1.00  0.00    -0.394 OA
ATOM     32  H   UNL     1      37.417  23.178  28.150  1.00  0.00     0.210 HD
ENDBRANCH  30  31
ENDBRANCH  24  30
BRANCH  25  33
ATOM     33  O   UNL     1      36.931  24.460  26.943  1.00  0.00    -0.388 OA
ATOM     34  H   UNL     1      37.484  25.280  26.840  1.00  0.00     0.211 HD
ENDBRANCH  25  33
ENDBRANCH  11  20
BRANCH  10  35
ATOM     35  O   UNL     1      31.031  24.929  27.721  1.00  0.00    -0.507 OA
ATOM     36  H   UNL     1      31.701  25.524  27.247  1.00  0.00     0.293 HD
ENDBRANCH  10  35
TORSDOF 9
ENDMDL
