MODEL 1
REMARK VINA RESULT:    68.239      0.000      0.000
REMARK INTER + INTRA:         107.109
REMARK INTER:                 108.131
REMARK INTRA:                  -1.022
REMARK UNBOUND:                -1.022
REMARK SMILES C[C@@H]1O[C@@H](O[C@H]2[C@H](Oc3cc(O)c4c(c3)O[C@H](c3ccc(O)cc3)CC4=O)O[C@H](CO)[C@H](O)[C@@H]2O)[C@@H](O)[C@H](O)[C@H]1O
REMARK SMILES IDX 6 1 34 2 32 3 29 4 28 5 7 6 5 7 4 8 1 9 2 10 40 11 3 12
REMARK SMILES IDX 38 13 36 14 41 15 39 17 37 19 35 21 8 23 9 24 10 25 15 26
REMARK SMILES IDX 11 27 14 28 13 29 16 30 26 31 17 32 27 33 25 34 12 35 18 37
REMARK SMILES IDX 19 38 24 39 20 40 23 41 21 42 22 43 33 45 30 47 31 48
REMARK H PARENT 41 16 39 18 37 20 35 22 12 36 22 44 33 46 31 49
REMARK Flexibility Score: inf
ROOT
ATOM      1  C   UNL     1      13.026   1.635   7.189  1.00  0.00     0.221 C 
ATOM      2  C   UNL     1      12.872   1.282   5.699  1.00  0.00     0.181 C 
ATOM      3  C   UNL     1      13.177   2.519   4.831  1.00  0.00     0.177 C 
ATOM      4  C   UNL     1      12.376   3.765   5.306  1.00  0.00     0.179 C 
ATOM      5  O   UNL     1      12.511   4.011   6.700  1.00  0.00    -0.332 OA
ATOM      6  C   UNL     1      12.154   2.885   7.515  1.00  0.00     0.339 C 
ENDROOT
BRANCH   1   7
ATOM      7  O   UNL     1      14.443   1.809   7.406  1.00  0.00    -0.337 OA
BRANCH   7   8
ATOM      8  C   UNL     1      14.888   1.657   8.743  1.00  0.00     0.282 C 
ATOM      9  C   UNL     1      15.336   5.230   9.521  1.00  0.00     0.041 C 
ATOM     10  C   UNL     1      15.615   3.893   8.847  1.00  0.00     0.150 C 
ATOM     11  C   UNL     1      17.108   3.512   8.945  1.00  0.00     0.174 C 
ATOM     12  O   UNL     1      14.840   2.887   9.477  1.00  0.00    -0.344 OA
ATOM     13  C   UNL     1      17.325   2.186   8.200  1.00  0.00     0.179 C 
ATOM     14  C   UNL     1      16.333   1.113   8.725  1.00  0.00     0.202 C 
BRANCH  11  15
ATOM     15  O   UNL     1      17.907   4.526   8.379  1.00  0.00    -0.388 OA
ATOM     16  H   UNL     1      18.465   4.907   9.114  1.00  0.00     0.211 HD
ENDBRANCH  11  15
BRANCH  13  17
ATOM     17  O   UNL     1      18.636   1.729   8.399  1.00  0.00    -0.387 OA
ATOM     18  H   UNL     1      19.194   2.132   7.679  1.00  0.00     0.211 HD
ENDBRANCH  13  17
BRANCH  14  19
ATOM     19  O   UNL     1      16.375  -0.032   7.917  1.00  0.00    -0.385 OA
ATOM     20  H   UNL     1      17.074   0.128   7.224  1.00  0.00     0.211 HD
ENDBRANCH  14  19
ENDBRANCH   7   8
ENDBRANCH   1   7
BRANCH   2  21
ATOM     21  O   UNL     1      11.576   0.822   5.436  1.00  0.00    -0.387 OA
ATOM     22  H   UNL     1      11.533  -0.157   5.532  1.00  0.00     0.211 HD
ENDBRANCH   2  21
BRANCH   6  23
ATOM     23  O   UNL     1      10.740   2.633   7.449  1.00  0.00    -0.462 OA
BRANCH  23  24
ATOM     24  C   UNL     1      10.106   1.737   8.325  1.00  0.00     0.130 A 
ATOM     25  C   UNL     1      10.372   0.357   8.296  1.00  0.00     0.093 A 
ATOM     26  C   UNL     1       9.231   2.249   9.298  1.00  0.00     0.094 A 
ATOM     27  C   UNL     1       9.881  -0.496   9.261  1.00  0.00     0.133 A 
ATOM     28  C   UNL     1       8.742   1.405  10.287  1.00  0.00     0.138 A 
ATOM     29  C   UNL     1       9.039   0.023  10.283  1.00  0.00     0.102 A 
ATOM     30  O   UNL     1       7.957   1.955  11.318  1.00  0.00    -0.484 OA
ATOM     31  C   UNL     1       8.471  -0.799  11.366  1.00  0.00     0.174 C 
ATOM     32  C   UNL     1       7.229   1.121  12.238  1.00  0.00     0.211 C 
ATOM     33  O   UNL     1       8.243  -2.037  11.217  1.00  0.00    -0.294 OA
ATOM     34  C   UNL     1       8.055  -0.117  12.629  1.00  0.00     0.131 C 
BRANCH  27  35
ATOM     35  O   UNL     1      10.253  -1.849   9.210  1.00  0.00    -0.507 OA
ATOM     36  H   UNL     1      10.748  -2.319   9.966  1.00  0.00     0.293 HD
ENDBRANCH  27  35
BRANCH  32  37
ATOM     37  C   UNL     1       6.807   1.919  13.460  1.00  0.00    -0.007 A 
ATOM     38  C   UNL     1       5.448   2.126  13.747  1.00  0.00     0.011 A 
ATOM     39  C   UNL     1       7.775   2.525  14.279  1.00  0.00     0.011 A 
ATOM     40  C   UNL     1       5.071   2.989  14.788  1.00  0.00     0.046 A 
ATOM     41  C   UNL     1       7.397   3.359  15.340  1.00  0.00     0.046 A 
ATOM     42  C   UNL     1       6.045   3.614  15.567  1.00  0.00     0.115 A 
BRANCH  42  43
ATOM     43  O   UNL     1       5.651   4.470  16.589  1.00  0.00    -0.508 OA
ATOM     44  H   UNL     1       4.719   4.868  16.596  1.00  0.00     0.293 HD
ENDBRANCH  42  43
ENDBRANCH  32  37
ENDBRANCH  23  24
ENDBRANCH   6  23
BRANCH   3  45
ATOM     45  O   UNL     1      12.933   2.231   3.468  1.00  0.00    -0.387 OA
ATOM     46  H   UNL     1      12.891   3.115   3.010  1.00  0.00     0.211 HD
ENDBRANCH   3  45
BRANCH   4  47
ATOM     47  C   UNL     1      10.894   3.790   4.816  1.00  0.00     0.191 C 
BRANCH  47  48
ATOM     48  O   UNL     1      10.089   4.525   5.735  1.00  0.00    -0.394 OA
ATOM     49  H   UNL     1       9.865   5.372   5.274  1.00  0.00     0.210 HD
ENDBRANCH  47  48
ENDBRANCH   4  47
TORSDOF 14
ENDMDL
MODEL 2
REMARK VINA RESULT:    68.859      3.249      8.477
REMARK INTER + INTRA:         108.092
REMARK INTER:                 109.355
REMARK INTRA:                  -1.262
REMARK UNBOUND:                -1.022
REMARK SMILES C[C@@H]1O[C@@H](O[C@H]2[C@H](Oc3cc(O)c4c(c3)O[C@H](c3ccc(O)cc3)CC4=O)O[C@H](CO)[C@H](O)[C@@H]2O)[C@@H](O)[C@H](O)[C@H]1O
REMARK SMILES IDX 6 1 34 2 32 3 29 4 28 5 7 6 5 7 4 8 1 9 2 10 40 11 3 12
REMARK SMILES IDX 38 13 36 14 41 15 39 17 37 19 35 21 8 23 9 24 10 25 15 26
REMARK SMILES IDX 11 27 14 28 13 29 16 30 26 31 17 32 27 33 25 34 12 35 18 37
REMARK SMILES IDX 19 38 24 39 20 40 23 41 21 42 22 43 33 45 30 47 31 48
REMARK H PARENT 41 16 39 18 37 20 35 22 12 36 22 44 33 46 31 49
REMARK Flexibility Score: inf
ROOT
ATOM      1  C   UNL     1      11.424   3.571   7.239  1.00  0.00     0.221 C 
ATOM      2  C   UNL     1      11.523   3.950   5.751  1.00  0.00     0.181 C 
ATOM      3  C   UNL     1      11.226   2.718   4.873  1.00  0.00     0.177 C 
ATOM      4  C   UNL     1      12.075   1.487   5.305  1.00  0.00     0.179 C 
ATOM      5  O   UNL     1      11.989   1.218   6.699  1.00  0.00    -0.332 OA
ATOM      6  C   UNL     1      12.339   2.341   7.520  1.00  0.00     0.339 C 
ENDROOT
BRANCH   1   7
ATOM      7  O   UNL     1      10.019   3.354   7.495  1.00  0.00    -0.337 OA
BRANCH   7   8
ATOM      8  C   UNL     1       9.600   3.539   8.837  1.00  0.00     0.282 C 
ATOM      9  C   UNL     1       9.035  -0.007   9.665  1.00  0.00     0.041 C 
ATOM     10  C   UNL     1       8.794   1.332   8.979  1.00  0.00     0.150 C 
ATOM     11  C   UNL     1       7.317   1.767   9.092  1.00  0.00     0.174 C 
ATOM     12  O   UNL     1       9.614   2.317   9.585  1.00  0.00    -0.344 OA
ATOM     13  C   UNL     1       7.138   3.092   8.333  1.00  0.00     0.179 C 
ATOM     14  C   UNL     1       8.175   4.134   8.832  1.00  0.00     0.202 C 
BRANCH  11  15
ATOM     15  O   UNL     1       6.475   0.776   8.550  1.00  0.00    -0.388 OA
ATOM     16  H   UNL     1       6.424   0.936   7.566  1.00  0.00     0.211 HD
ENDBRANCH  11  15
BRANCH  13  17
ATOM     17  O   UNL     1       5.846   3.598   8.545  1.00  0.00    -0.387 OA
ATOM     18  H   UNL     1       5.940   4.580   8.674  1.00  0.00     0.211 HD
ENDBRANCH  13  17
BRANCH  14  19
ATOM     19  O   UNL     1       8.162   5.270   8.009  1.00  0.00    -0.385 OA
ATOM     20  H   UNL     1       8.558   5.000   7.135  1.00  0.00     0.211 HD
ENDBRANCH  14  19
ENDBRANCH   7   8
ENDBRANCH   1   7
BRANCH   2  21
ATOM     21  O   UNL     1      12.798   4.450   5.457  1.00  0.00    -0.387 OA
ATOM     22  H   UNL     1      12.766   5.022   4.656  1.00  0.00     0.211 HD
ENDBRANCH   2  21
BRANCH   6  23
ATOM     23  O   UNL     1      13.743   2.633   7.416  1.00  0.00    -0.462 OA
BRANCH  23  24
ATOM     24  C   UNL     1      14.390   3.493   8.319  1.00  0.00     0.130 A 
ATOM     25  C   UNL     1      14.129   4.874   8.345  1.00  0.00     0.093 A 
ATOM     26  C   UNL     1      15.273   2.942   9.262  1.00  0.00     0.094 A 
ATOM     27  C   UNL     1      14.633   5.688   9.337  1.00  0.00     0.133 A 
ATOM     28  C   UNL     1      15.775   3.746  10.277  1.00  0.00     0.138 A 
ATOM     29  C   UNL     1      15.483   5.127  10.330  1.00  0.00     0.102 A 
ATOM     30  O   UNL     1      16.569   3.153  11.278  1.00  0.00    -0.484 OA
ATOM     31  C   UNL     1      16.065   5.906  11.437  1.00  0.00     0.174 C 
ATOM     32  C   UNL     1      17.309   3.949  12.222  1.00  0.00     0.211 C 
ATOM     33  O   UNL     1      16.297   7.148  11.333  1.00  0.00    -0.294 OA
ATOM     34  C   UNL     1      16.492   5.175  12.669  1.00  0.00     0.131 C 
BRANCH  27  35
ATOM     35  O   UNL     1      14.265   7.043   9.342  1.00  0.00    -0.507 OA
ATOM     36  H   UNL     1      13.483   7.405   9.884  1.00  0.00     0.293 HD
ENDBRANCH  27  35
BRANCH  32  37
ATOM     37  C   UNL     1      17.741   3.103  13.408  1.00  0.00    -0.007 A 
ATOM     38  C   UNL     1      19.089   2.753  13.586  1.00  0.00     0.011 A 
ATOM     39  C   UNL     1      16.783   2.598  14.304  1.00  0.00     0.011 A 
ATOM     40  C   UNL     1      19.455   1.849  14.596  1.00  0.00     0.046 A 
ATOM     41  C   UNL     1      17.154   1.723  15.333  1.00  0.00     0.046 A 
ATOM     42  C   UNL     1      18.486   1.325  15.451  1.00  0.00     0.115 A 
BRANCH  42  43
ATOM     43  O   UNL     1      18.868   0.427  16.441  1.00  0.00    -0.508 OA
ATOM     44  H   UNL     1      18.827  -0.572  16.273  1.00  0.00     0.293 HD
ENDBRANCH  42  43
ENDBRANCH  32  37
ENDBRANCH  23  24
ENDBRANCH   6  23
BRANCH   3  45
ATOM     45  O   UNL     1      11.422   3.032   3.508  1.00  0.00    -0.387 OA
ATOM     46  H   UNL     1      12.271   2.582   3.247  1.00  0.00     0.211 HD
ENDBRANCH   3  45
BRANCH   4  47
ATOM     47  C   UNL     1      13.542   1.511   4.770  1.00  0.00     0.191 C 
BRANCH  47  48
ATOM     48  O   UNL     1      14.379   0.717   5.609  1.00  0.00    -0.394 OA
ATOM     49  H   UNL     1      14.835   1.356   6.210  1.00  0.00     0.210 HD
ENDBRANCH  47  48
ENDBRANCH   4  47
TORSDOF 14
ENDMDL
MODEL 3
REMARK VINA RESULT:    69.515      3.138      8.128
REMARK INTER + INTRA:         109.132
REMARK INTER:                 108.624
REMARK INTRA:                   0.508
REMARK UNBOUND:                -1.022
REMARK SMILES C[C@@H]1O[C@@H](O[C@H]2[C@H](Oc3cc(O)c4c(c3)O[C@H](c3ccc(O)cc3)CC4=O)O[C@H](CO)[C@H](O)[C@@H]2O)[C@@H](O)[C@H](O)[C@H]1O
REMARK SMILES IDX 6 1 34 2 32 3 29 4 28 5 7 6 5 7 4 8 1 9 2 10 40 11 3 12
REMARK SMILES IDX 38 13 36 14 41 15 39 17 37 19 35 21 8 23 9 24 10 25 15 26
REMARK SMILES IDX 11 27 14 28 13 29 16 30 26 31 17 32 27 33 25 34 12 35 18 37
REMARK SMILES IDX 19 38 24 39 20 40 23 41 21 42 22 43 33 45 30 47 31 48
REMARK H PARENT 41 16 39 18 37 20 35 22 12 36 22 44 33 46 31 49
REMARK Flexibility Score: inf
ROOT
ATOM      1  C   UNL     1      11.671   2.448   8.086  1.00  0.00     0.221 C 
ATOM      2  C   UNL     1      11.188   3.465   7.038  1.00  0.00     0.181 C 
ATOM      3  C   UNL     1      10.765   2.733   5.749  1.00  0.00     0.177 C 
ATOM      4  C   UNL     1      11.865   1.745   5.262  1.00  0.00     0.179 C 
ATOM      5  O   UNL     1      12.312   0.866   6.287  1.00  0.00    -0.332 OA
ATOM      6  C   UNL     1      12.779   1.549   7.460  1.00  0.00     0.339 C 
ENDROOT
BRANCH   1   7
ATOM      7  O   UNL     1      10.488   1.741   8.520  1.00  0.00    -0.337 OA
BRANCH   7   8
ATOM      8  C   UNL     1       9.374   2.550   8.857  1.00  0.00     0.282 C 
ATOM      9  C   UNL     1      10.698   3.921  12.010  1.00  0.00     0.041 C 
ATOM     10  C   UNL     1      10.158   2.865  11.054  1.00  0.00     0.150 C 
ATOM     11  C   UNL     1       9.004   2.063  11.692  1.00  0.00     0.174 C 
ATOM     12  O   UNL     1       9.683   3.504   9.881  1.00  0.00    -0.344 OA
ATOM     13  C   UNL     1       8.547   0.985  10.696  1.00  0.00     0.179 C 
ATOM     14  C   UNL     1       8.221   1.635   9.324  1.00  0.00     0.202 C 
BRANCH  11  15
ATOM     15  O   UNL     1       9.433   1.466  12.894  1.00  0.00    -0.388 OA
ATOM     16  H   UNL     1       9.376   2.162  13.607  1.00  0.00     0.211 HD
ENDBRANCH  11  15
BRANCH  13  17
ATOM     17  O   UNL     1       7.399   0.339  11.178  1.00  0.00    -0.387 OA
ATOM     18  H   UNL     1       6.666   0.537  10.534  1.00  0.00     0.211 HD
ENDBRANCH  13  17
BRANCH  14  19
ATOM     19  O   UNL     1       8.007   0.646   8.353  1.00  0.00    -0.385 OA
ATOM     20  H   UNL     1       7.662  -0.159   8.829  1.00  0.00     0.211 HD
ENDBRANCH  14  19
ENDBRANCH   7   8
ENDBRANCH   1   7
BRANCH   2  21
ATOM     21  O   UNL     1      12.200   4.390   6.750  1.00  0.00    -0.387 OA
ATOM     22  H   UNL     1      11.871   5.309   6.878  1.00  0.00     0.211 HD
ENDBRANCH   2  21
BRANCH   6  23
ATOM     23  O   UNL     1      14.005   2.249   7.190  1.00  0.00    -0.462 OA
BRANCH  23  24
ATOM     24  C   UNL     1      14.547   3.170   8.101  1.00  0.00     0.130 A 
ATOM     25  C   UNL     1      14.178   4.526   8.095  1.00  0.00     0.093 A 
ATOM     26  C   UNL     1      15.436   2.703   9.085  1.00  0.00     0.094 A 
ATOM     27  C   UNL     1      14.579   5.391   9.092  1.00  0.00     0.133 A 
ATOM     28  C   UNL     1      15.835   3.558  10.104  1.00  0.00     0.138 A 
ATOM     29  C   UNL     1      15.433   4.913  10.123  1.00  0.00     0.102 A 
ATOM     30  O   UNL     1      16.635   3.044  11.142  1.00  0.00    -0.484 OA
ATOM     31  C   UNL     1      15.911   5.750  11.238  1.00  0.00     0.174 C 
ATOM     32  C   UNL     1      17.274   3.909  12.099  1.00  0.00     0.211 C 
ATOM     33  O   UNL     1      16.047   7.005  11.122  1.00  0.00    -0.294 OA
ATOM     34  C   UNL     1      16.347   5.072  12.496  1.00  0.00     0.131 C 
BRANCH  27  35
ATOM     35  O   UNL     1      14.106   6.712   9.061  1.00  0.00    -0.507 OA
ATOM     36  H   UNL     1      14.270   7.380   9.813  1.00  0.00     0.293 HD
ENDBRANCH  27  35
BRANCH  32  37
ATOM     37  C   UNL     1      17.727   3.116  13.314  1.00  0.00    -0.007 A 
ATOM     38  C   UNL     1      19.093   2.920  13.574  1.00  0.00     0.011 A 
ATOM     39  C   UNL     1      16.780   2.505  14.154  1.00  0.00     0.011 A 
ATOM     40  C   UNL     1      19.497   2.062  14.609  1.00  0.00     0.046 A 
ATOM     41  C   UNL     1      17.185   1.676  15.208  1.00  0.00     0.046 A 
ATOM     42  C   UNL     1      18.544   1.431  15.408  1.00  0.00     0.115 A 
BRANCH  42  43
ATOM     43  O   UNL     1      18.965   0.581  16.424  1.00  0.00    -0.508 OA
ATOM     44  H   UNL     1      19.075   0.925  17.371  1.00  0.00     0.293 HD
ENDBRANCH  42  43
ENDBRANCH  32  37
ENDBRANCH  23  24
ENDBRANCH   6  23
BRANCH   3  45
ATOM     45  O   UNL     1      10.423   3.668   4.745  1.00  0.00    -0.387 OA
ATOM     46  H   UNL     1      10.362   3.145   3.899  1.00  0.00     0.211 HD
ENDBRANCH   3  45
BRANCH   4  47
ATOM     47  C   UNL     1      13.032   2.431   4.484  1.00  0.00     0.191 C 
BRANCH  47  48
ATOM     48  O   UNL     1      14.206   1.626   4.558  1.00  0.00    -0.394 OA
ATOM     49  H   UNL     1      14.658   1.890   5.398  1.00  0.00     0.210 HD
ENDBRANCH  47  48
ENDBRANCH   4  47
TORSDOF 14
ENDMDL
MODEL 4
REMARK VINA RESULT:    69.821      1.320      1.946
REMARK INTER + INTRA:         109.616
REMARK INTER:                 109.387
REMARK INTRA:                   0.229
REMARK UNBOUND:                -1.022
REMARK SMILES C[C@@H]1O[C@@H](O[C@H]2[C@H](Oc3cc(O)c4c(c3)O[C@H](c3ccc(O)cc3)CC4=O)O[C@H](CO)[C@H](O)[C@@H]2O)[C@@H](O)[C@H](O)[C@H]1O
REMARK SMILES IDX 6 1 34 2 32 3 29 4 28 5 7 6 5 7 4 8 1 9 2 10 40 11 3 12
REMARK SMILES IDX 38 13 36 14 41 15 39 17 37 19 35 21 8 23 9 24 10 25 15 26
REMARK SMILES IDX 11 27 14 28 13 29 16 30 26 31 17 32 27 33 25 34 12 35 18 37
REMARK SMILES IDX 19 38 24 39 20 40 23 41 21 42 22 43 33 45 30 47 31 48
REMARK H PARENT 41 16 39 18 37 20 35 22 12 36 22 44 33 46 31 49
REMARK Flexibility Score: inf
ROOT
ATOM      1  C   UNL     1      12.796   2.689   8.114  1.00  0.00     0.221 C 
ATOM      2  C   UNL     1      13.284   1.713   7.029  1.00  0.00     0.181 C 
ATOM      3  C   UNL     1      13.683   2.492   5.760  1.00  0.00     0.177 C 
ATOM      4  C   UNL     1      12.562   3.477   5.315  1.00  0.00     0.179 C 
ATOM      5  O   UNL     1      12.112   4.316   6.371  1.00  0.00    -0.332 OA
ATOM      6  C   UNL     1      11.667   3.589   7.527  1.00  0.00     0.339 C 
ENDROOT
BRANCH   1   7
ATOM      7  O   UNL     1      13.972   3.401   8.558  1.00  0.00    -0.337 OA
BRANCH   7   8
ATOM      8  C   UNL     1      15.097   2.599   8.872  1.00  0.00     0.282 C 
ATOM      9  C   UNL     1      13.834   1.200  12.038  1.00  0.00     0.041 C 
ATOM     10  C   UNL     1      14.351   2.265  11.080  1.00  0.00     0.150 C 
ATOM     11  C   UNL     1      15.508   3.073  11.704  1.00  0.00     0.174 C 
ATOM     12  O   UNL     1      14.812   1.637   9.895  1.00  0.00    -0.344 OA
ATOM     13  C   UNL     1      15.941   4.160  10.708  1.00  0.00     0.179 C 
ATOM     14  C   UNL     1      16.250   3.521   9.326  1.00  0.00     0.202 C 
BRANCH  11  15
ATOM     15  O   UNL     1      15.094   3.660  12.917  1.00  0.00    -0.388 OA
ATOM     16  H   UNL     1      14.096   3.686  12.907  1.00  0.00     0.211 HD
ENDBRANCH  11  15
BRANCH  13  17
ATOM     17  O   UNL     1      17.092   4.813  11.175  1.00  0.00    -0.387 OA
ATOM     18  H   UNL     1      17.868   4.391  10.716  1.00  0.00     0.211 HD
ENDBRANCH  13  17
BRANCH  14  19
ATOM     19  O   UNL     1      16.441   4.517   8.358  1.00  0.00    -0.385 OA
ATOM     20  H   UNL     1      16.259   4.099   7.472  1.00  0.00     0.211 HD
ENDBRANCH  14  19
ENDBRANCH   7   8
ENDBRANCH   1   7
BRANCH   2  21
ATOM     21  O   UNL     1      12.284   0.781   6.722  1.00  0.00    -0.387 OA
ATOM     22  H   UNL     1      12.108   0.200   7.497  1.00  0.00     0.211 HD
ENDBRANCH   2  21
BRANCH   6  23
ATOM     23  O   UNL     1      10.450   2.878   7.246  1.00  0.00    -0.462 OA
BRANCH  23  24
ATOM     24  C   UNL     1       9.913   1.946   8.150  1.00  0.00     0.130 A 
ATOM     25  C   UNL     1      10.266   0.586   8.112  1.00  0.00     0.093 A 
ATOM     26  C   UNL     1       9.046   2.404   9.157  1.00  0.00     0.094 A 
ATOM     27  C   UNL     1       9.873  -0.292   9.099  1.00  0.00     0.133 A 
ATOM     28  C   UNL     1       8.655   1.534  10.167  1.00  0.00     0.138 A 
ATOM     29  C   UNL     1       9.042   0.175  10.154  1.00  0.00     0.102 A 
ATOM     30  O   UNL     1       7.879   2.038  11.228  1.00  0.00    -0.484 OA
ATOM     31  C   UNL     1       8.574  -0.677  11.261  1.00  0.00     0.174 C 
ATOM     32  C   UNL     1       7.246   1.162  12.180  1.00  0.00     0.211 C 
ATOM     33  O   UNL     1       8.421  -1.928  11.124  1.00  0.00    -0.294 OA
ATOM     34  C   UNL     1       8.166  -0.018  12.539  1.00  0.00     0.131 C 
BRANCH  27  35
ATOM     35  O   UNL     1      10.330  -1.619   9.036  1.00  0.00    -0.507 OA
ATOM     36  H   UNL     1       9.742  -2.421   9.254  1.00  0.00     0.293 HD
ENDBRANCH  27  35
BRANCH  32  37
ATOM     37  C   UNL     1       6.823   1.937  13.416  1.00  0.00    -0.007 A 
ATOM     38  C   UNL     1       5.465   2.156  13.696  1.00  0.00     0.011 A 
ATOM     39  C   UNL     1       7.792   2.510  14.259  1.00  0.00     0.011 A 
ATOM     40  C   UNL     1       5.089   2.999  14.754  1.00  0.00     0.046 A 
ATOM     41  C   UNL     1       7.415   3.323  15.336  1.00  0.00     0.046 A 
ATOM     42  C   UNL     1       6.064   3.591  15.556  1.00  0.00     0.115 A 
BRANCH  42  43
ATOM     43  O   UNL     1       5.672   4.428  16.595  1.00  0.00    -0.508 OA
ATOM     44  H   UNL     1       4.704   4.716  16.686  1.00  0.00     0.293 HD
ENDBRANCH  42  43
ENDBRANCH  32  37
ENDBRANCH  23  24
ENDBRANCH   6  23
BRANCH   3  45
ATOM     45  O   UNL     1      14.029   1.595   4.724  1.00  0.00    -0.387 OA
ATOM     46  H   UNL     1      13.175   1.164   4.444  1.00  0.00     0.211 HD
ENDBRANCH   3  45
BRANCH   4  47
ATOM     47  C   UNL     1      11.398   2.796   4.527  1.00  0.00     0.191 C 
BRANCH  47  48
ATOM     48  O   UNL     1      10.215   3.586   4.629  1.00  0.00    -0.394 OA
ATOM     49  H   UNL     1       9.511   3.071   4.162  1.00  0.00     0.210 HD
ENDBRANCH  47  48
ENDBRANCH   4  47
TORSDOF 14
ENDMDL
MODEL 5
REMARK VINA RESULT:    70.255      2.876      4.151
REMARK INTER + INTRA:         110.303
REMARK INTER:                  96.214
REMARK INTRA:                  14.090
REMARK UNBOUND:                -1.022
REMARK SMILES C[C@@H]1O[C@@H](O[C@H]2[C@H](Oc3cc(O)c4c(c3)O[C@H](c3ccc(O)cc3)CC4=O)O[C@H](CO)[C@H](O)[C@@H]2O)[C@@H](O)[C@H](O)[C@H]1O
REMARK SMILES IDX 6 1 34 2 32 3 29 4 28 5 7 6 5 7 4 8 1 9 2 10 40 11 3 12
REMARK SMILES IDX 38 13 36 14 41 15 39 17 37 19 35 21 8 23 9 24 10 25 15 26
REMARK SMILES IDX 11 27 14 28 13 29 16 30 26 31 17 32 27 33 25 34 12 35 18 37
REMARK SMILES IDX 19 38 24 39 20 40 23 41 21 42 22 43 33 45 30 47 31 48
REMARK H PARENT 41 16 39 18 37 20 35 22 12 36 22 44 33 46 31 49
REMARK Flexibility Score: inf
ROOT
ATOM      1  C   UNL     1      11.275   1.117   6.975  1.00  0.00     0.221 C 
ATOM      2  C   UNL     1      11.294   2.570   6.469  1.00  0.00     0.181 C 
ATOM      3  C   UNL     1      11.186   3.544   7.659  1.00  0.00     0.177 C 
ATOM      4  C   UNL     1       9.995   3.179   8.592  1.00  0.00     0.179 C 
ATOM      5  O   UNL     1       9.997   1.812   8.983  1.00  0.00    -0.332 OA
ATOM      6  C   UNL     1      10.020   0.902   7.874  1.00  0.00     0.339 C 
ENDROOT
BRANCH   1   7
ATOM      7  O   UNL     1      12.541   0.916   7.639  1.00  0.00    -0.337 OA
BRANCH   7   8
ATOM      8  C   UNL     1      13.696   1.113   6.842  1.00  0.00     0.282 C 
ATOM      9  C   UNL     1      15.758   2.817   9.376  1.00  0.00     0.041 C 
ATOM     10  C   UNL     1      14.612   2.632   8.389  1.00  0.00     0.150 C 
ATOM     11  C   UNL     1      14.486   3.839   7.437  1.00  0.00     0.174 C 
ATOM     12  O   UNL     1      14.845   1.461   7.624  1.00  0.00    -0.344 OA
ATOM     13  C   UNL     1      13.281   3.609   6.511  1.00  0.00     0.179 C 
ATOM     14  C   UNL     1      13.404   2.227   5.814  1.00  0.00     0.202 C 
BRANCH  11  15
ATOM     15  O   UNL     1      14.313   5.027   8.176  1.00  0.00    -0.388 OA
ATOM     16  H   UNL     1      15.205   5.274   8.551  1.00  0.00     0.211 HD
ENDBRANCH  11  15
BRANCH  13  17
ATOM     17  O   UNL     1      13.229   4.611   5.529  1.00  0.00    -0.387 OA
ATOM     18  H   UNL     1      12.278   4.685   5.244  1.00  0.00     0.211 HD
ENDBRANCH  13  17
BRANCH  14  19
ATOM     19  O   UNL     1      12.218   1.915   5.133  1.00  0.00    -0.385 OA
ATOM     20  H   UNL     1      12.477   1.622   4.217  1.00  0.00     0.211 HD
ENDBRANCH  14  19
ENDBRANCH   7   8
ENDBRANCH   1   7
BRANCH   2  21
ATOM     21  O   UNL     1      10.240   2.792   5.574  1.00  0.00    -0.387 OA
ATOM     22  H   UNL     1      10.539   3.357   4.825  1.00  0.00     0.211 HD
ENDBRANCH   2  21
BRANCH   6  23
ATOM     23  O   UNL     1       8.779   0.945   7.150  1.00  0.00    -0.462 OA
BRANCH  23  24
ATOM     24  C   UNL     1       7.558   1.212   7.791  1.00  0.00     0.130 A 
ATOM     25  C   UNL     1       6.444   1.706   7.090  1.00  0.00     0.093 A 
ATOM     26  C   UNL     1       7.432   0.913   9.158  1.00  0.00     0.094 A 
ATOM     27  C   UNL     1       5.202   1.807   7.680  1.00  0.00     0.133 A 
ATOM     28  C   UNL     1       6.184   0.994   9.762  1.00  0.00     0.138 A 
ATOM     29  C   UNL     1       5.054   1.453   9.049  1.00  0.00     0.102 A 
ATOM     30  O   UNL     1       6.055   0.584  11.103  1.00  0.00    -0.484 OA
ATOM     31  C   UNL     1       3.771   1.514   9.772  1.00  0.00     0.174 C 
ATOM     32  C   UNL     1       4.861   0.852  11.861  1.00  0.00     0.211 C 
ATOM     33  O   UNL     1       2.855   2.327   9.442  1.00  0.00    -0.294 OA
ATOM     34  C   UNL     1       3.604   0.667  10.992  1.00  0.00     0.131 C 
BRANCH  27  35
ATOM     35  O   UNL     1       4.121   2.236   6.894  1.00  0.00    -0.507 OA
ATOM     36  H   UNL     1       3.963   3.212   6.649  1.00  0.00     0.293 HD
ENDBRANCH  27  35
BRANCH  32  37
ATOM     37  C   UNL     1       4.813  -0.019  13.105  1.00  0.00    -0.007 A 
ATOM     38  C   UNL     1       4.872  -1.418  13.004  1.00  0.00     0.011 A 
ATOM     39  C   UNL     1       4.633   0.564  14.371  1.00  0.00     0.011 A 
ATOM     40  C   UNL     1       4.674  -2.216  14.141  1.00  0.00     0.046 A 
ATOM     41  C   UNL     1       4.471  -0.233  15.512  1.00  0.00     0.046 A 
ATOM     42  C   UNL     1       4.457  -1.622  15.384  1.00  0.00     0.115 A 
BRANCH  42  43
ATOM     43  O   UNL     1       4.258  -2.431  16.497  1.00  0.00    -0.508 OA
ATOM     44  H   UNL     1       3.341  -2.813  16.698  1.00  0.00     0.293 HD
ENDBRANCH  42  43
ENDBRANCH  32  37
ENDBRANCH  23  24
ENDBRANCH   6  23
BRANCH   3  45
ATOM     45  O   UNL     1      11.095   4.876   7.194  1.00  0.00    -0.387 OA
ATOM     46  H   UNL     1      10.419   5.319   7.778  1.00  0.00     0.211 HD
ENDBRANCH   3  45
BRANCH   4  47
ATOM     47  C   UNL     1       8.608   3.670   8.069  1.00  0.00     0.191 C 
BRANCH  47  48
ATOM     48  O   UNL     1       8.770   4.861   7.302  1.00  0.00    -0.394 OA
ATOM     49  H   UNL     1       9.518   4.677   6.681  1.00  0.00     0.210 HD
ENDBRANCH  47  48
ENDBRANCH   4  47
TORSDOF 14
ENDMDL
MODEL 6
REMARK VINA RESULT:    70.883      3.423      9.351
REMARK INTER + INTRA:         111.299
REMARK INTER:                  97.657
REMARK INTRA:                  13.643
REMARK UNBOUND:                -1.022
REMARK SMILES C[C@@H]1O[C@@H](O[C@H]2[C@H](Oc3cc(O)c4c(c3)O[C@H](c3ccc(O)cc3)CC4=O)O[C@H](CO)[C@H](O)[C@@H]2O)[C@@H](O)[C@H](O)[C@H]1O
REMARK SMILES IDX 6 1 34 2 32 3 29 4 28 5 7 6 5 7 4 8 1 9 2 10 40 11 3 12
REMARK SMILES IDX 38 13 36 14 41 15 39 17 37 19 35 21 8 23 9 24 10 25 15 26
REMARK SMILES IDX 11 27 14 28 13 29 16 30 26 31 17 32 27 33 25 34 12 35 18 37
REMARK SMILES IDX 19 38 24 39 20 40 23 41 21 42 22 43 33 45 30 47 31 48
REMARK H PARENT 41 16 39 18 37 20 35 22 12 36 22 44 33 46 31 49
REMARK Flexibility Score: inf
ROOT
ATOM      1  C   UNL     1      13.211   4.101   6.973  1.00  0.00     0.221 C 
ATOM      2  C   UNL     1      13.251   2.681   6.380  1.00  0.00     0.181 C 
ATOM      3  C   UNL     1      13.396   1.642   7.509  1.00  0.00     0.177 C 
ATOM      4  C   UNL     1      14.569   1.996   8.468  1.00  0.00     0.179 C 
ATOM      5  O   UNL     1      14.512   3.336   8.941  1.00  0.00    -0.332 OA
ATOM      6  C   UNL     1      14.454   4.311   7.890  1.00  0.00     0.339 C 
ENDROOT
BRANCH   1   7
ATOM      7  O   UNL     1      11.936   4.209   7.643  1.00  0.00    -0.337 OA
BRANCH   7   8
ATOM      8  C   UNL     1      10.792   4.021   6.829  1.00  0.00     0.282 C 
ATOM      9  C   UNL     1       8.664   2.375   9.347  1.00  0.00     0.041 C 
ATOM     10  C   UNL     1       9.829   2.533   8.378  1.00  0.00     0.150 C 
ATOM     11  C   UNL     1       9.953   1.312   7.441  1.00  0.00     0.174 C 
ATOM     12  O   UNL     1       9.625   3.697   7.596  1.00  0.00    -0.344 OA
ATOM     13  C   UNL     1      11.176   1.515   6.532  1.00  0.00     0.179 C 
ATOM     14  C   UNL     1      11.085   2.891   5.818  1.00  0.00     0.202 C 
BRANCH  11  15
ATOM     15  O   UNL     1      10.096   0.131   8.195  1.00  0.00    -0.388 OA
ATOM     16  H   UNL     1      11.056   0.062   8.458  1.00  0.00     0.211 HD
ENDBRANCH  11  15
BRANCH  13  17
ATOM     17  O   UNL     1      11.229   0.502   5.562  1.00  0.00    -0.387 OA
ATOM     18  H   UNL     1      10.817  -0.308   5.969  1.00  0.00     0.211 HD
ENDBRANCH  13  17
BRANCH  14  19
ATOM     19  O   UNL     1      12.286   3.178   5.154  1.00  0.00    -0.385 OA
ATOM     20  H   UNL     1      12.827   3.748   5.767  1.00  0.00     0.211 HD
ENDBRANCH  14  19
ENDBRANCH   7   8
ENDBRANCH   1   7
BRANCH   2  21
ATOM     21  O   UNL     1      14.315   2.558   5.477  1.00  0.00    -0.387 OA
ATOM     22  H   UNL     1      13.993   2.217   4.611  1.00  0.00     0.211 HD
ENDBRANCH   2  21
BRANCH   6  23
ATOM     23  O   UNL     1      15.698   4.361   7.171  1.00  0.00    -0.462 OA
BRANCH  23  24
ATOM     24  C   UNL     1      16.921   4.048   7.785  1.00  0.00     0.130 A 
ATOM     25  C   UNL     1      18.007   3.531   7.056  1.00  0.00     0.093 A 
ATOM     26  C   UNL     1      17.079   4.319   9.154  1.00  0.00     0.094 A 
ATOM     27  C   UNL     1      19.255   3.383   7.622  1.00  0.00     0.133 A 
ATOM     28  C   UNL     1      18.335   4.191   9.734  1.00  0.00     0.138 A 
ATOM     29  C   UNL     1      19.438   3.710   8.994  1.00  0.00     0.102 A 
ATOM     30  O   UNL     1      18.500   4.575  11.079  1.00  0.00    -0.484 OA
ATOM     31  C   UNL     1      20.731   3.598   9.693  1.00  0.00     0.174 C 
ATOM     32  C   UNL     1      19.698   4.258  11.811  1.00  0.00     0.211 C 
ATOM     33  O   UNL     1      21.616   2.764   9.334  1.00  0.00    -0.294 OA
ATOM     34  C   UNL     1      20.945   4.419  10.923  1.00  0.00     0.131 C 
BRANCH  27  35
ATOM     35  O   UNL     1      20.309   2.935   6.811  1.00  0.00    -0.507 OA
ATOM     36  H   UNL     1      21.285   3.174   6.983  1.00  0.00     0.293 HD
ENDBRANCH  27  35
BRANCH  32  37
ATOM     37  C   UNL     1      19.794   5.106  13.068  1.00  0.00    -0.007 A 
ATOM     38  C   UNL     1      19.734   6.507  12.994  1.00  0.00     0.011 A 
ATOM     39  C   UNL     1      20.020   4.500  14.316  1.00  0.00     0.011 A 
ATOM     40  C   UNL     1      19.976   7.285  14.138  1.00  0.00     0.046 A 
ATOM     41  C   UNL     1      20.227   5.277  15.464  1.00  0.00     0.046 A 
ATOM     42  C   UNL     1      20.238   6.668  15.361  1.00  0.00     0.115 A 
BRANCH  42  43
ATOM     43  O   UNL     1      20.480   7.456  16.480  1.00  0.00    -0.508 OA
ATOM     44  H   UNL     1      21.245   8.121  16.486  1.00  0.00     0.293 HD
ENDBRANCH  42  43
ENDBRANCH  32  37
ENDBRANCH  23  24
ENDBRANCH   6  23
BRANCH   3  45
ATOM     45  O   UNL     1      13.541   0.345   6.963  1.00  0.00    -0.387 OA
ATOM     46  H   UNL     1      12.651   0.112   6.582  1.00  0.00     0.211 HD
ENDBRANCH   3  45
BRANCH   4  47
ATOM     47  C   UNL     1      15.976   1.594   7.922  1.00  0.00     0.191 C 
BRANCH  47  48
ATOM     48  O   UNL     1      16.100   0.174   7.891  1.00  0.00    -0.394 OA
ATOM     49  H   UNL     1      15.702  -0.109   7.031  1.00  0.00     0.210 HD
ENDBRANCH  47  48
ENDBRANCH   4  47
TORSDOF 14
ENDMDL
