MODEL 1
REMARK VINA RESULT:    -3.883      0.000      0.000
REMARK INTER + INTRA:          -6.812
REMARK INTER:                  -5.585
REMARK INTRA:                  -1.227
REMARK UNBOUND:                -1.227
REMARK SMILES O=C(CO)[C@H](O)[C@H](O)[C@@H](O)CO
REMARK SMILES IDX 7 1 9 2 11 3 12 4 10 6 5 8 2 9 1 10 3 11 4 12 6 14 8 16
REMARK H PARENT 12 5 10 7 4 13 6 15 8 17
REMARK Flexibility Score: inf
ROOT
ATOM      1  C   UNL     1     -11.340  22.678  -2.258  1.00  0.00     0.181 C 
ENDROOT
BRANCH   1   2
ATOM      2  C   UNL     1     -12.232  23.937  -2.455  1.00  0.00     0.171 C 
BRANCH   2   3
ATOM      3  C   UNL     1     -13.552  23.887  -1.660  1.00  0.00     0.190 C 
BRANCH   3   4
ATOM      4  O   UNL     1     -13.662  22.670  -0.971  1.00  0.00    -0.394 OA
ATOM      5  H   UNL     1     -12.783  22.214  -1.048  1.00  0.00     0.210 HD
ENDBRANCH   3   4
ENDBRANCH   2   3
BRANCH   2   6
ATOM      6  O   UNL     1     -12.502  24.125  -3.823  1.00  0.00    -0.388 OA
ATOM      7  H   UNL     1     -11.671  24.471  -4.245  1.00  0.00     0.211 HD
ENDBRANCH   2   6
ENDBRANCH   1   2
BRANCH   1   8
ATOM      8  C   UNL     1      -9.846  22.939  -2.572  1.00  0.00     0.214 C 
BRANCH   8   9
ATOM      9  C   UNL     1      -9.464  22.340  -3.910  1.00  0.00     0.189 C 
ATOM     10  O   UNL     1      -9.889  22.843  -4.938  1.00  0.00    -0.294 OA
BRANCH   9  11
ATOM     11  C   UNL     1      -8.570  21.136  -4.000  1.00  0.00     0.234 C 
BRANCH  11  12
ATOM     12  O   UNL     1      -9.173  20.060  -3.336  1.00  0.00    -0.388 OA
ATOM     13  H   UNL     1      -8.880  19.242  -3.815  1.00  0.00     0.211 HD
ENDBRANCH  11  12
ENDBRANCH   9  11
ENDBRANCH   8   9
BRANCH   8  14
ATOM     14  O   UNL     1      -9.039  22.362  -1.579  1.00  0.00    -0.382 OA
ATOM     15  H   UNL     1      -8.249  21.975  -2.040  1.00  0.00     0.211 HD
ENDBRANCH   8  14
ENDBRANCH   1   8
BRANCH   1  16
ATOM     16  O   UNL     1     -11.813  21.661  -3.109  1.00  0.00    -0.387 OA
ATOM     17  H   UNL     1     -11.533  21.894  -4.033  1.00  0.00     0.211 HD
ENDBRANCH   1  16
TORSDOF 10
ENDMDL
MODEL 2
REMARK VINA RESULT:    -3.822     23.190     24.937
REMARK INTER + INTRA:          -6.724
REMARK INTER:                  -6.073
REMARK INTRA:                  -0.652
REMARK UNBOUND:                -1.227
REMARK SMILES O=C(CO)[C@H](O)[C@H](O)[C@@H](O)CO
REMARK SMILES IDX 7 1 9 2 11 3 12 4 10 6 5 8 2 9 1 10 3 11 4 12 6 14 8 16
REMARK H PARENT 12 5 10 7 4 13 6 15 8 17
REMARK Flexibility Score: inf
ROOT
ATOM      1  C   UNL     1       0.579   6.150  12.975  1.00  0.00     0.181 C 
ENDROOT
BRANCH   1   2
ATOM      2  C   UNL     1       1.535   6.658  14.091  1.00  0.00     0.171 C 
BRANCH   2   3
ATOM      3  C   UNL     1       1.683   8.193  14.124  1.00  0.00     0.190 C 
BRANCH   3   4
ATOM      4  O   UNL     1       2.902   8.579  13.547  1.00  0.00    -0.394 OA
ATOM      5  H   UNL     1       3.377   9.133  14.221  1.00  0.00     0.210 HD
ENDBRANCH   3   4
ENDBRANCH   2   3
BRANCH   2   6
ATOM      6  O   UNL     1       2.799   6.057  13.951  1.00  0.00    -0.388 OA
ATOM      7  H   UNL     1       3.162   5.910  14.864  1.00  0.00     0.211 HD
ENDBRANCH   2   6
ENDBRANCH   1   2
BRANCH   1   8
ATOM      8  C   UNL     1       1.015   6.590  11.556  1.00  0.00     0.214 C 
BRANCH   8   9
ATOM      9  C   UNL     1      -0.116   6.409  10.564  1.00  0.00     0.189 C 
ATOM     10  O   UNL     1      -0.745   5.362  10.554  1.00  0.00    -0.294 OA
BRANCH   9  11
ATOM     11  C   UNL     1      -0.482   7.491   9.589  1.00  0.00     0.234 C 
BRANCH  11  12
ATOM     12  O   UNL     1      -0.342   8.739  10.208  1.00  0.00    -0.388 OA
ATOM     13  H   UNL     1      -0.440   9.415   9.489  1.00  0.00     0.211 HD
ENDBRANCH  11  12
ENDBRANCH   9  11
ENDBRANCH   8   9
BRANCH   8  14
ATOM     14  O   UNL     1       2.108   5.820  11.129  1.00  0.00    -0.382 OA
ATOM     15  H   UNL     1       2.048   5.759  10.140  1.00  0.00     0.211 HD
ENDBRANCH   8  14
ENDBRANCH   1   8
BRANCH   1  16
ATOM     16  O   UNL     1      -0.711   6.653  13.232  1.00  0.00    -0.387 OA
ATOM     17  H   UNL     1      -0.856   6.608  14.213  1.00  0.00     0.211 HD
ENDBRANCH   1  16
TORSDOF 10
ENDMDL
MODEL 3
REMARK VINA RESULT:    -3.730      1.193      4.020
REMARK INTER + INTRA:          -6.593
REMARK INTER:                  -5.284
REMARK INTRA:                  -1.308
REMARK UNBOUND:                -1.227
REMARK SMILES O=C(CO)[C@H](O)[C@H](O)[C@@H](O)CO
REMARK SMILES IDX 7 1 9 2 11 3 12 4 10 6 5 8 2 9 1 10 3 11 4 12 6 14 8 16
REMARK H PARENT 12 5 10 7 4 13 6 15 8 17
REMARK Flexibility Score: inf
ROOT
ATOM      1  C   UNL     1     -10.931  22.224  -4.431  1.00  0.00     0.181 C 
ENDROOT
BRANCH   1   2
ATOM      2  C   UNL     1      -9.451  22.178  -4.910  1.00  0.00     0.171 C 
BRANCH   2   3
ATOM      3  C   UNL     1      -8.770  20.815  -4.675  1.00  0.00     0.190 C 
BRANCH   3   4
ATOM      4  O   UNL     1      -8.229  20.755  -3.381  1.00  0.00    -0.394 OA
ATOM      5  H   UNL     1      -8.983  20.570  -2.762  1.00  0.00     0.210 HD
ENDBRANCH   3   4
ENDBRANCH   2   3
BRANCH   2   6
ATOM      6  O   UNL     1      -8.713  23.199  -4.284  1.00  0.00    -0.388 OA
ATOM      7  H   UNL     1      -8.663  22.979  -3.315  1.00  0.00     0.211 HD
ENDBRANCH   2   6
ENDBRANCH   1   2
BRANCH   1   8
ATOM      8  C   UNL     1     -11.271  23.509  -3.637  1.00  0.00     0.214 C 
BRANCH   8   9
ATOM      9  C   UNL     1     -11.478  23.196  -2.169  1.00  0.00     0.189 C 
ATOM     10  O   UNL     1     -12.563  22.784  -1.788  1.00  0.00    -0.294 OA
BRANCH   9  11
ATOM     11  C   UNL     1     -10.374  23.380  -1.167  1.00  0.00     0.234 C 
BRANCH  11  12
ATOM     12  O   UNL     1      -9.397  22.397  -1.368  1.00  0.00    -0.388 OA
ATOM     13  H   UNL     1      -8.663  22.605  -0.734  1.00  0.00     0.211 HD
ENDBRANCH  11  12
ENDBRANCH   9  11
ENDBRANCH   8   9
BRANCH   8  14
ATOM     14  O   UNL     1     -12.448  24.085  -4.138  1.00  0.00    -0.382 OA
ATOM     15  H   UNL     1     -12.188  24.631  -4.926  1.00  0.00     0.211 HD
ENDBRANCH   8  14
ENDBRANCH   1   8
BRANCH   1  16
ATOM     16  O   UNL     1     -11.166  21.104  -3.610  1.00  0.00    -0.387 OA
ATOM     17  H   UNL     1     -11.529  20.384  -4.188  1.00  0.00     0.211 HD
ENDBRANCH   1  16
TORSDOF 10
ENDMDL
MODEL 4
REMARK VINA RESULT:    -3.669     23.261     24.991
REMARK INTER + INTRA:          -6.504
REMARK INTER:                  -6.110
REMARK INTRA:                  -0.395
REMARK UNBOUND:                -1.227
REMARK SMILES O=C(CO)[C@H](O)[C@H](O)[C@@H](O)CO
REMARK SMILES IDX 7 1 9 2 11 3 12 4 10 6 5 8 2 9 1 10 3 11 4 12 6 14 8 16
REMARK H PARENT 12 5 10 7 4 13 6 15 8 17
REMARK Flexibility Score: inf
ROOT
ATOM      1  C   UNL     1       0.480   6.733  11.861  1.00  0.00     0.181 C 
ENDROOT
BRANCH   1   2
ATOM      2  C   UNL     1       0.133   6.410  10.380  1.00  0.00     0.171 C 
BRANCH   2   3
ATOM      3  C   UNL     1      -0.488   7.599   9.619  1.00  0.00     0.190 C 
BRANCH   3   4
ATOM      4  O   UNL     1      -0.366   8.777  10.371  1.00  0.00    -0.394 OA
ATOM      5  H   UNL     1      -0.215   9.517   9.725  1.00  0.00     0.210 HD
ENDBRANCH   3   4
ENDBRANCH   2   3
BRANCH   2   6
ATOM      6  O   UNL     1      -0.728   5.299  10.320  1.00  0.00    -0.388 OA
ATOM      7  H   UNL     1      -0.388   4.624  10.966  1.00  0.00     0.211 HD
ENDBRANCH   2   6
ENDBRANCH   1   2
BRANCH   1   8
ATOM      8  C   UNL     1       1.600   5.828  12.433  1.00  0.00     0.214 C 
BRANCH   8   9
ATOM      9  C   UNL     1       2.520   6.618  13.341  1.00  0.00     0.189 C 
ATOM     10  O   UNL     1       3.638   6.190  13.585  1.00  0.00    -0.294 OA
BRANCH   9  11
ATOM     11  C   UNL     1       2.087   7.921  13.951  1.00  0.00     0.234 C 
BRANCH  11  12
ATOM     12  O   UNL     1       3.187   8.784  14.031  1.00  0.00    -0.388 OA
ATOM     13  H   UNL     1       3.909   8.267  14.473  1.00  0.00     0.211 HD
ENDBRANCH  11  12
ENDBRANCH   9  11
ENDBRANCH   8   9
BRANCH   8  14
ATOM     14  O   UNL     1       2.364   5.291  11.385  1.00  0.00    -0.382 OA
ATOM     15  H   UNL     1       1.768   5.237  10.593  1.00  0.00     0.211 HD
ENDBRANCH   8  14
ENDBRANCH   1   8
BRANCH   1  16
ATOM     16  O   UNL     1      -0.683   6.563  12.637  1.00  0.00    -0.387 OA
ATOM     17  H   UNL     1      -1.334   6.055  12.086  1.00  0.00     0.211 HD
ENDBRANCH   1  16
TORSDOF 10
ENDMDL
MODEL 5
REMARK VINA RESULT:    -3.656      1.467      2.789
REMARK INTER + INTRA:          -6.486
REMARK INTER:                  -5.749
REMARK INTRA:                  -0.737
REMARK UNBOUND:                -1.227
REMARK SMILES O=C(CO)[C@H](O)[C@H](O)[C@@H](O)CO
REMARK SMILES IDX 7 1 9 2 11 3 12 4 10 6 5 8 2 9 1 10 3 11 4 12 6 14 8 16
REMARK H PARENT 12 5 10 7 4 13 6 15 8 17
REMARK Flexibility Score: inf
ROOT
ATOM      1  C   UNL     1     -11.813  22.815  -3.672  1.00  0.00     0.181 C 
ENDROOT
BRANCH   1   2
ATOM      2  C   UNL     1     -11.325  23.374  -2.305  1.00  0.00     0.171 C 
BRANCH   2   3
ATOM      3  C   UNL     1      -9.790  23.433  -2.176  1.00  0.00     0.190 C 
BRANCH   3   4
ATOM      4  O   UNL     1      -9.324  22.365  -1.394  1.00  0.00    -0.394 OA
ATOM      5  H   UNL     1      -8.995  22.754  -0.541  1.00  0.00     0.210 HD
ENDBRANCH   3   4
ENDBRANCH   2   3
BRANCH   2   6
ATOM      6  O   UNL     1     -11.867  22.612  -1.254  1.00  0.00    -0.388 OA
ATOM      7  H   UNL     1     -12.566  23.165  -0.814  1.00  0.00     0.211 HD
ENDBRANCH   2   6
ENDBRANCH   1   2
BRANCH   1   8
ATOM      8  C   UNL     1     -11.566  21.294  -3.827  1.00  0.00     0.214 C 
BRANCH   8   9
ATOM      9  C   UNL     1     -10.504  21.026  -4.875  1.00  0.00     0.189 C 
ATOM     10  O   UNL     1     -10.802  21.073  -6.059  1.00  0.00    -0.294 OA
BRANCH   9  11
ATOM     11  C   UNL     1      -9.089  20.702  -4.489  1.00  0.00     0.234 C 
BRANCH  11  12
ATOM     12  O   UNL     1      -9.090  19.971  -3.295  1.00  0.00    -0.388 OA
ATOM     13  H   UNL     1      -8.607  19.127  -3.490  1.00  0.00     0.211 HD
ENDBRANCH  11  12
ENDBRANCH   9  11
ENDBRANCH   8   9
BRANCH   8  14
ATOM     14  O   UNL     1     -12.750  20.653  -4.220  1.00  0.00    -0.382 OA
ATOM     15  H   UNL     1     -12.825  20.764  -5.204  1.00  0.00     0.211 HD
ENDBRANCH   8  14
ENDBRANCH   1   8
BRANCH   1  16
ATOM     16  O   UNL     1     -11.130  23.495  -4.699  1.00  0.00    -0.387 OA
ATOM     17  H   UNL     1     -11.763  24.154  -5.088  1.00  0.00     0.211 HD
ENDBRANCH   1  16
TORSDOF 10
ENDMDL
MODEL 6
REMARK VINA RESULT:    -3.511     23.112     24.861
REMARK INTER + INTRA:          -6.277
REMARK INTER:                  -5.627
REMARK INTRA:                  -0.650
REMARK UNBOUND:                -1.227
REMARK SMILES O=C(CO)[C@H](O)[C@H](O)[C@@H](O)CO
REMARK SMILES IDX 7 1 9 2 11 3 12 4 10 6 5 8 2 9 1 10 3 11 4 12 6 14 8 16
REMARK H PARENT 12 5 10 7 4 13 6 15 8 17
REMARK Flexibility Score: inf
ROOT
ATOM      1  C   UNL     1       0.705   5.546  11.052  1.00  0.00     0.181 C 
ENDROOT
BRANCH   1   2
ATOM      2  C   UNL     1      -0.042   6.910  11.076  1.00  0.00     0.171 C 
BRANCH   2   3
ATOM      3  C   UNL     1      -0.242   7.528   9.678  1.00  0.00     0.190 C 
BRANCH   3   4
ATOM      4  O   UNL     1      -0.074   8.920   9.729  1.00  0.00    -0.394 OA
ATOM      5  H   UNL     1      -0.974   9.324   9.614  1.00  0.00     0.210 HD
ENDBRANCH   3   4
ENDBRANCH   2   3
BRANCH   2   6
ATOM      6  O   UNL     1       0.640   7.817  11.908  1.00  0.00    -0.388 OA
ATOM      7  H   UNL     1       0.633   7.440  12.828  1.00  0.00     0.211 HD
ENDBRANCH   2   6
ENDBRANCH   1   2
BRANCH   1   8
ATOM      8  C   UNL     1       0.387   4.659  12.281  1.00  0.00     0.214 C 
BRANCH   8   9
ATOM      9  C   UNL     1      -1.102   4.392  12.381  1.00  0.00     0.189 C 
ATOM     10  O   UNL     1      -1.685   3.875  11.440  1.00  0.00    -0.294 OA
BRANCH   9  11
ATOM     11  C   UNL     1      -1.878   4.749  13.616  1.00  0.00     0.234 C 
BRANCH  11  12
ATOM     12  O   UNL     1      -1.935   6.143  13.741  1.00  0.00    -0.388 OA
ATOM     13  H   UNL     1      -1.168   6.497  13.221  1.00  0.00     0.211 HD
ENDBRANCH  11  12
ENDBRANCH   9  11
ENDBRANCH   8   9
BRANCH   8  14
ATOM     14  O   UNL     1       0.803   5.302  13.457  1.00  0.00    -0.382 OA
ATOM     15  H   UNL     1       0.069   5.915  13.724  1.00  0.00     0.211 HD
ENDBRANCH   8  14
ENDBRANCH   1   8
BRANCH   1  16
ATOM     16  O   UNL     1       2.090   5.799  11.018  1.00  0.00    -0.387 OA
ATOM     17  H   UNL     1       2.219   6.682  10.583  1.00  0.00     0.211 HD
ENDBRANCH   1  16
TORSDOF 10
ENDMDL
MODEL 7
REMARK VINA RESULT:    -3.490     11.333     12.515
REMARK INTER + INTRA:          -6.248
REMARK INTER:                  -5.204
REMARK INTRA:                  -1.044
REMARK UNBOUND:                -1.227
REMARK SMILES O=C(CO)[C@H](O)[C@H](O)[C@@H](O)CO
REMARK SMILES IDX 7 1 9 2 11 3 12 4 10 6 5 8 2 9 1 10 3 11 4 12 6 14 8 16
REMARK H PARENT 12 5 10 7 4 13 6 15 8 17
REMARK Flexibility Score: inf
ROOT
ATOM      1  C   UNL     1      -0.817  15.614  -3.683  1.00  0.00     0.181 C 
ENDROOT
BRANCH   1   2
ATOM      2  C   UNL     1      -0.185  17.012  -3.935  1.00  0.00     0.171 C 
BRANCH   2   3
ATOM      3  C   UNL     1      -0.557  17.619  -5.303  1.00  0.00     0.190 C 
BRANCH   3   4
ATOM      4  O   UNL     1      -1.915  17.972  -5.329  1.00  0.00    -0.394 OA
ATOM      5  H   UNL     1      -2.065  18.593  -4.568  1.00  0.00     0.210 HD
ENDBRANCH   3   4
ENDBRANCH   2   3
BRANCH   2   6
ATOM      6  O   UNL     1       1.214  16.936  -3.808  1.00  0.00    -0.388 OA
ATOM      7  H   UNL     1       1.572  17.859  -3.902  1.00  0.00     0.211 HD
ENDBRANCH   2   6
ENDBRANCH   1   2
BRANCH   1   8
ATOM      8  C   UNL     1      -0.900  14.746  -4.963  1.00  0.00     0.214 C 
BRANCH   8   9
ATOM      9  C   UNL     1      -2.337  14.380  -5.274  1.00  0.00     0.189 C 
ATOM     10  O   UNL     1      -3.079  15.219  -5.762  1.00  0.00    -0.294 OA
BRANCH   9  11
ATOM     11  C   UNL     1      -2.871  13.005  -4.995  1.00  0.00     0.234 C 
BRANCH  11  12
ATOM     12  O   UNL     1      -2.610  12.175  -6.093  1.00  0.00    -0.388 OA
ATOM     13  H   UNL     1      -3.428  11.629  -6.225  1.00  0.00     0.211 HD
ENDBRANCH  11  12
ENDBRANCH   9  11
ENDBRANCH   8   9
BRANCH   8  14
ATOM     14  O   UNL     1      -0.168  13.562  -4.787  1.00  0.00    -0.382 OA
ATOM     15  H   UNL     1      -0.803  12.879  -4.446  1.00  0.00     0.211 HD
ENDBRANCH   8  14
ENDBRANCH   1   8
BRANCH   1  16
ATOM     16  O   UNL     1      -2.117  15.800  -3.174  1.00  0.00    -0.387 OA
ATOM     17  H   UNL     1      -2.480  14.902  -2.953  1.00  0.00     0.211 HD
ENDBRANCH   1  16
TORSDOF 10
ENDMDL
MODEL 8
REMARK VINA RESULT:    -3.464     11.649     12.736
REMARK INTER + INTRA:          -6.209
REMARK INTER:                  -5.530
REMARK INTRA:                  -0.679
REMARK UNBOUND:                -1.227
REMARK SMILES O=C(CO)[C@H](O)[C@H](O)[C@@H](O)CO
REMARK SMILES IDX 7 1 9 2 11 3 12 4 10 6 5 8 2 9 1 10 3 11 4 12 6 14 8 16
REMARK H PARENT 12 5 10 7 4 13 6 15 8 17
REMARK Flexibility Score: inf
ROOT
ATOM      1  C   UNL     1      -1.457  15.256  -3.533  1.00  0.00     0.181 C 
ENDROOT
BRANCH   1   2
ATOM      2  C   UNL     1      -0.212  15.821  -2.791  1.00  0.00     0.171 C 
BRANCH   2   3
ATOM      3  C   UNL     1      -0.391  15.902  -1.262  1.00  0.00     0.190 C 
BRANCH   3   4
ATOM      4  O   UNL     1      -1.753  15.899  -0.928  1.00  0.00    -0.394 OA
ATOM      5  H   UNL     1      -1.827  16.282  -0.014  1.00  0.00     0.210 HD
ENDBRANCH   3   4
ENDBRANCH   2   3
BRANCH   2   6
ATOM      6  O   UNL     1       0.117  17.089  -3.304  1.00  0.00    -0.388 OA
ATOM      7  H   UNL     1       1.100  17.103  -3.453  1.00  0.00     0.211 HD
ENDBRANCH   2   6
ENDBRANCH   1   2
BRANCH   1   8
ATOM      8  C   UNL     1      -1.090  14.270  -4.669  1.00  0.00     0.214 C 
BRANCH   8   9
ATOM      9  C   UNL     1      -2.326  13.570  -5.196  1.00  0.00     0.189 C 
ATOM     10  O   UNL     1      -2.974  14.087  -6.093  1.00  0.00    -0.294 OA
BRANCH   9  11
ATOM     11  C   UNL     1      -2.774  12.249  -4.638  1.00  0.00     0.234 C 
BRANCH  11  12
ATOM     12  O   UNL     1      -1.851  11.258  -4.996  1.00  0.00    -0.388 OA
ATOM     13  H   UNL     1      -2.387  10.457  -5.232  1.00  0.00     0.211 HD
ENDBRANCH  11  12
ENDBRANCH   9  11
ENDBRANCH   8   9
BRANCH   8  14
ATOM     14  O   UNL     1      -0.198  13.297  -4.191  1.00  0.00    -0.382 OA
ATOM     15  H   UNL     1      -0.674  12.426  -4.231  1.00  0.00     0.211 HD
ENDBRANCH   8  14
ENDBRANCH   1   8
BRANCH   1  16
ATOM     16  O   UNL     1      -2.175  16.336  -4.082  1.00  0.00    -0.387 OA
ATOM     17  H   UNL     1      -3.085  16.319  -3.685  1.00  0.00     0.211 HD
ENDBRANCH   1  16
TORSDOF 10
ENDMDL
