MODEL 1
REMARK VINA RESULT:    -4.868      0.000      0.000
REMARK INTER + INTRA:          -5.172
REMARK INTER:                  -5.153
REMARK INTRA:                  -0.019
REMARK UNBOUND:                -0.019
REMARK SMILES O=C([O-])c1cccnc1
REMARK SMILES IDX 4 1 5 2 9 3 6 4 8 5 7 6 2 7 1 8 3 9
REMARK H PARENT
REMARK Flexibility Score: inf
ROOT
ATOM      1  C   UNL     1       9.443  69.590   1.957  1.00  0.00     0.016 A 
ATOM      2  C   UNL     1       9.085  69.391   0.613  1.00  0.00     0.013 A 
ATOM      3  C   UNL     1       9.568  68.463   2.788  1.00  0.00     0.120 A 
ATOM      4  C   UNL     1       8.862  68.100   0.130  1.00  0.00     0.021 A 
ATOM      5  N   UNL     1       9.345  67.216   2.293  1.00  0.00    -0.264 NA
ATOM      6  C   UNL     1       8.998  67.014   0.994  1.00  0.00     0.111 A 
ENDROOT
BRANCH   1   7
ATOM      7  C   UNL     1       9.681  70.952   2.479  1.00  0.00     0.073 C 
ATOM      8  O   UNL     1      10.444  71.747   1.870  1.00  0.00    -0.545 OA
ATOM      9  O   UNL     1       9.065  71.374   3.652  1.00  0.00    -0.545 OA
ENDBRANCH   1   7
TORSDOF 1
ENDMDL
MODEL 2
REMARK VINA RESULT:    -4.797      2.641      3.267
REMARK INTER + INTRA:          -5.097
REMARK INTER:                  -5.081
REMARK INTRA:                  -0.016
REMARK UNBOUND:                -0.019
REMARK SMILES O=C([O-])c1cccnc1
REMARK SMILES IDX 4 1 5 2 9 3 6 4 8 5 7 6 2 7 1 8 3 9
REMARK H PARENT
REMARK Flexibility Score: inf
ROOT
ATOM      1  C   UNL     1      10.094  68.164   0.772  1.00  0.00     0.016 A 
ATOM      2  C   UNL     1      10.062  69.493   0.318  1.00  0.00     0.013 A 
ATOM      3  C   UNL     1       9.848  67.136  -0.155  1.00  0.00     0.120 A 
ATOM      4  C   UNL     1       9.792  69.770  -1.024  1.00  0.00     0.021 A 
ATOM      5  N   UNL     1       9.586  67.432  -1.457  1.00  0.00    -0.264 NA
ATOM      6  C   UNL     1       9.554  68.715  -1.905  1.00  0.00     0.111 A 
ENDROOT
BRANCH   1   7
ATOM      7  C   UNL     1      10.379  67.859   2.190  1.00  0.00     0.073 C 
ATOM      8  O   UNL     1       9.442  67.597   2.990  1.00  0.00    -0.545 OA
ATOM      9  O   UNL     1      11.688  67.857   2.660  1.00  0.00    -0.545 OA
ENDBRANCH   1   7
TORSDOF 1
ENDMDL
MODEL 3
REMARK VINA RESULT:    -4.778      2.981      3.897
REMARK INTER + INTRA:          -5.077
REMARK INTER:                  -5.060
REMARK INTRA:                  -0.017
REMARK UNBOUND:                -0.019
REMARK SMILES O=C([O-])c1cccnc1
REMARK SMILES IDX 4 1 5 2 9 3 6 4 8 5 7 6 2 7 1 8 3 9
REMARK H PARENT
REMARK Flexibility Score: inf
ROOT
ATOM      1  C   UNL     1       8.981  68.199  -0.036  1.00  0.00     0.016 A 
ATOM      2  C   UNL     1       9.346  69.499   0.352  1.00  0.00     0.013 A 
ATOM      3  C   UNL     1       9.005  67.181   0.934  1.00  0.00     0.120 A 
ATOM      4  C   UNL     1       9.723  69.757   1.672  1.00  0.00     0.021 A 
ATOM      5  N   UNL     1       9.377  67.459   2.212  1.00  0.00    -0.264 NA
ATOM      6  C   UNL     1       9.732  68.713   2.597  1.00  0.00     0.111 A 
ENDROOT
BRANCH   1   7
ATOM      7  C   UNL     1       8.580  67.913  -1.430  1.00  0.00     0.073 C 
ATOM      8  O   UNL     1       7.462  68.296  -1.866  1.00  0.00    -0.545 OA
ATOM      9  O   UNL     1       9.434  67.218  -2.280  1.00  0.00    -0.545 OA
ENDBRANCH   1   7
TORSDOF 1
ENDMDL
MODEL 4
REMARK VINA RESULT:    -4.774      2.694      3.348
REMARK INTER + INTRA:          -5.072
REMARK INTER:                  -5.056
REMARK INTRA:                  -0.016
REMARK UNBOUND:                -0.019
REMARK SMILES O=C([O-])c1cccnc1
REMARK SMILES IDX 4 1 5 2 9 3 6 4 8 5 7 6 2 7 1 8 3 9
REMARK H PARENT
REMARK Flexibility Score: inf
ROOT
ATOM      1  C   UNL     1       9.972  68.205   0.725  1.00  0.00     0.016 A 
ATOM      2  C   UNL     1       9.790  67.221  -0.262  1.00  0.00     0.013 A 
ATOM      3  C   UNL     1       9.785  69.552   0.367  1.00  0.00     0.120 A 
ATOM      4  C   UNL     1       9.433  67.589  -1.561  1.00  0.00     0.021 A 
ATOM      5  N   UNL     1       9.438  69.883  -0.906  1.00  0.00    -0.264 NA
ATOM      6  C   UNL     1       9.260  68.939  -1.867  1.00  0.00     0.111 A 
ENDROOT
BRANCH   1   7
ATOM      7  C   UNL     1      10.350  67.829   2.103  1.00  0.00     0.073 C 
ATOM      8  O   UNL     1       9.465  67.566   2.961  1.00  0.00    -0.545 OA
ATOM      9  O   UNL     1      11.689  67.758   2.472  1.00  0.00    -0.545 OA
ENDBRANCH   1   7
TORSDOF 1
ENDMDL
MODEL 5
REMARK VINA RESULT:    -4.768      3.114      3.914
REMARK INTER + INTRA:          -5.066
REMARK INTER:                  -5.047
REMARK INTRA:                  -0.019
REMARK UNBOUND:                -0.019
REMARK SMILES O=C([O-])c1cccnc1
REMARK SMILES IDX 4 1 5 2 9 3 6 4 8 5 7 6 2 7 1 8 3 9
REMARK H PARENT
REMARK Flexibility Score: inf
ROOT
ATOM      1  C   UNL     1       9.106  68.621  -0.172  1.00  0.00     0.016 A 
ATOM      2  C   UNL     1       8.926  67.505   0.663  1.00  0.00     0.013 A 
ATOM      3  C   UNL     1       9.707  69.771   0.371  1.00  0.00     0.120 A 
ATOM      4  C   UNL     1       9.340  67.553   1.996  1.00  0.00     0.021 A 
ATOM      5  N   UNL     1      10.100  69.791   1.673  1.00  0.00    -0.264 NA
ATOM      6  C   UNL     1       9.931  68.717   2.487  1.00  0.00     0.111 A 
ENDROOT
BRANCH   1   7
ATOM      7  C   UNL     1       8.672  68.583  -1.584  1.00  0.00     0.073 C 
ATOM      8  O   UNL     1       7.501  68.230  -1.885  1.00  0.00    -0.545 OA
ATOM      9  O   UNL     1       9.552  68.939  -2.601  1.00  0.00    -0.545 OA
ENDBRANCH   1   7
TORSDOF 1
ENDMDL
MODEL 6
REMARK VINA RESULT:    -4.759      1.484      1.901
REMARK INTER + INTRA:          -5.056
REMARK INTER:                  -5.033
REMARK INTRA:                  -0.023
REMARK UNBOUND:                -0.019
REMARK SMILES O=C([O-])c1cccnc1
REMARK SMILES IDX 4 1 5 2 9 3 6 4 8 5 7 6 2 7 1 8 3 9
REMARK H PARENT
REMARK Flexibility Score: inf
ROOT
ATOM      1  C   UNL     1       9.829  69.745   1.133  1.00  0.00     0.016 A 
ATOM      2  C   UNL     1       9.376  68.538   1.691  1.00  0.00     0.013 A 
ATOM      3  C   UNL     1      10.059  69.794  -0.254  1.00  0.00     0.120 A 
ATOM      4  C   UNL     1       9.164  67.424   0.876  1.00  0.00     0.021 A 
ATOM      5  N   UNL     1       9.845  68.695  -1.025  1.00  0.00    -0.264 NA
ATOM      6  C   UNL     1       9.407  67.523  -0.494  1.00  0.00     0.111 A 
ENDROOT
BRANCH   1   7
ATOM      7  C   UNL     1      10.057  70.930   1.985  1.00  0.00     0.073 C 
ATOM      8  O   UNL     1      10.612  71.959   1.517  1.00  0.00    -0.545 OA
ATOM      9  O   UNL     1       9.660  70.926   3.318  1.00  0.00    -0.545 OA
ENDBRANCH   1   7
TORSDOF 1
ENDMDL
MODEL 7
REMARK VINA RESULT:    -4.756      2.930      4.077
REMARK INTER + INTRA:          -5.053
REMARK INTER:                  -5.029
REMARK INTRA:                  -0.024
REMARK UNBOUND:                -0.019
REMARK SMILES O=C([O-])c1cccnc1
REMARK SMILES IDX 4 1 5 2 9 3 6 4 8 5 7 6 2 7 1 8 3 9
REMARK H PARENT
REMARK Flexibility Score: inf
ROOT
ATOM      1  C   UNL     1       9.577  68.950   1.143  1.00  0.00     0.016 A 
ATOM      2  C   UNL     1       9.425  69.323   2.489  1.00  0.00     0.013 A 
ATOM      3  C   UNL     1       9.933  69.941   0.211  1.00  0.00     0.120 A 
ATOM      4  C   UNL     1       9.628  70.650   2.876  1.00  0.00     0.021 A 
ATOM      5  N   UNL     1      10.123  71.226   0.614  1.00  0.00    -0.264 NA
ATOM      6  C   UNL     1       9.980  71.597   1.914  1.00  0.00     0.111 A 
ENDROOT
BRANCH   1   7
ATOM      7  C   UNL     1       9.365  67.549   0.721  1.00  0.00     0.073 C 
ATOM      8  O   UNL     1       8.779  66.733   1.481  1.00  0.00    -0.545 OA
ATOM      9  O   UNL     1       9.810  67.113  -0.522  1.00  0.00    -0.545 OA
ENDBRANCH   1   7
TORSDOF 1
ENDMDL
MODEL 8
REMARK VINA RESULT:    -4.750      3.590      4.362
REMARK INTER + INTRA:          -5.047
REMARK INTER:                  -5.022
REMARK INTRA:                  -0.024
REMARK UNBOUND:                -0.019
REMARK SMILES O=C([O-])c1cccnc1
REMARK SMILES IDX 4 1 5 2 9 3 6 4 8 5 7 6 2 7 1 8 3 9
REMARK H PARENT
REMARK Flexibility Score: inf
ROOT
ATOM      1  C   UNL     1       9.780  68.942  -0.739  1.00  0.00     0.016 A 
ATOM      2  C   UNL     1      10.000  69.289  -2.083  1.00  0.00     0.013 A 
ATOM      3  C   UNL     1       9.708  69.974   0.213  1.00  0.00     0.120 A 
ATOM      4  C   UNL     1      10.141  70.630  -2.448  1.00  0.00     0.021 A 
ATOM      5  N   UNL     1       9.850  71.272  -0.168  1.00  0.00    -0.264 NA
ATOM      6  C   UNL     1      10.062  71.617  -1.465  1.00  0.00     0.111 A 
ENDROOT
BRANCH   1   7
ATOM      7  C   UNL     1       9.630  67.527  -0.342  1.00  0.00     0.073 C 
ATOM      8  O   UNL     1       9.820  66.603  -1.177  1.00  0.00    -0.545 OA
ATOM      9  O   UNL     1       9.277  67.195   0.962  1.00  0.00    -0.545 OA
ENDBRANCH   1   7
TORSDOF 1
ENDMDL
MODEL 9
REMARK VINA RESULT:    -4.736      2.350      3.182
REMARK INTER + INTRA:          -5.032
REMARK INTER:                  -5.009
REMARK INTRA:                  -0.023
REMARK UNBOUND:                -0.019
REMARK SMILES O=C([O-])c1cccnc1
REMARK SMILES IDX 4 1 5 2 9 3 6 4 8 5 7 6 2 7 1 8 3 9
REMARK H PARENT
REMARK Flexibility Score: inf
ROOT
ATOM      1  C   UNL     1       9.615  69.672  -0.580  1.00  0.00     0.016 A 
ATOM      2  C   UNL     1       9.691  68.353  -1.058  1.00  0.00     0.013 A 
ATOM      3  C   UNL     1       9.462  69.874   0.803  1.00  0.00     0.120 A 
ATOM      4  C   UNL     1       9.615  67.280  -0.168  1.00  0.00     0.021 A 
ATOM      5  N   UNL     1       9.389  68.810   1.648  1.00  0.00    -0.264 NA
ATOM      6  C   UNL     1       9.462  67.531   1.196  1.00  0.00     0.111 A 
ENDROOT
BRANCH   1   7
ATOM      7  C   UNL     1       9.694  70.817  -1.513  1.00  0.00     0.073 C 
ATOM      8  O   UNL     1       9.430  71.983  -1.119  1.00  0.00    -0.545 OA
ATOM      9  O   UNL     1      10.063  70.620  -2.839  1.00  0.00    -0.545 OA
ENDBRANCH   1   7
TORSDOF 1
ENDMDL
