MODEL 1
REMARK VINA RESULT:    -4.950      0.000      0.000
REMARK INTER + INTRA:          -5.489
REMARK INTER:                  -5.239
REMARK INTRA:                  -0.249
REMARK UNBOUND:                -0.249
REMARK SMILES CC(C)[C@@H]1CC[C@@H](C)[C@@H]2C=C[C@H](C)C[C@@H]21
REMARK SMILES IDX 8 1 7 2 6 3 5 4 4 5 15 6 9 7 10 8 11 9 12 10 14 11 13 12
REMARK SMILES IDX 2 13 1 14 3 15
REMARK H PARENT
REMARK Flexibility Score: inf
ROOT
ATOM      1  C   UNL     1     136.084 132.625 135.630  1.00  0.00     0.008 C 
ATOM      2  C   UNL     1     135.303 133.651 136.469  1.00  0.00    -0.007 C 
ATOM      3  C   UNL     1     135.934 133.739 137.872  1.00  0.00     0.004 C 
ATOM      4  C   UNL     1     135.196 134.744 138.757  1.00  0.00     0.004 C 
ATOM      5  C   UNL     1     133.706 134.364 138.894  1.00  0.00    -0.005 C 
ATOM      6  C   UNL     1     133.008 134.256 137.504  1.00  0.00    -0.000 C 
ATOM      7  C   UNL     1     133.790 133.291 136.565  1.00  0.00     0.018 C 
ATOM      8  C   UNL     1     133.162 133.243 135.188  1.00  0.00    -0.027 C 
ATOM      9  C   UNL     1     132.430 134.245 134.678  1.00  0.00    -0.028 C 
ATOM     10  C   UNL     1     131.958 135.422 135.503  1.00  0.00     0.008 C 
ATOM     11  C   UNL     1     132.765 135.609 136.804  1.00  0.00     0.012 C 
ATOM     12  C   UNL     1     131.989 136.702 134.662  1.00  0.00     0.012 C 
ENDROOT
BRANCH   5  13
ATOM     13  C   UNL     1     132.920 135.241 139.932  1.00  0.00    -0.014 C 
ATOM     14  C   UNL     1     132.646 134.450 141.222  1.00  0.00     0.007 C 
ATOM     15  C   UNL     1     133.605 136.574 140.296  1.00  0.00     0.007 C 
ENDBRANCH   5  13
TORSDOF 1
ENDMDL
MODEL 2
REMARK VINA RESULT:    -4.940      5.678      7.309
REMARK INTER + INTRA:          -5.478
REMARK INTER:                  -5.237
REMARK INTRA:                  -0.241
REMARK UNBOUND:                -0.249
REMARK SMILES CC(C)[C@@H]1CC[C@@H](C)[C@@H]2C=C[C@H](C)C[C@@H]21
REMARK SMILES IDX 8 1 7 2 6 3 5 4 4 5 15 6 9 7 10 8 11 9 12 10 14 11 13 12
REMARK SMILES IDX 2 13 1 14 3 15
REMARK H PARENT
REMARK Flexibility Score: inf
ROOT
ATOM      1  C   UNL     1     136.510 140.022 135.605  1.00  0.00     0.008 C 
ATOM      2  C   UNL     1     137.290 139.001 136.449  1.00  0.00    -0.007 C 
ATOM      3  C   UNL     1     136.648 138.907 137.846  1.00  0.00     0.004 C 
ATOM      4  C   UNL     1     137.385 137.906 138.736  1.00  0.00     0.004 C 
ATOM      5  C   UNL     1     138.872 138.295 138.886  1.00  0.00    -0.005 C 
ATOM      6  C   UNL     1     139.581 138.409 137.502  1.00  0.00    -0.000 C 
ATOM      7  C   UNL     1     138.800 139.370 136.558  1.00  0.00     0.018 C 
ATOM      8  C   UNL     1     139.439 139.424 135.186  1.00  0.00    -0.027 C 
ATOM      9  C   UNL     1     140.181 138.426 134.681  1.00  0.00    -0.028 C 
ATOM     10  C   UNL     1     140.654 137.252 135.508  1.00  0.00     0.008 C 
ATOM     11  C   UNL     1     139.838 137.058 136.802  1.00  0.00     0.012 C 
ATOM     12  C   UNL     1     140.638 135.973 134.666  1.00  0.00     0.012 C 
ENDROOT
BRANCH   5  13
ATOM     13  C   UNL     1     139.655 137.422 139.930  1.00  0.00    -0.014 C 
ATOM     14  C   UNL     1     139.852 138.188 141.248  1.00  0.00     0.007 C 
ATOM     15  C   UNL     1     139.010 136.054 140.235  1.00  0.00     0.007 C 
ENDBRANCH   5  13
TORSDOF 1
ENDMDL
MODEL 3
REMARK VINA RESULT:    -4.932      3.705      5.177
REMARK INTER + INTRA:          -5.470
REMARK INTER:                  -5.227
REMARK INTRA:                  -0.243
REMARK UNBOUND:                -0.249
REMARK SMILES CC(C)[C@@H]1CC[C@@H](C)[C@@H]2C=C[C@H](C)C[C@@H]21
REMARK SMILES IDX 8 1 7 2 6 3 5 4 4 5 15 6 9 7 10 8 11 9 12 10 14 11 13 12
REMARK SMILES IDX 2 13 1 14 3 15
REMARK H PARENT
REMARK Flexibility Score: inf
ROOT
ATOM      1  C   UNL     1     140.018 136.086 135.508  1.00  0.00     0.008 C 
ATOM      2  C   UNL     1     138.994 135.317 136.360  1.00  0.00    -0.007 C 
ATOM      3  C   UNL     1     138.919 135.959 137.758  1.00  0.00     0.004 C 
ATOM      4  C   UNL     1     137.916 135.234 138.656  1.00  0.00     0.004 C 
ATOM      5  C   UNL     1     138.288 133.742 138.801  1.00  0.00    -0.005 C 
ATOM      6  C   UNL     1     138.382 133.033 137.416  1.00  0.00    -0.000 C 
ATOM      7  C   UNL     1     139.345 133.803 136.465  1.00  0.00     0.018 C 
ATOM      8  C   UNL     1     139.380 133.164 135.091  1.00  0.00    -0.027 C 
ATOM      9  C   UNL     1     138.369 132.435 134.594  1.00  0.00    -0.028 C 
ATOM     10  C   UNL     1     137.196 131.977 135.430  1.00  0.00     0.008 C 
ATOM     11  C   UNL     1     137.022 132.794 136.726  1.00  0.00     0.012 C 
ATOM     12  C   UNL     1     135.910 132.009 134.598  1.00  0.00     0.012 C 
ENDROOT
BRANCH   5  13
ATOM     13  C   UNL     1     137.413 132.969 139.851  1.00  0.00    -0.014 C 
ATOM     14  C   UNL     1     138.192 132.748 141.158  1.00  0.00     0.007 C 
ATOM     15  C   UNL     1     136.062 133.638 140.179  1.00  0.00     0.007 C 
ENDBRANCH   5  13
TORSDOF 1
ENDMDL
MODEL 4
REMARK VINA RESULT:    -4.922      3.736      5.176
REMARK INTER + INTRA:          -5.459
REMARK INTER:                  -5.217
REMARK INTRA:                  -0.242
REMARK UNBOUND:                -0.249
REMARK SMILES CC(C)[C@@H]1CC[C@@H](C)[C@@H]2C=C[C@H](C)C[C@@H]21
REMARK SMILES IDX 8 1 7 2 6 3 5 4 4 5 15 6 9 7 10 8 11 9 12 10 14 11 13 12
REMARK SMILES IDX 2 13 1 14 3 15
REMARK H PARENT
REMARK Flexibility Score: inf
ROOT
ATOM      1  C   UNL     1     132.658 136.518 135.644  1.00  0.00     0.008 C 
ATOM      2  C   UNL     1     133.685 137.307 136.474  1.00  0.00    -0.007 C 
ATOM      3  C   UNL     1     133.765 136.698 137.887  1.00  0.00     0.004 C 
ATOM      4  C   UNL     1     134.770 137.444 138.764  1.00  0.00     0.004 C 
ATOM      5  C   UNL     1     134.399 138.939 138.875  1.00  0.00    -0.005 C 
ATOM      6  C   UNL     1     134.300 139.615 137.473  1.00  0.00    -0.000 C 
ATOM      7  C   UNL     1     133.334 138.823 136.544  1.00  0.00     0.018 C 
ATOM      8  C   UNL     1     133.294 139.429 135.156  1.00  0.00    -0.027 C 
ATOM      9  C   UNL     1     134.303 140.146 134.638  1.00  0.00    -0.028 C 
ATOM     10  C   UNL     1     135.479 140.624 135.459  1.00  0.00     0.008 C 
ATOM     11  C   UNL     1     135.658 139.838 136.773  1.00  0.00     0.012 C 
ATOM     12  C   UNL     1     136.763 140.573 134.624  1.00  0.00     0.012 C 
ENDROOT
BRANCH   5  13
ATOM     13  C   UNL     1     135.276 139.737 139.903  1.00  0.00    -0.014 C 
ATOM     14  C   UNL     1     134.505 139.981 141.210  1.00  0.00     0.007 C 
ATOM     15  C   UNL     1     136.632 139.081 140.235  1.00  0.00     0.007 C 
ENDBRANCH   5  13
TORSDOF 1
ENDMDL
MODEL 5
REMARK VINA RESULT:    -4.793      4.783      6.492
REMARK INTER + INTRA:          -5.323
REMARK INTER:                  -5.066
REMARK INTRA:                  -0.257
REMARK UNBOUND:                -0.249
REMARK SMILES CC(C)[C@@H]1CC[C@@H](C)[C@@H]2C=C[C@H](C)C[C@@H]21
REMARK SMILES IDX 8 1 7 2 6 3 5 4 4 5 15 6 9 7 10 8 11 9 12 10 14 11 13 12
REMARK SMILES IDX 2 13 1 14 3 15
REMARK H PARENT
REMARK Flexibility Score: inf
ROOT
ATOM      1  C   UNL     1     134.657 140.061 133.072  1.00  0.00     0.008 C 
ATOM      2  C   UNL     1     134.942 139.436 134.449  1.00  0.00    -0.007 C 
ATOM      3  C   UNL     1     133.606 139.065 135.119  1.00  0.00     0.004 C 
ATOM      4  C   UNL     1     133.825 138.441 136.498  1.00  0.00     0.004 C 
ATOM      5  C   UNL     1     134.605 139.403 137.419  1.00  0.00    -0.005 C 
ATOM      6  C   UNL     1     135.971 139.820 136.793  1.00  0.00    -0.000 C 
ATOM      7  C   UNL     1     135.772 140.391 135.359  1.00  0.00     0.018 C 
ATOM      8  C   UNL     1     137.102 140.724 134.715  1.00  0.00    -0.027 C 
ATOM      9  C   UNL     1     138.254 140.127 135.057  1.00  0.00    -0.028 C 
ATOM     10  C   UNL     1     138.390 139.238 136.272  1.00  0.00     0.008 C 
ATOM     11  C   UNL     1     137.038 138.705 136.785  1.00  0.00     0.012 C 
ATOM     12  C   UNL     1     139.346 138.078 135.972  1.00  0.00     0.012 C 
ENDROOT
BRANCH   5  13
ATOM     13  C   UNL     1     134.712 138.912 138.906  1.00  0.00    -0.014 C 
ATOM     14  C   UNL     1     135.276 140.020 139.811  1.00  0.00     0.007 C 
ATOM     15  C   UNL     1     133.389 138.397 139.509  1.00  0.00     0.007 C 
ENDBRANCH   5  13
TORSDOF 1
ENDMDL
MODEL 6
REMARK VINA RESULT:    -4.771      2.598      4.021
REMARK INTER + INTRA:          -5.299
REMARK INTER:                  -5.044
REMARK INTRA:                  -0.255
REMARK UNBOUND:                -0.249
REMARK SMILES CC(C)[C@@H]1CC[C@@H](C)[C@@H]2C=C[C@H](C)C[C@@H]21
REMARK SMILES IDX 8 1 7 2 6 3 5 4 4 5 15 6 9 7 10 8 11 9 12 10 14 11 13 12
REMARK SMILES IDX 2 13 1 14 3 15
REMARK H PARENT
REMARK Flexibility Score: inf
ROOT
ATOM      1  C   UNL     1     137.912 132.579 133.046  1.00  0.00     0.008 C 
ATOM      2  C   UNL     1     137.642 133.198 134.428  1.00  0.00    -0.007 C 
ATOM      3  C   UNL     1     138.985 133.572 135.084  1.00  0.00     0.004 C 
ATOM      4  C   UNL     1     138.781 134.191 136.466  1.00  0.00     0.004 C 
ATOM      5  C   UNL     1     138.015 133.223 137.394  1.00  0.00    -0.005 C 
ATOM      6  C   UNL     1     136.643 132.803 136.784  1.00  0.00    -0.000 C 
ATOM      7  C   UNL     1     136.827 132.238 135.345  1.00  0.00     0.018 C 
ATOM      8  C   UNL     1     135.490 131.902 134.716  1.00  0.00    -0.027 C 
ATOM      9  C   UNL     1     134.340 132.494 135.074  1.00  0.00    -0.028 C 
ATOM     10  C   UNL     1     134.215 133.379 136.293  1.00  0.00     0.008 C 
ATOM     11  C   UNL     1     135.572 133.915 136.792  1.00  0.00     0.012 C 
ATOM     12  C   UNL     1     133.252 134.536 136.009  1.00  0.00     0.012 C 
ENDROOT
BRANCH   5  13
ATOM     13  C   UNL     1     137.924 133.709 138.884  1.00  0.00    -0.014 C 
ATOM     14  C   UNL     1     137.351 132.606 139.787  1.00  0.00     0.007 C 
ATOM     15  C   UNL     1     139.258 134.204 139.480  1.00  0.00     0.007 C 
ENDBRANCH   5  13
TORSDOF 1
ENDMDL
MODEL 7
REMARK VINA RESULT:    -4.766      5.553      7.423
REMARK INTER + INTRA:          -5.294
REMARK INTER:                  -5.040
REMARK INTRA:                  -0.254
REMARK UNBOUND:                -0.249
REMARK SMILES CC(C)[C@@H]1CC[C@@H](C)[C@@H]2C=C[C@H](C)C[C@@H]21
REMARK SMILES IDX 8 1 7 2 6 3 5 4 4 5 15 6 9 7 10 8 11 9 12 10 14 11 13 12
REMARK SMILES IDX 2 13 1 14 3 15
REMARK H PARENT
REMARK Flexibility Score: inf
ROOT
ATOM      1  C   UNL     1     138.692 138.988 139.194  1.00  0.00     0.008 C 
ATOM      2  C   UNL     1     138.556 138.048 137.984  1.00  0.00    -0.007 C 
ATOM      3  C   UNL     1     138.776 136.596 138.449  1.00  0.00     0.004 C 
ATOM      4  C   UNL     1     138.657 135.611 137.285  1.00  0.00     0.004 C 
ATOM      5  C   UNL     1     139.673 135.948 136.173  1.00  0.00    -0.005 C 
ATOM      6  C   UNL     1     139.504 137.411 135.661  1.00  0.00    -0.000 C 
ATOM      7  C   UNL     1     139.550 138.421 136.844  1.00  0.00     0.018 C 
ATOM      8  C   UNL     1     139.307 139.837 136.362  1.00  0.00    -0.027 C 
ATOM      9  C   UNL     1     138.620 140.125 135.246  1.00  0.00    -0.028 C 
ATOM     10  C   UNL     1     138.221 139.078 134.232  1.00  0.00     0.008 C 
ATOM     11  C   UNL     1     138.243 137.645 134.802  1.00  0.00     0.012 C 
ATOM     12  C   UNL     1     136.841 139.404 133.650  1.00  0.00     0.012 C 
ENDROOT
BRANCH   5  13
ATOM     13  C   UNL     1     139.740 134.878 135.027  1.00  0.00    -0.014 C 
ATOM     14  C   UNL     1     140.915 135.162 134.078  1.00  0.00     0.007 C 
ATOM     15  C   UNL     1     139.832 133.418 135.517  1.00  0.00     0.007 C 
ENDBRANCH   5  13
TORSDOF 1
ENDMDL
MODEL 8
REMARK VINA RESULT:    -4.760      1.527      3.026
REMARK INTER + INTRA:          -5.288
REMARK INTER:                  -5.032
REMARK INTRA:                  -0.256
REMARK UNBOUND:                -0.249
REMARK SMILES CC(C)[C@@H]1CC[C@@H](C)[C@@H]2C=C[C@H](C)C[C@@H]21
REMARK SMILES IDX 8 1 7 2 6 3 5 4 4 5 15 6 9 7 10 8 11 9 12 10 14 11 13 12
REMARK SMILES IDX 2 13 1 14 3 15
REMARK H PARENT
REMARK Flexibility Score: inf
ROOT
ATOM      1  C   UNL     1     132.612 134.477 133.261  1.00  0.00     0.008 C 
ATOM      2  C   UNL     1     133.230 134.793 134.634  1.00  0.00    -0.007 C 
ATOM      3  C   UNL     1     133.584 133.471 135.341  1.00  0.00     0.004 C 
ATOM      4  C   UNL     1     134.201 133.720 136.718  1.00  0.00     0.004 C 
ATOM      5  C   UNL     1     133.240 134.533 137.612  1.00  0.00    -0.005 C 
ATOM      6  C   UNL     1     132.839 135.886 136.948  1.00  0.00    -0.000 C 
ATOM      7  C   UNL     1     132.277 135.654 135.515  1.00  0.00     0.018 C 
ATOM      8  C   UNL     1     131.960 136.970 134.834  1.00  0.00    -0.027 C 
ATOM      9  C   UNL     1     132.565 138.125 135.151  1.00  0.00    -0.028 C 
ATOM     10  C   UNL     1     133.448 138.286 136.368  1.00  0.00     0.008 C 
ATOM     11  C   UNL     1     133.964 136.943 136.920  1.00  0.00     0.012 C 
ATOM     12  C   UNL     1     134.618 139.223 136.051  1.00  0.00     0.012 C 
ENDROOT
BRANCH   5  13
ATOM     13  C   UNL     1     133.722 134.675 139.099  1.00  0.00    -0.014 C 
ATOM     14  C   UNL     1     132.617 135.283 139.978  1.00  0.00     0.007 C 
ATOM     15  C   UNL     1     134.209 133.361 139.744  1.00  0.00     0.007 C 
ENDBRANCH   5  13
TORSDOF 1
ENDMDL
MODEL 9
REMARK VINA RESULT:    -4.743      1.580      3.982
REMARK INTER + INTRA:          -5.269
REMARK INTER:                  -5.016
REMARK INTRA:                  -0.254
REMARK UNBOUND:                -0.249
REMARK SMILES CC(C)[C@@H]1CC[C@@H](C)[C@@H]2C=C[C@H](C)C[C@@H]21
REMARK SMILES IDX 8 1 7 2 6 3 5 4 4 5 15 6 9 7 10 8 11 9 12 10 14 11 13 12
REMARK SMILES IDX 2 13 1 14 3 15
REMARK H PARENT
REMARK Flexibility Score: inf
ROOT
ATOM      1  C   UNL     1     133.928 133.728 139.236  1.00  0.00     0.008 C 
ATOM      2  C   UNL     1     134.073 134.646 138.011  1.00  0.00    -0.007 C 
ATOM      3  C   UNL     1     133.882 136.109 138.454  1.00  0.00     0.004 C 
ATOM      4  C   UNL     1     134.011 137.074 137.274  1.00  0.00     0.004 C 
ATOM      5  C   UNL     1     132.982 136.738 136.174  1.00  0.00    -0.005 C 
ATOM      6  C   UNL     1     133.122 135.265 135.683  1.00  0.00    -0.000 C 
ATOM      7  C   UNL     1     133.066 134.274 136.882  1.00  0.00     0.018 C 
ATOM      8  C   UNL     1     133.281 132.847 136.421  1.00  0.00    -0.027 C 
ATOM      9  C   UNL     1     133.956 132.529 135.306  1.00  0.00    -0.028 C 
ATOM     10  C   UNL     1     134.367 133.554 134.272  1.00  0.00     0.008 C 
ATOM     11  C   UNL     1     134.374 134.994 134.820  1.00  0.00     0.012 C 
ATOM     12  C   UNL     1     135.737 133.194 133.688  1.00  0.00     0.012 C 
ENDROOT
BRANCH   5  13
ATOM     13  C   UNL     1     132.927 137.791 135.011  1.00  0.00    -0.014 C 
ATOM     14  C   UNL     1     131.746 137.509 134.070  1.00  0.00     0.007 C 
ATOM     15  C   UNL     1     132.857 139.260 135.479  1.00  0.00     0.007 C 
ENDBRANCH   5  13
TORSDOF 1
ENDMDL
