MODEL 1
REMARK VINA RESULT:    -6.296      0.000      0.000
REMARK INTER + INTRA:          -7.499
REMARK INTER:                  -7.217
REMARK INTRA:                  -0.282
REMARK UNBOUND:                -0.282
REMARK SMILES O=c1c(-c2ccc(O)cc2)coc2c(O)c(O)ccc12
REMARK SMILES IDX 3 1 11 2 12 3 13 4 20 5 2 6 1 7 19 8 18 9 16 10 14 11 4 12
REMARK SMILES IDX 5 13 6 14 7 15 10 16 9 17 8 18 15 20 17 22
REMARK H PARENT 8 19 15 21 17 23
REMARK Flexibility Score: inf
ROOT
ATOM      1  C   UNL     1      27.493   1.294  22.835  1.00  0.00     0.065 A 
ATOM      2  C   UNL     1      28.320   0.339  23.447  1.00  0.00     0.208 A 
ATOM      3  O   UNL     1      28.725  -0.739  22.786  1.00  0.00    -0.459 OA
ATOM      4  C   UNL     1      28.382  -0.982  21.524  1.00  0.00     0.183 A 
ATOM      5  C   UNL     1      27.556  -0.074  20.827  1.00  0.00     0.069 A 
ATOM      6  C   UNL     1      27.114   1.081  21.496  1.00  0.00     0.200 A 
ATOM      7  O   UNL     1      26.399   1.931  20.895  1.00  0.00    -0.288 OA
ATOM      8  C   UNL     1      27.206  -0.343  19.495  1.00  0.00     0.020 A 
ATOM      9  C   UNL     1      27.669  -1.500  18.868  1.00  0.00     0.051 A 
ATOM     10  C   UNL     1      28.486  -2.408  19.551  1.00  0.00     0.161 A 
ATOM     11  C   UNL     1      28.849  -2.147  20.894  1.00  0.00     0.201 A 
ENDROOT
BRANCH   1  12
ATOM     12  C   UNL     1      27.048   2.487  23.599  1.00  0.00    -0.011 A 
ATOM     13  C   UNL     1      27.863   3.630  23.663  1.00  0.00     0.013 A 
ATOM     14  C   UNL     1      27.450   4.753  24.389  1.00  0.00     0.047 A 
ATOM     15  C   UNL     1      26.221   4.743  25.062  1.00  0.00     0.115 A 
ATOM     16  C   UNL     1      25.819   2.482  24.283  1.00  0.00     0.013 A 
ATOM     17  C   UNL     1      25.410   3.606  25.007  1.00  0.00     0.047 A 
BRANCH  15  18
ATOM     18  O   UNL     1      25.800   5.855  25.788  1.00  0.00    -0.508 OA
ATOM     19  H   UNL     1      25.566   6.728  25.331  1.00  0.00     0.293 HD
ENDBRANCH  15  18
ENDBRANCH   1  12
BRANCH  11  20
ATOM     20  O   UNL     1      29.663  -3.011  21.632  1.00  0.00    -0.502 OA
ATOM     21  H   UNL     1      30.162  -3.795  21.236  1.00  0.00     0.293 HD
ENDBRANCH  11  20
BRANCH  10  22
ATOM     22  O   UNL     1      28.912  -3.545  18.860  1.00  0.00    -0.504 OA
ATOM     23  H   UNL     1      29.839  -3.661  18.479  1.00  0.00     0.293 HD
ENDBRANCH  10  22
TORSDOF 4
ENDMDL
MODEL 2
REMARK VINA RESULT:    -6.171     10.955     12.800
REMARK INTER + INTRA:          -7.355
REMARK INTER:                  -7.078
REMARK INTRA:                  -0.277
REMARK UNBOUND:                -0.282
REMARK SMILES O=c1c(-c2ccc(O)cc2)coc2c(O)c(O)ccc12
REMARK SMILES IDX 3 1 11 2 12 3 13 4 20 5 2 6 1 7 19 8 18 9 16 10 14 11 4 12
REMARK SMILES IDX 5 13 6 14 7 15 10 16 9 17 8 18 15 20 17 22
REMARK H PARENT 8 19 15 21 17 23
REMARK Flexibility Score: inf
ROOT
ATOM      1  C   UNL     1      22.129   5.669  31.076  1.00  0.00     0.065 A 
ATOM      2  C   UNL     1      23.075   5.999  30.092  1.00  0.00     0.208 A 
ATOM      3  O   UNL     1      22.787   6.870  29.133  1.00  0.00    -0.459 OA
ATOM      4  C   UNL     1      21.609   7.478  29.040  1.00  0.00     0.183 A 
ATOM      5  C   UNL     1      20.597   7.211  29.988  1.00  0.00     0.069 A 
ATOM      6  C   UNL     1      20.870   6.297  31.022  1.00  0.00     0.200 A 
ATOM      7  O   UNL     1      20.001   6.057  31.905  1.00  0.00    -0.288 OA
ATOM      8  C   UNL     1      19.359   7.864  29.879  1.00  0.00     0.020 A 
ATOM      9  C   UNL     1      19.131   8.766  28.840  1.00  0.00     0.051 A 
ATOM     10  C   UNL     1      20.126   9.036  27.893  1.00  0.00     0.161 A 
ATOM     11  C   UNL     1      21.380   8.386  27.993  1.00  0.00     0.201 A 
ENDROOT
BRANCH   1  12
ATOM     12  C   UNL     1      22.473   4.686  32.134  1.00  0.00    -0.011 A 
ATOM     13  C   UNL     1      23.176   5.096  33.280  1.00  0.00     0.013 A 
ATOM     14  C   UNL     1      23.509   4.170  34.275  1.00  0.00     0.047 A 
ATOM     15  C   UNL     1      23.147   2.824  34.133  1.00  0.00     0.115 A 
ATOM     16  C   UNL     1      22.120   3.332  31.996  1.00  0.00     0.013 A 
ATOM     17  C   UNL     1      22.454   2.410  32.992  1.00  0.00     0.047 A 
BRANCH  15  18
ATOM     18  O   UNL     1      23.472   1.894  35.117  1.00  0.00    -0.508 OA
ATOM     19  H   UNL     1      22.928   1.050  35.249  1.00  0.00     0.293 HD
ENDBRANCH  15  18
ENDBRANCH   1  12
BRANCH  11  20
ATOM     20  O   UNL     1      22.416   8.612  27.082  1.00  0.00    -0.502 OA
ATOM     21  H   UNL     1      23.207   9.213  27.263  1.00  0.00     0.293 HD
ENDBRANCH  11  20
BRANCH  10  22
ATOM     22  O   UNL     1      19.827   9.949  26.880  1.00  0.00    -0.504 OA
ATOM     23  H   UNL     1      19.399   9.698  26.001  1.00  0.00     0.293 HD
ENDBRANCH  10  22
TORSDOF 4
ENDMDL
MODEL 3
REMARK VINA RESULT:    -6.017      1.057      2.398
REMARK INTER + INTRA:          -7.179
REMARK INTER:                  -6.902
REMARK INTRA:                  -0.278
REMARK UNBOUND:                -0.282
REMARK SMILES O=c1c(-c2ccc(O)cc2)coc2c(O)c(O)ccc12
REMARK SMILES IDX 3 1 11 2 12 3 13 4 20 5 2 6 1 7 19 8 18 9 16 10 14 11 4 12
REMARK SMILES IDX 5 13 6 14 7 15 10 16 9 17 8 18 15 20 17 22
REMARK H PARENT 8 19 15 21 17 23
REMARK Flexibility Score: inf
ROOT
ATOM      1  C   UNL     1      27.313   1.195  22.199  1.00  0.00     0.065 A 
ATOM      2  C   UNL     1      26.748   1.191  20.915  1.00  0.00     0.208 A 
ATOM      3  O   UNL     1      26.992   0.202  20.064  1.00  0.00    -0.459 OA
ATOM      4  C   UNL     1      27.772  -0.832  20.364  1.00  0.00     0.183 A 
ATOM      5  C   UNL     1      28.381  -0.914  21.635  1.00  0.00     0.069 A 
ATOM      6  C   UNL     1      28.138   0.115  22.564  1.00  0.00     0.200 A 
ATOM      7  O   UNL     1      28.641   0.059  23.721  1.00  0.00    -0.288 OA
ATOM      8  C   UNL     1      29.199  -2.013  21.939  1.00  0.00     0.020 A 
ATOM      9  C   UNL     1      29.411  -3.013  20.990  1.00  0.00     0.051 A 
ATOM     10  C   UNL     1      28.814  -2.940  19.726  1.00  0.00     0.161 A 
ATOM     11  C   UNL     1      27.985  -1.838  19.408  1.00  0.00     0.201 A 
ENDROOT
BRANCH   1  12
ATOM     12  C   UNL     1      27.030   2.317  23.130  1.00  0.00    -0.011 A 
ATOM     13  C   UNL     1      25.857   2.316  23.905  1.00  0.00     0.013 A 
ATOM     14  C   UNL     1      25.584   3.376  24.776  1.00  0.00     0.047 A 
ATOM     15  C   UNL     1      26.476   4.451  24.878  1.00  0.00     0.115 A 
ATOM     16  C   UNL     1      27.917   3.404  23.233  1.00  0.00     0.013 A 
ATOM     17  C   UNL     1      27.641   4.461  24.105  1.00  0.00     0.047 A 
BRANCH  15  18
ATOM     18  O   UNL     1      26.215   5.511  25.743  1.00  0.00    -0.508 OA
ATOM     19  H   UNL     1      26.832   5.730  26.515  1.00  0.00     0.293 HD
ENDBRANCH  15  18
ENDBRANCH   1  12
BRANCH  11  20
ATOM     20  O   UNL     1      27.359  -1.705  18.165  1.00  0.00    -0.502 OA
ATOM     21  H   UNL     1      27.776  -1.248  17.367  1.00  0.00     0.293 HD
ENDBRANCH  11  20
BRANCH  10  22
ATOM     22  O   UNL     1      29.071  -3.977  18.826  1.00  0.00    -0.504 OA
ATOM     23  H   UNL     1      28.437  -4.260  18.094  1.00  0.00     0.293 HD
ENDBRANCH  10  22
TORSDOF 4
ENDMDL
MODEL 4
REMARK VINA RESULT:    -5.980      1.924      7.154
REMARK INTER + INTRA:          -7.136
REMARK INTER:                  -6.851
REMARK INTRA:                  -0.286
REMARK UNBOUND:                -0.282
REMARK SMILES O=c1c(-c2ccc(O)cc2)coc2c(O)c(O)ccc12
REMARK SMILES IDX 3 1 11 2 12 3 13 4 20 5 2 6 1 7 19 8 18 9 16 10 14 11 4 12
REMARK SMILES IDX 5 13 6 14 7 15 10 16 9 17 8 18 15 20 17 22
REMARK H PARENT 8 19 15 21 17 23
REMARK Flexibility Score: inf
ROOT
ATOM      1  C   UNL     1      27.957   1.613  22.776  1.00  0.00     0.065 A 
ATOM      2  C   UNL     1      26.654   1.262  23.161  1.00  0.00     0.208 A 
ATOM      3  O   UNL     1      25.900   2.099  23.864  1.00  0.00    -0.459 OA
ATOM      4  C   UNL     1      26.320   3.302  24.244  1.00  0.00     0.183 A 
ATOM      5  C   UNL     1      27.616   3.742  23.898  1.00  0.00     0.069 A 
ATOM      6  C   UNL     1      28.439   2.882  23.147  1.00  0.00     0.200 A 
ATOM      7  O   UNL     1      29.592   3.254  22.793  1.00  0.00    -0.288 OA
ATOM      8  C   UNL     1      28.044   5.016  24.302  1.00  0.00     0.020 A 
ATOM      9  C   UNL     1      27.194   5.838  25.043  1.00  0.00     0.051 A 
ATOM     10  C   UNL     1      25.908   5.411  25.393  1.00  0.00     0.161 A 
ATOM     11  C   UNL     1      25.464   4.129  24.989  1.00  0.00     0.201 A 
ENDROOT
BRANCH   1  12
ATOM     12  C   UNL     1      28.782   0.656  21.996  1.00  0.00    -0.011 A 
ATOM     13  C   UNL     1      28.727   0.655  20.591  1.00  0.00     0.013 A 
ATOM     14  C   UNL     1      29.497  -0.251  19.854  1.00  0.00     0.047 A 
ATOM     15  C   UNL     1      30.325  -1.169  20.511  1.00  0.00     0.115 A 
ATOM     16  C   UNL     1      29.610  -0.274  22.648  1.00  0.00     0.013 A 
ATOM     17  C   UNL     1      30.378  -1.178  21.909  1.00  0.00     0.047 A 
BRANCH  15  18
ATOM     18  O   UNL     1      31.096  -2.076  19.787  1.00  0.00    -0.508 OA
ATOM     19  H   UNL     1      32.027  -2.338  20.088  1.00  0.00     0.293 HD
ENDBRANCH  15  18
ENDBRANCH   1  12
BRANCH  11  20
ATOM     20  O   UNL     1      24.192   3.643  25.305  1.00  0.00    -0.502 OA
ATOM     21  H   UNL     1      23.996   2.679  25.539  1.00  0.00     0.293 HD
ENDBRANCH  11  20
BRANCH  10  22
ATOM     22  O   UNL     1      25.113   6.287  26.136  1.00  0.00    -0.504 OA
ATOM     23  H   UNL     1      25.412   7.201  26.441  1.00  0.00     0.293 HD
ENDBRANCH  10  22
TORSDOF 4
ENDMDL
MODEL 5
REMARK VINA RESULT:    -5.841      1.745      7.147
REMARK INTER + INTRA:          -6.977
REMARK INTER:                  -6.697
REMARK INTRA:                  -0.280
REMARK UNBOUND:                -0.282
REMARK SMILES O=c1c(-c2ccc(O)cc2)coc2c(O)c(O)ccc12
REMARK SMILES IDX 3 1 11 2 12 3 13 4 20 5 2 6 1 7 19 8 18 9 16 10 14 11 4 12
REMARK SMILES IDX 5 13 6 14 7 15 10 16 9 17 8 18 15 20 17 22
REMARK H PARENT 8 19 15 21 17 23
REMARK Flexibility Score: inf
ROOT
ATOM      1  C   UNL     1      28.516   1.866  22.708  1.00  0.00     0.065 A 
ATOM      2  C   UNL     1      29.184   3.098  22.777  1.00  0.00     0.208 A 
ATOM      3  O   UNL     1      28.657   4.125  23.433  1.00  0.00    -0.459 OA
ATOM      4  C   UNL     1      27.485   4.058  24.056  1.00  0.00     0.183 A 
ATOM      5  C   UNL     1      26.743   2.857  24.043  1.00  0.00     0.069 A 
ATOM      6  C   UNL     1      27.275   1.747  23.363  1.00  0.00     0.200 A 
ATOM      7  O   UNL     1      26.655   0.647  23.356  1.00  0.00    -0.288 OA
ATOM      8  C   UNL     1      25.509   2.800  24.709  1.00  0.00     0.020 A 
ATOM      9  C   UNL     1      25.019   3.924  25.375  1.00  0.00     0.051 A 
ATOM     10  C   UNL     1      25.745   5.120  25.392  1.00  0.00     0.161 A 
ATOM     11  C   UNL     1      26.992   5.190  24.726  1.00  0.00     0.201 A 
ENDROOT
BRANCH   1  12
ATOM     12  C   UNL     1      29.123   0.735  21.962  1.00  0.00    -0.011 A 
ATOM     13  C   UNL     1      28.852   0.562  20.593  1.00  0.00     0.013 A 
ATOM     14  C   UNL     1      29.416  -0.508  19.891  1.00  0.00     0.047 A 
ATOM     15  C   UNL     1      30.253  -1.419  20.548  1.00  0.00     0.115 A 
ATOM     16  C   UNL     1      29.958  -0.189  22.616  1.00  0.00     0.013 A 
ATOM     17  C   UNL     1      30.520  -1.256  21.911  1.00  0.00     0.047 A 
BRANCH  15  18
ATOM     18  O   UNL     1      30.820  -2.488  19.858  1.00  0.00    -0.508 OA
ATOM     19  H   UNL     1      31.728  -2.411  19.416  1.00  0.00     0.293 HD
ENDBRANCH  15  18
ENDBRANCH   1  12
BRANCH  11  20
ATOM     20  O   UNL     1      27.767   6.353  24.706  1.00  0.00    -0.502 OA
ATOM     21  H   UNL     1      27.403   7.273  24.498  1.00  0.00     0.293 HD
ENDBRANCH  11  20
BRANCH  10  22
ATOM     22  O   UNL     1      25.193   6.205  26.078  1.00  0.00    -0.504 OA
ATOM     23  H   UNL     1      25.309   7.168  25.799  1.00  0.00     0.293 HD
ENDBRANCH  10  22
TORSDOF 4
ENDMDL
MODEL 6
REMARK VINA RESULT:    -5.759     11.592     13.507
REMARK INTER + INTRA:          -6.883
REMARK INTER:                  -6.601
REMARK INTRA:                  -0.282
REMARK UNBOUND:                -0.282
REMARK SMILES O=c1c(-c2ccc(O)cc2)coc2c(O)c(O)ccc12
REMARK SMILES IDX 3 1 11 2 12 3 13 4 20 5 2 6 1 7 19 8 18 9 16 10 14 11 4 12
REMARK SMILES IDX 5 13 6 14 7 15 10 16 9 17 8 18 15 20 17 22
REMARK H PARENT 8 19 15 21 17 23
REMARK Flexibility Score: inf
ROOT
ATOM      1  C   UNL     1      21.391   4.838  32.254  1.00  0.00     0.065 A 
ATOM      2  C   UNL     1      20.058   5.118  32.594  1.00  0.00     0.208 A 
ATOM      3  O   UNL     1      19.365   6.040  31.938  1.00  0.00    -0.459 OA
ATOM      4  C   UNL     1      19.875   6.749  30.935  1.00  0.00     0.183 A 
ATOM      5  C   UNL     1      21.208   6.532  30.521  1.00  0.00     0.069 A 
ATOM      6  C   UNL     1      21.969   5.557  31.190  1.00  0.00     0.200 A 
ATOM      7  O   UNL     1      23.154   5.315  30.828  1.00  0.00    -0.288 OA
ATOM      8  C   UNL     1      21.731   7.284  29.458  1.00  0.00     0.020 A 
ATOM      9  C   UNL     1      20.940   8.240  28.819  1.00  0.00     0.051 A 
ATOM     10  C   UNL     1      19.619   8.464  29.223  1.00  0.00     0.161 A 
ATOM     11  C   UNL     1      19.078   7.710  30.292  1.00  0.00     0.201 A 
ENDROOT
BRANCH   1  12
ATOM     12  C   UNL     1      22.147   3.806  33.008  1.00  0.00    -0.011 A 
ATOM     13  C   UNL     1      22.911   4.167  34.131  1.00  0.00     0.013 A 
ATOM     14  C   UNL     1      23.632   3.198  34.838  1.00  0.00     0.047 A 
ATOM     15  C   UNL     1      23.600   1.859  34.427  1.00  0.00     0.115 A 
ATOM     16  C   UNL     1      22.127   2.461  32.598  1.00  0.00     0.013 A 
ATOM     17  C   UNL     1      22.847   1.495  33.306  1.00  0.00     0.047 A 
BRANCH  15  18
ATOM     18  O   UNL     1      24.313   0.886  35.123  1.00  0.00    -0.508 OA
ATOM     19  H   UNL     1      25.014   0.314  34.667  1.00  0.00     0.293 HD
ENDBRANCH  15  18
ENDBRANCH   1  12
BRANCH  11  20
ATOM     20  O   UNL     1      17.767   7.883  30.744  1.00  0.00    -0.502 OA
ATOM     21  H   UNL     1      17.428   7.558  31.638  1.00  0.00     0.293 HD
ENDBRANCH  11  20
BRANCH  10  22
ATOM     22  O   UNL     1      18.887   9.437  28.539  1.00  0.00    -0.504 OA
ATOM     23  H   UNL     1      18.696   9.408  27.548  1.00  0.00     0.293 HD
ENDBRANCH  10  22
TORSDOF 4
ENDMDL
MODEL 7
REMARK VINA RESULT:    -5.758     11.115     12.704
REMARK INTER + INTRA:          -6.882
REMARK INTER:                  -7.024
REMARK INTRA:                   0.141
REMARK UNBOUND:                -0.282
REMARK SMILES O=c1c(-c2ccc(O)cc2)coc2c(O)c(O)ccc12
REMARK SMILES IDX 3 1 11 2 12 3 13 4 20 5 2 6 1 7 19 8 18 9 16 10 14 11 4 12
REMARK SMILES IDX 5 13 6 14 7 15 10 16 9 17 8 18 15 20 17 22
REMARK H PARENT 8 19 15 21 17 23
REMARK Flexibility Score: inf
ROOT
ATOM      1  C   UNL     1      23.437   7.376  30.782  1.00  0.00     0.065 A 
ATOM      2  C   UNL     1      24.024   7.661  29.539  1.00  0.00     0.208 A 
ATOM      3  O   UNL     1      23.288   8.075  28.515  1.00  0.00    -0.459 OA
ATOM      4  C   UNL     1      21.972   8.245  28.594  1.00  0.00     0.183 A 
ATOM      5  C   UNL     1      21.297   7.987  29.807  1.00  0.00     0.069 A 
ATOM      6  C   UNL     1      22.047   7.553  30.915  1.00  0.00     0.200 A 
ATOM      7  O   UNL     1      21.481   7.342  32.024  1.00  0.00    -0.288 OA
ATOM      8  C   UNL     1      19.907   8.176  29.877  1.00  0.00     0.020 A 
ATOM      9  C   UNL     1      19.202   8.611  28.755  1.00  0.00     0.051 A 
ATOM     10  C   UNL     1      19.861   8.867  27.548  1.00  0.00     0.161 A 
ATOM     11  C   UNL     1      21.262   8.683  27.464  1.00  0.00     0.201 A 
ENDROOT
BRANCH   1  12
ATOM     12  C   UNL     1      24.281   6.908  31.910  1.00  0.00    -0.011 A 
ATOM     13  C   UNL     1      23.855   5.839  32.718  1.00  0.00     0.013 A 
ATOM     14  C   UNL     1      24.645   5.402  33.787  1.00  0.00     0.047 A 
ATOM     15  C   UNL     1      25.865   6.030  34.064  1.00  0.00     0.115 A 
ATOM     16  C   UNL     1      25.505   7.538  32.199  1.00  0.00     0.013 A 
ATOM     17  C   UNL     1      26.291   7.098  33.268  1.00  0.00     0.047 A 
BRANCH  15  18
ATOM     18  O   UNL     1      26.660   5.603  35.125  1.00  0.00    -0.508 OA
ATOM     19  H   UNL     1      26.471   5.891  36.077  1.00  0.00     0.293 HD
ENDBRANCH  15  18
ENDBRANCH   1  12
BRANCH  11  20
ATOM     20  O   UNL     1      21.981   8.922  26.290  1.00  0.00    -0.502 OA
ATOM     21  H   UNL     1      21.617   9.432  25.497  1.00  0.00     0.293 HD
ENDBRANCH  11  20
BRANCH  10  22
ATOM     22  O   UNL     1      19.091   9.299  26.465  1.00  0.00    -0.504 OA
ATOM     23  H   UNL     1      18.204   8.893  26.205  1.00  0.00     0.293 HD
ENDBRANCH  10  22
TORSDOF 4
ENDMDL
MODEL 8
REMARK VINA RESULT:    -5.726     11.812     12.787
REMARK INTER + INTRA:          -6.845
REMARK INTER:                  -6.647
REMARK INTRA:                  -0.198
REMARK UNBOUND:                -0.282
REMARK SMILES O=c1c(-c2ccc(O)cc2)coc2c(O)c(O)ccc12
REMARK SMILES IDX 3 1 11 2 12 3 13 4 20 5 2 6 1 7 19 8 18 9 16 10 14 11 4 12
REMARK SMILES IDX 5 13 6 14 7 15 10 16 9 17 8 18 15 20 17 22
REMARK H PARENT 8 19 15 21 17 23
REMARK Flexibility Score: inf
ROOT
ATOM      1  C   UNL     1      21.696   7.607  30.043  1.00  0.00     0.065 A 
ATOM      2  C   UNL     1      21.287   6.411  30.654  1.00  0.00     0.208 A 
ATOM      3  O   UNL     1      22.048   5.814  31.564  1.00  0.00    -0.459 OA
ATOM      4  C   UNL     1      23.225   6.297  31.950  1.00  0.00     0.183 A 
ATOM      5  C   UNL     1      23.715   7.498  31.392  1.00  0.00     0.069 A 
ATOM      6  C   UNL     1      22.931   8.161  30.430  1.00  0.00     0.200 A 
ATOM      7  O   UNL     1      23.322   9.253  29.932  1.00  0.00    -0.288 OA
ATOM      8  C   UNL     1      24.957   7.999  31.813  1.00  0.00     0.020 A 
ATOM      9  C   UNL     1      25.701   7.311  32.772  1.00  0.00     0.051 A 
ATOM     10  C   UNL     1      25.226   6.119  33.330  1.00  0.00     0.161 A 
ATOM     11  C   UNL     1      23.974   5.605  32.916  1.00  0.00     0.201 A 
ENDROOT
BRANCH   1  12
ATOM     12  C   UNL     1      20.829   8.251  29.024  1.00  0.00    -0.011 A 
ATOM     13  C   UNL     1      19.626   8.870  29.406  1.00  0.00     0.013 A 
ATOM     14  C   UNL     1      18.804   9.470  28.447  1.00  0.00     0.047 A 
ATOM     15  C   UNL     1      19.172   9.455  27.096  1.00  0.00     0.115 A 
ATOM     16  C   UNL     1      21.188   8.234  27.665  1.00  0.00     0.013 A 
ATOM     17  C   UNL     1      20.364   8.835  26.709  1.00  0.00     0.047 A 
BRANCH  15  18
ATOM     18  O   UNL     1      18.361  10.051  26.132  1.00  0.00    -0.508 OA
ATOM     19  H   UNL     1      17.370  10.189  26.286  1.00  0.00     0.293 HD
ENDBRANCH  15  18
ENDBRANCH   1  12
BRANCH  11  20
ATOM     20  O   UNL     1      23.441   4.421  33.433  1.00  0.00    -0.502 OA
ATOM     21  H   UNL     1      22.893   4.369  34.281  1.00  0.00     0.293 HD
ENDBRANCH  11  20
BRANCH  10  22
ATOM     22  O   UNL     1      26.025   5.485  34.284  1.00  0.00    -0.504 OA
ATOM     23  H   UNL     1      26.465   4.587  34.146  1.00  0.00     0.293 HD
ENDBRANCH  10  22
TORSDOF 4
ENDMDL
