MODEL 1
REMARK VINA RESULT:    -4.381      0.000      0.000
REMARK INTER + INTRA:          -4.733
REMARK INTER:                  -4.637
REMARK INTRA:                  -0.096
REMARK UNBOUND:                -0.096
REMARK SMILES C=C(C)[C@H]1CC=C(C)C(=O)C1
REMARK SMILES IDX 8 1 7 2 6 3 5 4 4 5 11 6 9 7 10 8 2 9 1 10 3 11
REMARK H PARENT
REMARK Flexibility Score: inf
ROOT
ATOM      1  C   UNL     1      69.634  68.099  44.609  1.00  0.00     0.048 C 
ATOM      2  C   UNL     1      68.796  67.749  43.410  1.00  0.00    -0.012 C 
ATOM      3  C   UNL     1      68.594  66.461  43.088  1.00  0.00    -0.019 C 
ATOM      4  C   UNL     1      67.778  66.055  41.888  1.00  0.00     0.036 C 
ATOM      5  C   UNL     1      66.648  67.067  41.619  1.00  0.00     0.025 C 
ATOM      6  C   UNL     1      67.223  68.488  41.480  1.00  0.00     0.089 C 
ATOM      7  C   UNL     1      68.097  68.822  42.659  1.00  0.00     0.158 C 
ATOM      8  O   UNL     1      68.257  70.030  42.981  1.00  0.00    -0.295 OA
ENDROOT
BRANCH   5   9
ATOM      9  C   UNL     1      65.821  66.674  40.401  1.00  0.00    -0.077 C 
ATOM     10  C   UNL     1      66.144  65.607  39.651  1.00  0.00     0.008 C 
ATOM     11  C   UNL     1      64.612  67.487  40.015  1.00  0.00     0.039 C 
ENDBRANCH   5   9
TORSDOF 1
ENDMDL
MODEL 2
REMARK VINA RESULT:    -4.294     14.965     16.080
REMARK INTER + INTRA:          -4.641
REMARK INTER:                  -4.549
REMARK INTRA:                  -0.093
REMARK UNBOUND:                -0.096
REMARK SMILES C=C(C)[C@H]1CC=C(C)C(=O)C1
REMARK SMILES IDX 8 1 7 2 6 3 5 4 4 5 11 6 9 7 10 8 2 9 1 10 3 11
REMARK H PARENT
REMARK Flexibility Score: inf
ROOT
ATOM      1  C   UNL     1      52.255  63.916  37.078  1.00  0.00     0.048 C 
ATOM      2  C   UNL     1      52.614  65.035  36.139  1.00  0.00    -0.012 C 
ATOM      3  C   UNL     1      51.899  66.172  36.150  1.00  0.00    -0.019 C 
ATOM      4  C   UNL     1      52.204  67.317  35.220  1.00  0.00     0.036 C 
ATOM      5  C   UNL     1      53.713  67.400  34.920  1.00  0.00     0.025 C 
ATOM      6  C   UNL     1      54.224  66.054  34.375  1.00  0.00     0.089 C 
ATOM      7  C   UNL     1      53.828  64.928  35.292  1.00  0.00     0.158 C 
ATOM      8  O   UNL     1      54.522  63.876  35.307  1.00  0.00    -0.295 OA
ENDROOT
BRANCH   5   9
ATOM      9  C   UNL     1      54.034  68.548  33.971  1.00  0.00    -0.077 C 
ATOM     10  C   UNL     1      55.235  69.151  33.985  1.00  0.00     0.008 C 
ATOM     11  C   UNL     1      52.997  69.029  32.989  1.00  0.00     0.039 C 
ENDBRANCH   5   9
TORSDOF 1
ENDMDL
MODEL 3
REMARK VINA RESULT:    -4.215     14.791     16.145
REMARK INTER + INTRA:          -4.558
REMARK INTER:                  -4.463
REMARK INTRA:                  -0.095
REMARK UNBOUND:                -0.096
REMARK SMILES C=C(C)[C@H]1CC=C(C)C(=O)C1
REMARK SMILES IDX 8 1 7 2 6 3 5 4 4 5 11 6 9 7 10 8 2 9 1 10 3 11
REMARK H PARENT
REMARK Flexibility Score: inf
ROOT
ATOM      1  C   UNL     1      54.741  71.230  31.848  1.00  0.00     0.048 C 
ATOM      2  C   UNL     1      54.269  70.132  32.760  1.00  0.00    -0.012 C 
ATOM      3  C   UNL     1      52.991  69.722  32.707  1.00  0.00    -0.019 C 
ATOM      4  C   UNL     1      52.461  68.639  33.609  1.00  0.00     0.036 C 
ATOM      5  C   UNL     1      53.553  67.600  33.929  1.00  0.00     0.025 C 
ATOM      6  C   UNL     1      54.795  68.295  34.518  1.00  0.00     0.089 C 
ATOM      7  C   UNL     1      55.242  69.422  33.628  1.00  0.00     0.158 C 
ATOM      8  O   UNL     1      56.450  69.782  33.652  1.00  0.00    -0.295 OA
ENDROOT
BRANCH   5   9
ATOM      9  C   UNL     1      53.033  66.504  34.850  1.00  0.00    -0.077 C 
ATOM     10  C   UNL     1      52.070  66.749  35.755  1.00  0.00     0.008 C 
ATOM     11  C   UNL     1      53.599  65.110  34.759  1.00  0.00     0.039 C 
ENDBRANCH   5   9
TORSDOF 1
ENDMDL
MODEL 4
REMARK VINA RESULT:    -4.149     11.547     12.984
REMARK INTER + INTRA:          -4.488
REMARK INTER:                  -4.397
REMARK INTRA:                  -0.091
REMARK UNBOUND:                -0.096
REMARK SMILES C=C(C)[C@H]1CC=C(C)C(=O)C1
REMARK SMILES IDX 8 1 7 2 6 3 5 4 4 5 11 6 9 7 10 8 2 9 1 10 3 11
REMARK H PARENT
REMARK Flexibility Score: inf
ROOT
ATOM      1  C   UNL     1      69.595  72.046  27.288  1.00  0.00     0.048 C 
ATOM      2  C   UNL     1      69.574  71.194  28.528  1.00  0.00    -0.012 C 
ATOM      3  C   UNL     1      69.488  71.774  29.737  1.00  0.00    -0.019 C 
ATOM      4  C   UNL     1      69.481  70.970  31.010  1.00  0.00     0.036 C 
ATOM      5  C   UNL     1      68.798  69.605  30.799  1.00  0.00     0.025 C 
ATOM      6  C   UNL     1      69.464  68.848  29.635  1.00  0.00     0.089 C 
ATOM      7  C   UNL     1      69.524  69.716  28.407  1.00  0.00     0.158 C 
ATOM      8  O   UNL     1      69.568  69.169  27.272  1.00  0.00    -0.295 OA
ENDROOT
BRANCH   5   9
ATOM      9  C   UNL     1      68.794  68.776  32.077  1.00  0.00    -0.077 C 
ATOM     10  C   UNL     1      67.726  68.038  32.429  1.00  0.00     0.008 C 
ATOM     11  C   UNL     1      70.002  68.770  32.978  1.00  0.00     0.039 C 
ENDBRANCH   5   9
TORSDOF 1
ENDMDL
MODEL 5
REMARK VINA RESULT:    -4.144      1.386      2.267
REMARK INTER + INTRA:          -4.482
REMARK INTER:                  -4.387
REMARK INTRA:                  -0.095
REMARK UNBOUND:                -0.096
REMARK SMILES C=C(C)[C@H]1CC=C(C)C(=O)C1
REMARK SMILES IDX 8 1 7 2 6 3 5 4 4 5 11 6 9 7 10 8 2 9 1 10 3 11
REMARK H PARENT
REMARK Flexibility Score: inf
ROOT
ATOM      1  C   UNL     1      69.880  69.198  44.258  1.00  0.00     0.048 C 
ATOM      2  C   UNL     1      68.811  68.562  43.413  1.00  0.00    -0.012 C 
ATOM      3  C   UNL     1      68.250  69.258  42.410  1.00  0.00    -0.019 C 
ATOM      4  C   UNL     1      67.163  68.676  41.544  1.00  0.00     0.036 C 
ATOM      5  C   UNL     1      67.345  67.156  41.373  1.00  0.00     0.025 C 
ATOM      6  C   UNL     1      67.426  66.469  42.748  1.00  0.00     0.089 C 
ATOM      7  C   UNL     1      68.466  67.132  43.610  1.00  0.00     0.158 C 
ATOM      8  O   UNL     1      69.017  66.467  44.528  1.00  0.00    -0.295 OA
ENDROOT
BRANCH   5   9
ATOM      9  C   UNL     1      66.246  66.552  40.508  1.00  0.00    -0.077 C 
ATOM     10  C   UNL     1      65.065  67.173  40.344  1.00  0.00     0.008 C 
ATOM     11  C   UNL     1      66.471  65.234  39.812  1.00  0.00     0.039 C 
ENDBRANCH   5   9
TORSDOF 1
ENDMDL
MODEL 6
REMARK VINA RESULT:    -4.133      1.655      2.112
REMARK INTER + INTRA:          -4.471
REMARK INTER:                  -4.382
REMARK INTRA:                  -0.089
REMARK UNBOUND:                -0.096
REMARK SMILES C=C(C)[C@H]1CC=C(C)C(=O)C1
REMARK SMILES IDX 8 1 7 2 6 3 5 4 4 5 11 6 9 7 10 8 2 9 1 10 3 11
REMARK H PARENT
REMARK Flexibility Score: inf
ROOT
ATOM      1  C   UNL     1      69.605  70.129  42.964  1.00  0.00     0.048 C 
ATOM      2  C   UNL     1      68.696  69.150  42.274  1.00  0.00    -0.012 C 
ATOM      3  C   UNL     1      67.711  68.551  42.963  1.00  0.00    -0.019 C 
ATOM      4  C   UNL     1      66.784  67.550  42.326  1.00  0.00     0.036 C 
ATOM      5  C   UNL     1      66.543  67.884  40.841  1.00  0.00     0.025 C 
ATOM      6  C   UNL     1      67.885  67.996  40.094  1.00  0.00     0.089 C 
ATOM      7  C   UNL     1      68.811  68.942  40.809  1.00  0.00     0.158 C 
ATOM      8  O   UNL     1      69.712  69.532  40.152  1.00  0.00    -0.295 OA
ENDROOT
BRANCH   5   9
ATOM      9  C   UNL     1      65.615  66.873  40.181  1.00  0.00    -0.077 C 
ATOM     10  C   UNL     1      64.302  67.120  40.036  1.00  0.00     0.008 C 
ATOM     11  C   UNL     1      66.163  65.565  39.672  1.00  0.00     0.039 C 
ENDBRANCH   5   9
TORSDOF 1
ENDMDL
MODEL 7
REMARK VINA RESULT:    -4.127      9.699     11.409
REMARK INTER + INTRA:          -4.464
REMARK INTER:                  -4.367
REMARK INTRA:                  -0.097
REMARK UNBOUND:                -0.096
REMARK SMILES C=C(C)[C@H]1CC=C(C)C(=O)C1
REMARK SMILES IDX 8 1 7 2 6 3 5 4 4 5 11 6 9 7 10 8 2 9 1 10 3 11
REMARK H PARENT
REMARK Flexibility Score: inf
ROOT
ATOM      1  C   UNL     1      67.645  66.841  34.411  1.00  0.00     0.048 C 
ATOM      2  C   UNL     1      67.597  67.133  32.937  1.00  0.00    -0.012 C 
ATOM      3  C   UNL     1      68.321  68.145  32.431  1.00  0.00    -0.019 C 
ATOM      4  C   UNL     1      68.296  68.491  30.966  1.00  0.00     0.036 C 
ATOM      5  C   UNL     1      68.089  67.232  30.102  1.00  0.00     0.025 C 
ATOM      6  C   UNL     1      66.820  66.482  30.546  1.00  0.00     0.089 C 
ATOM      7  C   UNL     1      66.848  66.228  32.029  1.00  0.00     0.158 C 
ATOM      8  O   UNL     1      66.196  65.256  32.498  1.00  0.00    -0.295 OA
ENDROOT
BRANCH   5   9
ATOM      9  C   UNL     1      68.051  67.570  28.617  1.00  0.00    -0.077 C 
ATOM     10  C   UNL     1      67.160  66.994  27.792  1.00  0.00     0.008 C 
ATOM     11  C   UNL     1      69.024  68.568  28.044  1.00  0.00     0.039 C 
ENDBRANCH   5   9
TORSDOF 1
ENDMDL
MODEL 8
REMARK VINA RESULT:    -4.090      2.128      4.730
REMARK INTER + INTRA:          -4.426
REMARK INTER:                  -4.336
REMARK INTRA:                  -0.090
REMARK UNBOUND:                -0.096
REMARK SMILES C=C(C)[C@H]1CC=C(C)C(=O)C1
REMARK SMILES IDX 8 1 7 2 6 3 5 4 4 5 11 6 9 7 10 8 2 9 1 10 3 11
REMARK H PARENT
REMARK Flexibility Score: inf
ROOT
ATOM      1  C   UNL     1      64.658  67.235  39.985  1.00  0.00     0.048 C 
ATOM      2  C   UNL     1      65.989  67.174  40.682  1.00  0.00    -0.012 C 
ATOM      3  C   UNL     1      66.382  68.195  41.463  1.00  0.00    -0.019 C 
ATOM      4  C   UNL     1      67.711  68.194  42.170  1.00  0.00     0.036 C 
ATOM      5  C   UNL     1      68.129  66.764  42.564  1.00  0.00     0.025 C 
ATOM      6  C   UNL     1      68.125  65.846  41.328  1.00  0.00     0.089 C 
ATOM      7  C   UNL     1      66.808  65.939  40.605  1.00  0.00     0.158 C 
ATOM      8  O   UNL     1      66.425  64.966  39.902  1.00  0.00    -0.295 OA
ENDROOT
BRANCH   5   9
ATOM      9  C   UNL     1      69.478  66.748  43.271  1.00  0.00    -0.077 C 
ATOM     10  C   UNL     1      69.591  67.077  44.569  1.00  0.00     0.008 C 
ATOM     11  C   UNL     1      70.722  66.355  42.516  1.00  0.00     0.039 C 
ENDBRANCH   5   9
TORSDOF 1
ENDMDL
MODEL 9
REMARK VINA RESULT:    -4.061     12.257     13.566
REMARK INTER + INTRA:          -4.394
REMARK INTER:                  -4.301
REMARK INTRA:                  -0.093
REMARK UNBOUND:                -0.096
REMARK SMILES C=C(C)[C@H]1CC=C(C)C(=O)C1
REMARK SMILES IDX 8 1 7 2 6 3 5 4 4 5 11 6 9 7 10 8 2 9 1 10 3 11
REMARK H PARENT
REMARK Flexibility Score: inf
ROOT
ATOM      1  C   UNL     1      68.541  68.310  32.218  1.00  0.00     0.048 C 
ATOM      2  C   UNL     1      68.810  69.122  30.981  1.00  0.00    -0.012 C 
ATOM      3  C   UNL     1      69.117  70.426  31.091  1.00  0.00    -0.019 C 
ATOM      4  C   UNL     1      69.378  71.289  29.885  1.00  0.00     0.036 C 
ATOM      5  C   UNL     1      70.025  70.474  28.748  1.00  0.00     0.025 C 
ATOM      6  C   UNL     1      69.159  69.246  28.411  1.00  0.00     0.089 C 
ATOM      7  C   UNL     1      68.854  68.457  29.655  1.00  0.00     0.158 C 
ATOM      8  O   UNL     1      68.600  67.226  29.554  1.00  0.00    -0.295 OA
ENDROOT
BRANCH   5   9
ATOM      9  C   UNL     1      70.284  71.333  27.518  1.00  0.00    -0.077 C 
ATOM     10  C   UNL     1      69.317  72.097  26.982  1.00  0.00     0.008 C 
ATOM     11  C   UNL     1      71.648  71.340  26.875  1.00  0.00     0.039 C 
ENDBRANCH   5   9
TORSDOF 1
ENDMDL
