MODEL 1
REMARK VINA RESULT:    -4.412      0.000      0.000
REMARK INTER + INTRA:          -7.038
REMARK INTER:                  -6.733
REMARK INTRA:                  -0.305
REMARK UNBOUND:                -0.305
REMARK SMILES CC1=CCC[C@H](C)C(=O)C[C@H](C(C)C)C(=O)C1
REMARK SMILES IDX 8 1 9 2 6 3 7 4 5 5 4 6 3 7 2 8 1 9 10 11 11 12 15 13 16 14
REMARK SMILES IDX 17 15 12 17 13 18 14 19
REMARK H PARENT
REMARK Flexibility Score: 70.00
ROOT
ATOM      1  C   UNL     1      13.960 -32.502  20.943  1.00  0.00     0.136 C 
ATOM      2  O   UNL     1      13.597 -32.616  19.780  1.00  0.00    -0.299 OA
ENDROOT
BRANCH   1   3
ATOM      3  C   UNL     1      13.508 -31.296  21.744  1.00  0.00     0.053 C 
ATOM      4  C   UNL     1      13.666 -31.553  23.247  1.00  0.00     0.016 C 
BRANCH   3   5
ATOM      5  C   UNL     1      14.311 -30.045  21.292  1.00  0.00     0.015 C 
BRANCH   5   6
ATOM      6  C   UNL     1      15.414 -29.592  22.267  1.00  0.00     0.028 C 
BRANCH   6   7
ATOM      7  C   UNL     1      16.842 -29.780  21.793  1.00  0.00    -0.028 C 
ATOM      8  C   UNL     1      17.735 -30.684  22.261  1.00  0.00    -0.070 CG0
ATOM      9  C   UNL     1      19.136 -30.649  21.702  1.00  0.00     0.039 C 
ATOM     10  G   UNL     1      17.387 -31.767  23.263  1.00  0.00     0.000 G0
ENDBRANCH   6   7
ENDBRANCH   5   6
ENDBRANCH   3   5
ENDBRANCH   1   3
BRANCH   1  11
ATOM     11  C   UNL     1      14.850 -33.574  21.536  1.00  0.00     0.087 C 
BRANCH  11  12
ATOM     12  C   UNL     1      16.370 -33.320  21.326  1.00  0.00     0.066 C 
BRANCH  12  13
ATOM     13  C   UNL     1      17.115 -33.137  22.649  1.00  0.00     0.140 C 
ATOM     14  O   UNL     1      17.514 -34.128  23.242  1.00  0.00    -0.299 OA
BRANCH  13  15
ATOM     15  C   UNL     1      17.414 -31.779  23.265  1.00  0.00     0.106 CG0
ATOM     16  G   UNL     1      17.712 -30.685  22.259  1.00  0.00     0.000 G0
ENDBRANCH  13  15
ENDBRANCH  12  13
BRANCH  12  17
ATOM     17  C   UNL     1      17.074 -34.395  20.440  1.00  0.00    -0.006 C 
ATOM     18  C   UNL     1      18.063 -33.758  19.450  1.00  0.00     0.008 C 
ATOM     19  C   UNL     1      16.112 -35.331  19.688  1.00  0.00     0.008 C 
ENDBRANCH  12  17
ENDBRANCH  11  12
ENDBRANCH   1  11
TORSDOF 1
ENDMDL
MODEL 2
REMARK VINA RESULT:    -4.311      2.104      4.398
REMARK INTER + INTRA:          -6.884
REMARK INTER:                  -6.582
REMARK INTRA:                  -0.301
REMARK UNBOUND:                -0.305
REMARK SMILES CC1=CCC[C@H](C)C(=O)C[C@H](C(C)C)C(=O)C1
REMARK SMILES IDX 8 1 9 2 6 3 7 4 5 5 4 6 3 7 2 8 1 9 10 11 11 12 15 13 16 14
REMARK SMILES IDX 17 15 12 17 13 18 14 19
REMARK H PARENT
REMARK Flexibility Score: 70.00
ROOT
ATOM      1  C   UNL     1      16.790 -29.849  21.626  1.00  0.00     0.136 C 
ATOM      2  O   UNL     1      16.105 -28.838  21.575  1.00  0.00    -0.299 OA
ENDROOT
BRANCH   1   3
ATOM      3  C   UNL     1      18.083 -29.906  20.835  1.00  0.00     0.053 C 
ATOM      4  C   UNL     1      18.794 -28.548  20.858  1.00  0.00     0.016 C 
BRANCH   3   5
ATOM      5  C   UNL     1      18.989 -31.032  21.407  1.00  0.00     0.015 C 
BRANCH   5   6
ATOM      6  C   UNL     1      19.095 -32.292  20.527  1.00  0.00     0.028 C 
BRANCH   6   7
ATOM      7  C   UNL     1      19.088 -33.619  21.260  1.00  0.00    -0.028 C 
ATOM      8  C   UNL     1      18.010 -34.403  21.500  1.00  0.00    -0.070 CG0
ATOM      9  C   UNL     1      18.211 -35.652  22.321  1.00  0.00     0.039 C 
ATOM     10  G   UNL     1      16.631 -34.129  20.933  1.00  0.00     0.000 G0
ENDBRANCH   6   7
ENDBRANCH   5   6
ENDBRANCH   3   5
ENDBRANCH   1   3
BRANCH   1  11
ATOM     11  C   UNL     1      16.319 -31.007  22.480  1.00  0.00     0.087 C 
BRANCH  11  12
ATOM     12  C   UNL     1      15.296 -31.940  21.771  1.00  0.00     0.066 C 
BRANCH  12  13
ATOM     13  C   UNL     1      15.673 -33.416  21.898  1.00  0.00     0.140 C 
ATOM     14  O   UNL     1      15.184 -34.073  22.806  1.00  0.00    -0.299 OA
BRANCH  13  15
ATOM     15  C   UNL     1      16.611 -34.130  20.937  1.00  0.00     0.106 CG0
ATOM     16  G   UNL     1      17.990 -34.411  21.499  1.00  0.00     0.000 G0
ENDBRANCH  13  15
ENDBRANCH  12  13
BRANCH  12  17
ATOM     17  C   UNL     1      13.816 -31.707  22.212  1.00  0.00    -0.006 C 
ATOM     18  C   UNL     1      13.025 -30.919  21.156  1.00  0.00     0.008 C 
ATOM     19  C   UNL     1      13.659 -31.040  23.589  1.00  0.00     0.008 C 
ENDBRANCH  12  17
ENDBRANCH  11  12
ENDBRANCH   1  11
TORSDOF 1
ENDMDL
MODEL 3
REMARK VINA RESULT:    -4.174      1.883      3.801
REMARK INTER + INTRA:          -6.674
REMARK INTER:                  -6.294
REMARK INTRA:                  -0.380
REMARK UNBOUND:                -0.305
REMARK SMILES CC1=CCC[C@H](C)C(=O)C[C@H](C(C)C)C(=O)C1
REMARK SMILES IDX 8 1 9 2 6 3 7 4 5 5 4 6 3 7 2 8 1 9 10 11 11 12 15 13 16 14
REMARK SMILES IDX 17 15 12 17 13 18 14 19
REMARK H PARENT
REMARK Flexibility Score: 70.00
ROOT
ATOM      1  C   UNL     1      17.985 -31.784  20.727  1.00  0.00     0.136 C 
ATOM      2  O   UNL     1      17.579 -30.703  20.324  1.00  0.00    -0.299 OA
ENDROOT
BRANCH   1   3
ATOM      3  C   UNL     1      18.914 -31.824  21.925  1.00  0.00     0.053 C 
ATOM      4  C   UNL     1      20.276 -31.211  21.576  1.00  0.00     0.016 C 
BRANCH   3   5
ATOM      5  C   UNL     1      18.248 -31.089  23.120  1.00  0.00     0.015 C 
BRANCH   5   6
ATOM      6  C   UNL     1      17.040 -31.816  23.741  1.00  0.00     0.028 C 
BRANCH   6   7
ATOM      7  C   UNL     1      15.678 -31.227  23.434  1.00  0.00    -0.028 C 
ATOM      8  C   UNL     1      14.648 -31.854  22.817  1.00  0.00    -0.070 CG0
ATOM      9  C   UNL     1      13.398 -31.056  22.536  1.00  0.00     0.039 C 
ATOM     10  G   UNL     1      14.658 -33.326  22.454  1.00  0.00     0.000 G0
ENDBRANCH   6   7
ENDBRANCH   5   6
ENDBRANCH   3   5
ENDBRANCH   1   3
BRANCH   1  11
ATOM     11  C   UNL     1      17.539 -33.042  20.012  1.00  0.00     0.087 C 
BRANCH  11  12
ATOM     12  C   UNL     1      16.760 -34.040  20.916  1.00  0.00     0.066 C 
BRANCH  12  13
ATOM     13  C   UNL     1      15.295 -33.641  21.091  1.00  0.00     0.140 C 
ATOM     14  O   UNL     1      14.580 -33.578  20.101  1.00  0.00    -0.299 OA
BRANCH  13  15
ATOM     15  C   UNL     1      14.660 -33.338  22.439  1.00  0.00     0.106 CG0
ATOM     16  G   UNL     1      14.627 -31.866  22.800  1.00  0.00     0.000 G0
ENDBRANCH  13  15
ENDBRANCH  12  13
BRANCH  12  17
ATOM     17  C   UNL     1      16.878 -35.529  20.462  1.00  0.00    -0.006 C 
ATOM     18  C   UNL     1      17.898 -36.305  21.310  1.00  0.00     0.008 C 
ATOM     19  C   UNL     1      17.191 -35.716  18.967  1.00  0.00     0.008 C 
ENDBRANCH  12  17
ENDBRANCH  11  12
ENDBRANCH   1  11
TORSDOF 1
ENDMDL
MODEL 4
REMARK VINA RESULT:    -4.035      2.044      4.890
REMARK INTER + INTRA:          -6.463
REMARK INTER:                  -6.353
REMARK INTRA:                  -0.110
REMARK UNBOUND:                -0.305
REMARK SMILES CC1=CCC[C@H](C)C(=O)C[C@H](C(C)C)C(=O)C1
REMARK SMILES IDX 8 1 9 2 6 3 7 4 5 5 4 6 3 7 2 8 1 9 10 11 11 12 15 13 16 14
REMARK SMILES IDX 17 15 12 17 13 18 14 19
REMARK H PARENT
REMARK Flexibility Score: 70.00
ROOT
ATOM      1  C   UNL     1      16.295 -33.789  23.930  1.00  0.00     0.136 C 
ATOM      2  O   UNL     1      16.361 -34.061  25.120  1.00  0.00    -0.299 OA
ENDROOT
BRANCH   1   3
ATOM      3  C   UNL     1      17.577 -33.638  23.134  1.00  0.00     0.053 C 
ATOM      4  C   UNL     1      18.463 -32.539  23.734  1.00  0.00     0.016 C 
BRANCH   3   5
ATOM      5  C   UNL     1      18.318 -35.003  23.085  1.00  0.00     0.015 C 
BRANCH   5   6
ATOM      6  C   UNL     1      18.252 -35.733  21.730  1.00  0.00     0.028 C 
BRANCH   6   7
ATOM      7  C   UNL     1      18.139 -34.851  20.502  1.00  0.00    -0.028 C 
ATOM      8  C   UNL     1      16.995 -34.474  19.881  1.00  0.00    -0.070 CG0
ATOM      9  C   UNL     1      17.110 -33.654  18.620  1.00  0.00     0.039 C 
ATOM     10  G   UNL     1      15.610 -34.775  20.420  1.00  0.00     0.000 G0
ENDBRANCH   6   7
ENDBRANCH   5   6
ENDBRANCH   3   5
ENDBRANCH   1   3
BRANCH   1  11
ATOM     11  C   UNL     1      14.931 -33.615  23.297  1.00  0.00     0.087 C 
BRANCH  11  12
ATOM     12  C   UNL     1      14.935 -32.725  22.021  1.00  0.00     0.066 C 
BRANCH  12  13
ATOM     13  C   UNL     1      14.754 -33.544  20.743  1.00  0.00     0.140 C 
ATOM     14  O   UNL     1      13.911 -33.191  19.931  1.00  0.00    -0.299 OA
BRANCH  13  15
ATOM     15  C   UNL     1      15.586 -34.771  20.405  1.00  0.00     0.106 CG0
ATOM     16  G   UNL     1      16.978 -34.463  19.889  1.00  0.00     0.000 G0
ENDBRANCH  13  15
ENDBRANCH  12  13
BRANCH  12  17
ATOM     17  C   UNL     1      13.916 -31.544  22.070  1.00  0.00    -0.006 C 
ATOM     18  C   UNL     1      14.420 -30.323  21.284  1.00  0.00     0.008 C 
ATOM     19  C   UNL     1      13.502 -31.118  23.490  1.00  0.00     0.008 C 
ENDBRANCH  12  17
ENDBRANCH  11  12
ENDBRANCH   1  11
TORSDOF 1
ENDMDL
MODEL 5
REMARK VINA RESULT:    -4.035      1.820      4.547
REMARK INTER + INTRA:          -6.462
REMARK INTER:                  -6.149
REMARK INTRA:                  -0.313
REMARK UNBOUND:                -0.305
REMARK SMILES CC1=CCC[C@H](C)C(=O)C[C@H](C(C)C)C(=O)C1
REMARK SMILES IDX 8 1 9 2 6 3 7 4 5 5 4 6 3 7 2 8 1 9 10 11 11 12 15 13 16 14
REMARK SMILES IDX 17 15 12 17 13 18 14 19
REMARK H PARENT
REMARK Flexibility Score: 70.00
ROOT
ATOM      1  C   UNL     1      15.883 -33.570  20.297  1.00  0.00     0.136 C 
ATOM      2  O   UNL     1      14.720 -33.942  20.366  1.00  0.00    -0.299 OA
ENDROOT
BRANCH   1   3
ATOM      3  C   UNL     1      16.865 -34.367  19.460  1.00  0.00     0.053 C 
ATOM      4  C   UNL     1      18.172 -33.588  19.267  1.00  0.00     0.016 C 
BRANCH   3   5
ATOM      5  C   UNL     1      17.117 -35.745  20.132  1.00  0.00     0.015 C 
BRANCH   5   6
ATOM      6  C   UNL     1      18.144 -35.731  21.281  1.00  0.00     0.028 C 
BRANCH   6   7
ATOM      7  C   UNL     1      17.576 -35.814  22.684  1.00  0.00    -0.028 C 
ATOM      8  C   UNL     1      17.694 -34.882  23.660  1.00  0.00    -0.070 CG0
ATOM      9  C   UNL     1      17.119 -35.201  25.017  1.00  0.00     0.039 C 
ATOM     10  G   UNL     1      18.313 -33.515  23.444  1.00  0.00     0.000 G0
ENDBRANCH   6   7
ENDBRANCH   5   6
ENDBRANCH   3   5
ENDBRANCH   1   3
BRANCH   1  11
ATOM     11  C   UNL     1      16.296 -32.324  21.051  1.00  0.00     0.087 C 
BRANCH  11  12
ATOM     12  C   UNL     1      16.020 -32.391  22.581  1.00  0.00     0.066 C 
BRANCH  12  13
ATOM     13  C   UNL     1      17.308 -32.356  23.404  1.00  0.00     0.140 C 
ATOM     14  O   UNL     1      17.543 -31.372  24.089  1.00  0.00    -0.299 OA
BRANCH  13  15
ATOM     15  C   UNL     1      18.313 -33.497  23.441  1.00  0.00     0.106 CG0
ATOM     16  G   UNL     1      17.700 -34.867  23.650  1.00  0.00     0.000 G0
ENDBRANCH  13  15
ENDBRANCH  12  13
BRANCH  12  17
ATOM     17  C   UNL     1      15.010 -31.315  23.089  1.00  0.00    -0.006 C 
ATOM     18  C   UNL     1      13.800 -31.955  23.788  1.00  0.00     0.008 C 
ATOM     19  C   UNL     1      14.529 -30.331  22.008  1.00  0.00     0.008 C 
ENDBRANCH  12  17
ENDBRANCH  11  12
ENDBRANCH   1  11
TORSDOF 1
ENDMDL
MODEL 6
REMARK VINA RESULT:    -4.024      1.292      1.463
REMARK INTER + INTRA:          -6.447
REMARK INTER:                  -6.186
REMARK INTRA:                  -0.260
REMARK UNBOUND:                -0.305
REMARK SMILES CC1=CCC[C@H](C)C(=O)C[C@H](C(C)C)C(=O)C1
REMARK SMILES IDX 8 1 9 2 6 3 7 4 5 5 4 6 3 7 2 8 1 9 10 11 11 12 15 13 16 14
REMARK SMILES IDX 17 15 12 17 13 18 14 19
REMARK H PARENT
REMARK Flexibility Score: 70.00
ROOT
ATOM      1  C   UNL     1      14.486 -32.378  22.168  1.00  0.00     0.136 C 
ATOM      2  O   UNL     1      13.847 -32.382  23.211  1.00  0.00    -0.299 OA
ENDROOT
BRANCH   1   3
ATOM      3  C   UNL     1      14.250 -31.267  21.163  1.00  0.00     0.053 C 
ATOM      4  C   UNL     1      13.151 -31.659  20.168  1.00  0.00     0.016 C 
BRANCH   3   5
ATOM      5  C   UNL     1      13.895 -29.956  21.916  1.00  0.00     0.015 C 
BRANCH   5   6
ATOM      6  C   UNL     1      15.095 -29.214  22.535  1.00  0.00     0.028 C 
BRANCH   6   7
ATOM      7  C   UNL     1      16.335 -29.113  21.669  1.00  0.00    -0.028 C 
ATOM      8  C   UNL     1      17.458 -29.864  21.777  1.00  0.00    -0.070 CG0
ATOM      9  C   UNL     1      18.614 -29.545  20.862  1.00  0.00     0.039 C 
ATOM     10  G   UNL     1      17.591 -31.044  22.719  1.00  0.00     0.000 G0
ENDBRANCH   6   7
ENDBRANCH   5   6
ENDBRANCH   3   5
ENDBRANCH   1   3
BRANCH   1  11
ATOM     11  C   UNL     1      15.489 -33.484  21.923  1.00  0.00     0.087 C 
BRANCH  11  12
ATOM     12  C   UNL     1      16.742 -33.035  21.118  1.00  0.00     0.066 C 
BRANCH  12  13
ATOM     13  C   UNL     1      17.803 -32.388  22.009  1.00  0.00     0.140 C 
ATOM     14  O   UNL     1      18.876 -32.956  22.153  1.00  0.00    -0.299 OA
BRANCH  13  15
ATOM     15  C   UNL     1      17.611 -31.056  22.715  1.00  0.00     0.106 CG0
ATOM     16  G   UNL     1      17.447 -29.870  21.785  1.00  0.00     0.000 G0
ENDBRANCH  13  15
ENDBRANCH  12  13
BRANCH  12  17
ATOM     17  C   UNL     1      17.368 -34.163  20.241  1.00  0.00    -0.006 C 
ATOM     18  C   UNL     1      17.365 -33.794  18.749  1.00  0.00     0.008 C 
ATOM     19  C   UNL     1      16.733 -35.551  20.438  1.00  0.00     0.008 C 
ENDBRANCH  12  17
ENDBRANCH  11  12
ENDBRANCH   1  11
TORSDOF 1
ENDMDL
MODEL 7
REMARK VINA RESULT:    -4.021      1.836      4.173
REMARK INTER + INTRA:          -6.441
REMARK INTER:                  -6.212
REMARK INTRA:                  -0.229
REMARK UNBOUND:                -0.305
REMARK SMILES CC1=CCC[C@H](C)C(=O)C[C@H](C(C)C)C(=O)C1
REMARK SMILES IDX 8 1 9 2 6 3 7 4 5 5 4 6 3 7 2 8 1 9 10 11 11 12 15 13 16 14
REMARK SMILES IDX 17 15 12 17 13 18 14 19
REMARK H PARENT
REMARK Flexibility Score: 70.00
ROOT
ATOM      1  C   UNL     1      15.771 -34.073  21.415  1.00  0.00     0.136 C 
ATOM      2  O   UNL     1      15.327 -34.178  22.550  1.00  0.00    -0.299 OA
ENDROOT
BRANCH   1   3
ATOM      3  C   UNL     1      16.511 -35.244  20.799  1.00  0.00     0.053 C 
ATOM      4  C   UNL     1      16.591 -35.095  19.275  1.00  0.00     0.016 C 
BRANCH   3   5
ATOM      5  C   UNL     1      17.924 -35.355  21.435  1.00  0.00     0.015 C 
BRANCH   5   6
ATOM      6  C   UNL     1      18.937 -34.295  20.961  1.00  0.00     0.028 C 
BRANCH   6   7
ATOM      7  C   UNL     1      19.321 -33.238  21.977  1.00  0.00    -0.028 C 
ATOM      8  C   UNL     1      19.075 -31.909  21.891  1.00  0.00    -0.070 CG0
ATOM      9  C   UNL     1      19.616 -31.016  22.980  1.00  0.00     0.039 C 
ATOM     10  G   UNL     1      18.233 -31.280  20.798  1.00  0.00     0.000 G0
ENDBRANCH   6   7
ENDBRANCH   5   6
ENDBRANCH   3   5
ENDBRANCH   1   3
BRANCH   1  11
ATOM     11  C   UNL     1      15.563 -32.771  20.669  1.00  0.00     0.087 C 
BRANCH  11  12
ATOM     12  C   UNL     1      15.664 -31.505  21.567  1.00  0.00     0.066 C 
BRANCH  12  13
ATOM     13  C   UNL     1      16.910 -30.675  21.259  1.00  0.00     0.140 C 
ATOM     14  O   UNL     1      16.863 -29.463  21.412  1.00  0.00    -0.299 OA
BRANCH  13  15
ATOM     15  C   UNL     1      18.227 -31.275  20.791  1.00  0.00     0.106 CG0
ATOM     16  G   UNL     1      19.050 -31.916  21.891  1.00  0.00     0.000 G0
ENDBRANCH  13  15
ENDBRANCH  12  13
BRANCH  12  17
ATOM     17  C   UNL     1      14.385 -30.612  21.548  1.00  0.00    -0.006 C 
ATOM     18  C   UNL     1      14.085 -30.014  22.932  1.00  0.00     0.008 C 
ATOM     19  C   UNL     1      13.129 -31.309  20.996  1.00  0.00     0.008 C 
ENDBRANCH  12  17
ENDBRANCH  11  12
ENDBRANCH   1  11
TORSDOF 1
ENDMDL
MODEL 8
REMARK VINA RESULT:    -3.956      1.915      3.675
REMARK INTER + INTRA:          -6.342
REMARK INTER:                  -6.276
REMARK INTRA:                  -0.066
REMARK UNBOUND:                -0.305
REMARK SMILES CC1=CCC[C@H](C)C(=O)C[C@H](C(C)C)C(=O)C1
REMARK SMILES IDX 8 1 9 2 6 3 7 4 5 5 4 6 3 7 2 8 1 9 10 11 11 12 15 13 16 14
REMARK SMILES IDX 17 15 12 17 13 18 14 19
REMARK H PARENT
REMARK Flexibility Score: 70.00
ROOT
ATOM      1  C   UNL     1      15.629 -30.239  21.902  1.00  0.00     0.136 C 
ATOM      2  O   UNL     1      15.500 -29.033  22.062  1.00  0.00    -0.299 OA
ENDROOT
BRANCH   1   3
ATOM      3  C   UNL     1      14.498 -31.163  22.311  1.00  0.00     0.053 C 
ATOM      4  C   UNL     1      13.321 -30.362  22.880  1.00  0.00     0.016 C 
BRANCH   3   5
ATOM      5  C   UNL     1      14.065 -32.021  21.090  1.00  0.00     0.015 C 
BRANCH   5   6
ATOM      6  C   UNL     1      14.670 -33.437  21.041  1.00  0.00     0.028 C 
BRANCH   6   7
ATOM      7  C   UNL     1      15.094 -34.027  22.371  1.00  0.00    -0.028 C 
ATOM      8  C   UNL     1      16.361 -34.142  22.837  1.00  0.00    -0.070 CG0
ATOM      9  C   UNL     1      16.570 -34.837  24.159  1.00  0.00     0.039 C 
ATOM     10  G   UNL     1      17.569 -33.553  22.135  1.00  0.00     0.000 G0
ENDBRANCH   6   7
ENDBRANCH   5   6
ENDBRANCH   3   5
ENDBRANCH   1   3
BRANCH   1  11
ATOM     11  C   UNL     1      16.916 -30.761  21.300  1.00  0.00     0.087 C 
BRANCH  11  12
ATOM     12  C   UNL     1      18.075 -30.917  22.325  1.00  0.00     0.066 C 
BRANCH  12  13
ATOM     13  C   UNL     1      18.211 -32.353  22.834  1.00  0.00     0.140 C 
ATOM     14  O   UNL     1      18.831 -32.555  23.867  1.00  0.00    -0.299 OA
BRANCH  13  15
ATOM     15  C   UNL     1      17.592 -33.553  22.136  1.00  0.00     0.106 CG0
ATOM     16  G   UNL     1      16.374 -34.126  22.833  1.00  0.00     0.000 G0
ENDBRANCH  13  15
ENDBRANCH  12  13
BRANCH  12  17
ATOM     17  C   UNL     1      19.449 -30.379  21.814  1.00  0.00    -0.006 C 
ATOM     18  C   UNL     1      19.324 -28.964  21.228  1.00  0.00     0.008 C 
ATOM     19  C   UNL     1      20.159 -31.302  20.808  1.00  0.00     0.008 C 
ENDBRANCH  12  17
ENDBRANCH  11  12
ENDBRANCH   1  11
TORSDOF 1
ENDMDL
MODEL 9
REMARK VINA RESULT:    -3.948      1.873      4.101
REMARK INTER + INTRA:          -6.331
REMARK INTER:                  -6.525
REMARK INTRA:                   0.194
REMARK UNBOUND:                -0.305
REMARK SMILES CC1=CCC[C@H](C)C(=O)C[C@H](C(C)C)C(=O)C1
REMARK SMILES IDX 8 1 9 2 6 3 7 4 5 5 4 6 3 7 2 8 1 9 10 11 11 12 15 13 16 14
REMARK SMILES IDX 17 15 12 17 13 18 14 19
REMARK H PARENT
REMARK Flexibility Score: 70.00
ROOT
ATOM      1  C   UNL     1      15.773 -33.725  22.987  1.00  0.00     0.136 C 
ATOM      2  O   UNL     1      16.061 -33.805  24.173  1.00  0.00    -0.299 OA
ENDROOT
BRANCH   1   3
ATOM      3  C   UNL     1      16.526 -34.579  21.985  1.00  0.00     0.053 C 
ATOM      4  C   UNL     1      15.708 -34.756  20.699  1.00  0.00     0.016 C 
BRANCH   3   5
ATOM      5  C   UNL     1      17.910 -33.936  21.695  1.00  0.00     0.015 C 
BRANCH   5   6
ATOM      6  C   UNL     1      17.941 -32.968  20.497  1.00  0.00     0.028 C 
BRANCH   6   7
ATOM      7  C   UNL     1      18.575 -31.615  20.749  1.00  0.00    -0.028 C 
ATOM      8  C   UNL     1      17.929 -30.466  21.062  1.00  0.00    -0.070 CG0
ATOM      9  C   UNL     1      18.748 -29.206  21.194  1.00  0.00     0.039 C 
ATOM     10  G   UNL     1      16.443 -30.391  21.351  1.00  0.00     0.000 G0
ENDBRANCH   6   7
ENDBRANCH   5   6
ENDBRANCH   3   5
ENDBRANCH   1   3
BRANCH   1  11
ATOM     11  C   UNL     1      14.673 -32.774  22.566  1.00  0.00     0.087 C 
BRANCH  11  12
ATOM     12  C   UNL     1      14.777 -31.362  23.212  1.00  0.00     0.066 C 
BRANCH  12  13
ATOM     13  C   UNL     1      16.052 -30.628  22.796  1.00  0.00     0.140 C 
ATOM     14  O   UNL     1      16.816 -30.236  23.667  1.00  0.00    -0.299 OA
BRANCH  13  15
ATOM     15  C   UNL     1      16.443 -30.374  21.349  1.00  0.00     0.106 CG0
ATOM     16  G   UNL     1      17.932 -30.457  21.077  1.00  0.00     0.000 G0
ENDBRANCH  13  15
ENDBRANCH  12  13
BRANCH  12  17
ATOM     17  C   UNL     1      13.521 -30.466  22.978  1.00  0.00    -0.006 C 
ATOM     18  C   UNL     1      12.792 -30.834  21.676  1.00  0.00     0.008 C 
ATOM     19  C   UNL     1      13.803 -28.953  23.011  1.00  0.00     0.008 C 
ENDBRANCH  12  17
ENDBRANCH  11  12
ENDBRANCH   1  11
TORSDOF 1
ENDMDL
