MODEL 1
REMARK VINA RESULT:     0.000      0.000      0.000
REMARK INTER + INTRA:          -0.196
REMARK INTER:                   0.000
REMARK INTRA:                  -0.196
REMARK UNBOUND:                -0.196
REMARK SMILES CC=Cc1ccc(O)c(OC)c1
REMARK SMILES IDX 4 1 12 2 9 3 7 4 6 5 5 6 3 7 1 8 2 9 10 10 11 11 8 12
REMARK H PARENT 8 13
REMARK Flexibility Score: inf
ROOT
ATOM      1  C   UNL     1     122.368 112.686 126.855  1.00  0.00    -0.022 A 
ATOM      2  C   UNL     1     122.237 112.993 128.224  1.00  0.00     0.058 A 
ATOM      3  C   UNL     1     121.262 113.910 128.665  1.00  0.00     0.161 A 
ATOM      4  C   UNL     1     120.410 114.512 127.729  1.00  0.00     0.157 A 
ATOM      5  C   UNL     1     120.526 114.197 126.370  1.00  0.00     0.051 A 
ATOM      6  C   UNL     1     121.493 113.288 125.939  1.00  0.00     0.012 A 
ENDROOT
BRANCH   1   7
ATOM      7  C   UNL     1     123.374 111.720 126.347  1.00  0.00     0.003 C 
ATOM      8  C   UNL     1     124.357 110.167 124.706  1.00  0.00     0.035 C 
ATOM      9  C   UNL     1     123.311 111.143 125.142  1.00  0.00    -0.030 C 
ENDBRANCH   1   7
BRANCH   3  10
ATOM     10  O   UNL     1     121.105 114.245 130.019  1.00  0.00    -0.493 OA
ATOM     11  C   UNL     1     120.626 113.354 131.022  1.00  0.00     0.278 C 
ENDBRANCH   3  10
BRANCH   4  12
ATOM     12  O   UNL     1     119.445 115.423 128.158  1.00  0.00    -0.504 OA
ATOM     13  H   UNL     1     119.118 115.435 129.117  1.00  0.00     0.293 HD
ENDBRANCH   4  12
TORSDOF 3
ENDMDL
MODEL 2
REMARK VINA RESULT:     0.000      4.327      5.951
REMARK INTER + INTRA:          -0.196
REMARK INTER:                   0.000
REMARK INTRA:                  -0.196
REMARK UNBOUND:                -0.196
REMARK SMILES CC=Cc1ccc(O)c(OC)c1
REMARK SMILES IDX 4 1 12 2 9 3 7 4 6 5 5 6 3 7 1 8 2 9 10 10 11 11 8 12
REMARK H PARENT 8 13
REMARK Flexibility Score: inf
ROOT
ATOM      1  C   UNL     1     116.891 114.819 125.661  1.00  0.00    -0.022 A 
ATOM      2  C   UNL     1     117.744 114.137 126.552  1.00  0.00     0.058 A 
ATOM      3  C   UNL     1     117.316 113.823 127.858  1.00  0.00     0.161 A 
ATOM      4  C   UNL     1     116.025 114.186 128.265  1.00  0.00     0.157 A 
ATOM      5  C   UNL     1     115.169 114.848 127.377  1.00  0.00     0.051 A 
ATOM      6  C   UNL     1     115.598 115.157 126.085  1.00  0.00     0.012 A 
ENDROOT
BRANCH   1   7
ATOM      7  C   UNL     1     117.295 115.162 124.275  1.00  0.00     0.003 C 
ATOM      8  C   UNL     1     116.918 115.801 121.926  1.00  0.00     0.035 C 
ATOM      9  C   UNL     1     116.433 115.481 123.304  1.00  0.00    -0.030 C 
ENDBRANCH   1   7
BRANCH   3  10
ATOM     10  O   UNL     1     118.139 113.150 128.775  1.00  0.00    -0.493 OA
ATOM     11  C   UNL     1     118.543 111.790 128.652  1.00  0.00     0.278 C 
ENDBRANCH   3  10
BRANCH   4  12
ATOM     12  O   UNL     1     115.597 113.881 129.557  1.00  0.00    -0.504 OA
ATOM     13  H   UNL     1     114.621 113.943 129.820  1.00  0.00     0.293 HD
ENDBRANCH   4  12
TORSDOF 3
ENDMDL
MODEL 3
REMARK VINA RESULT:     0.000      6.453      8.560
REMARK INTER + INTRA:          -0.196
REMARK INTER:                   0.000
REMARK INTRA:                  -0.196
REMARK UNBOUND:                -0.196
REMARK SMILES CC=Cc1ccc(O)c(OC)c1
REMARK SMILES IDX 4 1 12 2 9 3 7 4 6 5 5 6 3 7 1 8 2 9 10 10 11 11 8 12
REMARK H PARENT 8 13
REMARK Flexibility Score: inf
ROOT
ATOM      1  C   UNL     1     117.480 116.744 121.000  1.00  0.00    -0.022 A 
ATOM      2  C   UNL     1     118.834 116.358 121.059  1.00  0.00     0.058 A 
ATOM      3  C   UNL     1     119.445 116.068 122.295  1.00  0.00     0.161 A 
ATOM      4  C   UNL     1     118.691 116.154 123.473  1.00  0.00     0.157 A 
ATOM      5  C   UNL     1     117.341 116.520 123.417  1.00  0.00     0.051 A 
ATOM      6  C   UNL     1     116.740 116.807 122.190  1.00  0.00     0.012 A 
ENDROOT
BRANCH   1   7
ATOM      7  C   UNL     1     116.792 117.051 119.721  1.00  0.00     0.003 C 
ATOM      8  C   UNL     1     114.844 117.381 118.249  1.00  0.00     0.035 C 
ATOM      9  C   UNL     1     115.463 117.078 119.577  1.00  0.00    -0.030 C 
ENDBRANCH   1   7
BRANCH   3  10
ATOM     10  O   UNL     1     120.792 115.686 122.394  1.00  0.00    -0.493 OA
ATOM     11  C   UNL     1     121.320 114.452 121.916  1.00  0.00     0.278 C 
ENDBRANCH   3  10
BRANCH   4  12
ATOM     12  O   UNL     1     119.291 115.870 124.699  1.00  0.00    -0.504 OA
ATOM     13  H   UNL     1     120.273 116.059 124.865  1.00  0.00     0.293 HD
ENDBRANCH   4  12
TORSDOF 3
ENDMDL
MODEL 4
REMARK VINA RESULT:     0.000     12.796     13.685
REMARK INTER + INTRA:          -0.196
REMARK INTER:                   0.000
REMARK INTRA:                  -0.196
REMARK UNBOUND:                -0.196
REMARK SMILES CC=Cc1ccc(O)c(OC)c1
REMARK SMILES IDX 4 1 12 2 9 3 7 4 6 5 5 6 3 7 1 8 2 9 10 10 11 11 8 12
REMARK H PARENT 8 13
REMARK Flexibility Score: inf
ROOT
ATOM      1  C   UNL     1     114.137 123.609 127.316  1.00  0.00    -0.022 A 
ATOM      2  C   UNL     1     112.867 123.135 126.933  1.00  0.00     0.058 A 
ATOM      3  C   UNL     1     112.451 123.199 125.588  1.00  0.00     0.161 A 
ATOM      4  C   UNL     1     113.319 123.730 124.624  1.00  0.00     0.157 A 
ATOM      5  C   UNL     1     114.589 124.185 124.998  1.00  0.00     0.051 A 
ATOM      6  C   UNL     1     114.995 124.120 126.331  1.00  0.00     0.012 A 
ENDROOT
BRANCH   1   7
ATOM      7  C   UNL     1     114.620 123.554 128.718  1.00  0.00     0.003 C 
ATOM      8  C   UNL     1     116.317 123.572 130.505  1.00  0.00     0.035 C 
ATOM      9  C   UNL     1     115.907 123.652 129.069  1.00  0.00    -0.030 C 
ENDBRANCH   1   7
BRANCH   3  10
ATOM     10  O   UNL     1     111.191 122.742 125.170  1.00  0.00    -0.493 OA
ATOM     11  C   UNL     1     110.790 121.375 125.158  1.00  0.00     0.278 C 
ENDBRANCH   3  10
BRANCH   4  12
ATOM     12  O   UNL     1     112.913 123.798 123.292  1.00  0.00    -0.504 OA
ATOM     13  H   UNL     1     111.979 123.525 123.008  1.00  0.00     0.293 HD
ENDBRANCH   4  12
TORSDOF 3
ENDMDL
MODEL 5
REMARK VINA RESULT:     0.000     10.064     11.290
REMARK INTER + INTRA:          -0.196
REMARK INTER:                   0.000
REMARK INTRA:                  -0.196
REMARK UNBOUND:                -0.196
REMARK SMILES CC=Cc1ccc(O)c(OC)c1
REMARK SMILES IDX 4 1 12 2 9 3 7 4 6 5 5 6 3 7 1 8 2 9 10 10 11 11 8 12
REMARK H PARENT 8 13
REMARK Flexibility Score: inf
ROOT
ATOM      1  C   UNL     1     114.742 120.588 126.469  1.00  0.00    -0.022 A 
ATOM      2  C   UNL     1     113.471 120.114 126.086  1.00  0.00     0.058 A 
ATOM      3  C   UNL     1     113.055 120.178 124.741  1.00  0.00     0.161 A 
ATOM      4  C   UNL     1     113.924 120.709 123.777  1.00  0.00     0.157 A 
ATOM      5  C   UNL     1     115.193 121.164 124.151  1.00  0.00     0.051 A 
ATOM      6  C   UNL     1     115.600 121.099 125.484  1.00  0.00     0.012 A 
ENDROOT
BRANCH   1   7
ATOM      7  C   UNL     1     115.225 120.534 127.871  1.00  0.00     0.003 C 
ATOM      8  C   UNL     1     116.922 120.551 129.658  1.00  0.00     0.035 C 
ATOM      9  C   UNL     1     116.511 120.631 128.222  1.00  0.00    -0.030 C 
ENDBRANCH   1   7
BRANCH   3  10
ATOM     10  O   UNL     1     111.796 119.721 124.323  1.00  0.00    -0.493 OA
ATOM     11  C   UNL     1     111.394 118.354 124.311  1.00  0.00     0.278 C 
ENDBRANCH   3  10
BRANCH   4  12
ATOM     12  O   UNL     1     113.517 120.777 122.445  1.00  0.00    -0.504 OA
ATOM     13  H   UNL     1     112.584 120.504 122.161  1.00  0.00     0.293 HD
ENDBRANCH   4  12
TORSDOF 3
ENDMDL
MODEL 6
REMARK VINA RESULT:     0.000     11.380     13.067
REMARK INTER + INTRA:          -0.196
REMARK INTER:                   0.000
REMARK INTRA:                  -0.196
REMARK UNBOUND:                -0.196
REMARK SMILES CC=Cc1ccc(O)c(OC)c1
REMARK SMILES IDX 4 1 12 2 9 3 7 4 6 5 5 6 3 7 1 8 2 9 10 10 11 11 8 12
REMARK H PARENT 8 13
REMARK Flexibility Score: inf
ROOT
ATOM      1  C   UNL     1     113.690 114.806 118.641  1.00  0.00    -0.022 A 
ATOM      2  C   UNL     1     113.115 115.857 117.899  1.00  0.00     0.058 A 
ATOM      3  C   UNL     1     111.725 116.088 117.938  1.00  0.00     0.161 A 
ATOM      4  C   UNL     1     110.914 115.267 118.733  1.00  0.00     0.157 A 
ATOM      5  C   UNL     1     111.483 114.233 119.485  1.00  0.00     0.051 A 
ATOM      6  C   UNL     1     112.860 114.009 119.443  1.00  0.00     0.012 A 
ENDROOT
BRANCH   1   7
ATOM      7  C   UNL     1     115.149 114.532 118.638  1.00  0.00     0.003 C 
ATOM      8  C   UNL     1     117.249 113.574 119.499  1.00  0.00     0.035 C 
ATOM      9  C   UNL     1     115.771 113.793 119.562  1.00  0.00    -0.030 C 
ENDBRANCH   1   7
BRANCH   3  10
ATOM     10  O   UNL     1     111.116 117.120 117.208  1.00  0.00    -0.493 OA
ATOM     11  C   UNL     1     111.290 118.509 117.473  1.00  0.00     0.278 C 
ENDBRANCH   3  10
BRANCH   4  12
ATOM     12  O   UNL     1     109.538 115.488 118.773  1.00  0.00    -0.504 OA
ATOM     13  H   UNL     1     108.888 114.745 119.002  1.00  0.00     0.293 HD
ENDBRANCH   4  12
TORSDOF 3
ENDMDL
MODEL 7
REMARK VINA RESULT:     0.000     11.396     13.074
REMARK INTER + INTRA:          -0.196
REMARK INTER:                   0.000
REMARK INTRA:                  -0.196
REMARK UNBOUND:                -0.196
REMARK SMILES CC=Cc1ccc(O)c(OC)c1
REMARK SMILES IDX 4 1 12 2 9 3 7 4 6 5 5 6 3 7 1 8 2 9 10 10 11 11 8 12
REMARK H PARENT 8 13
REMARK Flexibility Score: inf
ROOT
ATOM      1  C   UNL     1     117.201 112.755 116.964  1.00  0.00    -0.022 A 
ATOM      2  C   UNL     1     116.701 112.662 115.650  1.00  0.00     0.058 A 
ATOM      3  C   UNL     1     117.536 112.919 114.544  1.00  0.00     0.161 A 
ATOM      4  C   UNL     1     118.879 113.259 114.760  1.00  0.00     0.157 A 
ATOM      5  C   UNL     1     119.383 113.335 116.063  1.00  0.00     0.051 A 
ATOM      6  C   UNL     1     118.552 113.081 117.155  1.00  0.00     0.012 A 
ENDROOT
BRANCH   1   7
ATOM      7  C   UNL     1     116.362 112.486 118.159  1.00  0.00     0.003 C 
ATOM      8  C   UNL     1     115.943 111.946 120.526  1.00  0.00     0.035 C 
ATOM      9  C   UNL     1     116.855 112.224 119.373  1.00  0.00    -0.030 C 
ENDBRANCH   1   7
BRANCH   3  10
ATOM     10  O   UNL     1     117.073 112.842 113.221  1.00  0.00    -0.493 OA
ATOM     11  C   UNL     1     116.688 111.635 112.569  1.00  0.00     0.278 C 
ENDBRANCH   3  10
BRANCH   4  12
ATOM     12  O   UNL     1     119.709 113.517 113.669  1.00  0.00    -0.504 OA
ATOM     13  H   UNL     1     119.560 113.070 112.772  1.00  0.00     0.293 HD
ENDBRANCH   4  12
TORSDOF 3
ENDMDL
MODEL 8
REMARK VINA RESULT:     0.000      5.377      6.817
REMARK INTER + INTRA:          -0.195
REMARK INTER:                   0.000
REMARK INTRA:                  -0.195
REMARK UNBOUND:                -0.196
REMARK SMILES CC=Cc1ccc(O)c(OC)c1
REMARK SMILES IDX 4 1 12 2 9 3 7 4 6 5 5 6 3 7 1 8 2 9 10 10 11 11 8 12
REMARK H PARENT 8 13
REMARK Flexibility Score: inf
ROOT
ATOM      1  C   UNL     1     120.899 118.543 126.595  1.00  0.00    -0.022 A 
ATOM      2  C   UNL     1     120.783 117.467 125.693  1.00  0.00     0.058 A 
ATOM      3  C   UNL     1     119.528 116.881 125.430  1.00  0.00     0.161 A 
ATOM      4  C   UNL     1     118.387 117.386 126.067  1.00  0.00     0.157 A 
ATOM      5  C   UNL     1     118.495 118.466 126.950  1.00  0.00     0.051 A 
ATOM      6  C   UNL     1     119.740 119.042 127.207  1.00  0.00     0.012 A 
ENDROOT
BRANCH   1   7
ATOM      7  C   UNL     1     122.197 119.196 126.896  1.00  0.00     0.003 C 
ATOM      8  C   UNL     1     123.659 121.008 127.702  1.00  0.00     0.035 C 
ATOM      9  C   UNL     1     122.313 120.410 127.443  1.00  0.00    -0.030 C 
ENDBRANCH   1   7
BRANCH   3  10
ATOM     10  O   UNL     1     119.374 115.804 124.543  1.00  0.00    -0.493 OA
ATOM     11  C   UNL     1     119.552 115.888 123.132  1.00  0.00     0.278 C 
ENDBRANCH   3  10
BRANCH   4  12
ATOM     12  O   UNL     1     117.143 116.809 125.813  1.00  0.00    -0.504 OA
ATOM     13  H   UNL     1     116.482 117.234 125.173  1.00  0.00     0.293 HD
ENDBRANCH   4  12
TORSDOF 3
ENDMDL
MODEL 9
REMARK VINA RESULT:     0.000      7.100      9.583
REMARK INTER + INTRA:          -0.195
REMARK INTER:                   0.000
REMARK INTRA:                  -0.195
REMARK UNBOUND:                -0.196
REMARK SMILES CC=Cc1ccc(O)c(OC)c1
REMARK SMILES IDX 4 1 12 2 9 3 7 4 6 5 5 6 3 7 1 8 2 9 10 10 11 11 8 12
REMARK H PARENT 8 13
REMARK Flexibility Score: inf
ROOT
ATOM      1  C   UNL     1     116.324 120.051 124.184  1.00  0.00    -0.022 A 
ATOM      2  C   UNL     1     116.134 118.658 124.102  1.00  0.00     0.058 A 
ATOM      3  C   UNL     1     116.919 117.778 124.875  1.00  0.00     0.161 A 
ATOM      4  C   UNL     1     117.889 118.302 125.740  1.00  0.00     0.157 A 
ATOM      5  C   UNL     1     118.069 119.686 125.838  1.00  0.00     0.051 A 
ATOM      6  C   UNL     1     117.289 120.553 125.070  1.00  0.00     0.012 A 
ENDROOT
BRANCH   1   7
ATOM      7  C   UNL     1     115.516 121.015 123.397  1.00  0.00     0.003 C 
ATOM      8  C   UNL     1     114.556 123.220 122.860  1.00  0.00     0.035 C 
ATOM      9  C   UNL     1     115.404 122.314 123.695  1.00  0.00    -0.030 C 
ENDBRANCH   1   7
BRANCH   3  10
ATOM     10  O   UNL     1     116.762 116.384 124.815  1.00  0.00    -0.493 OA
ATOM     11  C   UNL     1     115.623 115.678 125.297  1.00  0.00     0.278 C 
ENDBRANCH   3  10
BRANCH   4  12
ATOM     12  O   UNL     1     118.670 117.437 126.505  1.00  0.00    -0.504 OA
ATOM     13  H   UNL     1     118.295 116.572 126.876  1.00  0.00     0.293 HD
ENDBRANCH   4  12
TORSDOF 3
ENDMDL
