MODEL 1
REMARK VINA RESULT:    -6.655      0.000      0.000
REMARK INTER + INTRA:         -10.416
REMARK INTER:                  -9.574
REMARK INTRA:                  -0.842
REMARK UNBOUND:                -0.842
REMARK SMILES O=c1cc(-c2ccc(O)c(O)c2)oc2cc(O[C@H]3O[C@H](CO)[C@H](O)[C@H](O)[C@@H]3O)cc(O)c12
REMARK SMILES IDX 17 1 16 2 4 3 3 4 13 5 2 6 14 7 1 8 32 9 15 10 30 11 29 12
REMARK SMILES IDX 5 13 6 14 7 15 8 16 12 17 10 18 9 19 11 21 31 23 18 25 27 26
REMARK SMILES IDX 19 27 25 28 20 29 23 30 28 31 26 33 21 35 22 36 24 38
REMARK H PARENT 9 20 11 22 31 24 28 32 26 34 22 37 24 39
REMARK Flexibility Score: inf
ROOT
ATOM      1  O   UNL     1      -6.430  30.218   4.737  1.00  0.00    -0.462 OA
ENDROOT
BRANCH   1   2
ATOM      2  C   UNL     1      -7.425  30.686   5.607  1.00  0.00     0.130 A 
ATOM      3  C   UNL     1     -10.024  34.309   6.977  1.00  0.00     0.138 A 
ATOM      4  C   UNL     1     -10.999  33.473   7.657  1.00  0.00     0.100 A 
ATOM      5  O   UNL     1      -9.105  33.757   6.174  1.00  0.00    -0.456 OA
ATOM      6  C   UNL     1     -10.829  32.067   7.550  1.00  0.00     0.197 A 
ATOM      7  C   UNL     1      -8.972  32.440   6.143  1.00  0.00     0.146 A 
ATOM      8  O   UNL     1     -11.634  31.352   8.184  1.00  0.00    -0.289 OA
ATOM      9  C   UNL     1      -9.703  31.522   6.920  1.00  0.00     0.107 A 
ATOM     10  C   UNL     1      -8.063  31.839   5.239  1.00  0.00     0.094 A 
ATOM     11  C   UNL     1      -9.250  30.193   7.156  1.00  0.00     0.134 A 
ATOM     12  C   UNL     1      -7.964  29.910   6.697  1.00  0.00     0.093 A 
BRANCH   3  13
ATOM     13  C   UNL     1     -10.110  35.768   7.321  1.00  0.00     0.021 A 
ATOM     14  C   UNL     1     -10.574  36.165   8.616  1.00  0.00     0.016 A 
ATOM     15  C   UNL     1     -10.880  37.549   8.776  1.00  0.00     0.051 A 
ATOM     16  C   UNL     1     -10.682  38.521   7.786  1.00  0.00     0.157 A 
ATOM     17  C   UNL     1     -10.001  36.790   6.241  1.00  0.00     0.062 A 
ATOM     18  C   UNL     1     -10.307  38.124   6.498  1.00  0.00     0.158 A 
BRANCH  16  19
ATOM     19  O   UNL     1     -10.886  39.929   7.949  1.00  0.00    -0.504 OA
ATOM     20  H   UNL     1     -10.051  40.497   8.125  1.00  0.00     0.293 HD
ENDBRANCH  16  19
BRANCH  18  21
ATOM     21  O   UNL     1     -10.164  39.049   5.480  1.00  0.00    -0.504 OA
ATOM     22  H   UNL     1     -10.228  38.727   4.545  1.00  0.00     0.293 HD
ENDBRANCH  18  21
ENDBRANCH   3  13
BRANCH  11  23
ATOM     23  O   UNL     1     -10.078  29.200   7.771  1.00  0.00    -0.507 OA
ATOM     24  H   UNL     1      -9.840  28.345   8.288  1.00  0.00     0.293 HD
ENDBRANCH  11  23
ENDBRANCH   1   2
BRANCH   1  25
ATOM     25  C   UNL     1      -5.245  29.715   5.520  1.00  0.00     0.339 C 
ATOM     26  C   UNL     1      -4.111  30.404   6.517  1.00  0.00     0.214 C 
ATOM     27  O   UNL     1      -4.673  28.569   4.912  1.00  0.00    -0.332 OA
ATOM     28  C   UNL     1      -3.077  29.233   6.985  1.00  0.00     0.180 C 
ATOM     29  C   UNL     1      -4.546  27.505   5.940  1.00  0.00     0.179 C 
ATOM     30  C   UNL     1      -3.769  27.882   7.203  1.00  0.00     0.177 C 
BRANCH  26  31
ATOM     31  O   UNL     1      -4.567  31.056   7.737  1.00  0.00    -0.384 OA
ATOM     32  H   UNL     1      -5.235  31.754   7.527  1.00  0.00     0.211 HD
ENDBRANCH  26  31
BRANCH  28  33
ATOM     33  O   UNL     1      -2.226  29.481   8.198  1.00  0.00    -0.387 OA
ATOM     34  H   UNL     1      -2.703  28.985   8.898  1.00  0.00     0.211 HD
ENDBRANCH  28  33
BRANCH  29  35
ATOM     35  C   UNL     1      -5.874  26.875   5.893  1.00  0.00     0.191 C 
BRANCH  35  36
ATOM     36  O   UNL     1      -6.531  26.902   7.177  1.00  0.00    -0.394 OA
ATOM     37  H   UNL     1      -5.818  26.741   7.848  1.00  0.00     0.210 HD
ENDBRANCH  35  36
ENDBRANCH  29  35
BRANCH  30  38
ATOM     38  O   UNL     1      -4.565  27.930   8.285  1.00  0.00    -0.387 OA
ATOM     39  H   UNL     1      -5.067  28.816   8.187  1.00  0.00     0.211 HD
ENDBRANCH  30  38
ENDBRANCH   1  25
TORSDOF 11
ENDMDL
MODEL 2
REMARK VINA RESULT:    -6.510     16.147     18.942
REMARK INTER + INTRA:         -10.206
REMARK INTER:                  -8.886
REMARK INTRA:                  -1.321
REMARK UNBOUND:                -0.842
REMARK SMILES O=c1cc(-c2ccc(O)c(O)c2)oc2cc(O[C@H]3O[C@H](CO)[C@H](O)[C@H](O)[C@@H]3O)cc(O)c12
REMARK SMILES IDX 17 1 16 2 4 3 3 4 13 5 2 6 14 7 1 8 32 9 15 10 30 11 29 12
REMARK SMILES IDX 5 13 6 14 7 15 8 16 12 17 10 18 9 19 11 21 31 23 18 25 27 26
REMARK SMILES IDX 19 27 25 28 20 29 23 30 28 31 26 33 21 35 22 36 24 38
REMARK H PARENT 9 20 11 22 31 24 28 32 26 34 22 37 24 39
REMARK Flexibility Score: inf
ROOT
ATOM      1  O   UNL     1       0.727  46.191   0.005  1.00  0.00    -0.462 OA
ENDROOT
BRANCH   1   2
ATOM      2  C   UNL     1       2.016  46.432   0.499  1.00  0.00     0.130 A 
ATOM      3  C   UNL     1       4.888  46.244   4.169  1.00  0.00     0.138 A 
ATOM      4  C   UNL     1       6.088  46.352   3.356  1.00  0.00     0.100 A 
ATOM      5  O   UNL     1       3.699  46.024   3.593  1.00  0.00    -0.456 OA
ATOM      6  C   UNL     1       5.911  46.368   1.947  1.00  0.00     0.197 A 
ATOM      7  C   UNL     1       3.591  46.086   2.275  1.00  0.00     0.146 A 
ATOM      8  O   UNL     1       6.939  46.521   1.252  1.00  0.00    -0.289 OA
ATOM      9  C   UNL     1       4.630  46.401   1.380  1.00  0.00     0.107 A 
ATOM     10  C   UNL     1       2.361  45.774   1.648  1.00  0.00     0.094 A 
ATOM     11  C   UNL     1       4.382  46.856   0.054  1.00  0.00     0.134 A 
ATOM     12  C   UNL     1       3.045  47.113  -0.249  1.00  0.00     0.093 A 
BRANCH   3  13
ATOM     13  C   UNL     1       5.110  46.473   5.637  1.00  0.00     0.021 A 
ATOM     14  C   UNL     1       6.441  46.452   6.163  1.00  0.00     0.016 A 
ATOM     15  C   UNL     1       6.554  46.411   7.585  1.00  0.00     0.051 A 
ATOM     16  C   UNL     1       5.464  46.466   8.464  1.00  0.00     0.157 A 
ATOM     17  C   UNL     1       3.954  46.427   6.576  1.00  0.00     0.062 A 
ATOM     18  C   UNL     1       4.164  46.405   7.953  1.00  0.00     0.158 A 
BRANCH  16  19
ATOM     19  O   UNL     1       5.549  46.526   9.893  1.00  0.00    -0.504 OA
ATOM     20  H   UNL     1       4.663  46.561  10.405  1.00  0.00     0.293 HD
ENDBRANCH  16  19
BRANCH  18  21
ATOM     21  O   UNL     1       3.066  46.393   8.794  1.00  0.00    -0.504 OA
ATOM     22  H   UNL     1       3.227  46.376   9.772  1.00  0.00     0.293 HD
ENDBRANCH  18  21
ENDBRANCH   3  13
BRANCH  11  23
ATOM     23  O   UNL     1       5.424  46.985  -0.919  1.00  0.00    -0.507 OA
ATOM     24  H   UNL     1       6.441  47.078  -0.814  1.00  0.00     0.293 HD
ENDBRANCH  11  23
ENDBRANCH   1   2
BRANCH   1  25
ATOM     25  C   UNL     1       0.616  44.774  -0.498  1.00  0.00     0.339 C 
ATOM     26  C   UNL     1       1.314  43.899  -1.723  1.00  0.00     0.214 C 
ATOM     27  O   UNL     1      -0.665  44.230  -0.230  1.00  0.00    -0.332 OA
ATOM     28  C   UNL     1       0.669  42.402  -1.701  1.00  0.00     0.180 C 
ATOM     29  C   UNL     1      -0.488  42.921   0.450  1.00  0.00     0.179 C 
ATOM     30  C   UNL     1       0.384  41.899  -0.282  1.00  0.00     0.177 C 
BRANCH  26  31
ATOM     31  O   UNL     1       2.760  43.720  -1.707  1.00  0.00    -0.384 OA
ATOM     32  H   UNL     1       3.162  44.218  -0.954  1.00  0.00     0.211 HD
ENDBRANCH  26  31
BRANCH  28  33
ATOM     33  O   UNL     1       1.408  41.300  -2.408  1.00  0.00    -0.387 OA
ATOM     34  H   UNL     1       1.965  41.794  -3.047  1.00  0.00     0.211 HD
ENDBRANCH  28  33
BRANCH  29  35
ATOM     35  C   UNL     1      -0.357  43.324   1.858  1.00  0.00     0.191 C 
BRANCH  35  36
ATOM     36  O   UNL     1      -0.005  42.214   2.708  1.00  0.00    -0.394 OA
ATOM     37  H   UNL     1      -0.794  42.060   3.290  1.00  0.00     0.210 HD
ENDBRANCH  35  36
ENDBRANCH  29  35
BRANCH  30  38
ATOM     38  O   UNL     1       1.533  41.661   0.374  1.00  0.00    -0.387 OA
ATOM     39  H   UNL     1       2.256  41.760  -0.344  1.00  0.00     0.211 HD
ENDBRANCH  30  38
ENDBRANCH   1  25
TORSDOF 11
ENDMDL
MODEL 3
REMARK VINA RESULT:    -6.449      1.766      9.411
REMARK INTER + INTRA:         -10.119
REMARK INTER:                 -10.166
REMARK INTRA:                   0.047
REMARK UNBOUND:                -0.842
REMARK SMILES O=c1cc(-c2ccc(O)c(O)c2)oc2cc(O[C@H]3O[C@H](CO)[C@H](O)[C@H](O)[C@@H]3O)cc(O)c12
REMARK SMILES IDX 17 1 16 2 4 3 3 4 13 5 2 6 14 7 1 8 32 9 15 10 30 11 29 12
REMARK SMILES IDX 5 13 6 14 7 15 8 16 12 17 10 18 9 19 11 21 31 23 18 25 27 26
REMARK SMILES IDX 19 27 25 28 20 29 23 30 28 31 26 33 21 35 22 36 24 38
REMARK H PARENT 9 20 11 22 31 24 28 32 26 34 22 37 24 39
REMARK Flexibility Score: inf
ROOT
ATOM      1  O   UNL     1      -9.683  37.827   5.284  1.00  0.00    -0.462 OA
ENDROOT
BRANCH   1   2
ATOM      2  C   UNL     1      -9.794  36.480   5.657  1.00  0.00     0.130 A 
ATOM      3  C   UNL     1      -7.560  32.503   6.631  1.00  0.00     0.138 A 
ATOM      4  C   UNL     1      -8.705  31.914   7.304  1.00  0.00     0.100 A 
ATOM      5  O   UNL     1      -7.562  33.802   6.307  1.00  0.00    -0.456 OA
ATOM      6  C   UNL     1      -9.855  32.733   7.454  1.00  0.00     0.197 A 
ATOM      7  C   UNL     1      -8.676  34.506   6.438  1.00  0.00     0.146 A 
ATOM      8  O   UNL     1     -10.859  32.205   7.981  1.00  0.00    -0.289 OA
ATOM      9  C   UNL     1      -9.917  34.004   6.869  1.00  0.00     0.107 A 
ATOM     10  C   UNL     1      -8.671  35.898   6.179  1.00  0.00     0.094 A 
ATOM     11  C   UNL     1     -11.145  34.674   6.600  1.00  0.00     0.134 A 
ATOM     12  C   UNL     1     -11.049  35.776   5.750  1.00  0.00     0.093 A 
BRANCH   3  13
ATOM     13  C   UNL     1      -6.471  31.526   6.288  1.00  0.00     0.021 A 
ATOM     14  C   UNL     1      -6.779  30.369   5.505  1.00  0.00     0.016 A 
ATOM     15  C   UNL     1      -5.769  29.364   5.446  1.00  0.00     0.051 A 
ATOM     16  C   UNL     1      -4.502  29.482   6.033  1.00  0.00     0.157 A 
ATOM     17  C   UNL     1      -5.161  31.600   6.997  1.00  0.00     0.062 A 
ATOM     18  C   UNL     1      -4.230  30.574   6.865  1.00  0.00     0.158 A 
BRANCH  16  19
ATOM     19  O   UNL     1      -3.434  28.536   5.909  1.00  0.00    -0.504 OA
ATOM     20  H   UNL     1      -2.505  28.916   5.707  1.00  0.00     0.293 HD
ENDBRANCH  16  19
BRANCH  18  21
ATOM     21  O   UNL     1      -3.013  30.691   7.512  1.00  0.00    -0.504 OA
ATOM     22  H   UNL     1      -2.739  31.588   7.832  1.00  0.00     0.293 HD
ENDBRANCH  18  21
ENDBRANCH   3  13
BRANCH  11  23
ATOM     23  O   UNL     1     -12.381  34.279   7.203  1.00  0.00    -0.507 OA
ATOM     24  H   UNL     1     -13.087  33.591   6.914  1.00  0.00     0.293 HD
ENDBRANCH  11  23
ENDBRANCH   1   2
BRANCH   1  25
ATOM     25  C   UNL     1     -10.432  38.702   6.257  1.00  0.00     0.339 C 
ATOM     26  C   UNL     1     -11.513  39.954   6.127  1.00  0.00     0.214 C 
ATOM     27  O   UNL     1      -9.720  38.846   7.474  1.00  0.00    -0.332 OA
ATOM     28  C   UNL     1     -11.877  40.460   7.633  1.00  0.00     0.180 C 
ATOM     29  C   UNL     1     -10.636  38.520   8.597  1.00  0.00     0.179 C 
ATOM     30  C   UNL     1     -11.944  39.312   8.646  1.00  0.00     0.177 C 
BRANCH  26  31
ATOM     31  O   UNL     1     -12.785  39.702   5.463  1.00  0.00    -0.384 OA
ATOM     32  H   UNL     1     -13.489  39.503   6.128  1.00  0.00     0.211 HD
ENDBRANCH  26  31
BRANCH  28  33
ATOM     33  O   UNL     1     -13.125  41.276   7.825  1.00  0.00    -0.387 OA
ATOM     34  H   UNL     1     -13.291  41.188   8.788  1.00  0.00     0.211 HD
ENDBRANCH  28  33
BRANCH  29  35
ATOM     35  C   UNL     1     -10.502  37.059   8.685  1.00  0.00     0.191 C 
BRANCH  35  36
ATOM     36  O   UNL     1     -10.116  36.629  10.007  1.00  0.00    -0.394 OA
ATOM     37  H   UNL     1      -9.443  35.914   9.871  1.00  0.00     0.210 HD
ENDBRANCH  35  36
ENDBRANCH  29  35
BRANCH  30  38
ATOM     38  O   UNL     1     -13.011  38.531   8.404  1.00  0.00    -0.387 OA
ATOM     39  H   UNL     1     -12.756  37.627   8.809  1.00  0.00     0.211 HD
ENDBRANCH  30  38
ENDBRANCH   1  25
TORSDOF 11
ENDMDL
MODEL 4
REMARK VINA RESULT:    -6.443      2.001      8.649
REMARK INTER + INTRA:         -10.110
REMARK INTER:                  -9.708
REMARK INTRA:                  -0.403
REMARK UNBOUND:                -0.842
REMARK SMILES O=c1cc(-c2ccc(O)c(O)c2)oc2cc(O[C@H]3O[C@H](CO)[C@H](O)[C@H](O)[C@@H]3O)cc(O)c12
REMARK SMILES IDX 17 1 16 2 4 3 3 4 13 5 2 6 14 7 1 8 32 9 15 10 30 11 29 12
REMARK SMILES IDX 5 13 6 14 7 15 8 16 12 17 10 18 9 19 11 21 31 23 18 25 27 26
REMARK SMILES IDX 19 27 25 28 20 29 23 30 28 31 26 33 21 35 22 36 24 38
REMARK H PARENT 9 20 11 22 31 24 28 32 26 34 22 37 24 39
REMARK Flexibility Score: inf
ROOT
ATOM      1  O   UNL     1     -11.282  34.956   8.562  1.00  0.00    -0.462 OA
ENDROOT
BRANCH   1   2
ATOM      2  C   UNL     1     -11.211  33.607   8.188  1.00  0.00     0.130 A 
ATOM      3  C   UNL     1      -8.587  30.180   6.417  1.00  0.00     0.138 A 
ATOM      4  C   UNL     1      -9.458  29.129   6.915  1.00  0.00     0.100 A 
ATOM      5  O   UNL     1      -8.750  31.444   6.832  1.00  0.00    -0.456 OA
ATOM      6  C   UNL     1     -10.557  29.530   7.720  1.00  0.00     0.197 A 
ATOM      7  C   UNL     1      -9.814  31.763   7.552  1.00  0.00     0.146 A 
ATOM      8  O   UNL     1     -11.337  28.629   8.098  1.00  0.00    -0.289 OA
ATOM      9  C   UNL     1     -10.851  30.885   7.918  1.00  0.00     0.107 A 
ATOM     10  C   UNL     1      -9.956  33.074   8.066  1.00  0.00     0.094 A 
ATOM     11  C   UNL     1     -12.137  31.349   8.316  1.00  0.00     0.134 A 
ATOM     12  C   UNL     1     -12.348  32.720   8.173  1.00  0.00     0.093 A 
BRANCH   3  13
ATOM     13  C   UNL     1      -7.595  29.728   5.385  1.00  0.00     0.021 A 
ATOM     14  C   UNL     1      -8.055  29.064   4.203  1.00  0.00     0.016 A 
ATOM     15  C   UNL     1      -7.053  28.434   3.407  1.00  0.00     0.051 A 
ATOM     16  C   UNL     1      -5.678  28.496   3.673  1.00  0.00     0.157 A 
ATOM     17  C   UNL     1      -6.142  29.701   5.718  1.00  0.00     0.062 A 
ATOM     18  C   UNL     1      -5.235  29.073   4.868  1.00  0.00     0.158 A 
BRANCH  16  19
ATOM     19  O   UNL     1      -4.644  27.959   2.841  1.00  0.00    -0.504 OA
ATOM     20  H   UNL     1      -4.265  27.046   3.111  1.00  0.00     0.293 HD
ENDBRANCH  16  19
BRANCH  18  21
ATOM     21  O   UNL     1      -3.891  29.095   5.194  1.00  0.00    -0.504 OA
ATOM     22  H   UNL     1      -3.527  28.342   5.724  1.00  0.00     0.293 HD
ENDBRANCH  18  21
ENDBRANCH   3  13
BRANCH  11  23
ATOM     23  O   UNL     1     -13.124  30.478   8.878  1.00  0.00    -0.507 OA
ATOM     24  H   UNL     1     -13.896  30.660   9.530  1.00  0.00     0.293 HD
ENDBRANCH  11  23
ENDBRANCH   1   2
BRANCH   1  25
ATOM     25  C   UNL     1     -10.384  35.790   7.683  1.00  0.00     0.339 C 
ATOM     26  C   UNL     1      -9.233  35.470   6.532  1.00  0.00     0.214 C 
ATOM     27  O   UNL     1     -10.082  37.035   8.289  1.00  0.00    -0.332 OA
ATOM     28  C   UNL     1      -8.627  36.895   6.020  1.00  0.00     0.180 C 
ATOM     29  C   UNL     1     -10.377  38.117   7.315  1.00  0.00     0.179 C 
ATOM     30  C   UNL     1      -9.684  38.002   5.955  1.00  0.00     0.177 C 
BRANCH  26  31
ATOM     31  O   UNL     1      -9.636  34.745   5.334  1.00  0.00    -0.384 OA
ATOM     32  H   UNL     1      -9.035  34.963   4.580  1.00  0.00     0.211 HD
ENDBRANCH  26  31
BRANCH  28  33
ATOM     33  O   UNL     1      -7.893  36.923   4.709  1.00  0.00    -0.387 OA
ATOM     34  H   UNL     1      -7.305  36.141   4.777  1.00  0.00     0.211 HD
ENDBRANCH  28  33
BRANCH  29  35
ATOM     35  C   UNL     1     -11.812  38.347   7.541  1.00  0.00     0.191 C 
BRANCH  35  36
ATOM     36  O   UNL     1     -12.355  39.319   6.624  1.00  0.00    -0.394 OA
ATOM     37  H   UNL     1     -11.687  39.405   5.896  1.00  0.00     0.210 HD
ENDBRANCH  35  36
ENDBRANCH  29  35
BRANCH  30  38
ATOM     38  O   UNL     1     -10.561  37.759   4.966  1.00  0.00    -0.387 OA
ATOM     39  H   UNL     1     -11.466  38.027   5.362  1.00  0.00     0.211 HD
ENDBRANCH  30  38
ENDBRANCH   1  25
TORSDOF 11
ENDMDL
MODEL 5
REMARK VINA RESULT:    -6.376      1.928      3.258
REMARK INTER + INTRA:         -10.013
REMARK INTER:                  -9.112
REMARK INTRA:                  -0.901
REMARK UNBOUND:                -0.842
REMARK SMILES O=c1cc(-c2ccc(O)c(O)c2)oc2cc(O[C@H]3O[C@H](CO)[C@H](O)[C@H](O)[C@@H]3O)cc(O)c12
REMARK SMILES IDX 17 1 16 2 4 3 3 4 13 5 2 6 14 7 1 8 32 9 15 10 30 11 29 12
REMARK SMILES IDX 5 13 6 14 7 15 8 16 12 17 10 18 9 19 11 21 31 23 18 25 27 26
REMARK SMILES IDX 19 27 25 28 20 29 23 30 28 31 26 33 21 35 22 36 24 38
REMARK H PARENT 9 20 11 22 31 24 28 32 26 34 22 37 24 39
REMARK Flexibility Score: inf
ROOT
ATOM      1  O   UNL     1      -8.119  32.940   4.887  1.00  0.00    -0.462 OA
ENDROOT
BRANCH   1   2
ATOM      2  C   UNL     1      -8.923  33.293   5.980  1.00  0.00     0.130 A 
ATOM      3  C   UNL     1     -11.524  36.591   8.008  1.00  0.00     0.138 A 
ATOM      4  C   UNL     1     -12.201  35.651   8.885  1.00  0.00     0.100 A 
ATOM      5  O   UNL     1     -10.767  36.146   6.997  1.00  0.00    -0.456 OA
ATOM      6  C   UNL     1     -11.897  34.275   8.711  1.00  0.00     0.197 A 
ATOM      7  C   UNL     1     -10.491  34.854   6.908  1.00  0.00     0.146 A 
ATOM      8  O   UNL     1     -12.436  33.474   9.506  1.00  0.00    -0.289 OA
ATOM      9  C   UNL     1     -10.900  33.863   7.818  1.00  0.00     0.107 A 
ATOM     10  C   UNL     1      -9.762  34.359   5.800  1.00  0.00     0.094 A 
ATOM     11  C   UNL     1     -10.250  32.599   7.912  1.00  0.00     0.134 A 
ATOM     12  C   UNL     1      -9.088  32.468   7.151  1.00  0.00     0.093 A 
BRANCH   3  13
ATOM     13  C   UNL     1     -11.697  38.033   8.391  1.00  0.00     0.021 A 
ATOM     14  C   UNL     1     -11.976  38.375   9.753  1.00  0.00     0.016 A 
ATOM     15  C   UNL     1     -12.387  39.720   9.991  1.00  0.00     0.051 A 
ATOM     16  C   UNL     1     -12.454  40.711   9.003  1.00  0.00     0.157 A 
ATOM     17  C   UNL     1     -11.871  39.065   7.330  1.00  0.00     0.062 A 
ATOM     18  C   UNL     1     -12.261  40.360   7.663  1.00  0.00     0.158 A 
BRANCH  16  19
ATOM     19  O   UNL     1     -12.767  42.091   9.227  1.00  0.00    -0.504 OA
ATOM     20  H   UNL     1     -12.098  42.628   9.786  1.00  0.00     0.293 HD
ENDBRANCH  16  19
BRANCH  18  21
ATOM     21  O   UNL     1     -12.382  41.299   6.655  1.00  0.00    -0.504 OA
ATOM     22  H   UNL     1     -11.996  42.199   6.805  1.00  0.00     0.293 HD
ENDBRANCH  18  21
ENDBRANCH   3  13
BRANCH  11  23
ATOM     23  O   UNL     1     -10.782  31.520   8.687  1.00  0.00    -0.507 OA
ATOM     24  H   UNL     1     -10.877  31.398   9.703  1.00  0.00     0.293 HD
ENDBRANCH  11  23
ENDBRANCH   1   2
BRANCH   1  25
ATOM     25  C   UNL     1      -7.477  31.596   5.122  1.00  0.00     0.339 C 
ATOM     26  C   UNL     1      -6.079  31.067   5.844  1.00  0.00     0.214 C 
ATOM     27  O   UNL     1      -7.847  30.665   4.120  1.00  0.00    -0.332 OA
ATOM     28  C   UNL     1      -6.016  29.445   5.683  1.00  0.00     0.180 C 
ATOM     29  C   UNL     1      -8.345  29.433   4.783  1.00  0.00     0.179 C 
ATOM     30  C   UNL     1      -7.394  28.783   5.790  1.00  0.00     0.177 C 
BRANCH  26  31
ATOM     31  O   UNL     1      -5.885  31.343   7.261  1.00  0.00    -0.384 OA
ATOM     32  H   UNL     1      -5.956  30.511   7.789  1.00  0.00     0.211 HD
ENDBRANCH  26  31
BRANCH  28  33
ATOM     33  O   UNL     1      -5.097  28.678   6.592  1.00  0.00    -0.387 OA
ATOM     34  H   UNL     1      -5.596  27.847   6.747  1.00  0.00     0.211 HD
ENDBRANCH  28  33
BRANCH  29  35
ATOM     35  C   UNL     1      -9.760  29.760   5.012  1.00  0.00     0.191 C 
BRANCH  35  36
ATOM     36  O   UNL     1     -10.629  29.087   4.077  1.00  0.00    -0.394 OA
ATOM     37  H   UNL     1     -10.955  29.790   3.459  1.00  0.00     0.210 HD
ENDBRANCH  35  36
ENDBRANCH  29  35
BRANCH  30  38
ATOM     38  O   UNL     1      -7.861  28.869   7.048  1.00  0.00    -0.387 OA
ATOM     39  H   UNL     1      -8.344  29.771   7.074  1.00  0.00     0.211 HD
ENDBRANCH  30  38
ENDBRANCH   1  25
TORSDOF 11
ENDMDL
MODEL 6
REMARK VINA RESULT:    -6.215      1.943      8.458
REMARK INTER + INTRA:          -9.782
REMARK INTER:                  -9.172
REMARK INTRA:                  -0.610
REMARK UNBOUND:                -0.842
REMARK SMILES O=c1cc(-c2ccc(O)c(O)c2)oc2cc(O[C@H]3O[C@H](CO)[C@H](O)[C@H](O)[C@@H]3O)cc(O)c12
REMARK SMILES IDX 17 1 16 2 4 3 3 4 13 5 2 6 14 7 1 8 32 9 15 10 30 11 29 12
REMARK SMILES IDX 5 13 6 14 7 15 8 16 12 17 10 18 9 19 11 21 31 23 18 25 27 26
REMARK SMILES IDX 19 27 25 28 20 29 23 30 28 31 26 33 21 35 22 36 24 38
REMARK H PARENT 9 20 11 22 31 24 28 32 26 34 22 37 24 39
REMARK Flexibility Score: inf
ROOT
ATOM      1  O   UNL     1     -10.625  35.216   8.667  1.00  0.00    -0.462 OA
ENDROOT
BRANCH   1   2
ATOM      2  C   UNL     1     -10.724  33.896   8.204  1.00  0.00     0.130 A 
ATOM      3  C   UNL     1      -8.503  30.226   6.374  1.00  0.00     0.138 A 
ATOM      4  C   UNL     1      -9.554  29.290   6.736  1.00  0.00     0.100 A 
ATOM      5  O   UNL     1      -8.510  31.472   6.866  1.00  0.00    -0.456 OA
ATOM      6  C   UNL     1     -10.641  29.804   7.491  1.00  0.00     0.197 A 
ATOM      7  C   UNL     1      -9.568  31.904   7.534  1.00  0.00     0.146 A 
ATOM      8  O   UNL     1     -11.572  29.010   7.750  1.00  0.00    -0.289 OA
ATOM      9  C   UNL     1     -10.748  31.173   7.765  1.00  0.00     0.107 A 
ATOM     10  C   UNL     1      -9.556  33.188   8.129  1.00  0.00     0.094 A 
ATOM     11  C   UNL     1     -11.979  31.801   8.108  1.00  0.00     0.134 A 
ATOM     12  C   UNL     1     -11.974  33.195   8.049  1.00  0.00     0.093 A 
BRANCH   3  13
ATOM     13  C   UNL     1      -7.510  29.692   5.382  1.00  0.00     0.021 A 
ATOM     14  C   UNL     1      -7.971  28.942   4.253  1.00  0.00     0.016 A 
ATOM     15  C   UNL     1      -6.971  28.249   3.509  1.00  0.00     0.051 A 
ATOM     16  C   UNL     1      -5.597  28.323   3.773  1.00  0.00     0.157 A 
ATOM     17  C   UNL     1      -6.058  29.683   5.719  1.00  0.00     0.062 A 
ATOM     18  C   UNL     1      -5.153  28.987   4.922  1.00  0.00     0.158 A 
BRANCH  16  19
ATOM     19  O   UNL     1      -4.563  27.719   2.987  1.00  0.00    -0.504 OA
ATOM     20  H   UNL     1      -4.069  28.331   2.331  1.00  0.00     0.293 HD
ENDBRANCH  16  19
BRANCH  18  21
ATOM     21  O   UNL     1      -3.810  29.027   5.248  1.00  0.00    -0.504 OA
ATOM     22  H   UNL     1      -3.264  28.217   5.081  1.00  0.00     0.293 HD
ENDBRANCH  18  21
ENDBRANCH   3  13
BRANCH  11  23
ATOM     23  O   UNL     1     -13.124  31.058   8.538  1.00  0.00    -0.507 OA
ATOM     24  H   UNL     1     -13.207  30.228   9.137  1.00  0.00     0.293 HD
ENDBRANCH  11  23
ENDBRANCH   1   2
BRANCH   1  25
ATOM     25  C   UNL     1     -10.512  36.171   7.506  1.00  0.00     0.339 C 
ATOM     26  C   UNL     1     -11.030  37.716   7.195  1.00  0.00     0.214 C 
ATOM     27  O   UNL     1     -10.401  35.477   6.276  1.00  0.00    -0.332 OA
ATOM     28  C   UNL     1     -10.571  38.103   5.679  1.00  0.00     0.180 C 
ATOM     29  C   UNL     1      -9.224  36.005   5.541  1.00  0.00     0.179 C 
ATOM     30  C   UNL     1      -9.206  37.517   5.304  1.00  0.00     0.177 C 
BRANCH  26  31
ATOM     31  O   UNL     1     -10.551  38.792   8.053  1.00  0.00    -0.384 OA
ATOM     32  H   UNL     1     -10.929  38.704   8.962  1.00  0.00     0.211 HD
ENDBRANCH  26  31
BRANCH  28  33
ATOM     33  O   UNL     1     -10.534  39.556   5.298  1.00  0.00    -0.387 OA
ATOM     34  H   UNL     1     -11.021  39.982   6.036  1.00  0.00     0.211 HD
ENDBRANCH  28  33
BRANCH  29  35
ATOM     35  C   UNL     1      -8.128  35.201   6.100  1.00  0.00     0.191 C 
BRANCH  35  36
ATOM     36  O   UNL     1      -7.845  34.037   5.296  1.00  0.00    -0.394 OA
ATOM     37  H   UNL     1      -8.356  34.161   4.455  1.00  0.00     0.210 HD
ENDBRANCH  35  36
ENDBRANCH  29  35
BRANCH  30  38
ATOM     38  O   UNL     1      -8.226  38.120   6.000  1.00  0.00    -0.387 OA
ATOM     39  H   UNL     1      -8.715  38.580   6.773  1.00  0.00     0.211 HD
ENDBRANCH  30  38
ENDBRANCH   1  25
TORSDOF 11
ENDMDL
MODEL 7
REMARK VINA RESULT:    -6.181      2.276      9.289
REMARK INTER + INTRA:          -9.733
REMARK INTER:                  -9.567
REMARK INTRA:                  -0.166
REMARK UNBOUND:                -0.842
REMARK SMILES O=c1cc(-c2ccc(O)c(O)c2)oc2cc(O[C@H]3O[C@H](CO)[C@H](O)[C@H](O)[C@@H]3O)cc(O)c12
REMARK SMILES IDX 17 1 16 2 4 3 3 4 13 5 2 6 14 7 1 8 32 9 15 10 30 11 29 12
REMARK SMILES IDX 5 13 6 14 7 15 8 16 12 17 10 18 9 19 11 21 31 23 18 25 27 26
REMARK SMILES IDX 19 27 25 28 20 29 23 30 28 31 26 33 21 35 22 36 24 38
REMARK H PARENT 9 20 11 22 31 24 28 32 26 34 22 37 24 39
REMARK Flexibility Score: inf
ROOT
ATOM      1  O   UNL     1      -8.317  36.882   5.865  1.00  0.00    -0.462 OA
ENDROOT
BRANCH   1   2
ATOM      2  C   UNL     1      -8.767  35.567   6.048  1.00  0.00     0.130 A 
ATOM      3  C   UNL     1      -7.645  31.041   6.176  1.00  0.00     0.138 A 
ATOM      4  C   UNL     1      -8.859  30.664   6.881  1.00  0.00     0.100 A 
ATOM      5  O   UNL     1      -7.313  32.333   6.048  1.00  0.00    -0.456 OA
ATOM      6  C   UNL     1      -9.728  31.715   7.275  1.00  0.00     0.197 A 
ATOM      7  C   UNL     1      -8.181  33.268   6.403  1.00  0.00     0.146 A 
ATOM      8  O   UNL     1     -10.799  31.383   7.828  1.00  0.00    -0.289 OA
ATOM      9  C   UNL     1      -9.480  33.039   6.893  1.00  0.00     0.107 A 
ATOM     10  C   UNL     1      -7.813  34.634   6.351  1.00  0.00     0.094 A 
ATOM     11  C   UNL     1     -10.492  34.040   6.862  1.00  0.00     0.134 A 
ATOM     12  C   UNL     1     -10.158  35.208   6.177  1.00  0.00     0.093 A 
BRANCH   3  13
ATOM     13  C   UNL     1      -6.891  29.890   5.576  1.00  0.00     0.021 A 
ATOM     14  C   UNL     1      -5.460  29.887   5.607  1.00  0.00     0.016 A 
ATOM     15  C   UNL     1      -4.817  28.907   4.794  1.00  0.00     0.051 A 
ATOM     16  C   UNL     1      -5.493  27.930   4.051  1.00  0.00     0.157 A 
ATOM     17  C   UNL     1      -7.604  28.914   4.703  1.00  0.00     0.062 A 
ATOM     18  C   UNL     1      -6.887  27.983   3.956  1.00  0.00     0.158 A 
BRANCH  16  19
ATOM     19  O   UNL     1      -4.875  26.875   3.305  1.00  0.00    -0.504 OA
ATOM     20  H   UNL     1      -5.401  26.508   2.507  1.00  0.00     0.293 HD
ENDBRANCH  16  19
BRANCH  18  21
ATOM     21  O   UNL     1      -7.583  27.073   3.180  1.00  0.00    -0.504 OA
ATOM     22  H   UNL     1      -7.714  26.158   3.537  1.00  0.00     0.293 HD
ENDBRANCH  18  21
ENDBRANCH   3  13
BRANCH  11  23
ATOM     23  O   UNL     1     -11.746  33.882   7.536  1.00  0.00    -0.507 OA
ATOM     24  H   UNL     1     -12.032  33.253   8.296  1.00  0.00     0.293 HD
ENDBRANCH  11  23
ENDBRANCH   1   2
BRANCH   1  25
ATOM     25  C   UNL     1      -9.394  37.862   6.258  1.00  0.00     0.339 C 
ATOM     26  C   UNL     1     -10.345  38.956   5.450  1.00  0.00     0.214 C 
ATOM     27  O   UNL     1      -9.219  38.315   7.589  1.00  0.00    -0.332 OA
ATOM     28  C   UNL     1     -11.275  39.720   6.549  1.00  0.00     0.180 C 
ATOM     29  C   UNL     1     -10.501  38.138   8.319  1.00  0.00     0.179 C 
ATOM     30  C   UNL     1     -11.727  38.799   7.687  1.00  0.00     0.177 C 
BRANCH  26  31
ATOM     31  O   UNL     1     -11.251  38.459   4.424  1.00  0.00    -0.384 OA
ATOM     32  H   UNL     1     -10.765  37.886   3.781  1.00  0.00     0.211 HD
ENDBRANCH  26  31
BRANCH  28  33
ATOM     33  O   UNL     1     -12.502  40.439   6.063  1.00  0.00    -0.387 OA
ATOM     34  H   UNL     1     -13.216  40.023   6.593  1.00  0.00     0.211 HD
ENDBRANCH  28  33
BRANCH  29  35
ATOM     35  C   UNL     1     -10.403  36.743   8.773  1.00  0.00     0.191 C 
BRANCH  35  36
ATOM     36  O   UNL     1     -10.177  36.652  10.195  1.00  0.00    -0.394 OA
ATOM     37  H   UNL     1      -9.522  37.364  10.410  1.00  0.00     0.210 HD
ENDBRANCH  35  36
ENDBRANCH  29  35
BRANCH  30  38
ATOM     38  O   UNL     1     -12.608  37.890   7.236  1.00  0.00    -0.387 OA
ATOM     39  H   UNL     1     -13.286  37.798   7.997  1.00  0.00     0.211 HD
ENDBRANCH  30  38
ENDBRANCH   1  25
TORSDOF 11
ENDMDL
MODEL 8
REMARK VINA RESULT:    -6.019      1.739      3.216
REMARK INTER + INTRA:          -9.500
REMARK INTER:                  -9.350
REMARK INTRA:                  -0.150
REMARK UNBOUND:                -0.842
REMARK SMILES O=c1cc(-c2ccc(O)c(O)c2)oc2cc(O[C@H]3O[C@H](CO)[C@H](O)[C@H](O)[C@@H]3O)cc(O)c12
REMARK SMILES IDX 17 1 16 2 4 3 3 4 13 5 2 6 14 7 1 8 32 9 15 10 30 11 29 12
REMARK SMILES IDX 5 13 6 14 7 15 8 16 12 17 10 18 9 19 11 21 31 23 18 25 27 26
REMARK SMILES IDX 19 27 25 28 20 29 23 30 28 31 26 33 21 35 22 36 24 38
REMARK H PARENT 9 20 11 22 31 24 28 32 26 34 22 37 24 39
REMARK Flexibility Score: inf
ROOT
ATOM      1  O   UNL     1      -7.208  32.612   5.391  1.00  0.00    -0.462 OA
ENDROOT
BRANCH   1   2
ATOM      2  C   UNL     1      -8.270  32.993   6.224  1.00  0.00     0.130 A 
ATOM      3  C   UNL     1     -11.187  36.394   7.520  1.00  0.00     0.138 A 
ATOM      4  C   UNL     1     -12.124  35.478   8.151  1.00  0.00     0.100 A 
ATOM      5  O   UNL     1     -10.198  35.922   6.751  1.00  0.00    -0.456 OA
ATOM      6  C   UNL     1     -11.844  34.091   8.037  1.00  0.00     0.197 A 
ATOM      7  C   UNL     1      -9.965  34.619   6.712  1.00  0.00     0.146 A 
ATOM      8  O   UNL     1     -12.619  33.309   8.631  1.00  0.00    -0.289 OA
ATOM      9  C   UNL     1     -10.656  33.640   7.449  1.00  0.00     0.107 A 
ATOM     10  C   UNL     1      -8.977  34.100   5.841  1.00  0.00     0.094 A 
ATOM     11  C   UNL     1     -10.114  32.345   7.691  1.00  0.00     0.134 A 
ATOM     12  C   UNL     1      -8.793  32.165   7.282  1.00  0.00     0.093 A 
BRANCH   3  13
ATOM     13  C   UNL     1     -11.397  37.838   7.874  1.00  0.00     0.021 A 
ATOM     14  C   UNL     1     -11.674  38.201   9.231  1.00  0.00     0.016 A 
ATOM     15  C   UNL     1     -12.120  39.540   9.443  1.00  0.00     0.051 A 
ATOM     16  C   UNL     1     -12.223  40.507   8.434  1.00  0.00     0.157 A 
ATOM     17  C   UNL     1     -11.609  38.841   6.792  1.00  0.00     0.062 A 
ATOM     18  C   UNL     1     -12.032  40.131   7.100  1.00  0.00     0.158 A 
BRANCH  16  19
ATOM     19  O   UNL     1     -12.573  41.882   8.631  1.00  0.00    -0.504 OA
ATOM     20  H   UNL     1     -12.737  42.180   9.597  1.00  0.00     0.293 HD
ENDBRANCH  16  19
BRANCH  18  21
ATOM     21  O   UNL     1     -12.188  41.044   6.073  1.00  0.00    -0.504 OA
ATOM     22  H   UNL     1     -12.921  41.707   6.145  1.00  0.00     0.293 HD
ENDBRANCH  18  21
ENDBRANCH   3  13
BRANCH  11  23
ATOM     23  O   UNL     1     -10.889  31.286   8.261  1.00  0.00    -0.507 OA
ATOM     24  H   UNL     1     -11.900  31.105   8.253  1.00  0.00     0.293 HD
ENDBRANCH  11  23
ENDBRANCH   1   2
BRANCH   1  25
ATOM     25  C   UNL     1      -7.023  31.116   5.430  1.00  0.00     0.339 C 
ATOM     26  C   UNL     1      -7.707  29.822   4.648  1.00  0.00     0.214 C 
ATOM     27  O   UNL     1      -6.570  30.686   6.702  1.00  0.00    -0.332 OA
ATOM     28  C   UNL     1      -7.030  28.463   5.241  1.00  0.00     0.180 C 
ATOM     29  C   UNL     1      -5.370  29.831   6.510  1.00  0.00     0.179 C 
ATOM     30  C   UNL     1      -5.543  28.635   5.572  1.00  0.00     0.177 C 
BRANCH  26  31
ATOM     31  O   UNL     1      -7.577  29.743   3.199  1.00  0.00    -0.384 OA
ATOM     32  H   UNL     1      -7.475  30.646   2.811  1.00  0.00     0.211 HD
ENDBRANCH  26  31
BRANCH  28  33
ATOM     33  O   UNL     1      -7.148  27.201   4.435  1.00  0.00    -0.387 OA
ATOM     34  H   UNL     1      -7.458  26.551   5.101  1.00  0.00     0.211 HD
ENDBRANCH  28  33
BRANCH  29  35
ATOM     35  C   UNL     1      -4.291  30.829   6.456  1.00  0.00     0.191 C 
BRANCH  35  36
ATOM     36  O   UNL     1      -3.730  31.090   7.758  1.00  0.00    -0.394 OA
ATOM     37  H   UNL     1      -4.420  31.605   8.250  1.00  0.00     0.210 HD
ENDBRANCH  35  36
ENDBRANCH  29  35
BRANCH  30  38
ATOM     38  O   UNL     1      -4.823  28.775   4.445  1.00  0.00    -0.387 OA
ATOM     39  H   UNL     1      -3.964  28.251   4.631  1.00  0.00     0.211 HD
ENDBRANCH  30  38
ENDBRANCH   1  25
TORSDOF 11
ENDMDL
MODEL 9
REMARK VINA RESULT:    -5.886      2.951      5.123
REMARK INTER + INTRA:          -9.308
REMARK INTER:                  -8.041
REMARK INTRA:                  -1.267
REMARK UNBOUND:                -0.842
REMARK SMILES O=c1cc(-c2ccc(O)c(O)c2)oc2cc(O[C@H]3O[C@H](CO)[C@H](O)[C@H](O)[C@@H]3O)cc(O)c12
REMARK SMILES IDX 17 1 16 2 4 3 3 4 13 5 2 6 14 7 1 8 32 9 15 10 30 11 29 12
REMARK SMILES IDX 5 13 6 14 7 15 8 16 12 17 10 18 9 19 11 21 31 23 18 25 27 26
REMARK SMILES IDX 19 27 25 28 20 29 23 30 28 31 26 33 21 35 22 36 24 38
REMARK H PARENT 9 20 11 22 31 24 28 32 26 34 22 37 24 39
REMARK Flexibility Score: inf
ROOT
ATOM      1  O   UNL     1     -11.761  27.516   7.985  1.00  0.00    -0.462 OA
ENDROOT
BRANCH   1   2
ATOM      2  C   UNL     1     -11.538  28.757   8.599  1.00  0.00     0.130 A 
ATOM      3  C   UNL     1     -10.823  33.329   8.011  1.00  0.00     0.138 A 
ATOM      4  C   UNL     1     -11.165  33.655   9.385  1.00  0.00     0.100 A 
ATOM      5  O   UNL     1     -11.068  32.104   7.526  1.00  0.00    -0.456 OA
ATOM      6  C   UNL     1     -11.615  32.588  10.207  1.00  0.00     0.197 A 
ATOM      7  C   UNL     1     -11.454  31.142   8.350  1.00  0.00     0.146 A 
ATOM      8  O   UNL     1     -11.851  32.860  11.404  1.00  0.00    -0.289 OA
ATOM      9  C   UNL     1     -11.610  31.267   9.742  1.00  0.00     0.107 A 
ATOM     10  C   UNL     1     -11.797  29.866   7.840  1.00  0.00     0.094 A 
ATOM     11  C   UNL     1     -11.615  30.140  10.613  1.00  0.00     0.134 A 
ATOM     12  C   UNL     1     -11.302  28.920  10.012  1.00  0.00     0.093 A 
BRANCH   3  13
ATOM     13  C   UNL     1     -10.131  34.433   7.264  1.00  0.00     0.021 A 
ATOM     14  C   UNL     1      -9.174  34.110   6.249  1.00  0.00     0.016 A 
ATOM     15  C   UNL     1      -8.373  35.191   5.776  1.00  0.00     0.051 A 
ATOM     16  C   UNL     1      -8.522  36.523   6.185  1.00  0.00     0.157 A 
ATOM     17  C   UNL     1     -10.213  35.833   7.770  1.00  0.00     0.062 A 
ATOM     18  C   UNL     1      -9.398  36.825   7.233  1.00  0.00     0.158 A 
BRANCH  16  19
ATOM     19  O   UNL     1      -7.801  37.642   5.657  1.00  0.00    -0.504 OA
ATOM     20  H   UNL     1      -7.189  37.458   4.857  1.00  0.00     0.293 HD
ENDBRANCH  16  19
BRANCH  18  21
ATOM     21  O   UNL     1      -9.524  38.119   7.706  1.00  0.00    -0.504 OA
ATOM     22  H   UNL     1     -10.365  38.607   7.513  1.00  0.00     0.293 HD
ENDBRANCH  18  21
ENDBRANCH   3  13
BRANCH  11  23
ATOM     23  O   UNL     1     -11.971  30.241  11.995  1.00  0.00    -0.507 OA
ATOM     24  H   UNL     1     -11.601  30.833  12.749  1.00  0.00     0.293 HD
ENDBRANCH  11  23
ENDBRANCH   1   2
BRANCH   1  25
ATOM     25  C   UNL     1     -11.251  27.535   6.567  1.00  0.00     0.339 C 
ATOM     26  C   UNL     1     -11.950  27.581   5.062  1.00  0.00     0.214 C 
ATOM     27  O   UNL     1      -9.997  26.883   6.461  1.00  0.00    -0.332 OA
ATOM     28  C   UNL     1     -10.756  27.531   3.953  1.00  0.00     0.180 C 
ATOM     29  C   UNL     1      -9.053  27.790   5.760  1.00  0.00     0.179 C 
ATOM     30  C   UNL     1      -9.506  28.302   4.391  1.00  0.00     0.177 C 
BRANCH  26  31
ATOM     31  O   UNL     1     -12.777  28.730   4.719  1.00  0.00    -0.384 OA
ATOM     32  H   UNL     1     -13.668  28.434   4.408  1.00  0.00     0.211 HD
ENDBRANCH  26  31
BRANCH  28  33
ATOM     33  O   UNL     1     -11.069  27.979   2.553  1.00  0.00    -0.387 OA
ATOM     34  H   UNL     1     -11.995  27.676   2.435  1.00  0.00     0.211 HD
ENDBRANCH  28  33
BRANCH  29  35
ATOM     35  C   UNL     1      -8.540  28.611   6.867  1.00  0.00     0.191 C 
BRANCH  35  36
ATOM     36  O   UNL     1      -7.635  29.636   6.408  1.00  0.00    -0.394 OA
ATOM     37  H   UNL     1      -7.395  30.164   7.212  1.00  0.00     0.210 HD
ENDBRANCH  35  36
ENDBRANCH  29  35
BRANCH  30  38
ATOM     38  O   UNL     1      -9.748  29.624   4.406  1.00  0.00    -0.387 OA
ATOM     39  H   UNL     1      -8.883  30.033   4.769  1.00  0.00     0.211 HD
ENDBRANCH  30  38
ENDBRANCH   1  25
TORSDOF 11
ENDMDL
