MODEL 1
REMARK VINA RESULT:    -5.336      0.000      0.000
REMARK INTER + INTRA:          -7.130
REMARK INTER:                  -7.520
REMARK INTRA:                   0.390
REMARK UNBOUND:                 0.390
REMARK SMILES CC1=CCC(=C(C)C)C(=O)CC(C)=CCC1
REMARK SMILES IDX 12 1 14 2 13 3 15 4 16 5 2 6 1 7 3 8 11 10 9 11 10 12 5 13
REMARK SMILES IDX 6 14 7 15 8 16 4 17
REMARK H PARENT
REMARK Flexibility Score: 60.00
ROOT
ATOM      1  C   UNL     1      -7.455  33.352  21.192  1.00  0.00    -0.070 C 
ATOM      2  C   UNL     1      -7.476  34.504  21.901  1.00  0.00    -0.027 C 
ATOM      3  C   UNL     1      -7.514  33.444  19.688  1.00  0.00     0.039 C 
ENDROOT
BRANCH   2   4
ATOM      4  C   UNL     1      -7.486  34.598  23.411  1.00  0.00     0.032 C 
BRANCH   4   5
ATOM      5  C   UNL     1      -8.860  34.233  23.991  1.00  0.00     0.034 C 
BRANCH   5   6
ATOM      6  C   UNL     1      -8.782  33.351  25.229  1.00  0.00    -0.077 C 
ATOM      7  C   UNL     1      -8.109  33.890  26.466  1.00  0.00     0.039 C 
ATOM      8  C   UNL     1      -9.272  32.090  25.276  1.00  0.00    -0.023 CG0
ATOM      9  G   UNL     1     -10.038  31.405  24.168  1.00  0.00     0.000 G0
ENDBRANCH   5   6
ENDBRANCH   4   5
ENDBRANCH   2   4
BRANCH   1  10
ATOM     10  C   UNL     1      -7.374  31.984  21.842  1.00  0.00     0.111 C 
BRANCH  10  11
ATOM     11  C   UNL     1      -8.732  31.347  21.936  1.00  0.00     0.163 C 
ATOM     12  O   UNL     1      -9.519  31.420  20.953  1.00  0.00    -0.294 OA
BRANCH  11  13
ATOM     13  C   UNL     1      -9.177  30.657  23.173  1.00  0.00    -0.002 C 
ATOM     14  C   UNL     1      -8.820  29.363  23.402  1.00  0.00    -0.069 C 
ATOM     15  C   UNL     1      -8.048  28.570  22.370  1.00  0.00     0.039 C 
ATOM     16  C   UNL     1      -9.218  28.659  24.678  1.00  0.00     0.039 C 
BRANCH  13  17
ATOM     17  C   UNL     1     -10.037  31.414  24.179  1.00  0.00     0.066 CG0
ATOM     18  G   UNL     1      -9.242  32.076  25.281  1.00  0.00     0.000 G0
ENDBRANCH  13  17
ENDBRANCH  11  13
ENDBRANCH  10  11
ENDBRANCH   1  10
TORSDOF 0
ENDMDL
MODEL 2
REMARK VINA RESULT:    -5.139      1.881      4.971
REMARK INTER + INTRA:          -6.852
REMARK INTER:                  -7.355
REMARK INTRA:                   0.503
REMARK UNBOUND:                 0.390
REMARK SMILES CC1=CCC(=C(C)C)C(=O)CC(C)=CCC1
REMARK SMILES IDX 12 1 14 2 13 3 15 4 16 5 2 6 1 7 3 8 11 10 9 11 10 12 5 13
REMARK SMILES IDX 6 14 7 15 8 16 4 17
REMARK H PARENT
REMARK Flexibility Score: 60.00
ROOT
ATOM      1  C   UNL     1      -8.797  29.646  24.531  1.00  0.00    -0.070 C 
ATOM      2  C   UNL     1      -8.766  29.216  23.248  1.00  0.00    -0.027 C 
ATOM      3  C   UNL     1      -9.667  28.898  25.509  1.00  0.00     0.039 C 
ENDROOT
BRANCH   2   4
ATOM      4  C   UNL     1      -8.000  29.878  22.125  1.00  0.00     0.032 C 
BRANCH   4   5
ATOM      5  C   UNL     1      -8.842  30.957  21.426  1.00  0.00     0.034 C 
BRANCH   5   6
ATOM      6  C   UNL     1      -8.174  32.324  21.394  1.00  0.00    -0.077 C 
ATOM      7  C   UNL     1      -7.128  32.598  20.343  1.00  0.00     0.039 C 
ATOM      8  C   UNL     1      -8.456  33.310  22.277  1.00  0.00    -0.023 CG0
ATOM      9  G   UNL     1      -9.517  33.249  23.350  1.00  0.00     0.000 G0
ENDBRANCH   5   6
ENDBRANCH   4   5
ENDBRANCH   2   4
BRANCH   1  10
ATOM     10  C   UNL     1      -7.997  30.838  25.021  1.00  0.00     0.111 C 
BRANCH  10  11
ATOM     11  C   UNL     1      -8.902  31.931  25.516  1.00  0.00     0.163 C 
ATOM     12  O   UNL     1      -9.611  31.731  26.539  1.00  0.00    -0.294 OA
BRANCH  11  13
ATOM     13  C   UNL     1      -8.998  33.233  24.809  1.00  0.00    -0.002 C 
ATOM     14  C   UNL     1      -8.610  34.381  25.429  1.00  0.00    -0.069 C 
ATOM     15  C   UNL     1      -8.162  34.375  26.875  1.00  0.00     0.039 C 
ATOM     16  C   UNL     1      -8.650  35.709  24.710  1.00  0.00     0.039 C 
BRANCH  13  17
ATOM     17  C   UNL     1      -9.537  33.268  23.383  1.00  0.00     0.066 CG0
ATOM     18  G   UNL     1      -8.458  33.308  22.326  1.00  0.00     0.000 G0
ENDBRANCH  13  17
ENDBRANCH  11  13
ENDBRANCH  10  11
ENDBRANCH   1  10
TORSDOF 0
ENDMDL
MODEL 3
REMARK VINA RESULT:    -5.085      1.738      3.563
REMARK INTER + INTRA:          -6.776
REMARK INTER:                  -7.384
REMARK INTRA:                   0.608
REMARK UNBOUND:                 0.390
REMARK SMILES CC1=CCC(=C(C)C)C(=O)CC(C)=CCC1
REMARK SMILES IDX 12 1 14 2 13 3 15 4 16 5 2 6 1 7 3 8 11 10 9 11 10 12 5 13
REMARK SMILES IDX 6 14 7 15 8 16 4 17
REMARK H PARENT
REMARK Flexibility Score: 60.00
ROOT
ATOM      1  C   UNL     1      -8.186  29.788  22.361  1.00  0.00    -0.070 C 
ATOM      2  C   UNL     1      -8.322  30.581  21.273  1.00  0.00    -0.027 C 
ATOM      3  C   UNL     1      -8.547  28.331  22.226  1.00  0.00     0.039 C 
ENDROOT
BRANCH   2   4
ATOM      4  C   UNL     1      -8.066  32.071  21.242  1.00  0.00     0.032 C 
BRANCH   4   5
ATOM      5  C   UNL     1      -9.010  32.827  22.190  1.00  0.00     0.034 C 
BRANCH   5   6
ATOM      6  C   UNL     1      -8.295  33.816  23.099  1.00  0.00    -0.077 C 
ATOM      7  C   UNL     1      -7.357  34.823  22.483  1.00  0.00     0.039 C 
ATOM      8  C   UNL     1      -8.442  33.831  24.444  1.00  0.00    -0.023 CG0
ATOM      9  G   UNL     1      -9.385  32.952  25.232  1.00  0.00     0.000 G0
ENDBRANCH   5   6
ENDBRANCH   4   5
ENDBRANCH   2   4
BRANCH   1  10
ATOM     10  C   UNL     1      -7.689  30.302  23.699  1.00  0.00     0.111 C 
BRANCH  10  11
ATOM     11  C   UNL     1      -8.826  30.487  24.665  1.00  0.00     0.163 C 
ATOM     12  O   UNL     1      -9.809  29.699  24.621  1.00  0.00    -0.294 OA
BRANCH  11  13
ATOM     13  C   UNL     1      -8.827  31.596  25.652  1.00  0.00    -0.002 C 
ATOM     14  C   UNL     1      -8.324  31.402  26.902  1.00  0.00    -0.069 C 
ATOM     15  C   UNL     1      -7.841  30.039  27.348  1.00  0.00     0.039 C 
ATOM     16  C   UNL     1      -8.267  32.531  27.905  1.00  0.00     0.039 C 
BRANCH  13  17
ATOM     17  C   UNL     1      -9.398  32.951  25.249  1.00  0.00     0.066 CG0
ATOM     18  G   UNL     1      -8.433  33.810  24.466  1.00  0.00     0.000 G0
ENDBRANCH  13  17
ENDBRANCH  11  13
ENDBRANCH  10  11
ENDBRANCH   1  10
TORSDOF 0
ENDMDL
MODEL 4
REMARK VINA RESULT:    -4.987      1.639      3.703
REMARK INTER + INTRA:          -6.638
REMARK INTER:                  -7.151
REMARK INTRA:                   0.513
REMARK UNBOUND:                 0.390
REMARK SMILES CC1=CCC(=C(C)C)C(=O)CC(C)=CCC1
REMARK SMILES IDX 12 1 14 2 13 3 15 4 16 5 2 6 1 7 3 8 11 10 9 11 10 12 5 13
REMARK SMILES IDX 6 14 7 15 8 16 4 17
REMARK H PARENT
REMARK Flexibility Score: 60.00
ROOT
ATOM      1  C   UNL     1      -7.763  33.765  22.448  1.00  0.00    -0.070 C 
ATOM      2  C   UNL     1      -7.900  33.048  21.309  1.00  0.00    -0.027 C 
ATOM      3  C   UNL     1      -7.959  35.258  22.374  1.00  0.00     0.039 C 
ENDROOT
BRANCH   2   4
ATOM      4  C   UNL     1      -7.681  31.557  21.186  1.00  0.00     0.032 C 
BRANCH   4   5
ATOM      5  C   UNL     1      -8.929  30.765  21.604  1.00  0.00     0.034 C 
BRANCH   5   6
ATOM      6  C   UNL     1      -8.672  29.772  22.728  1.00  0.00    -0.077 C 
ATOM      7  C   UNL     1      -7.837  28.549  22.441  1.00  0.00     0.039 C 
ATOM      8  C   UNL     1      -9.170  29.917  23.977  1.00  0.00    -0.023 CG0
ATOM      9  G   UNL     1      -9.964  31.103  24.472  1.00  0.00     0.000 G0
ENDBRANCH   5   6
ENDBRANCH   4   5
ENDBRANCH   2   4
BRANCH   1  10
ATOM     10  C   UNL     1      -7.423  33.134  23.785  1.00  0.00     0.111 C 
BRANCH  10  11
ATOM     11  C   UNL     1      -8.566  33.266  24.752  1.00  0.00     0.163 C 
ATOM     12  O   UNL     1      -8.974  34.415  25.073  1.00  0.00    -0.294 OA
BRANCH  11  13
ATOM     13  C   UNL     1      -9.206  32.071  25.358  1.00  0.00    -0.002 C 
ATOM     14  C   UNL     1      -9.096  31.839  26.695  1.00  0.00    -0.069 C 
ATOM     15  C   UNL     1      -8.249  32.729  27.577  1.00  0.00     0.039 C 
ATOM     16  C   UNL     1      -9.783  30.658  27.340  1.00  0.00     0.039 C 
BRANCH  13  17
ATOM     17  C   UNL     1      -9.985  31.111  24.466  1.00  0.00     0.066 CG0
ATOM     18  G   UNL     1      -9.173  29.928  23.992  1.00  0.00     0.000 G0
ENDBRANCH  13  17
ENDBRANCH  11  13
ENDBRANCH  10  11
ENDBRANCH   1  10
TORSDOF 0
ENDMDL
MODEL 5
REMARK VINA RESULT:    -4.827      1.615      3.997
REMARK INTER + INTRA:          -6.413
REMARK INTER:                  -7.138
REMARK INTRA:                   0.724
REMARK UNBOUND:                 0.390
REMARK SMILES CC1=CCC(=C(C)C)C(=O)CC(C)=CCC1
REMARK SMILES IDX 12 1 14 2 13 3 15 4 16 5 2 6 1 7 3 8 11 10 9 11 10 12 5 13
REMARK SMILES IDX 6 14 7 15 8 16 4 17
REMARK H PARENT
REMARK Flexibility Score: 60.00
ROOT
ATOM      1  C   UNL     1      -8.153  32.339  21.056  1.00  0.00    -0.070 C 
ATOM      2  C   UNL     1      -8.121  30.986  21.078  1.00  0.00    -0.027 C 
ATOM      3  C   UNL     1      -7.218  33.055  20.115  1.00  0.00     0.039 C 
ENDROOT
BRANCH   2   4
ATOM      4  C   UNL     1      -8.941  30.109  21.997  1.00  0.00     0.032 C 
BRANCH   4   5
ATOM      5  C   UNL     1      -8.134  29.670  23.228  1.00  0.00     0.034 C 
BRANCH   5   6
ATOM      6  C   UNL     1      -8.743  30.121  24.548  1.00  0.00    -0.077 C 
ATOM      7  C   UNL     1      -9.714  29.205  25.251  1.00  0.00     0.039 C 
ATOM      8  C   UNL     1      -8.475  31.316  25.122  1.00  0.00    -0.023 CG0
ATOM      9  G   UNL     1      -7.481  32.332  24.607  1.00  0.00     0.000 G0
ENDBRANCH   5   6
ENDBRANCH   4   5
ENDBRANCH   2   4
BRANCH   1  10
ATOM     10  C   UNL     1      -9.085  33.156  21.931  1.00  0.00     0.111 C 
BRANCH  10  11
ATOM     11  C   UNL     1      -8.312  34.056  22.853  1.00  0.00     0.163 C 
ATOM     12  O   UNL     1      -7.820  35.127  22.404  1.00  0.00    -0.294 OA
BRANCH  11  13
ATOM     13  C   UNL     1      -8.092  33.696  24.277  1.00  0.00    -0.002 C 
ATOM     14  C   UNL     1      -8.437  34.567  25.264  1.00  0.00    -0.069 C 
ATOM     15  C   UNL     1      -8.962  35.949  24.941  1.00  0.00     0.039 C 
ATOM     16  C   UNL     1      -8.271  34.200  26.721  1.00  0.00     0.039 C 
BRANCH  13  17
ATOM     17  C   UNL     1      -7.475  32.344  24.616  1.00  0.00     0.066 CG0
ATOM     18  G   UNL     1      -8.475  31.327  25.115  1.00  0.00     0.000 G0
ENDBRANCH  13  17
ENDBRANCH  11  13
ENDBRANCH  10  11
ENDBRANCH   1  10
TORSDOF 0
ENDMDL
MODEL 6
REMARK VINA RESULT:    -4.774      1.935      3.630
REMARK INTER + INTRA:          -6.337
REMARK INTER:                  -6.698
REMARK INTRA:                   0.361
REMARK UNBOUND:                 0.390
REMARK SMILES CC1=CCC(=C(C)C)C(=O)CC(C)=CCC1
REMARK SMILES IDX 12 1 14 2 13 3 15 4 16 5 2 6 1 7 3 8 11 10 9 11 10 12 5 13
REMARK SMILES IDX 6 14 7 15 8 16 4 17
REMARK H PARENT
REMARK Flexibility Score: 60.00
ROOT
ATOM      1  C   UNL     1      -8.545  34.133  25.410  1.00  0.00    -0.070 C 
ATOM      2  C   UNL     1      -8.392  33.711  26.687  1.00  0.00    -0.027 C 
ATOM      3  C   UNL     1      -7.951  35.464  25.027  1.00  0.00     0.039 C 
ENDROOT
BRANCH   2   4
ATOM      4  C   UNL     1      -8.971  32.437  27.259  1.00  0.00     0.032 C 
BRANCH   4   5
ATOM      5  C   UNL     1      -8.025  31.244  27.053  1.00  0.00     0.034 C 
BRANCH   5   6
ATOM      6  C   UNL     1      -8.677  30.067  26.343  1.00  0.00    -0.077 C 
ATOM      7  C   UNL     1      -9.682  29.230  27.094  1.00  0.00     0.039 C 
ATOM      8  C   UNL     1      -8.388  29.714  25.069  1.00  0.00    -0.023 CG0
ATOM      9  G   UNL     1      -7.466  30.467  24.139  1.00  0.00     0.000 G0
ENDBRANCH   5   6
ENDBRANCH   4   5
ENDBRANCH   2   4
BRANCH   1  10
ATOM     10  C   UNL     1      -9.282  33.327  24.358  1.00  0.00     0.111 C 
BRANCH  10  11
ATOM     11  C   UNL     1      -8.332  32.781  23.329  1.00  0.00     0.163 C 
ATOM     12  O   UNL     1      -7.645  33.580  22.637  1.00  0.00    -0.294 OA
BRANCH  11  13
ATOM     13  C   UNL     1      -8.206  31.320  23.093  1.00  0.00    -0.002 C 
ATOM     14  C   UNL     1      -8.748  30.758  21.978  1.00  0.00    -0.069 C 
ATOM     15  C   UNL     1      -9.565  31.578  21.005  1.00  0.00     0.039 C 
ATOM     16  C   UNL     1      -8.586  29.282  21.692  1.00  0.00     0.039 C 
BRANCH  13  17
ATOM     17  C   UNL     1      -7.467  30.463  24.113  1.00  0.00     0.066 CG0
ATOM     18  G   UNL     1      -8.381  29.717  25.057  1.00  0.00     0.000 G0
ENDBRANCH  13  17
ENDBRANCH  11  13
ENDBRANCH  10  11
ENDBRANCH   1  10
TORSDOF 0
ENDMDL
MODEL 7
REMARK VINA RESULT:    -4.693      1.418      3.579
REMARK INTER + INTRA:          -6.223
REMARK INTER:                  -7.082
REMARK INTRA:                   0.860
REMARK UNBOUND:                 0.390
REMARK SMILES CC1=CCC(=C(C)C)C(=O)CC(C)=CCC1
REMARK SMILES IDX 12 1 14 2 13 3 15 4 16 5 2 6 1 7 3 8 11 10 9 11 10 12 5 13
REMARK SMILES IDX 6 14 7 15 8 16 4 17
REMARK H PARENT
REMARK Flexibility Score: 60.00
ROOT
ATOM      1  C   UNL     1      -7.679  30.306  24.202  1.00  0.00    -0.070 C 
ATOM      2  C   UNL     1      -7.607  30.360  25.553  1.00  0.00    -0.027 C 
ATOM      3  C   UNL     1      -6.391  30.369  23.421  1.00  0.00     0.039 C 
ENDROOT
BRANCH   2   4
ATOM      4  C   UNL     1      -8.795  30.371  26.489  1.00  0.00     0.032 C 
BRANCH   4   5
ATOM      5  C   UNL     1      -9.643  31.639  26.310  1.00  0.00     0.034 C 
BRANCH   5   6
ATOM      6  C   UNL     1      -8.816  32.901  26.109  1.00  0.00    -0.077 C 
ATOM      7  C   UNL     1      -7.904  33.358  27.219  1.00  0.00     0.039 C 
ATOM      8  C   UNL     1      -8.868  33.653  24.985  1.00  0.00    -0.023 CG0
ATOM      9  G   UNL     1      -9.664  33.321  23.744  1.00  0.00     0.000 G0
ENDBRANCH   5   6
ENDBRANCH   4   5
ENDBRANCH   2   4
BRANCH   1  10
ATOM     10  C   UNL     1      -8.990  30.186  23.449  1.00  0.00     0.111 C 
BRANCH  10  11
ATOM     11  C   UNL     1      -9.085  31.215  22.358  1.00  0.00     0.163 C 
ATOM     12  O   UNL     1      -9.315  30.843  21.176  1.00  0.00    -0.294 OA
BRANCH  11  13
ATOM     13  C   UNL     1      -8.887  32.660  22.640  1.00  0.00    -0.002 C 
ATOM     14  C   UNL     1      -8.001  33.386  21.905  1.00  0.00    -0.069 C 
ATOM     15  C   UNL     1      -7.135  32.731  20.852  1.00  0.00     0.039 C 
ATOM     16  C   UNL     1      -7.823  34.868  22.140  1.00  0.00     0.039 C 
BRANCH  13  17
ATOM     17  C   UNL     1      -9.684  33.315  23.763  1.00  0.00     0.066 CG0
ATOM     18  G   UNL     1      -8.854  33.661  24.977  1.00  0.00     0.000 G0
ENDBRANCH  13  17
ENDBRANCH  11  13
ENDBRANCH  10  11
ENDBRANCH   1  10
TORSDOF 0
ENDMDL
MODEL 8
REMARK VINA RESULT:    -4.670      2.193      5.447
REMARK INTER + INTRA:          -6.191
REMARK INTER:                  -6.801
REMARK INTRA:                   0.611
REMARK UNBOUND:                 0.390
REMARK SMILES CC1=CCC(=C(C)C)C(=O)CC(C)=CCC1
REMARK SMILES IDX 12 1 14 2 13 3 15 4 16 5 2 6 1 7 3 8 11 10 9 11 10 12 5 13
REMARK SMILES IDX 6 14 7 15 8 16 4 17
REMARK H PARENT
REMARK Flexibility Score: 60.00
ROOT
ATOM      1  C   UNL     1      -9.061  30.648  26.545  1.00  0.00    -0.070 C 
ATOM      2  C   UNL     1      -9.033  29.552  25.751  1.00  0.00    -0.027 C 
ATOM      3  C   UNL     1      -8.502  30.527  27.940  1.00  0.00     0.039 C 
ENDROOT
BRANCH   2   4
ATOM      4  C   UNL     1      -9.601  29.474  24.352  1.00  0.00     0.032 C 
BRANCH   4   5
ATOM      5  C   UNL     1      -8.493  29.496  23.289  1.00  0.00     0.034 C 
BRANCH   5   6
ATOM      6  C   UNL     1      -8.605  30.661  22.318  1.00  0.00    -0.077 C 
ATOM      7  C   UNL     1      -9.379  30.470  21.038  1.00  0.00     0.039 C 
ATOM      8  C   UNL     1      -8.027  31.866  22.531  1.00  0.00    -0.023 CG0
ATOM      9  G   UNL     1      -7.275  32.269  23.779  1.00  0.00     0.000 G0
ENDBRANCH   5   6
ENDBRANCH   4   5
ENDBRANCH   2   4
BRANCH   1  10
ATOM     10  C   UNL     1      -9.626  31.980  26.092  1.00  0.00     0.111 C 
BRANCH  10  11
ATOM     11  C   UNL     1      -8.537  33.003  25.928  1.00  0.00     0.163 C 
ATOM     12  O   UNL     1      -8.079  33.587  26.947  1.00  0.00    -0.294 OA
BRANCH  11  13
ATOM     13  C   UNL     1      -8.009  33.359  24.586  1.00  0.00    -0.002 C 
ATOM     14  C   UNL     1      -8.177  34.617  24.095  1.00  0.00    -0.069 C 
ATOM     15  C   UNL     1      -8.980  35.652  24.852  1.00  0.00     0.039 C 
ATOM     16  C   UNL     1      -7.602  35.015  22.756  1.00  0.00     0.039 C 
BRANCH  13  17
ATOM     17  C   UNL     1      -7.279  32.299  23.769  1.00  0.00     0.066 CG0
ATOM     18  G   UNL     1      -8.023  31.871  22.525  1.00  0.00     0.000 G0
ENDBRANCH  13  17
ENDBRANCH  11  13
ENDBRANCH  10  11
ENDBRANCH   1  10
TORSDOF 0
ENDMDL
MODEL 9
REMARK VINA RESULT:    -4.403      1.782      3.726
REMARK INTER + INTRA:          -5.814
REMARK INTER:                  -7.674
REMARK INTRA:                   1.859
REMARK UNBOUND:                 0.390
REMARK SMILES CC1=CCC(=C(C)C)C(=O)CC(C)=CCC1
REMARK SMILES IDX 12 1 14 2 13 3 15 4 16 5 2 6 1 7 3 8 11 10 9 11 10 12 5 13
REMARK SMILES IDX 6 14 7 15 8 16 4 17
REMARK H PARENT
REMARK Flexibility Score: 60.00
ROOT
ATOM      1  C   UNL     1      -8.325  34.101  24.721  1.00  0.00    -0.070 C 
ATOM      2  C   UNL     1      -7.299  34.661  24.037  1.00  0.00    -0.027 C 
ATOM      3  C   UNL     1      -8.251  34.090  26.226  1.00  0.00     0.039 C 
ENDROOT
BRANCH   2   4
ATOM      4  C   UNL     1      -7.177  34.706  22.531  1.00  0.00     0.032 C 
BRANCH   4   5
ATOM      5  C   UNL     1      -8.363  34.010  21.846  1.00  0.00     0.034 C 
BRANCH   5   6
ATOM      6  C   UNL     1      -7.946  32.999  20.787  1.00  0.00    -0.077 C 
ATOM      7  C   UNL     1      -6.947  33.416  19.738  1.00  0.00     0.039 C 
ATOM      8  C   UNL     1      -8.441  31.742  20.723  1.00  0.00    -0.023 CG0
ATOM      9  G   UNL     1      -9.392  31.122  21.721  1.00  0.00     0.000 G0
ENDBRANCH   5   6
ENDBRANCH   4   5
ENDBRANCH   2   4
BRANCH   1  10
ATOM     10  C   UNL     1      -9.536  33.493  24.039  1.00  0.00     0.111 C 
BRANCH  10  11
ATOM     11  C   UNL     1      -9.539  31.996  24.175  1.00  0.00     0.163 C 
ATOM     12  O   UNL     1     -10.107  31.467  25.169  1.00  0.00    -0.294 OA
BRANCH  11  13
ATOM     13  C   UNL     1      -8.863  31.129  23.177  1.00  0.00    -0.002 C 
ATOM     14  C   UNL     1      -7.794  30.370  23.541  1.00  0.00    -0.069 C 
ATOM     15  C   UNL     1      -7.210  30.457  24.934  1.00  0.00     0.039 C 
ATOM     16  C   UNL     1      -7.125  29.441  22.554  1.00  0.00     0.039 C 
BRANCH  13  17
ATOM     17  C   UNL     1      -9.382  31.101  21.743  1.00  0.00     0.066 CG0
ATOM     18  G   UNL     1      -8.438  31.729  20.744  1.00  0.00     0.000 G0
ENDBRANCH  13  17
ENDBRANCH  11  13
ENDBRANCH  10  11
ENDBRANCH   1  10
TORSDOF 0
ENDMDL
