MODEL 1
REMARK VINA RESULT:    -4.642      0.000      0.000
REMARK INTER + INTRA:          -6.415
REMARK INTER:                  -6.270
REMARK INTRA:                  -0.145
REMARK UNBOUND:                -0.145
REMARK SMILES [NH3+]CCCC[C@H]([NH3+])C(=O)[O-]
REMARK SMILES IDX 4 1 3 2 2 3 1 4 5 8 6 9 7 10 8 14 9 15 10 16
REMARK H PARENT 1 5 1 6 1 7 7 11 7 12 7 13
REMARK Flexibility Score: inf
ROOT
ATOM      1  C   UNL     1      22.654   5.725  15.462  1.00  0.00     0.012 C 
ENDROOT
BRANCH   1   2
ATOM      2  C   UNL     1      22.257   7.209  15.455  1.00  0.00     0.061 C 
BRANCH   2   3
ATOM      3  C   UNL     1      23.457   8.098  15.101  1.00  0.00     0.258 C 
BRANCH   3   4
ATOM      4  N   UNL     1      23.018   9.440  14.718  1.00  0.00    -0.358 N 
ATOM      5  H   UNL     1      21.981   9.452  14.575  1.00  0.00     0.344 HD
ATOM      6  H   UNL     1      23.485   9.710  13.823  1.00  0.00     0.344 HD
ATOM      7  H   UNL     1      23.282  10.129  15.459  1.00  0.00     0.344 HD
ENDBRANCH   3   4
ENDBRANCH   2   3
ENDBRANCH   1   2
BRANCH   1   8
ATOM      8  C   UNL     1      24.138   5.513  15.092  1.00  0.00     0.072 C 
BRANCH   8   9
ATOM      9  C   UNL     1      24.825   4.392  15.905  1.00  0.00     0.227 C 
BRANCH   9  10
ATOM     10  N   UNL     1      23.959   3.880  16.975  1.00  0.00    -0.350 N 
ATOM     11  H   UNL     1      23.522   2.977  16.680  1.00  0.00     0.345 HD
ATOM     12  H   UNL     1      24.526   3.688  17.832  1.00  0.00     0.345 HD
ATOM     13  H   UNL     1      23.210   4.572  17.210  1.00  0.00     0.345 HD
ENDBRANCH   9  10
BRANCH   9  14
ATOM     14  C   UNL     1      26.112   4.912  16.488  1.00  0.00     0.099 C 
ATOM     15  O   UNL     1      26.813   5.736  15.844  1.00  0.00    -0.544 OA
ATOM     16  O   UNL     1      26.524   4.503  17.752  1.00  0.00    -0.544 OA
ENDBRANCH   9  14
ENDBRANCH   8   9
ENDBRANCH   1   8
TORSDOF 7
ENDMDL
MODEL 2
REMARK VINA RESULT:    -4.629      1.871      2.273
REMARK INTER + INTRA:          -6.399
REMARK INTER:                  -6.272
REMARK INTRA:                  -0.127
REMARK UNBOUND:                -0.145
REMARK SMILES [NH3+]CCCC[C@H]([NH3+])C(=O)[O-]
REMARK SMILES IDX 4 1 3 2 2 3 1 4 5 8 6 9 7 10 8 14 9 15 10 16
REMARK H PARENT 1 5 1 6 1 7 7 11 7 12 7 13
REMARK Flexibility Score: inf
ROOT
ATOM      1  C   UNL     1      22.115   7.311  15.426  1.00  0.00     0.012 C 
ENDROOT
BRANCH   1   2
ATOM      2  C   UNL     1      23.098   8.451  15.116  1.00  0.00     0.061 C 
BRANCH   2   3
ATOM      3  C   UNL     1      22.472   9.817  15.426  1.00  0.00     0.258 C 
BRANCH   3   4
ATOM      4  N   UNL     1      23.404  10.661  16.173  1.00  0.00    -0.358 N 
ATOM      5  H   UNL     1      23.391  11.635  15.793  1.00  0.00     0.344 HD
ATOM      6  H   UNL     1      24.370  10.273  16.075  1.00  0.00     0.344 HD
ATOM      7  H   UNL     1      23.146  10.672  17.186  1.00  0.00     0.344 HD
ENDBRANCH   3   4
ENDBRANCH   2   3
ENDBRANCH   1   2
BRANCH   1   8
ATOM      8  C   UNL     1      22.713   5.921  15.118  1.00  0.00     0.072 C 
BRANCH   8   9
ATOM      9  C   UNL     1      24.197   5.968  14.684  1.00  0.00     0.227 C 
BRANCH   9  10
ATOM     10  N   UNL     1      24.362   5.663  13.258  1.00  0.00    -0.350 N 
ATOM     11  H   UNL     1      23.989   6.450  12.679  1.00  0.00     0.345 HD
ATOM     12  H   UNL     1      25.378   5.561  13.030  1.00  0.00     0.345 HD
ATOM     13  H   UNL     1      23.865   4.777  13.007  1.00  0.00     0.345 HD
ENDBRANCH   9  10
BRANCH   9  14
ATOM     14  C   UNL     1      24.993   4.997  15.515  1.00  0.00     0.099 C 
ATOM     15  O   UNL     1      24.513   3.870  15.807  1.00  0.00    -0.544 OA
ATOM     16  O   UNL     1      26.272   5.329  15.946  1.00  0.00    -0.544 OA
ENDBRANCH   9  14
ENDBRANCH   8   9
ENDBRANCH   1   8
TORSDOF 7
ENDMDL
MODEL 3
REMARK VINA RESULT:    -4.560      2.692      4.620
REMARK INTER + INTRA:          -6.306
REMARK INTER:                  -6.182
REMARK INTRA:                  -0.124
REMARK UNBOUND:                -0.145
REMARK SMILES [NH3+]CCCC[C@H]([NH3+])C(=O)[O-]
REMARK SMILES IDX 4 1 3 2 2 3 1 4 5 8 6 9 7 10 8 14 9 15 10 16
REMARK H PARENT 1 5 1 6 1 7 7 11 7 12 7 13
REMARK Flexibility Score: inf
ROOT
ATOM      1  C   UNL     1      25.264   4.575  16.315  1.00  0.00     0.012 C 
ENDROOT
BRANCH   1   2
ATOM      2  C   UNL     1      26.524   4.613  17.194  1.00  0.00     0.061 C 
BRANCH   2   3
ATOM      3  C   UNL     1      26.193   4.245  18.646  1.00  0.00     0.258 C 
BRANCH   3   4
ATOM      4  N   UNL     1      24.811   3.779  18.765  1.00  0.00    -0.358 N 
ATOM      5  H   UNL     1      24.198   4.294  18.092  1.00  0.00     0.344 HD
ATOM      6  H   UNL     1      24.472   3.959  19.737  1.00  0.00     0.344 HD
ATOM      7  H   UNL     1      24.761   2.752  18.575  1.00  0.00     0.344 HD
ENDBRANCH   3   4
ENDBRANCH   2   3
ENDBRANCH   1   2
BRANCH   1   8
ATOM      8  C   UNL     1      25.251   5.701  15.259  1.00  0.00     0.072 C 
BRANCH   8   9
ATOM      9  C   UNL     1      23.986   5.703  14.371  1.00  0.00     0.227 C 
BRANCH   9  10
ATOM     10  N   UNL     1      24.233   6.328  13.066  1.00  0.00    -0.350 N 
ATOM     11  H   UNL     1      23.572   7.125  12.921  1.00  0.00     0.345 HD
ATOM     12  H   UNL     1      25.204   6.715  13.033  1.00  0.00     0.345 HD
ATOM     13  H   UNL     1      24.117   5.632  12.293  1.00  0.00     0.345 HD
ENDBRANCH   9  10
BRANCH   9  14
ATOM     14  C   UNL     1      22.872   6.423  15.085  1.00  0.00     0.099 C 
ATOM     15  O   UNL     1      22.901   7.675  15.205  1.00  0.00    -0.544 OA
ATOM     16  O   UNL     1      21.794   5.710  15.596  1.00  0.00    -0.544 OA
ENDBRANCH   9  14
ENDBRANCH   8   9
ENDBRANCH   1   8
TORSDOF 7
ENDMDL
MODEL 4
REMARK VINA RESULT:    -4.452      2.978      4.885
REMARK INTER + INTRA:          -6.160
REMARK INTER:                  -6.026
REMARK INTRA:                  -0.134
REMARK UNBOUND:                -0.145
REMARK SMILES [NH3+]CCCC[C@H]([NH3+])C(=O)[O-]
REMARK SMILES IDX 4 1 3 2 2 3 1 4 5 8 6 9 7 10 8 14 9 15 10 16
REMARK H PARENT 1 5 1 6 1 7 7 11 7 12 7 13
REMARK Flexibility Score: inf
ROOT
ATOM      1  C   UNL     1      24.282   5.551  14.688  1.00  0.00     0.012 C 
ENDROOT
BRANCH   1   2
ATOM      2  C   UNL     1      24.762   4.669  15.851  1.00  0.00     0.061 C 
BRANCH   2   3
ATOM      3  C   UNL     1      26.231   4.957  16.189  1.00  0.00     0.258 C 
BRANCH   3   4
ATOM      4  N   UNL     1      26.548   4.521  17.549  1.00  0.00    -0.358 N 
ATOM      5  H   UNL     1      27.378   5.045  17.911  1.00  0.00     0.344 HD
ATOM      6  H   UNL     1      26.773   3.500  17.538  1.00  0.00     0.344 HD
ATOM      7  H   UNL     1      25.727   4.679  18.178  1.00  0.00     0.344 HD
ENDBRANCH   3   4
ENDBRANCH   2   3
ENDBRANCH   1   2
BRANCH   1   8
ATOM      8  C   UNL     1      23.333   6.675  15.158  1.00  0.00     0.072 C 
BRANCH   8   9
ATOM      9  C   UNL     1      23.725   8.075  14.634  1.00  0.00     0.227 C 
BRANCH   9  10
ATOM     10  N   UNL     1      25.139   8.379  14.886  1.00  0.00    -0.350 N 
ATOM     11  H   UNL     1      25.432   9.210  14.322  1.00  0.00     0.345 HD
ATOM     12  H   UNL     1      25.278   8.620  15.894  1.00  0.00     0.345 HD
ATOM     13  H   UNL     1      25.744   7.560  14.644  1.00  0.00     0.345 HD
ENDBRANCH   9  10
BRANCH   9  14
ATOM     14  C   UNL     1      22.850   9.117  15.282  1.00  0.00     0.099 C 
ATOM     15  O   UNL     1      23.338   9.925  16.114  1.00  0.00    -0.544 OA
ATOM     16  O   UNL     1      21.504   9.206  14.947  1.00  0.00    -0.544 OA
ENDBRANCH   9  14
ENDBRANCH   8   9
ENDBRANCH   1   8
TORSDOF 7
ENDMDL
MODEL 5
REMARK VINA RESULT:    -4.228      3.021      4.666
REMARK INTER + INTRA:          -5.856
REMARK INTER:                  -5.740
REMARK INTRA:                  -0.116
REMARK UNBOUND:                -0.145
REMARK SMILES [NH3+]CCCC[C@H]([NH3+])C(=O)[O-]
REMARK SMILES IDX 4 1 3 2 2 3 1 4 5 8 6 9 7 10 8 14 9 15 10 16
REMARK H PARENT 1 5 1 6 1 7 7 11 7 12 7 13
REMARK Flexibility Score: inf
ROOT
ATOM      1  C   UNL     1      23.917   5.163  14.730  1.00  0.00     0.012 C 
ENDROOT
BRANCH   1   2
ATOM      2  C   UNL     1      24.526   4.631  16.038  1.00  0.00     0.061 C 
BRANCH   2   3
ATOM      3  C   UNL     1      26.024   4.951  16.117  1.00  0.00     0.258 C 
BRANCH   3   4
ATOM      4  N   UNL     1      26.575   4.552  17.412  1.00  0.00    -0.358 N 
ATOM      5  H   UNL     1      27.612   4.688  17.420  1.00  0.00     0.344 HD
ATOM      6  H   UNL     1      26.366   3.540  17.576  1.00  0.00     0.344 HD
ATOM      7  H   UNL     1      26.138   5.114  18.178  1.00  0.00     0.344 HD
ENDBRANCH   3   4
ENDBRANCH   2   3
ENDBRANCH   1   2
BRANCH   1   8
ATOM      8  C   UNL     1      23.783   6.700  14.728  1.00  0.00     0.072 C 
BRANCH   8   9
ATOM      9  C   UNL     1      22.607   7.220  15.586  1.00  0.00     0.227 C 
BRANCH   9  10
ATOM     10  N   UNL     1      21.353   6.521  15.279  1.00  0.00    -0.350 N 
ATOM     11  H   UNL     1      20.717   7.149  14.735  1.00  0.00     0.345 HD
ATOM     12  H   UNL     1      21.548   5.682  14.684  1.00  0.00     0.345 HD
ATOM     13  H   UNL     1      20.875   6.212  16.157  1.00  0.00     0.345 HD
ENDBRANCH   9  10
BRANCH   9  14
ATOM     14  C   UNL     1      22.439   8.700  15.364  1.00  0.00     0.099 C 
ATOM     15  O   UNL     1      21.391   9.146  14.829  1.00  0.00    -0.544 OA
ATOM     16  O   UNL     1      23.431   9.585  15.770  1.00  0.00    -0.544 OA
ENDBRANCH   9  14
ENDBRANCH   8   9
ENDBRANCH   1   8
TORSDOF 7
ENDMDL
MODEL 6
REMARK VINA RESULT:    -4.148      1.573      2.204
REMARK INTER + INTRA:          -5.748
REMARK INTER:                  -5.658
REMARK INTRA:                  -0.090
REMARK UNBOUND:                -0.145
REMARK SMILES [NH3+]CCCC[C@H]([NH3+])C(=O)[O-]
REMARK SMILES IDX 4 1 3 2 2 3 1 4 5 8 6 9 7 10 8 14 9 15 10 16
REMARK H PARENT 1 5 1 6 1 7 7 11 7 12 7 13
REMARK Flexibility Score: inf
ROOT
ATOM      1  C   UNL     1      22.197   7.114  15.005  1.00  0.00     0.012 C 
ENDROOT
BRANCH   1   2
ATOM      2  C   UNL     1      21.986   8.379  15.851  1.00  0.00     0.061 C 
BRANCH   2   3
ATOM      3  C   UNL     1      23.031   9.450  15.511  1.00  0.00     0.258 C 
BRANCH   3   4
ATOM      4  N   UNL     1      24.157   8.867  14.782  1.00  0.00    -0.358 N 
ATOM      5  H   UNL     1      24.019   8.985  13.752  1.00  0.00     0.344 HD
ATOM      6  H   UNL     1      24.215   7.847  15.000  1.00  0.00     0.344 HD
ATOM      7  H   UNL     1      25.050   9.326  15.074  1.00  0.00     0.344 HD
ENDBRANCH   3   4
ENDBRANCH   2   3
ENDBRANCH   1   2
BRANCH   1   8
ATOM      8  C   UNL     1      22.295   5.840  15.870  1.00  0.00     0.072 C 
BRANCH   8   9
ATOM      9  C   UNL     1      23.426   4.880  15.434  1.00  0.00     0.227 C 
BRANCH   9  10
ATOM     10  N   UNL     1      23.999   4.152  16.573  1.00  0.00    -0.350 N 
ATOM     11  H   UNL     1      24.596   3.365  16.230  1.00  0.00     0.345 HD
ATOM     12  H   UNL     1      24.611   4.790  17.132  1.00  0.00     0.345 HD
ATOM     13  H   UNL     1      23.243   3.775  17.191  1.00  0.00     0.345 HD
ENDBRANCH   9  10
BRANCH   9  14
ATOM     14  C   UNL     1      24.502   5.661  14.726  1.00  0.00     0.099 C 
ATOM     15  O   UNL     1      25.513   6.063  15.360  1.00  0.00    -0.544 OA
ATOM     16  O   UNL     1      24.397   5.923  13.366  1.00  0.00    -0.544 OA
ENDBRANCH   9  14
ENDBRANCH   8   9
ENDBRANCH   1   8
TORSDOF 7
ENDMDL
MODEL 7
REMARK VINA RESULT:    -3.648      2.155      3.377
REMARK INTER + INTRA:          -5.073
REMARK INTER:                  -4.669
REMARK INTRA:                  -0.404
REMARK UNBOUND:                -0.145
REMARK SMILES [NH3+]CCCC[C@H]([NH3+])C(=O)[O-]
REMARK SMILES IDX 4 1 3 2 2 3 1 4 5 8 6 9 7 10 8 14 9 15 10 16
REMARK H PARENT 1 5 1 6 1 7 7 11 7 12 7 13
REMARK Flexibility Score: inf
ROOT
ATOM      1  C   UNL     1      21.983   6.262  16.335  1.00  0.00     0.012 C 
ENDROOT
BRANCH   1   2
ATOM      2  C   UNL     1      20.963   5.360  17.047  1.00  0.00     0.061 C 
BRANCH   2   3
ATOM      3  C   UNL     1      21.454   4.974  18.449  1.00  0.00     0.258 C 
BRANCH   3   4
ATOM      4  N   UNL     1      22.659   4.149  18.372  1.00  0.00    -0.358 N 
ATOM      5  H   UNL     1      23.509   4.736  18.540  1.00  0.00     0.344 HD
ATOM      6  H   UNL     1      22.724   3.727  17.418  1.00  0.00     0.344 HD
ATOM      7  H   UNL     1      22.614   3.380  19.079  1.00  0.00     0.344 HD
ENDBRANCH   3   4
ENDBRANCH   2   3
ENDBRANCH   1   2
BRANCH   1   8
ATOM      8  C   UNL     1      22.604   5.581  15.096  1.00  0.00     0.072 C 
BRANCH   8   9
ATOM      9  C   UNL     1      24.086   5.953  14.863  1.00  0.00     0.227 C 
BRANCH   9  10
ATOM     10  N   UNL     1      24.432   5.960  13.437  1.00  0.00    -0.350 N 
ATOM     11  H   UNL     1      25.465   6.074  13.320  1.00  0.00     0.345 HD
ATOM     12  H   UNL     1      24.166   5.048  13.000  1.00  0.00     0.345 HD
ATOM     13  H   UNL     1      23.936   6.735  12.937  1.00  0.00     0.345 HD
ENDBRANCH   9  10
BRANCH   9  14
ATOM     14  C   UNL     1      24.969   4.984  15.604  1.00  0.00     0.099 C 
ATOM     15  O   UNL     1      24.536   3.845  15.919  1.00  0.00    -0.544 OA
ATOM     16  O   UNL     1      26.276   5.333  15.924  1.00  0.00    -0.544 OA
ENDBRANCH   9  14
ENDBRANCH   8   9
ENDBRANCH   1   8
TORSDOF 7
ENDMDL
MODEL 8
REMARK VINA RESULT:    -3.599      2.601      3.971
REMARK INTER + INTRA:          -5.007
REMARK INTER:                  -4.923
REMARK INTRA:                  -0.085
REMARK UNBOUND:                -0.145
REMARK SMILES [NH3+]CCCC[C@H]([NH3+])C(=O)[O-]
REMARK SMILES IDX 4 1 3 2 2 3 1 4 5 8 6 9 7 10 8 14 9 15 10 16
REMARK H PARENT 1 5 1 6 1 7 7 11 7 12 7 13
REMARK Flexibility Score: inf
ROOT
ATOM      1  C   UNL     1      21.482   5.735  15.678  1.00  0.00     0.012 C 
ENDROOT
BRANCH   1   2
ATOM      2  C   UNL     1      21.449   5.668  17.212  1.00  0.00     0.061 C 
BRANCH   2   3
ATOM      3  C   UNL     1      20.044   5.310  17.717  1.00  0.00     0.258 C 
BRANCH   3   4
ATOM      4  N   UNL     1      19.071   5.353  16.626  1.00  0.00    -0.358 N 
ATOM      5  H   UNL     1      18.427   6.168  16.750  1.00  0.00     0.344 HD
ATOM      6  H   UNL     1      18.507   4.473  16.636  1.00  0.00     0.344 HD
ATOM      7  H   UNL     1      19.564   5.428  15.707  1.00  0.00     0.344 HD
ENDBRANCH   3   4
ENDBRANCH   2   3
ENDBRANCH   1   2
BRANCH   1   8
ATOM      8  C   UNL     1      22.008   7.092  15.162  1.00  0.00     0.072 C 
BRANCH   8   9
ATOM      9  C   UNL     1      23.547   7.223  15.224  1.00  0.00     0.227 C 
BRANCH   9  10
ATOM     10  N   UNL     1      24.013   8.497  14.662  1.00  0.00    -0.350 N 
ATOM     11  H   UNL     1      24.891   8.800  15.143  1.00  0.00     0.345 HD
ATOM     12  H   UNL     1      24.236   8.379  13.647  1.00  0.00     0.345 HD
ATOM     13  H   UNL     1      23.282   9.239  14.767  1.00  0.00     0.345 HD
ENDBRANCH   9  10
BRANCH   9  14
ATOM     14  C   UNL     1      24.179   6.072  14.486  1.00  0.00     0.099 C 
ATOM     15  O   UNL     1      24.596   5.066  15.118  1.00  0.00    -0.544 OA
ATOM     16  O   UNL     1      24.285   6.103  13.100  1.00  0.00    -0.544 OA
ENDBRANCH   9  14
ENDBRANCH   8   9
ENDBRANCH   1   8
TORSDOF 7
ENDMDL
MODEL 9
REMARK VINA RESULT:    -3.531      3.422      4.043
REMARK INTER + INTRA:          -4.915
REMARK INTER:                  -4.772
REMARK INTRA:                  -0.143
REMARK UNBOUND:                -0.145
REMARK SMILES [NH3+]CCCC[C@H]([NH3+])C(=O)[O-]
REMARK SMILES IDX 4 1 3 2 2 3 1 4 5 8 6 9 7 10 8 14 9 15 10 16
REMARK H PARENT 1 5 1 6 1 7 7 11 7 12 7 13
REMARK Flexibility Score: inf
ROOT
ATOM      1  C   UNL     1      25.292   8.684  15.119  1.00  0.00     0.012 C 
ENDROOT
BRANCH   1   2
ATOM      2  C   UNL     1      26.576   7.925  15.486  1.00  0.00     0.061 C 
BRANCH   2   3
ATOM      3  C   UNL     1      27.801   8.845  15.410  1.00  0.00     0.258 C 
BRANCH   3   4
ATOM      4  N   UNL     1      29.040   8.077  15.524  1.00  0.00    -0.358 N 
ATOM      5  H   UNL     1      29.175   7.482  14.674  1.00  0.00     0.344 HD
ATOM      6  H   UNL     1      28.982   7.456  16.364  1.00  0.00     0.344 HD
ATOM      7  H   UNL     1      29.855   8.722  15.638  1.00  0.00     0.344 HD
ENDBRANCH   3   4
ENDBRANCH   2   3
ENDBRANCH   1   2
BRANCH   1   8
ATOM      8  C   UNL     1      24.111   7.733  14.831  1.00  0.00     0.072 C 
BRANCH   8   9
ATOM      9  C   UNL     1      24.549   6.322  14.376  1.00  0.00     0.227 C 
BRANCH   9  10
ATOM     10  N   UNL     1      24.316   6.111  12.942  1.00  0.00    -0.350 N 
ATOM     11  H   UNL     1      23.430   6.585  12.650  1.00  0.00     0.345 HD
ATOM     12  H   UNL     1      25.095   6.534  12.387  1.00  0.00     0.345 HD
ATOM     13  H   UNL     1      24.256   5.090  12.721  1.00  0.00     0.345 HD
ENDBRANCH   9  10
BRANCH   9  14
ATOM     14  C   UNL     1      23.809   5.284  15.177  1.00  0.00     0.099 C 
ATOM     15  O   UNL     1      24.401   4.245  15.569  1.00  0.00    -0.544 OA
ATOM     16  O   UNL     1      22.473   5.477  15.509  1.00  0.00    -0.544 OA
ENDBRANCH   9  14
ENDBRANCH   8   9
ENDBRANCH   1   8
TORSDOF 7
ENDMDL
