MODEL 1
REMARK VINA RESULT:    -6.010      0.000      0.000
REMARK INTER + INTRA:         -10.118
REMARK INTER:                  -9.172
REMARK INTRA:                  -0.946
REMARK UNBOUND:                -0.946
REMARK SMILES OC[C@H]1O[C@@H](O[C@@]2(CO)O[C@H](CO)[C@@H](O)[C@H]2O)[C@@H](O)[C@H](O)[C@@H]1O
REMARK SMILES IDX 6 1 5 2 3 3 22 4 4 5 20 6 18 7 2 8 1 9 23 11 21 13 19 15
REMARK SMILES IDX 7 17 16 18 10 19 14 20 11 21 8 22 9 23 17 25 15 27 12 29
REMARK SMILES IDX 13 30
REMARK H PARENT 1 10 23 12 21 14 19 16 9 24 17 26 15 28 13 31
REMARK Flexibility Score: inf
ROOT
ATOM      1  O   UNL     1      38.190   3.260  44.090  1.00  0.00    -0.313 OA
ENDROOT
BRANCH   1   2
ATOM      2  C   UNL     1      37.789   2.115  43.356  1.00  0.00     0.285 C 
ATOM      3  C   UNL     1      35.936   0.842  42.737  1.00  0.00     0.178 C 
ATOM      4  C   UNL     1      36.574  -0.492  43.198  1.00  0.00     0.177 C 
ATOM      5  O   UNL     1      36.399   1.909  43.546  1.00  0.00    -0.341 OA
ATOM      6  C   UNL     1      38.110  -0.380  43.162  1.00  0.00     0.179 C 
ATOM      7  C   UNL     1      38.573   0.902  43.888  1.00  0.00     0.202 C 
BRANCH   3   8
ATOM      8  C   UNL     1      34.408   0.788  42.840  1.00  0.00     0.191 C 
BRANCH   8   9
ATOM      9  O   UNL     1      34.039  -0.100  43.856  1.00  0.00    -0.394 OA
ATOM     10  H   UNL     1      33.163  -0.483  43.584  1.00  0.00     0.210 HD
ENDBRANCH   8   9
ENDBRANCH   3   8
BRANCH   4  11
ATOM     11  O   UNL     1      36.171  -1.549  42.363  1.00  0.00    -0.387 OA
ATOM     12  H   UNL     1      36.252  -1.233  41.427  1.00  0.00     0.211 HD
ENDBRANCH   4  11
BRANCH   6  13
ATOM     13  O   UNL     1      38.552  -0.363  41.826  1.00  0.00    -0.387 OA
ATOM     14  H   UNL     1      38.726   0.588  41.594  1.00  0.00     0.211 HD
ENDBRANCH   6  13
BRANCH   7  15
ATOM     15  O   UNL     1      38.360   0.777  45.271  1.00  0.00    -0.385 OA
ATOM     16  H   UNL     1      39.244   0.890  45.707  1.00  0.00     0.211 HD
ENDBRANCH   7  15
ENDBRANCH   1   2
BRANCH   1  17
ATOM     17  C   UNL     1      37.992   4.490  43.392  1.00  0.00     0.224 C 
ATOM     18  C   UNL     1      39.204   5.412  43.660  1.00  0.00     0.208 C 
ATOM     19  O   UNL     1      36.813   5.164  43.817  1.00  0.00    -0.337 OA
ATOM     20  C   UNL     1      38.563   6.763  43.876  1.00  0.00     0.180 C 
ATOM     21  C   UNL     1      37.190   6.387  44.403  1.00  0.00     0.179 C 
BRANCH  17  22
ATOM     22  C   UNL     1      37.872   4.183  41.879  1.00  0.00     0.225 C 
BRANCH  22  23
ATOM     23  O   UNL     1      36.908   5.000  41.267  1.00  0.00    -0.391 OA
ATOM     24  H   UNL     1      37.002   4.869  40.287  1.00  0.00     0.210 HD
ENDBRANCH  22  23
ENDBRANCH  17  22
BRANCH  18  25
ATOM     25  O   UNL     1      39.889   5.001  44.820  1.00  0.00    -0.385 OA
ATOM     26  H   UNL     1      40.857   5.019  44.606  1.00  0.00     0.211 HD
ENDBRANCH  18  25
BRANCH  20  27
ATOM     27  O   UNL     1      39.259   7.547  44.811  1.00  0.00    -0.387 OA
ATOM     28  H   UNL     1      38.846   7.367  45.695  1.00  0.00     0.211 HD
ENDBRANCH  20  27
BRANCH  21  29
ATOM     29  C   UNL     1      36.146   7.459  44.087  1.00  0.00     0.191 C 
BRANCH  29  30
ATOM     30  O   UNL     1      36.232   8.489  45.031  1.00  0.00    -0.394 OA
ATOM     31  H   UNL     1      35.503   8.326  45.684  1.00  0.00     0.210 HD
ENDBRANCH  29  30
ENDBRANCH  21  29
ENDBRANCH   1  17
TORSDOF 13
ENDMDL
MODEL 2
REMARK VINA RESULT:    -6.009      1.669      2.442
REMARK INTER + INTRA:         -10.115
REMARK INTER:                  -8.963
REMARK INTRA:                  -1.152
REMARK UNBOUND:                -0.946
REMARK SMILES OC[C@H]1O[C@@H](O[C@@]2(CO)O[C@H](CO)[C@@H](O)[C@H]2O)[C@@H](O)[C@H](O)[C@@H]1O
REMARK SMILES IDX 6 1 5 2 3 3 22 4 4 5 20 6 18 7 2 8 1 9 23 11 21 13 19 15
REMARK SMILES IDX 7 17 16 18 10 19 14 20 11 21 8 22 9 23 17 25 15 27 12 29
REMARK SMILES IDX 13 30
REMARK H PARENT 1 10 23 12 21 14 19 16 9 24 17 26 15 28 13 31
REMARK Flexibility Score: inf
ROOT
ATOM      1  O   UNL     1      39.447   4.085  43.049  1.00  0.00    -0.313 OA
ENDROOT
BRANCH   1   2
ATOM      2  C   UNL     1      38.641   2.940  43.270  1.00  0.00     0.285 C 
ATOM      3  C   UNL     1      38.304   1.136  44.709  1.00  0.00     0.178 C 
ATOM      4  C   UNL     1      38.313   0.094  43.564  1.00  0.00     0.177 C 
ATOM      5  O   UNL     1      39.151   2.226  44.383  1.00  0.00    -0.341 OA
ATOM      6  C   UNL     1      37.891   0.761  42.241  1.00  0.00     0.179 C 
ATOM      7  C   UNL     1      38.701   2.056  42.011  1.00  0.00     0.202 C 
BRANCH   3   8
ATOM      8  C   UNL     1      38.797   0.519  46.022  1.00  0.00     0.191 C 
BRANCH   8   9
ATOM      9  O   UNL     1      39.469  -0.678  45.753  1.00  0.00    -0.394 OA
ATOM     10  H   UNL     1      40.323  -0.636  46.257  1.00  0.00     0.210 HD
ENDBRANCH   8   9
ENDBRANCH   3   8
BRANCH   4  11
ATOM     11  O   UNL     1      37.428  -0.962  43.847  1.00  0.00    -0.387 OA
ATOM     12  H   UNL     1      37.147  -0.864  44.793  1.00  0.00     0.211 HD
ENDBRANCH   4  11
BRANCH   6  13
ATOM     13  O   UNL     1      36.515   1.054  42.276  1.00  0.00    -0.387 OA
ATOM     14  H   UNL     1      36.067   0.398  41.678  1.00  0.00     0.211 HD
ENDBRANCH   6  13
BRANCH   7  15
ATOM     15  O   UNL     1      40.040   1.744  41.723  1.00  0.00    -0.385 OA
ATOM     16  H   UNL     1      40.125   0.758  41.796  1.00  0.00     0.211 HD
ENDBRANCH   7  15
ENDBRANCH   1   2
BRANCH   1  17
ATOM     17  C   UNL     1      38.701   5.269  42.763  1.00  0.00     0.224 C 
ATOM     18  C   UNL     1      39.305   6.442  43.571  1.00  0.00     0.208 C 
ATOM     19  O   UNL     1      37.330   5.138  43.118  1.00  0.00    -0.337 OA
ATOM     20  C   UNL     1      38.082   7.175  44.070  1.00  0.00     0.180 C 
ATOM     21  C   UNL     1      37.046   6.067  44.136  1.00  0.00     0.179 C 
BRANCH  17  22
ATOM     22  C   UNL     1      38.797   5.555  41.244  1.00  0.00     0.225 C 
BRANCH  22  23
ATOM     23  O   UNL     1      37.584   6.050  40.740  1.00  0.00    -0.391 OA
ATOM     24  H   UNL     1      37.494   5.700  39.815  1.00  0.00     0.210 HD
ENDBRANCH  22  23
ENDBRANCH  17  22
BRANCH  18  25
ATOM     25  O   UNL     1      40.062   5.955  44.654  1.00  0.00    -0.385 OA
ATOM     26  H   UNL     1      39.542   5.217  45.062  1.00  0.00     0.211 HD
ENDBRANCH  18  25
BRANCH  20  27
ATOM     27  O   UNL     1      38.278   7.752  45.336  1.00  0.00    -0.387 OA
ATOM     28  H   UNL     1      38.871   8.536  45.200  1.00  0.00     0.211 HD
ENDBRANCH  20  27
BRANCH  21  29
ATOM     29  C   UNL     1      35.625   6.606  43.968  1.00  0.00     0.191 C 
BRANCH  29  30
ATOM     30  O   UNL     1      35.662   8.003  43.877  1.00  0.00    -0.394 OA
ATOM     31  H   UNL     1      34.918   8.335  44.444  1.00  0.00     0.210 HD
ENDBRANCH  29  30
ENDBRANCH  21  29
ENDBRANCH   1  17
TORSDOF 13
ENDMDL
MODEL 3
REMARK VINA RESULT:    -5.999      1.971      6.513
REMARK INTER + INTRA:         -10.100
REMARK INTER:                  -8.992
REMARK INTRA:                  -1.108
REMARK UNBOUND:                -0.946
REMARK SMILES OC[C@H]1O[C@@H](O[C@@]2(CO)O[C@H](CO)[C@@H](O)[C@H]2O)[C@@H](O)[C@H](O)[C@@H]1O
REMARK SMILES IDX 6 1 5 2 3 3 22 4 4 5 20 6 18 7 2 8 1 9 23 11 21 13 19 15
REMARK SMILES IDX 7 17 16 18 10 19 14 20 11 21 8 22 9 23 17 25 15 27 12 29
REMARK SMILES IDX 13 30
REMARK H PARENT 1 10 23 12 21 14 19 16 9 24 17 26 15 28 13 31
REMARK Flexibility Score: inf
ROOT
ATOM      1  O   UNL     1      39.310   3.007  44.030  1.00  0.00    -0.313 OA
ENDROOT
BRANCH   1   2
ATOM      2  C   UNL     1      38.763   4.062  43.257  1.00  0.00     0.285 C 
ATOM      3  C   UNL     1      38.969   5.203  41.233  1.00  0.00     0.178 C 
ATOM      4  C   UNL     1      38.997   6.597  41.908  1.00  0.00     0.177 C 
ATOM      5  O   UNL     1      39.550   4.235  42.090  1.00  0.00    -0.341 OA
ATOM      6  C   UNL     1      38.274   6.538  43.267  1.00  0.00     0.179 C 
ATOM      7  C   UNL     1      38.796   5.348  44.102  1.00  0.00     0.202 C 
BRANCH   3   8
ATOM      8  C   UNL     1      39.751   5.212  39.916  1.00  0.00     0.191 C 
BRANCH   8   9
ATOM      9  O   UNL     1      38.929   5.680  38.885  1.00  0.00    -0.394 OA
ATOM     10  H   UNL     1      39.249   6.596  38.671  1.00  0.00     0.210 HD
ENDBRANCH   8   9
ENDBRANCH   3   8
BRANCH   4  11
ATOM     11  O   UNL     1      38.367   7.555  41.094  1.00  0.00    -0.387 OA
ATOM     12  H   UNL     1      38.515   8.441  41.515  1.00  0.00     0.211 HD
ENDBRANCH   4  11
BRANCH   6  13
ATOM     13  O   UNL     1      36.888   6.409  43.061  1.00  0.00    -0.387 OA
ATOM     14  H   UNL     1      36.767   5.775  42.306  1.00  0.00     0.211 HD
ENDBRANCH   6  13
BRANCH   7  15
ATOM     15  O   UNL     1      40.113   5.595  44.525  1.00  0.00    -0.385 OA
ATOM     16  H   UNL     1      40.145   5.384  45.495  1.00  0.00     0.211 HD
ENDBRANCH   7  15
ENDBRANCH   1   2
BRANCH   1  17
ATOM     17  C   UNL     1      38.541   1.805  43.989  1.00  0.00     0.224 C 
ATOM     18  C   UNL     1      38.823   0.994  45.276  1.00  0.00     0.208 C 
ATOM     19  O   UNL     1      38.871   0.994  42.868  1.00  0.00    -0.337 OA
ATOM     20  C   UNL     1      38.938  -0.424  44.767  1.00  0.00     0.180 C 
ATOM     21  C   UNL     1      39.413  -0.216  43.340  1.00  0.00     0.179 C 
BRANCH  17  22
ATOM     22  C   UNL     1      37.042   2.182  43.908  1.00  0.00     0.225 C 
BRANCH  22  23
ATOM     23  O   UNL     1      36.485   2.342  45.186  1.00  0.00    -0.391 OA
ATOM     24  H   UNL     1      36.737   1.538  45.712  1.00  0.00     0.210 HD
ENDBRANCH  22  23
ENDBRANCH  17  22
BRANCH  18  25
ATOM     25  O   UNL     1      40.036   1.405  45.862  1.00  0.00    -0.385 OA
ATOM     26  H   UNL     1      39.981   2.388  45.980  1.00  0.00     0.211 HD
ENDBRANCH  18  25
BRANCH  20  27
ATOM     27  O   UNL     1      39.865  -1.186  45.496  1.00  0.00    -0.387 OA
ATOM     28  H   UNL     1      40.074  -1.983  44.943  1.00  0.00     0.211 HD
ENDBRANCH  20  27
BRANCH  21  29
ATOM     29  C   UNL     1      38.990  -1.367  42.427  1.00  0.00     0.191 C 
BRANCH  29  30
ATOM     30  O   UNL     1      38.315  -2.337  43.177  1.00  0.00    -0.394 OA
ATOM     31  H   UNL     1      38.683  -3.213  42.890  1.00  0.00     0.210 HD
ENDBRANCH  29  30
ENDBRANCH  21  29
ENDBRANCH   1  17
TORSDOF 13
ENDMDL
MODEL 4
REMARK VINA RESULT:    -5.987      1.628      6.729
REMARK INTER + INTRA:         -10.083
REMARK INTER:                  -8.982
REMARK INTRA:                  -1.100
REMARK UNBOUND:                -0.946
REMARK SMILES OC[C@H]1O[C@@H](O[C@@]2(CO)O[C@H](CO)[C@@H](O)[C@H]2O)[C@@H](O)[C@H](O)[C@@H]1O
REMARK SMILES IDX 6 1 5 2 3 3 22 4 4 5 20 6 18 7 2 8 1 9 23 11 21 13 19 15
REMARK SMILES IDX 7 17 16 18 10 19 14 20 11 21 8 22 9 23 17 25 15 27 12 29
REMARK SMILES IDX 13 30
REMARK H PARENT 1 10 23 12 21 14 19 16 9 24 17 26 15 28 13 31
REMARK Flexibility Score: inf
ROOT
ATOM      1  O   UNL     1      37.416   2.427  44.154  1.00  0.00    -0.313 OA
ENDROOT
BRANCH   1   2
ATOM      2  C   UNL     1      37.628   3.660  43.486  1.00  0.00     0.285 C 
ATOM      3  C   UNL     1      38.871   5.632  43.545  1.00  0.00     0.178 C 
ATOM      4  C   UNL     1      37.622   6.539  43.426  1.00  0.00     0.177 C 
ATOM      5  O   UNL     1      38.543   4.439  44.238  1.00  0.00    -0.341 OA
ATOM      6  C   UNL     1      36.481   5.775  42.728  1.00  0.00     0.179 C 
ATOM      7  C   UNL     1      36.279   4.393  43.385  1.00  0.00     0.202 C 
BRANCH   3   8
ATOM      8  C   UNL     1      39.996   6.338  44.309  1.00  0.00     0.191 C 
BRANCH   8   9
ATOM      9  O   UNL     1      39.478   7.450  44.983  1.00  0.00    -0.394 OA
ATOM     10  H   UNL     1      40.210   7.786  45.564  1.00  0.00     0.210 HD
ENDBRANCH   8   9
ENDBRANCH   3   8
BRANCH   4  11
ATOM     11  O   UNL     1      37.919   7.698  42.686  1.00  0.00    -0.387 OA
ATOM     12  H   UNL     1      38.656   7.468  42.064  1.00  0.00     0.211 HD
ENDBRANCH   4  11
BRANCH   6  13
ATOM     13  O   UNL     1      36.783   5.618  41.362  1.00  0.00    -0.387 OA
ATOM     14  H   UNL     1      35.956   5.840  40.858  1.00  0.00     0.211 HD
ENDBRANCH   6  13
BRANCH   7  15
ATOM     15  O   UNL     1      35.732   4.545  44.671  1.00  0.00    -0.385 OA
ATOM     16  H   UNL     1      36.177   3.873  45.251  1.00  0.00     0.211 HD
ENDBRANCH   7  15
ENDBRANCH   1   2
BRANCH   1  17
ATOM     17  C   UNL     1      37.977   1.301  43.478  1.00  0.00     0.224 C 
ATOM     18  C   UNL     1      36.830   0.349  43.066  1.00  0.00     0.208 C 
ATOM     19  O   UNL     1      38.886   0.580  44.301  1.00  0.00    -0.337 OA
ATOM     20  C   UNL     1      37.391  -1.017  43.385  1.00  0.00     0.180 C 
ATOM     21  C   UNL     1      38.365  -0.711  44.509  1.00  0.00     0.179 C 
BRANCH  17  22
ATOM     22  C   UNL     1      38.734   1.807  42.226  1.00  0.00     0.225 C 
BRANCH  22  23
ATOM     23  O   UNL     1      40.070   1.378  42.228  1.00  0.00    -0.391 OA
ATOM     24  H   UNL     1      40.368   1.370  43.175  1.00  0.00     0.210 HD
ENDBRANCH  22  23
ENDBRANCH  17  22
BRANCH  18  25
ATOM     25  O   UNL     1      35.680   0.600  43.838  1.00  0.00    -0.385 OA
ATOM     26  H   UNL     1      35.012  -0.090  43.595  1.00  0.00     0.211 HD
ENDBRANCH  18  25
BRANCH  20  27
ATOM     27  O   UNL     1      36.403  -1.920  43.811  1.00  0.00    -0.387 OA
ATOM     28  H   UNL     1      36.574  -2.772  43.331  1.00  0.00     0.211 HD
ENDBRANCH  20  27
BRANCH  21  29
ATOM     29  C   UNL     1      39.504  -1.730  44.567  1.00  0.00     0.191 C 
BRANCH  29  30
ATOM     30  O   UNL     1      39.000  -2.975  44.960  1.00  0.00    -0.394 OA
ATOM     31  H   UNL     1      39.528  -3.654  44.465  1.00  0.00     0.210 HD
ENDBRANCH  29  30
ENDBRANCH  21  29
ENDBRANCH   1  17
TORSDOF 13
ENDMDL
MODEL 5
REMARK VINA RESULT:    -5.987      1.919      3.303
REMARK INTER + INTRA:         -10.082
REMARK INTER:                  -9.005
REMARK INTRA:                  -1.076
REMARK UNBOUND:                -0.946
REMARK SMILES OC[C@H]1O[C@@H](O[C@@]2(CO)O[C@H](CO)[C@@H](O)[C@H]2O)[C@@H](O)[C@H](O)[C@@H]1O
REMARK SMILES IDX 6 1 5 2 3 3 22 4 4 5 20 6 18 7 2 8 1 9 23 11 21 13 19 15
REMARK SMILES IDX 7 17 16 18 10 19 14 20 11 21 8 22 9 23 17 25 15 27 12 29
REMARK SMILES IDX 13 30
REMARK H PARENT 1 10 23 12 21 14 19 16 9 24 17 26 15 28 13 31
REMARK Flexibility Score: inf
ROOT
ATOM      1  O   UNL     1      37.952   3.356  42.951  1.00  0.00    -0.313 OA
ENDROOT
BRANCH   1   2
ATOM      2  C   UNL     1      38.571   2.269  43.620  1.00  0.00     0.285 C 
ATOM      3  C   UNL     1      39.383   0.104  43.320  1.00  0.00     0.178 C 
ATOM      4  C   UNL     1      38.591  -0.465  44.524  1.00  0.00     0.177 C 
ATOM      5  O   UNL     1      38.666   1.172  42.726  1.00  0.00    -0.341 OA
ATOM      6  C   UNL     1      38.301   0.655  45.540  1.00  0.00     0.179 C 
ATOM      7  C   UNL     1      37.697   1.884  44.827  1.00  0.00     0.202 C 
BRANCH   3   8
ATOM      8  C   UNL     1      39.615  -0.972  42.254  1.00  0.00     0.191 C 
BRANCH   8   9
ATOM      9  O   UNL     1      38.666  -1.989  42.400  1.00  0.00    -0.394 OA
ATOM     10  H   UNL     1      37.894  -1.730  41.831  1.00  0.00     0.210 HD
ENDBRANCH   8   9
ENDBRANCH   3   8
BRANCH   4  11
ATOM     11  O   UNL     1      39.321  -1.485  45.160  1.00  0.00    -0.387 OA
ATOM     12  H   UNL     1      39.822  -1.067  45.907  1.00  0.00     0.211 HD
ENDBRANCH   4  11
BRANCH   6  13
ATOM     13  O   UNL     1      39.492   1.017  46.198  1.00  0.00    -0.387 OA
ATOM     14  H   UNL     1      39.763   1.902  45.835  1.00  0.00     0.211 HD
ENDBRANCH   6  13
BRANCH   7  15
ATOM     15  O   UNL     1      36.394   1.596  44.388  1.00  0.00    -0.385 OA
ATOM     16  H   UNL     1      35.928   2.467  44.287  1.00  0.00     0.211 HD
ENDBRANCH   7  15
ENDBRANCH   1   2
BRANCH   1  17
ATOM     17  C   UNL     1      38.678   4.581  43.049  1.00  0.00     0.224 C 
ATOM     18  C   UNL     1      37.861   5.573  43.911  1.00  0.00     0.208 C 
ATOM     19  O   UNL     1      38.905   5.174  41.776  1.00  0.00    -0.337 OA
ATOM     20  C   UNL     1      38.014   6.878  43.165  1.00  0.00     0.180 C 
ATOM     21  C   UNL     1      38.230   6.409  41.737  1.00  0.00     0.179 C 
BRANCH  17  22
ATOM     22  C   UNL     1      40.046   4.291  43.714  1.00  0.00     0.225 C 
BRANCH  22  23
ATOM     23  O   UNL     1      40.122   4.855  44.997  1.00  0.00    -0.391 OA
ATOM     24  H   UNL     1      40.533   5.752  44.892  1.00  0.00     0.210 HD
ENDBRANCH  22  23
ENDBRANCH  17  22
BRANCH  18  25
ATOM     25  O   UNL     1      36.508   5.188  43.955  1.00  0.00    -0.385 OA
ATOM     26  H   UNL     1      36.185   5.368  44.875  1.00  0.00     0.211 HD
ENDBRANCH  18  25
BRANCH  20  27
ATOM     27  O   UNL     1      36.871   7.689  43.257  1.00  0.00    -0.387 OA
ATOM     28  H   UNL     1      36.342   7.346  44.023  1.00  0.00     0.211 HD
ENDBRANCH  20  27
BRANCH  21  29
ATOM     29  C   UNL     1      39.040   7.419  40.923  1.00  0.00     0.191 C 
BRANCH  29  30
ATOM     30  O   UNL     1      38.494   8.697  41.086  1.00  0.00    -0.394 OA
ATOM     31  H   UNL     1      38.855   9.248  40.344  1.00  0.00     0.210 HD
ENDBRANCH  29  30
ENDBRANCH  21  29
ENDBRANCH   1  17
TORSDOF 13
ENDMDL
MODEL 6
REMARK VINA RESULT:    -5.844      1.282      6.360
REMARK INTER + INTRA:          -9.864
REMARK INTER:                  -9.084
REMARK INTRA:                  -0.780
REMARK UNBOUND:                -0.946
REMARK SMILES OC[C@H]1O[C@@H](O[C@@]2(CO)O[C@H](CO)[C@@H](O)[C@H]2O)[C@@H](O)[C@H](O)[C@@H]1O
REMARK SMILES IDX 6 1 5 2 3 3 22 4 4 5 20 6 18 7 2 8 1 9 23 11 21 13 19 15
REMARK SMILES IDX 7 17 16 18 10 19 14 20 11 21 8 22 9 23 17 25 15 27 12 29
REMARK SMILES IDX 13 30
REMARK H PARENT 1 10 23 12 21 14 19 16 9 24 17 26 15 28 13 31
REMARK Flexibility Score: inf
ROOT
ATOM      1  O   UNL     1      37.562   2.789  42.286  1.00  0.00    -0.313 OA
ENDROOT
BRANCH   1   2
ATOM      2  C   UNL     1      37.969   3.819  43.171  1.00  0.00     0.285 C 
ATOM      3  C   UNL     1      37.319   5.861  44.093  1.00  0.00     0.178 C 
ATOM      4  C   UNL     1      38.647   6.564  43.719  1.00  0.00     0.177 C 
ATOM      5  O   UNL     1      37.009   4.863  43.135  1.00  0.00    -0.341 OA
ATOM      6  C   UNL     1      39.778   5.525  43.599  1.00  0.00     0.179 C 
ATOM      7  C   UNL     1      39.335   4.350  42.701  1.00  0.00     0.202 C 
BRANCH   3   8
ATOM      8  C   UNL     1      36.159   6.860  44.139  1.00  0.00     0.191 C 
BRANCH   8   9
ATOM      9  O   UNL     1      36.503   8.011  43.423  1.00  0.00    -0.394 OA
ATOM     10  H   UNL     1      37.402   7.838  43.037  1.00  0.00     0.210 HD
ENDBRANCH   8   9
ENDBRANCH   3   8
BRANCH   4  11
ATOM     11  O   UNL     1      38.998   7.514  44.695  1.00  0.00    -0.387 OA
ATOM     12  H   UNL     1      38.325   7.451  45.421  1.00  0.00     0.211 HD
ENDBRANCH   4  11
BRANCH   6  13
ATOM     13  O   UNL     1      40.121   5.049  44.878  1.00  0.00    -0.387 OA
ATOM     14  H   UNL     1      40.097   4.057  44.831  1.00  0.00     0.211 HD
ENDBRANCH   6  13
BRANCH   7  15
ATOM     15  O   UNL     1      39.237   4.773  41.365  1.00  0.00    -0.385 OA
ATOM     16  H   UNL     1      40.072   5.270  41.161  1.00  0.00     0.211 HD
ENDBRANCH   7  15
ENDBRANCH   1   2
BRANCH   1  17
ATOM     17  C   UNL     1      36.990   1.657  42.942  1.00  0.00     0.224 C 
ATOM     18  C   UNL     1      37.339   0.386  42.132  1.00  0.00     0.208 C 
ATOM     19  O   UNL     1      35.574   1.753  43.040  1.00  0.00    -0.337 OA
ATOM     20  C   UNL     1      36.046  -0.395  42.152  1.00  0.00     0.180 C 
ATOM     21  C   UNL     1      35.007   0.704  42.292  1.00  0.00     0.179 C 
BRANCH  17  22
ATOM     22  C   UNL     1      37.583   1.565  44.369  1.00  0.00     0.225 C 
BRANCH  22  23
ATOM     23  O   UNL     1      36.738   2.169  45.314  1.00  0.00    -0.391 OA
ATOM     24  H   UNL     1      36.279   2.918  44.851  1.00  0.00     0.210 HD
ENDBRANCH  22  23
ENDBRANCH  17  22
BRANCH  18  25
ATOM     25  O   UNL     1      37.688   0.726  40.810  1.00  0.00    -0.385 OA
ATOM     26  H   UNL     1      37.105   1.482  40.542  1.00  0.00     0.211 HD
ENDBRANCH  18  25
BRANCH  20  27
ATOM     27  O   UNL     1      35.841  -1.129  40.972  1.00  0.00    -0.387 OA
ATOM     28  H   UNL     1      34.861  -1.263  40.889  1.00  0.00     0.211 HD
ENDBRANCH  20  27
BRANCH  21  29
ATOM     29  C   UNL     1      33.737   0.202  42.978  1.00  0.00     0.191 C 
BRANCH  29  30
ATOM     30  O   UNL     1      33.058  -0.675  42.124  1.00  0.00    -0.394 OA
ATOM     31  H   UNL     1      32.349  -0.138  41.684  1.00  0.00     0.210 HD
ENDBRANCH  29  30
ENDBRANCH  21  29
ENDBRANCH   1  17
TORSDOF 13
ENDMDL
MODEL 7
REMARK VINA RESULT:    -5.698      1.496      5.991
REMARK INTER + INTRA:          -9.641
REMARK INTER:                  -8.693
REMARK INTRA:                  -0.948
REMARK UNBOUND:                -0.946
REMARK SMILES OC[C@H]1O[C@@H](O[C@@]2(CO)O[C@H](CO)[C@@H](O)[C@H]2O)[C@@H](O)[C@H](O)[C@@H]1O
REMARK SMILES IDX 6 1 5 2 3 3 22 4 4 5 20 6 18 7 2 8 1 9 23 11 21 13 19 15
REMARK SMILES IDX 7 17 16 18 10 19 14 20 11 21 8 22 9 23 17 25 15 27 12 29
REMARK SMILES IDX 13 30
REMARK H PARENT 1 10 23 12 21 14 19 16 9 24 17 26 15 28 13 31
REMARK Flexibility Score: inf
ROOT
ATOM      1  O   UNL     1      37.556   3.781  41.565  1.00  0.00    -0.313 OA
ENDROOT
BRANCH   1   2
ATOM      2  C   UNL     1      37.768   4.620  42.687  1.00  0.00     0.285 C 
ATOM      3  C   UNL     1      36.676   5.923  44.284  1.00  0.00     0.178 C 
ATOM      4  C   UNL     1      37.563   7.165  44.020  1.00  0.00     0.177 C 
ATOM      5  O   UNL     1      36.525   5.170  43.093  1.00  0.00    -0.341 OA
ATOM      6  C   UNL     1      38.925   6.728  43.452  1.00  0.00     0.179 C 
ATOM      7  C   UNL     1      38.727   5.750  42.273  1.00  0.00     0.202 C 
BRANCH   3   8
ATOM      8  C   UNL     1      35.283   6.332  44.774  1.00  0.00     0.191 C 
BRANCH   8   9
ATOM      9  O   UNL     1      35.287   6.428  46.170  1.00  0.00    -0.394 OA
ATOM     10  H   UNL     1      35.970   5.781  46.490  1.00  0.00     0.210 HD
ENDBRANCH   8   9
ENDBRANCH   3   8
BRANCH   4  11
ATOM     11  O   UNL     1      37.771   7.887  45.209  1.00  0.00    -0.387 OA
ATOM     12  H   UNL     1      37.585   7.272  45.963  1.00  0.00     0.211 HD
ENDBRANCH   4  11
BRANCH   6  13
ATOM     13  O   UNL     1      39.686   6.113  44.464  1.00  0.00    -0.387 OA
ATOM     14  H   UNL     1      40.259   6.820  44.862  1.00  0.00     0.211 HD
ENDBRANCH   6  13
BRANCH   7  15
ATOM     15  O   UNL     1      38.196   6.430  41.165  1.00  0.00    -0.385 OA
ATOM     16  H   UNL     1      38.265   7.400  41.366  1.00  0.00     0.211 HD
ENDBRANCH   7  15
ENDBRANCH   1   2
BRANCH   1  17
ATOM     17  C   UNL     1      37.716   2.390  41.846  1.00  0.00     0.224 C 
ATOM     18  C   UNL     1      36.319   1.725  41.863  1.00  0.00     0.208 C 
ATOM     19  O   UNL     1      38.335   2.165  43.107  1.00  0.00    -0.337 OA
ATOM     20  C   UNL     1      36.399   0.797  43.053  1.00  0.00     0.180 C 
ATOM     21  C   UNL     1      37.418   1.494  43.937  1.00  0.00     0.179 C 
BRANCH  17  22
ATOM     22  C   UNL     1      38.598   1.763  40.739  1.00  0.00     0.225 C 
BRANCH  22  23
ATOM     23  O   UNL     1      39.840   1.352  41.247  1.00  0.00    -0.391 OA
ATOM     24  H   UNL     1      40.238   0.740  40.574  1.00  0.00     0.210 HD
ENDBRANCH  22  23
ENDBRANCH  17  22
BRANCH  18  25
ATOM     25  O   UNL     1      35.315   2.692  42.060  1.00  0.00    -0.385 OA
ATOM     26  H   UNL     1      35.584   3.496  41.546  1.00  0.00     0.211 HD
ENDBRANCH  18  25
BRANCH  20  27
ATOM     27  O   UNL     1      35.168   0.665  43.717  1.00  0.00    -0.387 OA
ATOM     28  H   UNL     1      35.367   0.268  44.604  1.00  0.00     0.211 HD
ENDBRANCH  20  27
BRANCH  21  29
ATOM     29  C   UNL     1      38.158   0.507  44.839  1.00  0.00     0.191 C 
BRANCH  29  30
ATOM     30  O   UNL     1      38.533   1.147  46.026  1.00  0.00    -0.394 OA
ATOM     31  H   UNL     1      38.908   2.026  45.758  1.00  0.00     0.210 HD
ENDBRANCH  29  30
ENDBRANCH  21  29
ENDBRANCH   1  17
TORSDOF 13
ENDMDL
MODEL 8
REMARK VINA RESULT:    -5.409      1.511      6.170
REMARK INTER + INTRA:          -9.201
REMARK INTER:                  -8.997
REMARK INTRA:                  -0.204
REMARK UNBOUND:                -0.946
REMARK SMILES OC[C@H]1O[C@@H](O[C@@]2(CO)O[C@H](CO)[C@@H](O)[C@H]2O)[C@@H](O)[C@H](O)[C@@H]1O
REMARK SMILES IDX 6 1 5 2 3 3 22 4 4 5 20 6 18 7 2 8 1 9 23 11 21 13 19 15
REMARK SMILES IDX 7 17 16 18 10 19 14 20 11 21 8 22 9 23 17 25 15 27 12 29
REMARK SMILES IDX 13 30
REMARK H PARENT 1 10 23 12 21 14 19 16 9 24 17 26 15 28 13 31
REMARK Flexibility Score: inf
ROOT
ATOM      1  O   UNL     1      35.503   4.260  42.247  1.00  0.00    -0.313 OA
ENDROOT
BRANCH   1   2
ATOM      2  C   UNL     1      36.121   5.418  42.782  1.00  0.00     0.285 C 
ATOM      3  C   UNL     1      38.135   6.249  43.616  1.00  0.00     0.178 C 
ATOM      4  C   UNL     1      37.483   6.808  44.905  1.00  0.00     0.177 C 
ATOM      5  O   UNL     1      37.442   5.091  43.183  1.00  0.00    -0.341 OA
ATOM      6  C   UNL     1      35.992   7.101  44.658  1.00  0.00     0.179 C 
ATOM      7  C   UNL     1      35.307   5.882  44.003  1.00  0.00     0.202 C 
BRANCH   3   8
ATOM      8  C   UNL     1      39.600   5.872  43.855  1.00  0.00     0.191 C 
BRANCH   8   9
ATOM      9  O   UNL     1      39.664   4.656  44.545  1.00  0.00    -0.394 OA
ATOM     10  H   UNL     1      39.533   4.876  45.505  1.00  0.00     0.210 HD
ENDBRANCH   8   9
ENDBRANCH   3   8
BRANCH   4  11
ATOM     11  O   UNL     1      38.123   7.993  45.311  1.00  0.00    -0.387 OA
ATOM     12  H   UNL     1      37.888   8.143  46.262  1.00  0.00     0.211 HD
ENDBRANCH   4  11
BRANCH   6  13
ATOM     13  O   UNL     1      35.862   8.229  43.827  1.00  0.00    -0.387 OA
ATOM     14  H   UNL     1      35.807   9.021  44.425  1.00  0.00     0.211 HD
ENDBRANCH   6  13
BRANCH   7  15
ATOM     15  O   UNL     1      35.208   4.828  44.927  1.00  0.00    -0.385 OA
ATOM     16  H   UNL     1      36.128   4.478  45.059  1.00  0.00     0.211 HD
ENDBRANCH   7  15
ENDBRANCH   1   2
BRANCH   1  17
ATOM     17  C   UNL     1      36.346   3.108  42.238  1.00  0.00     0.224 C 
ATOM     18  C   UNL     1      35.456   1.843  42.198  1.00  0.00     0.208 C 
ATOM     19  O   UNL     1      37.172   3.038  43.394  1.00  0.00    -0.337 OA
ATOM     20  C   UNL     1      36.139   0.914  43.174  1.00  0.00     0.180 C 
ATOM     21  C   UNL     1      36.817   1.887  44.122  1.00  0.00     0.179 C 
BRANCH  17  22
ATOM     22  C   UNL     1      37.250   3.170  40.983  1.00  0.00     0.225 C 
BRANCH  22  23
ATOM     23  O   UNL     1      38.609   3.110  41.328  1.00  0.00    -0.391 OA
ATOM     24  H   UNL     1      38.654   2.755  42.254  1.00  0.00     0.210 HD
ENDBRANCH  22  23
ENDBRANCH  17  22
BRANCH  18  25
ATOM     25  O   UNL     1      34.152   2.144  42.636  1.00  0.00    -0.385 OA
ATOM     26  H   UNL     1      33.526   1.720  41.995  1.00  0.00     0.211 HD
ENDBRANCH  18  25
BRANCH  20  27
ATOM     27  O   UNL     1      35.232   0.094  43.864  1.00  0.00    -0.387 OA
ATOM     28  H   UNL     1      34.386   0.607  43.938  1.00  0.00     0.211 HD
ENDBRANCH  20  27
BRANCH  21  29
ATOM     29  C   UNL     1      38.061   1.276  44.769  1.00  0.00     0.191 C 
BRANCH  29  30
ATOM     30  O   UNL     1      39.209   1.782  44.148  1.00  0.00    -0.394 OA
ATOM     31  H   UNL     1      39.037   1.735  43.172  1.00  0.00     0.210 HD
ENDBRANCH  29  30
ENDBRANCH  21  29
ENDBRANCH   1  17
TORSDOF 13
ENDMDL
MODEL 9
REMARK VINA RESULT:    -5.334      1.643      2.940
REMARK INTER + INTRA:          -9.085
REMARK INTER:                  -8.056
REMARK INTRA:                  -1.029
REMARK UNBOUND:                -0.946
REMARK SMILES OC[C@H]1O[C@@H](O[C@@]2(CO)O[C@H](CO)[C@@H](O)[C@H]2O)[C@@H](O)[C@H](O)[C@@H]1O
REMARK SMILES IDX 6 1 5 2 3 3 22 4 4 5 20 6 18 7 2 8 1 9 23 11 21 13 19 15
REMARK SMILES IDX 7 17 16 18 10 19 14 20 11 21 8 22 9 23 17 25 15 27 12 29
REMARK SMILES IDX 13 30
REMARK H PARENT 1 10 23 12 21 14 19 16 9 24 17 26 15 28 13 31
REMARK Flexibility Score: inf
ROOT
ATOM      1  O   UNL     1      38.681   3.097  44.501  1.00  0.00    -0.313 OA
ENDROOT
BRANCH   1   2
ATOM      2  C   UNL     1      38.642   1.796  43.938  1.00  0.00     0.285 C 
ATOM      3  C   UNL     1      37.207   0.063  43.327  1.00  0.00     0.178 C 
ATOM      4  C   UNL     1      38.019  -1.011  44.093  1.00  0.00     0.177 C 
ATOM      5  O   UNL     1      37.310   1.313  43.986  1.00  0.00    -0.341 OA
ATOM      6  C   UNL     1      39.486  -0.563  44.231  1.00  0.00     0.179 C 
ATOM      7  C   UNL     1      39.559   0.882  44.770  1.00  0.00     0.202 C 
BRANCH   3   8
ATOM      8  C   UNL     1      35.725  -0.318  43.246  1.00  0.00     0.191 C 
BRANCH   8   9
ATOM      9  O   UNL     1      34.941   0.756  43.681  1.00  0.00    -0.394 OA
ATOM     10  H   UNL     1      34.334   0.978  42.927  1.00  0.00     0.210 HD
ENDBRANCH   8   9
ENDBRANCH   3   8
BRANCH   4  11
ATOM     11  O   UNL     1      37.976  -2.243  43.416  1.00  0.00    -0.387 OA
ATOM     12  H   UNL     1      38.415  -2.110  42.537  1.00  0.00     0.211 HD
ENDBRANCH   4  11
BRANCH   6  13
ATOM     13  O   UNL     1      40.125  -0.642  42.979  1.00  0.00    -0.387 OA
ATOM     14  H   UNL     1      40.892  -1.264  43.087  1.00  0.00     0.211 HD
ENDBRANCH   6  13
BRANCH   7  15
ATOM     15  O   UNL     1      39.156   0.916  46.116  1.00  0.00    -0.385 OA
ATOM     16  H   UNL     1      39.753   1.562  46.576  1.00  0.00     0.211 HD
ENDBRANCH   7  15
ENDBRANCH   1   2
BRANCH   1  17
ATOM     17  C   UNL     1      38.841   4.138  43.537  1.00  0.00     0.224 C 
ATOM     18  C   UNL     1      37.600   5.059  43.592  1.00  0.00     0.208 C 
ATOM     19  O   UNL     1      38.964   3.630  42.214  1.00  0.00    -0.337 OA
ATOM     20  C   UNL     1      37.308   5.326  42.134  1.00  0.00     0.180 C 
ATOM     21  C   UNL     1      37.863   4.082  41.462  1.00  0.00     0.179 C 
BRANCH  17  22
ATOM     22  C   UNL     1      40.121   4.937  43.883  1.00  0.00     0.225 C 
BRANCH  22  23
ATOM     23  O   UNL     1      39.812   6.134  44.548  1.00  0.00    -0.391 OA
ATOM     24  H   UNL     1      39.680   5.905  45.505  1.00  0.00     0.210 HD
ENDBRANCH  22  23
ENDBRANCH  17  22
BRANCH  18  25
ATOM     25  O   UNL     1      36.517   4.391  44.196  1.00  0.00    -0.385 OA
ATOM     26  H   UNL     1      36.659   3.421  44.051  1.00  0.00     0.211 HD
ENDBRANCH  18  25
BRANCH  20  27
ATOM     27  O   UNL     1      35.935   5.464  41.875  1.00  0.00    -0.387 OA
ATOM     28  H   UNL     1      35.490   5.569  42.756  1.00  0.00     0.211 HD
ENDBRANCH  20  27
BRANCH  21  29
ATOM     29  C   UNL     1      38.295   4.359  40.022  1.00  0.00     0.191 C 
BRANCH  29  30
ATOM     30  O   UNL     1      38.310   5.740  39.794  1.00  0.00    -0.394 OA
ATOM     31  H   UNL     1      39.004   5.897  39.102  1.00  0.00     0.210 HD
ENDBRANCH  29  30
ENDBRANCH  21  29
ENDBRANCH   1  17
TORSDOF 13
ENDMDL
