MODEL 1
REMARK VINA RESULT:    -3.281      0.000      0.000
REMARK INTER + INTRA:          -5.393
REMARK INTER:                  -4.432
REMARK INTRA:                  -0.961
REMARK UNBOUND:                -0.961
REMARK SMILES O=C[C@@H](O)[C@H](O)[C@@H](O)CO
REMARK SMILES IDX 7 1 9 2 10 3 5 5 3 6 2 7 1 8 4 9 6 11 8 13
REMARK H PARENT 10 4 4 10 6 12 8 14
REMARK Flexibility Score: inf
ROOT
ATOM      1  C   UNL     1      16.492  33.842  13.346  1.00  0.00     0.171 C 
ENDROOT
BRANCH   1   2
ATOM      2  C   UNL     1      15.065  34.262  12.950  1.00  0.00     0.190 C 
BRANCH   2   3
ATOM      3  O   UNL     1      14.311  34.568  14.092  1.00  0.00    -0.394 OA
ATOM      4  H   UNL     1      13.546  33.934  14.109  1.00  0.00     0.210 HD
ENDBRANCH   2   3
ENDBRANCH   1   2
BRANCH   1   5
ATOM      5  C   UNL     1      17.397  35.046  13.732  1.00  0.00     0.181 C 
BRANCH   5   6
ATOM      6  C   UNL     1      17.768  35.124  15.231  1.00  0.00     0.209 C 
BRANCH   6   7
ATOM      7  C   UNL     1      18.639  36.316  15.524  1.00  0.00     0.258 C 
ATOM      8  O   UNL     1      19.362  36.781  14.658  1.00  0.00    -0.300 OA
ENDBRANCH   6   7
BRANCH   6   9
ATOM      9  O   UNL     1      16.587  35.234  15.984  1.00  0.00    -0.383 OA
ATOM     10  H   UNL     1      15.959  35.794  15.456  1.00  0.00     0.211 HD
ENDBRANCH   6   9
ENDBRANCH   5   6
BRANCH   5  11
ATOM     11  O   UNL     1      16.760  36.245  13.366  1.00  0.00    -0.387 OA
ATOM     12  H   UNL     1      16.431  36.128  12.436  1.00  0.00     0.211 HD
ENDBRANCH   5  11
ENDBRANCH   1   5
BRANCH   1  13
ATOM     13  O   UNL     1      16.449  32.918  14.405  1.00  0.00    -0.388 OA
ATOM     14  H   UNL     1      16.122  32.058  14.031  1.00  0.00     0.211 HD
ENDBRANCH   1  13
TORSDOF 8
ENDMDL
MODEL 2
REMARK VINA RESULT:    -3.183      1.501      2.093
REMARK INTER + INTRA:          -5.261
REMARK INTER:                  -4.552
REMARK INTRA:                  -0.709
REMARK UNBOUND:                -0.961
REMARK SMILES O=C[C@@H](O)[C@H](O)[C@@H](O)CO
REMARK SMILES IDX 7 1 9 2 10 3 5 5 3 6 2 7 1 8 4 9 6 11 8 13
REMARK H PARENT 10 4 4 10 6 12 8 14
REMARK Flexibility Score: inf
ROOT
ATOM      1  C   UNL     1      15.802  34.392  14.399  1.00  0.00     0.171 C 
ENDROOT
BRANCH   1   2
ATOM      2  C   UNL     1      14.580  34.567  15.319  1.00  0.00     0.190 C 
BRANCH   2   3
ATOM      3  O   UNL     1      14.984  35.007  16.588  1.00  0.00    -0.394 OA
ATOM      4  H   UNL     1      14.162  35.080  17.142  1.00  0.00     0.210 HD
ENDBRANCH   2   3
ENDBRANCH   1   2
BRANCH   1   5
ATOM      5  C   UNL     1      17.010  35.278  14.814  1.00  0.00     0.181 C 
BRANCH   5   6
ATOM      6  C   UNL     1      17.955  35.670  13.653  1.00  0.00     0.209 C 
BRANCH   6   7
ATOM      7  C   UNL     1      19.176  36.393  14.154  1.00  0.00     0.258 C 
ATOM      8  O   UNL     1      19.104  37.128  15.126  1.00  0.00    -0.300 OA
ENDBRANCH   6   7
BRANCH   6   9
ATOM      9  O   UNL     1      18.365  34.502  12.989  1.00  0.00    -0.383 OA
ATOM     10  H   UNL     1      17.628  33.842  13.084  1.00  0.00     0.211 HD
ENDBRANCH   6   9
ENDBRANCH   5   6
BRANCH   5  11
ATOM     11  O   UNL     1      17.763  34.611  15.796  1.00  0.00    -0.387 OA
ATOM     12  H   UNL     1      17.191  34.543  16.606  1.00  0.00     0.211 HD
ENDBRANCH   5  11
ENDBRANCH   1   5
BRANCH   1  13
ATOM     13  O   UNL     1      16.190  33.041  14.361  1.00  0.00    -0.388 OA
ATOM     14  H   UNL     1      16.832  32.900  15.106  1.00  0.00     0.211 HD
ENDBRANCH   1  13
TORSDOF 8
ENDMDL
MODEL 3
REMARK VINA RESULT:    -3.176     11.656     13.440
REMARK INTER + INTRA:          -5.251
REMARK INTER:                  -4.339
REMARK INTRA:                  -0.912
REMARK UNBOUND:                -0.961
REMARK SMILES O=C[C@@H](O)[C@H](O)[C@@H](O)CO
REMARK SMILES IDX 7 1 9 2 10 3 5 5 3 6 2 7 1 8 4 9 6 11 8 13
REMARK H PARENT 10 4 4 10 6 12 8 14
REMARK Flexibility Score: inf
ROOT
ATOM      1  C   UNL     1      18.743  22.173  14.865  1.00  0.00     0.171 C 
ENDROOT
BRANCH   1   2
ATOM      2  C   UNL     1      19.704  20.995  14.619  1.00  0.00     0.190 C 
BRANCH   2   3
ATOM      3  O   UNL     1      19.636  20.080  15.680  1.00  0.00    -0.394 OA
ATOM      4  H   UNL     1      20.552  19.716  15.805  1.00  0.00     0.210 HD
ENDBRANCH   2   3
ENDBRANCH   1   2
BRANCH   1   5
ATOM      5  C   UNL     1      17.280  21.867  14.436  1.00  0.00     0.181 C 
BRANCH   5   6
ATOM      6  C   UNL     1      16.272  23.008  14.709  1.00  0.00     0.209 C 
BRANCH   6   7
ATOM      7  C   UNL     1      15.384  22.693  15.881  1.00  0.00     0.258 C 
ATOM      8  O   UNL     1      15.846  22.636  17.009  1.00  0.00    -0.300 OA
ENDBRANCH   6   7
BRANCH   6   9
ATOM      9  O   UNL     1      16.987  24.185  14.990  1.00  0.00    -0.383 OA
ATOM     10  H   UNL     1      16.446  24.941  14.641  1.00  0.00     0.211 HD
ENDBRANCH   6   9
ENDBRANCH   5   6
BRANCH   5  11
ATOM     11  O   UNL     1      16.833  20.709  15.096  1.00  0.00    -0.387 OA
ATOM     12  H   UNL     1      15.902  20.541  14.791  1.00  0.00     0.211 HD
ENDBRANCH   5  11
ENDBRANCH   1   5
BRANCH   1  13
ATOM     13  O   UNL     1      18.776  22.550  16.218  1.00  0.00    -0.388 OA
ATOM     14  H   UNL     1      19.717  22.466  16.524  1.00  0.00     0.211 HD
ENDBRANCH   1  13
TORSDOF 8
ENDMDL
MODEL 4
REMARK VINA RESULT:    -3.169     10.876     12.496
REMARK INTER + INTRA:          -5.241
REMARK INTER:                  -4.323
REMARK INTRA:                  -0.918
REMARK UNBOUND:                -0.961
REMARK SMILES O=C[C@@H](O)[C@H](O)[C@@H](O)CO
REMARK SMILES IDX 7 1 9 2 10 3 5 5 3 6 2 7 1 8 4 9 6 11 8 13
REMARK H PARENT 10 4 4 10 6 12 8 14
REMARK Flexibility Score: inf
ROOT
ATOM      1  C   UNL     1      27.775  36.803  20.731  1.00  0.00     0.171 C 
ENDROOT
BRANCH   1   2
ATOM      2  C   UNL     1      27.833  37.705  21.977  1.00  0.00     0.190 C 
BRANCH   2   3
ATOM      3  O   UNL     1      26.552  38.177  22.298  1.00  0.00    -0.394 OA
ATOM      4  H   UNL     1      26.671  39.077  22.703  1.00  0.00     0.210 HD
ENDBRANCH   2   3
ENDBRANCH   1   2
BRANCH   1   5
ATOM      5  C   UNL     1      27.285  35.361  21.043  1.00  0.00     0.181 C 
BRANCH   5   6
ATOM      6  C   UNL     1      25.874  35.025  20.506  1.00  0.00     0.209 C 
BRANCH   6   7
ATOM      7  C   UNL     1      25.453  33.632  20.890  1.00  0.00     0.258 C 
ATOM      8  O   UNL     1      26.274  32.832  21.310  1.00  0.00    -0.300 OA
ENDBRANCH   6   7
BRANCH   6   9
ATOM      9  O   UNL     1      24.955  35.938  21.047  1.00  0.00    -0.383 OA
ATOM     10  H   UNL     1      24.110  35.439  21.203  1.00  0.00     0.211 HD
ENDBRANCH   6   9
ENDBRANCH   5   6
BRANCH   5  11
ATOM     11  O   UNL     1      27.294  35.156  22.434  1.00  0.00    -0.387 OA
ATOM     12  H   UNL     1      28.101  34.615  22.644  1.00  0.00     0.211 HD
ENDBRANCH   5  11
ENDBRANCH   1   5
BRANCH   1  13
ATOM     13  O   UNL     1      26.954  37.385  19.750  1.00  0.00    -0.388 OA
ATOM     14  H   UNL     1      26.265  36.711  19.507  1.00  0.00     0.211 HD
ENDBRANCH   1  13
TORSDOF 8
ENDMDL
MODEL 5
REMARK VINA RESULT:    -3.155     10.960     12.087
REMARK INTER + INTRA:          -5.222
REMARK INTER:                  -4.278
REMARK INTRA:                  -0.945
REMARK UNBOUND:                -0.961
REMARK SMILES O=C[C@@H](O)[C@H](O)[C@@H](O)CO
REMARK SMILES IDX 7 1 9 2 10 3 5 5 3 6 2 7 1 8 4 9 6 11 8 13
REMARK H PARENT 10 4 4 10 6 12 8 14
REMARK Flexibility Score: inf
ROOT
ATOM      1  C   UNL     1      27.242  35.453  20.656  1.00  0.00     0.171 C 
ENDROOT
BRANCH   1   2
ATOM      2  C   UNL     1      27.928  36.740  20.160  1.00  0.00     0.190 C 
BRANCH   2   3
ATOM      3  O   UNL     1      26.974  37.651  19.685  1.00  0.00    -0.394 OA
ATOM      4  H   UNL     1      26.431  37.933  20.468  1.00  0.00     0.210 HD
ENDBRANCH   2   3
ENDBRANCH   1   2
BRANCH   1   5
ATOM      5  C   UNL     1      26.597  35.609  22.062  1.00  0.00     0.181 C 
BRANCH   5   6
ATOM      6  C   UNL     1      26.061  34.296  22.679  1.00  0.00     0.209 C 
BRANCH   6   7
ATOM      7  C   UNL     1      24.558  34.235  22.630  1.00  0.00     0.258 C 
ATOM      8  O   UNL     1      23.972  34.293  21.561  1.00  0.00    -0.300 OA
ENDBRANCH   6   7
BRANCH   6   9
ATOM      9  O   UNL     1      26.579  33.211  21.952  1.00  0.00    -0.383 OA
ATOM     10  H   UNL     1      26.802  33.551  21.045  1.00  0.00     0.211 HD
ENDBRANCH   6   9
ENDBRANCH   5   6
BRANCH   5  11
ATOM     11  O   UNL     1      25.539  36.533  21.991  1.00  0.00    -0.387 OA
ATOM     12  H   UNL     1      24.784  36.152  22.513  1.00  0.00     0.211 HD
ENDBRANCH   5  11
ENDBRANCH   1   5
BRANCH   1  13
ATOM     13  O   UNL     1      26.273  35.034  19.729  1.00  0.00    -0.388 OA
ATOM     14  H   UNL     1      26.717  34.400  19.107  1.00  0.00     0.211 HD
ENDBRANCH   1  13
TORSDOF 8
ENDMDL
MODEL 6
REMARK VINA RESULT:    -3.123     11.392     13.020
REMARK INTER + INTRA:          -5.179
REMARK INTER:                  -4.247
REMARK INTRA:                  -0.932
REMARK UNBOUND:                -0.961
REMARK SMILES O=C[C@@H](O)[C@H](O)[C@@H](O)CO
REMARK SMILES IDX 7 1 9 2 10 3 5 5 3 6 2 7 1 8 4 9 6 11 8 13
REMARK H PARENT 10 4 4 10 6 12 8 14
REMARK Flexibility Score: inf
ROOT
ATOM      1  C   UNL     1      26.517  35.890  21.104  1.00  0.00     0.171 C 
ENDROOT
BRANCH   1   2
ATOM      2  C   UNL     1      27.088  36.489  19.806  1.00  0.00     0.190 C 
BRANCH   2   3
ATOM      3  O   UNL     1      26.886  37.877  19.779  1.00  0.00    -0.394 OA
ATOM      4  H   UNL     1      27.638  38.287  20.282  1.00  0.00     0.210 HD
ENDBRANCH   2   3
ENDBRANCH   1   2
BRANCH   1   5
ATOM      5  C   UNL     1      27.194  36.453  22.385  1.00  0.00     0.181 C 
BRANCH   5   6
ATOM      6  C   UNL     1      26.275  37.322  23.276  1.00  0.00     0.209 C 
BRANCH   6   7
ATOM      7  C   UNL     1      26.877  37.550  24.635  1.00  0.00     0.258 C 
ATOM      8  O   UNL     1      28.076  37.751  24.754  1.00  0.00    -0.300 OA
ENDBRANCH   6   7
BRANCH   6   9
ATOM      9  O   UNL     1      26.086  38.566  22.652  1.00  0.00    -0.383 OA
ATOM     10  H   UNL     1      25.434  38.424  21.916  1.00  0.00     0.211 HD
ENDBRANCH   6   9
ENDBRANCH   5   6
BRANCH   5  11
ATOM     11  O   UNL     1      28.317  37.218  22.023  1.00  0.00    -0.387 OA
ATOM     12  H   UNL     1      28.396  37.951  22.688  1.00  0.00     0.211 HD
ENDBRANCH   5  11
ENDBRANCH   1   5
BRANCH   1  13
ATOM     13  O   UNL     1      25.129  36.100  21.165  1.00  0.00    -0.388 OA
ATOM     14  H   UNL     1      24.977  36.887  21.751  1.00  0.00     0.211 HD
ENDBRANCH   1  13
TORSDOF 8
ENDMDL
MODEL 7
REMARK VINA RESULT:    -3.106     15.616     16.635
REMARK INTER + INTRA:          -5.156
REMARK INTER:                  -4.531
REMARK INTRA:                  -0.625
REMARK UNBOUND:                -0.961
REMARK SMILES O=C[C@@H](O)[C@H](O)[C@@H](O)CO
REMARK SMILES IDX 7 1 9 2 10 3 5 5 3 6 2 7 1 8 4 9 6 11 8 13
REMARK H PARENT 10 4 4 10 6 12 8 14
REMARK Flexibility Score: inf
ROOT
ATOM      1  C   UNL     1      15.173  25.341  26.805  1.00  0.00     0.171 C 
ENDROOT
BRANCH   1   2
ATOM      2  C   UNL     1      15.672  25.046  25.379  1.00  0.00     0.190 C 
BRANCH   2   3
ATOM      3  O   UNL     1      17.069  24.921  25.366  1.00  0.00    -0.394 OA
ATOM      4  H   UNL     1      17.273  23.960  25.517  1.00  0.00     0.210 HD
ENDBRANCH   2   3
ENDBRANCH   1   2
BRANCH   1   5
ATOM      5  C   UNL     1      16.114  26.294  27.596  1.00  0.00     0.181 C 
BRANCH   5   6
ATOM      6  C   UNL     1      16.869  25.631  28.772  1.00  0.00     0.209 C 
BRANCH   6   7
ATOM      7  C   UNL     1      15.931  24.883  29.680  1.00  0.00     0.258 C 
ATOM      8  O   UNL     1      15.128  25.487  30.372  1.00  0.00    -0.300 OA
ENDBRANCH   6   7
BRANCH   6   9
ATOM      9  O   UNL     1      17.809  24.726  28.252  1.00  0.00    -0.383 OA
ATOM     10  H   UNL     1      18.548  24.665  28.914  1.00  0.00     0.211 HD
ENDBRANCH   6   9
ENDBRANCH   5   6
BRANCH   5  11
ATOM     11  O   UNL     1      15.369  27.376  28.097  1.00  0.00    -0.387 OA
ATOM     12  H   UNL     1      15.929  28.190  27.990  1.00  0.00     0.211 HD
ENDBRANCH   5  11
ENDBRANCH   1   5
BRANCH   1  13
ATOM     13  O   UNL     1      13.875  25.878  26.763  1.00  0.00    -0.388 OA
ATOM     14  H   UNL     1      13.724  26.350  27.623  1.00  0.00     0.211 HD
ENDBRANCH   1  13
TORSDOF 8
ENDMDL
MODEL 8
REMARK VINA RESULT:    -3.093     10.968     12.189
REMARK INTER + INTRA:          -5.139
REMARK INTER:                  -4.207
REMARK INTRA:                  -0.932
REMARK UNBOUND:                -0.961
REMARK SMILES O=C[C@@H](O)[C@H](O)[C@@H](O)CO
REMARK SMILES IDX 7 1 9 2 10 3 5 5 3 6 2 7 1 8 4 9 6 11 8 13
REMARK H PARENT 10 4 4 10 6 12 8 14
REMARK Flexibility Score: inf
ROOT
ATOM      1  C   UNL     1      25.728  35.419  20.700  1.00  0.00     0.171 C 
ENDROOT
BRANCH   1   2
ATOM      2  C   UNL     1      24.691  34.728  21.604  1.00  0.00     0.190 C 
BRANCH   2   3
ATOM      3  O   UNL     1      25.206  34.557  22.897  1.00  0.00    -0.394 OA
ATOM      4  H   UNL     1      24.671  33.839  23.327  1.00  0.00     0.210 HD
ENDBRANCH   2   3
ENDBRANCH   1   2
BRANCH   1   5
ATOM      5  C   UNL     1      26.910  36.043  21.495  1.00  0.00     0.181 C 
BRANCH   5   6
ATOM      6  C   UNL     1      27.719  37.111  20.722  1.00  0.00     0.209 C 
BRANCH   6   7
ATOM      7  C   UNL     1      29.015  36.553  20.200  1.00  0.00     0.258 C 
ATOM      8  O   UNL     1      29.014  35.638  19.392  1.00  0.00    -0.300 OA
ENDBRANCH   6   7
BRANCH   6   9
ATOM      9  O   UNL     1      26.952  37.559  19.633  1.00  0.00    -0.383 OA
ATOM     10  H   UNL     1      26.674  38.490  19.840  1.00  0.00     0.211 HD
ENDBRANCH   6   9
ENDBRANCH   5   6
BRANCH   5  11
ATOM     11  O   UNL     1      27.790  35.024  21.900  1.00  0.00    -0.387 OA
ATOM     12  H   UNL     1      27.234  34.230  22.121  1.00  0.00     0.211 HD
ENDBRANCH   5  11
ENDBRANCH   1   5
BRANCH   1  13
ATOM     13  O   UNL     1      26.220  34.511  19.746  1.00  0.00    -0.388 OA
ATOM     14  H   UNL     1      26.642  33.763  20.244  1.00  0.00     0.211 HD
ENDBRANCH   1  13
TORSDOF 8
ENDMDL
MODEL 9
REMARK VINA RESULT:    -3.068     11.709     13.143
REMARK INTER + INTRA:          -5.105
REMARK INTER:                  -4.119
REMARK INTRA:                  -0.986
REMARK UNBOUND:                -0.961
REMARK SMILES O=C[C@@H](O)[C@H](O)[C@@H](O)CO
REMARK SMILES IDX 7 1 9 2 10 3 5 5 3 6 2 7 1 8 4 9 6 11 8 13
REMARK H PARENT 10 4 4 10 6 12 8 14
REMARK Flexibility Score: inf
ROOT
ATOM      1  C   UNL     1      17.654  21.542  16.072  1.00  0.00     0.171 C 
ENDROOT
BRANCH   1   2
ATOM      2  C   UNL     1      16.597  21.284  17.161  1.00  0.00     0.190 C 
BRANCH   2   3
ATOM      3  O   UNL     1      15.757  22.398  17.300  1.00  0.00    -0.394 OA
ATOM      4  H   UNL     1      16.275  23.089  17.792  1.00  0.00     0.210 HD
ENDBRANCH   2   3
ENDBRANCH   1   2
BRANCH   1   5
ATOM      5  C   UNL     1      17.046  21.649  14.645  1.00  0.00     0.181 C 
BRANCH   5   6
ATOM      6  C   UNL     1      17.116  23.061  14.015  1.00  0.00     0.209 C 
BRANCH   6   7
ATOM      7  C   UNL     1      16.581  23.066  12.609  1.00  0.00     0.258 C 
ATOM      8  O   UNL     1      16.468  22.021  11.987  1.00  0.00    -0.300 OA
ENDBRANCH   6   7
BRANCH   6   9
ATOM      9  O   UNL     1      16.344  23.941  14.793  1.00  0.00    -0.383 OA
ATOM     10  H   UNL     1      16.889  24.175  15.590  1.00  0.00     0.211 HD
ENDBRANCH   6   9
ENDBRANCH   5   6
BRANCH   5  11
ATOM     11  O   UNL     1      15.702  21.241  14.678  1.00  0.00    -0.387 OA
ATOM     12  H   UNL     1      15.694  20.255  14.551  1.00  0.00     0.211 HD
ENDBRANCH   5  11
ENDBRANCH   1   5
BRANCH   1  13
ATOM     13  O   UNL     1      18.382  22.706  16.371  1.00  0.00    -0.388 OA
ATOM     14  H   UNL     1      17.886  23.471  15.977  1.00  0.00     0.211 HD
ENDBRANCH   1  13
TORSDOF 8
ENDMDL
