MODEL 1
REMARK VINA RESULT:     2.411      0.000      0.000
REMARK INTER + INTRA:           4.908
REMARK INTER:                   5.511
REMARK INTRA:                  -0.604
REMARK UNBOUND:                -0.604
REMARK SMILES CCCCCCCCCCCCCCCCCCCCCCCC(=O)[O-]
REMARK SMILES IDX 13 1 14 2 15 3 16 4 17 5 18 6 19 7 20 8 21 9 22 10 23 11
REMARK SMILES IDX 24 12 25 13 26 14 12 15 11 16 10 17 9 18 8 19 7 20 6 21 5 22
REMARK SMILES IDX 4 23 3 24 2 25 1 26
REMARK H PARENT
REMARK Flexibility Score: inf
ROOT
ATOM      1  C   UNL     1      22.129   9.415  17.567  1.00  0.00     0.000 C 
ENDROOT
BRANCH   1   2
ATOM      2  C   UNL     1      21.759   8.084  16.891  1.00  0.00     0.000 C 
BRANCH   2   3
ATOM      3  C   UNL     1      22.371   6.829  17.544  1.00  0.00     0.000 C 
BRANCH   3   4
ATOM      4  C   UNL     1      21.802   5.501  16.999  1.00  0.00     0.000 C 
BRANCH   4   5
ATOM      5  C   UNL     1      21.909   4.358  18.024  1.00  0.00     0.000 C 
BRANCH   5   6
ATOM      6  C   UNL     1      22.193   4.857  19.451  1.00  0.00     0.000 C 
BRANCH   6   7
ATOM      7  C   UNL     1      21.898   3.837  20.570  1.00  0.00     0.000 C 
BRANCH   7   8
ATOM      8  C   UNL     1      22.508   2.437  20.357  1.00  0.00     0.000 C 
BRANCH   8   9
ATOM      9  C   UNL     1      23.917   2.424  19.731  1.00  0.00     0.000 C 
BRANCH   9  10
ATOM     10  C   UNL     1      24.892   3.487  20.277  1.00  0.00     0.006 C 
BRANCH  10  11
ATOM     11  C   UNL     1      25.675   3.038  21.524  1.00  0.00     0.053 C 
BRANCH  11  12
ATOM     12  C   UNL     1      25.410   3.898  22.720  1.00  0.00     0.041 C 
ATOM     13  O   UNL     1      26.124   3.793  23.751  1.00  0.00    -0.550 OA
ATOM     14  O   UNL     1      24.389   4.840  22.685  1.00  0.00    -0.550 OA
ENDBRANCH  11  12
ENDBRANCH  10  11
ENDBRANCH   9  10
ENDBRANCH   8   9
ENDBRANCH   7   8
ENDBRANCH   6   7
ENDBRANCH   5   6
ENDBRANCH   4   5
ENDBRANCH   3   4
ENDBRANCH   2   3
ENDBRANCH   1   2
BRANCH   1  15
ATOM     15  C   UNL     1      23.396  10.053  16.970  1.00  0.00     0.000 C 
BRANCH  15  16
ATOM     16  C   UNL     1      23.345  11.589  16.995  1.00  0.00     0.000 C 
BRANCH  16  17
ATOM     17  C   UNL     1      21.912  12.134  16.916  1.00  0.00     0.000 C 
BRANCH  17  18
ATOM     18  C   UNL     1      21.913  13.670  16.942  1.00  0.00    -0.000 C 
BRANCH  18  19
ATOM     19  C   UNL     1      20.495  14.269  17.002  1.00  0.00    -0.000 C 
BRANCH  19  20
ATOM     20  C   UNL     1      20.425  15.805  16.876  1.00  0.00    -0.000 C 
BRANCH  20  21
ATOM     21  C   UNL     1      19.573  16.518  17.942  1.00  0.00    -0.000 C 
BRANCH  21  22
ATOM     22  C   UNL     1      18.100  16.675  17.525  1.00  0.00    -0.000 C 
BRANCH  22  23
ATOM     23  C   UNL     1      17.679  18.149  17.404  1.00  0.00    -0.000 C 
BRANCH  23  24
ATOM     24  C   UNL     1      17.281  18.765  18.756  1.00  0.00    -0.000 C 
BRANCH  24  25
ATOM     25  C   UNL     1      16.905  20.250  18.634  1.00  0.00    -0.003 C 
ATOM     26  C   UNL     1      15.823  20.500  17.584  1.00  0.00     0.004 C 
ENDBRANCH  24  25
ENDBRANCH  23  24
ENDBRANCH  22  23
ENDBRANCH  21  22
ENDBRANCH  20  21
ENDBRANCH  19  20
ENDBRANCH  18  19
ENDBRANCH  17  18
ENDBRANCH  16  17
ENDBRANCH  15  16
ENDBRANCH   1  15
TORSDOF 22
ENDMDL
MODEL 2
REMARK VINA RESULT:     2.422      5.016     13.703
REMARK INTER + INTRA:           4.933
REMARK INTER:                   5.620
REMARK INTRA:                  -0.687
REMARK UNBOUND:                -0.604
REMARK SMILES CCCCCCCCCCCCCCCCCCCCCCCC(=O)[O-]
REMARK SMILES IDX 13 1 14 2 15 3 16 4 17 5 18 6 19 7 20 8 21 9 22 10 23 11
REMARK SMILES IDX 24 12 25 13 26 14 12 15 11 16 10 17 9 18 8 19 7 20 6 21 5 22
REMARK SMILES IDX 4 23 3 24 2 25 1 26
REMARK H PARENT
REMARK Flexibility Score: inf
ROOT
ATOM      1  C   UNL     1      22.893  11.329  17.814  1.00  0.00     0.000 C 
ENDROOT
BRANCH   1   2
ATOM      2  C   UNL     1      21.800  12.008  16.971  1.00  0.00     0.000 C 
BRANCH   2   3
ATOM      3  C   UNL     1      21.834  13.549  16.978  1.00  0.00     0.000 C 
BRANCH   3   4
ATOM      4  C   UNL     1      20.439  14.205  16.885  1.00  0.00     0.000 C 
BRANCH   4   5
ATOM      5  C   UNL     1      20.438  15.649  17.419  1.00  0.00     0.000 C 
BRANCH   5   6
ATOM      6  C   UNL     1      19.101  16.045  18.070  1.00  0.00     0.000 C 
BRANCH   6   7
ATOM      7  C   UNL     1      18.129  16.811  17.150  1.00  0.00     0.000 C 
BRANCH   7   8
ATOM      8  C   UNL     1      18.483  18.292  16.912  1.00  0.00     0.000 C 
BRANCH   8   9
ATOM      9  C   UNL     1      18.454  19.184  18.169  1.00  0.00     0.000 C 
BRANCH   9  10
ATOM     10  C   UNL     1      19.073  20.586  17.998  1.00  0.00     0.006 C 
BRANCH  10  11
ATOM     11  C   UNL     1      20.264  20.864  18.934  1.00  0.00     0.053 C 
BRANCH  11  12
ATOM     12  C   UNL     1      19.856  21.008  20.367  1.00  0.00     0.041 C 
ATOM     13  O   UNL     1      18.638  21.043  20.682  1.00  0.00    -0.550 OA
ATOM     14  O   UNL     1      20.824  21.075  21.362  1.00  0.00    -0.550 OA
ENDBRANCH  11  12
ENDBRANCH  10  11
ENDBRANCH   9  10
ENDBRANCH   8   9
ENDBRANCH   7   8
ENDBRANCH   6   7
ENDBRANCH   5   6
ENDBRANCH   4   5
ENDBRANCH   3   4
ENDBRANCH   2   3
ENDBRANCH   1   2
BRANCH   1  15
ATOM     15  C   UNL     1      23.944  10.606  16.955  1.00  0.00     0.000 C 
BRANCH  15  16
ATOM     16  C   UNL     1      23.697   9.091  16.880  1.00  0.00     0.000 C 
BRANCH  16  17
ATOM     17  C   UNL     1      22.247   8.711  17.216  1.00  0.00     0.000 C 
BRANCH  17  18
ATOM     18  C   UNL     1      21.978   7.238  16.875  1.00  0.00    -0.000 C 
BRANCH  18  19
ATOM     19  C   UNL     1      22.264   6.288  18.053  1.00  0.00    -0.000 C 
BRANCH  19  20
ATOM     20  C   UNL     1      23.187   5.096  17.728  1.00  0.00    -0.000 C 
BRANCH  20  21
ATOM     21  C   UNL     1      23.867   4.435  18.940  1.00  0.00    -0.000 C 
BRANCH  21  22
ATOM     22  C   UNL     1      25.337   4.065  18.675  1.00  0.00    -0.000 C 
BRANCH  22  23
ATOM     23  C   UNL     1      25.817   2.903  19.561  1.00  0.00    -0.000 C 
BRANCH  23  24
ATOM     24  C   UNL     1      24.859   2.611  20.728  1.00  0.00    -0.000 C 
BRANCH  24  25
ATOM     25  C   UNL     1      25.534   2.790  22.097  1.00  0.00    -0.003 C 
ATOM     26  C   UNL     1      25.586   4.252  22.541  1.00  0.00     0.004 C 
ENDBRANCH  24  25
ENDBRANCH  23  24
ENDBRANCH  22  23
ENDBRANCH  21  22
ENDBRANCH  20  21
ENDBRANCH  19  20
ENDBRANCH  18  19
ENDBRANCH  17  18
ENDBRANCH  16  17
ENDBRANCH  15  16
ENDBRANCH   1  15
TORSDOF 22
ENDMDL
MODEL 3
REMARK VINA RESULT:     2.596      2.707      4.480
REMARK INTER + INTRA:           5.331
REMARK INTER:                   6.186
REMARK INTRA:                  -0.856
REMARK UNBOUND:                -0.604
REMARK SMILES CCCCCCCCCCCCCCCCCCCCCCCC(=O)[O-]
REMARK SMILES IDX 13 1 14 2 15 3 16 4 17 5 18 6 19 7 20 8 21 9 22 10 23 11
REMARK SMILES IDX 24 12 25 13 26 14 12 15 11 16 10 17 9 18 8 19 7 20 6 21 5 22
REMARK SMILES IDX 4 23 3 24 2 25 1 26
REMARK H PARENT
REMARK Flexibility Score: inf
ROOT
ATOM      1  C   UNL     1      22.039  12.334  17.508  1.00  0.00     0.000 C 
ENDROOT
BRANCH   1   2
ATOM      2  C   UNL     1      23.325  11.711  16.938  1.00  0.00     0.000 C 
BRANCH   2   3
ATOM      3  C   UNL     1      23.673  10.314  17.488  1.00  0.00     0.000 C 
BRANCH   3   4
ATOM      4  C   UNL     1      22.642   9.224  17.121  1.00  0.00     0.000 C 
BRANCH   4   5
ATOM      5  C   UNL     1      23.304   7.856  16.875  1.00  0.00     0.000 C 
BRANCH   5   6
ATOM      6  C   UNL     1      22.312   6.684  16.976  1.00  0.00     0.000 C 
BRANCH   6   7
ATOM      7  C   UNL     1      21.904   6.296  18.411  1.00  0.00     0.000 C 
BRANCH   7   8
ATOM      8  C   UNL     1      22.895   5.374  19.148  1.00  0.00     0.000 C 
BRANCH   8   9
ATOM      9  C   UNL     1      22.264   4.437  20.197  1.00  0.00     0.000 C 
BRANCH   9  10
ATOM     10  C   UNL     1      22.198   2.949  19.798  1.00  0.00     0.006 C 
BRANCH  10  11
ATOM     11  C   UNL     1      20.772   2.369  19.772  1.00  0.00     0.053 C 
BRANCH  11  12
ATOM     12  C   UNL     1      20.155   2.403  18.409  1.00  0.00     0.041 C 
ATOM     13  O   UNL     1      20.869   2.250  17.383  1.00  0.00    -0.550 OA
ATOM     14  O   UNL     1      18.783   2.575  18.271  1.00  0.00    -0.550 OA
ENDBRANCH  11  12
ENDBRANCH  10  11
ENDBRANCH   9  10
ENDBRANCH   8   9
ENDBRANCH   7   8
ENDBRANCH   6   7
ENDBRANCH   5   6
ENDBRANCH   4   5
ENDBRANCH   3   4
ENDBRANCH   2   3
ENDBRANCH   1   2
BRANCH   1  15
ATOM     15  C   UNL     1      21.709  13.698  16.878  1.00  0.00     0.000 C 
BRANCH  15  16
ATOM     16  C   UNL     1      20.283  14.167  17.212  1.00  0.00     0.000 C 
BRANCH  16  17
ATOM     17  C   UNL     1      20.055  15.648  16.876  1.00  0.00     0.000 C 
BRANCH  17  18
ATOM     18  C   UNL     1      19.682  16.441  18.138  1.00  0.00    -0.000 C 
BRANCH  18  19
ATOM     19  C   UNL     1      18.712  17.602  17.851  1.00  0.00    -0.000 C 
BRANCH  19  20
ATOM     20  C   UNL     1      17.583  17.786  18.887  1.00  0.00    -0.000 C 
BRANCH  20  21
ATOM     21  C   UNL     1      17.386  19.224  19.401  1.00  0.00    -0.000 C 
BRANCH  21  22
ATOM     22  C   UNL     1      17.764  20.290  18.358  1.00  0.00    -0.000 C 
BRANCH  22  23
ATOM     23  C   UNL     1      19.234  20.727  18.472  1.00  0.00    -0.000 C 
BRANCH  23  24
ATOM     24  C   UNL     1      19.773  20.627  19.909  1.00  0.00    -0.000 C 
BRANCH  24  25
ATOM     25  C   UNL     1      21.308  20.623  19.959  1.00  0.00    -0.003 C 
ATOM     26  C   UNL     1      21.922  21.878  19.338  1.00  0.00     0.004 C 
ENDBRANCH  24  25
ENDBRANCH  23  24
ENDBRANCH  22  23
ENDBRANCH  21  22
ENDBRANCH  20  21
ENDBRANCH  19  20
ENDBRANCH  18  19
ENDBRANCH  17  18
ENDBRANCH  16  17
ENDBRANCH  15  16
ENDBRANCH   1  15
TORSDOF 22
ENDMDL
MODEL 4
REMARK VINA RESULT:     2.609      2.482      5.477
REMARK INTER + INTRA:           5.360
REMARK INTER:                   5.689
REMARK INTRA:                  -0.328
REMARK UNBOUND:                -0.604
REMARK SMILES CCCCCCCCCCCCCCCCCCCCCCCC(=O)[O-]
REMARK SMILES IDX 13 1 14 2 15 3 16 4 17 5 18 6 19 7 20 8 21 9 22 10 23 11
REMARK SMILES IDX 24 12 25 13 26 14 12 15 11 16 10 17 9 18 8 19 7 20 6 21 5 22
REMARK SMILES IDX 4 23 3 24 2 25 1 26
REMARK H PARENT
REMARK Flexibility Score: inf
ROOT
ATOM      1  C   UNL     1      21.106  14.297  17.302  1.00  0.00     0.000 C 
ENDROOT
BRANCH   1   2
ATOM      2  C   UNL     1      21.310  12.774  17.245  1.00  0.00     0.000 C 
BRANCH   2   3
ATOM      3  C   UNL     1      22.743  12.320  16.902  1.00  0.00     0.000 C 
BRANCH   3   4
ATOM      4  C   UNL     1      23.263  11.171  17.792  1.00  0.00     0.000 C 
BRANCH   4   5
ATOM      5  C   UNL     1      24.536  10.522  17.219  1.00  0.00     0.000 C 
BRANCH   5   6
ATOM      6  C   UNL     1      24.347   9.033  16.877  1.00  0.00     0.000 C 
BRANCH   6   7
ATOM      7  C   UNL     1      22.884   8.545  16.876  1.00  0.00     0.000 C 
BRANCH   7   8
ATOM      8  C   UNL     1      22.665   7.132  17.451  1.00  0.00     0.000 C 
BRANCH   8   9
ATOM      9  C   UNL     1      21.254   6.549  17.239  1.00  0.00     0.000 C 
BRANCH   9  10
ATOM     10  C   UNL     1      21.163   5.010  17.277  1.00  0.00     0.006 C 
BRANCH  10  11
ATOM     11  C   UNL     1      20.191   4.465  18.339  1.00  0.00     0.053 C 
BRANCH  11  12
ATOM     12  C   UNL     1      20.874   3.640  19.385  1.00  0.00     0.041 C 
ATOM     13  O   UNL     1      20.979   2.393  19.243  1.00  0.00    -0.550 OA
ATOM     14  O   UNL     1      21.421   4.252  20.506  1.00  0.00    -0.550 OA
ENDBRANCH  11  12
ENDBRANCH  10  11
ENDBRANCH   9  10
ENDBRANCH   8   9
ENDBRANCH   7   8
ENDBRANCH   6   7
ENDBRANCH   5   6
ENDBRANCH   4   5
ENDBRANCH   3   4
ENDBRANCH   2   3
ENDBRANCH   1   2
BRANCH   1  15
ATOM     15  C   UNL     1      19.684  14.722  16.895  1.00  0.00     0.000 C 
BRANCH  15  16
ATOM     16  C   UNL     1      19.142  15.866  17.769  1.00  0.00     0.000 C 
BRANCH  16  17
ATOM     17  C   UNL     1      18.193  16.797  17.002  1.00  0.00     0.000 C 
BRANCH  17  18
ATOM     18  C   UNL     1      18.216  18.211  17.601  1.00  0.00    -0.000 C 
BRANCH  18  19
ATOM     19  C   UNL     1      17.478  18.302  18.950  1.00  0.00    -0.000 C 
BRANCH  19  20
ATOM     20  C   UNL     1      16.335  19.337  19.006  1.00  0.00    -0.000 C 
BRANCH  20  21
ATOM     21  C   UNL     1      16.400  20.451  17.946  1.00  0.00    -0.000 C 
BRANCH  21  22
ATOM     22  C   UNL     1      17.581  21.414  18.160  1.00  0.00    -0.000 C 
BRANCH  22  23
ATOM     23  C   UNL     1      18.835  20.987  17.378  1.00  0.00    -0.000 C 
BRANCH  23  24
ATOM     24  C   UNL     1      20.131  21.560  17.975  1.00  0.00    -0.000 C 
BRANCH  24  25
ATOM     25  C   UNL     1      21.036  20.469  18.566  1.00  0.00    -0.003 C 
ATOM     26  C   UNL     1      21.791  19.685  17.494  1.00  0.00     0.004 C 
ENDBRANCH  24  25
ENDBRANCH  23  24
ENDBRANCH  22  23
ENDBRANCH  21  22
ENDBRANCH  20  21
ENDBRANCH  19  20
ENDBRANCH  18  19
ENDBRANCH  17  18
ENDBRANCH  16  17
ENDBRANCH  15  16
ENDBRANCH   1  15
TORSDOF 22
ENDMDL
MODEL 5
REMARK VINA RESULT:     3.003      4.878     13.838
REMARK INTER + INTRA:           6.261
REMARK INTER:                   7.158
REMARK INTRA:                  -0.897
REMARK UNBOUND:                -0.604
REMARK SMILES CCCCCCCCCCCCCCCCCCCCCCCC(=O)[O-]
REMARK SMILES IDX 13 1 14 2 15 3 16 4 17 5 18 6 19 7 20 8 21 9 22 10 23 11
REMARK SMILES IDX 24 12 25 13 26 14 12 15 11 16 10 17 9 18 8 19 7 20 6 21 5 22
REMARK SMILES IDX 4 23 3 24 2 25 1 26
REMARK H PARENT
REMARK Flexibility Score: inf
ROOT
ATOM      1  C   UNL     1      21.621  12.775  17.669  1.00  0.00     0.000 C 
ENDROOT
BRANCH   1   2
ATOM      2  C   UNL     1      21.234  14.041  16.886  1.00  0.00     0.000 C 
BRANCH   2   3
ATOM      3  C   UNL     1      20.554  15.143  17.722  1.00  0.00     0.000 C 
BRANCH   3   4
ATOM      4  C   UNL     1      19.769  16.172  16.879  1.00  0.00     0.000 C 
BRANCH   4   5
ATOM      5  C   UNL     1      19.547  17.494  17.635  1.00  0.00     0.000 C 
BRANCH   5   6
ATOM      6  C   UNL     1      18.167  18.118  17.357  1.00  0.00     0.000 C 
BRANCH   6   7
ATOM      7  C   UNL     1      17.437  18.665  18.601  1.00  0.00     0.000 C 
BRANCH   7   8
ATOM      8  C   UNL     1      16.808  20.062  18.430  1.00  0.00     0.000 C 
BRANCH   8   9
ATOM      9  C   UNL     1      17.404  21.164  19.327  1.00  0.00     0.000 C 
BRANCH   9  10
ATOM     10  C   UNL     1      18.640  21.886  18.754  1.00  0.00     0.006 C 
BRANCH  10  11
ATOM     11  C   UNL     1      19.791  20.942  18.361  1.00  0.00     0.053 C 
BRANCH  11  12
ATOM     12  C   UNL     1      20.908  20.939  19.358  1.00  0.00     0.041 C 
ATOM     13  O   UNL     1      20.679  21.188  20.571  1.00  0.00    -0.550 OA
ATOM     14  O   UNL     1      22.201  20.632  18.953  1.00  0.00    -0.550 OA
ENDBRANCH  11  12
ENDBRANCH  10  11
ENDBRANCH   9  10
ENDBRANCH   8   9
ENDBRANCH   7   8
ENDBRANCH   6   7
ENDBRANCH   5   6
ENDBRANCH   4   5
ENDBRANCH   3   4
ENDBRANCH   2   3
ENDBRANCH   1   2
BRANCH   1  15
ATOM     15  C   UNL     1      22.558  11.848  16.875  1.00  0.00     0.000 C 
BRANCH  15  16
ATOM     16  C   UNL     1      22.567  10.413  17.428  1.00  0.00     0.000 C 
BRANCH  16  17
ATOM     17  C   UNL     1      23.791   9.609  16.964  1.00  0.00     0.000 C 
BRANCH  17  18
ATOM     18  C   UNL     1      23.456   8.113  16.876  1.00  0.00    -0.000 C 
BRANCH  18  19
ATOM     19  C   UNL     1      22.058   7.778  17.427  1.00  0.00    -0.000 C 
BRANCH  19  20
ATOM     20  C   UNL     1      21.464   6.439  16.941  1.00  0.00    -0.000 C 
BRANCH  20  21
ATOM     21  C   UNL     1      22.413   5.230  17.011  1.00  0.00    -0.000 C 
BRANCH  21  22
ATOM     22  C   UNL     1      21.874   4.095  17.900  1.00  0.00    -0.000 C 
BRANCH  22  23
ATOM     23  C   UNL     1      22.227   4.295  19.384  1.00  0.00    -0.000 C 
BRANCH  23  24
ATOM     24  C   UNL     1      23.712   4.632  19.601  1.00  0.00    -0.000 C 
BRANCH  24  25
ATOM     25  C   UNL     1      24.633   3.444  19.287  1.00  0.00    -0.003 C 
ATOM     26  C   UNL     1      25.084   2.699  20.544  1.00  0.00     0.004 C 
ENDBRANCH  24  25
ENDBRANCH  23  24
ENDBRANCH  22  23
ENDBRANCH  21  22
ENDBRANCH  20  21
ENDBRANCH  19  20
ENDBRANCH  18  19
ENDBRANCH  17  18
ENDBRANCH  16  17
ENDBRANCH  15  16
ENDBRANCH   1  15
TORSDOF 22
ENDMDL
