MODEL 1
REMARK VINA RESULT:    -5.037      0.000      0.000
REMARK INTER + INTRA:          -6.948
REMARK INTER:                  -6.803
REMARK INTRA:                  -0.144
REMARK UNBOUND:                -0.144
REMARK SMILES [NH3+]CCCC[C@H]([NH3+])C(=O)[O-]
REMARK SMILES IDX 4 1 3 2 2 3 1 4 5 8 6 9 7 10 8 14 9 15 10 16
REMARK H PARENT 1 5 1 6 1 7 7 11 7 12 7 13
REMARK Flexibility Score: inf
ROOT
ATOM      1  C   UNL     1      48.785   6.067  30.313  1.00  0.00     0.012 C 
ENDROOT
BRANCH   1   2
ATOM      2  C   UNL     1      48.027   5.673  31.586  1.00  0.00     0.061 C 
BRANCH   2   3
ATOM      3  C   UNL     1      48.467   4.290  32.085  1.00  0.00     0.258 C 
BRANCH   3   4
ATOM      4  N   UNL     1      47.768   3.227  31.363  1.00  0.00    -0.358 N 
ATOM      5  H   UNL     1      47.354   2.545  32.039  1.00  0.00     0.344 HD
ATOM      6  H   UNL     1      47.014   3.635  30.765  1.00  0.00     0.344 HD
ATOM      7  H   UNL     1      48.450   2.724  30.751  1.00  0.00     0.344 HD
ENDBRANCH   3   4
ENDBRANCH   2   3
ENDBRANCH   1   2
BRANCH   1   8
ATOM      8  C   UNL     1      49.867   7.116  30.622  1.00  0.00     0.072 C 
BRANCH   8   9
ATOM      9  C   UNL     1      51.279   6.742  30.117  1.00  0.00     0.227 C 
BRANCH   9  10
ATOM     10  N   UNL     1      51.729   5.444  30.639  1.00  0.00    -0.350 N 
ATOM     11  H   UNL     1      52.040   5.556  31.632  1.00  0.00     0.345 HD
ATOM     12  H   UNL     1      52.542   5.097  30.080  1.00  0.00     0.345 HD
ATOM     13  H   UNL     1      50.963   4.733  30.609  1.00  0.00     0.345 HD
ENDBRANCH   9  10
BRANCH   9  14
ATOM     14  C   UNL     1      52.279   7.834  30.406  1.00  0.00     0.099 C 
ATOM     15  O   UNL     1      53.518   7.602  30.371  1.00  0.00    -0.544 OA
ATOM     16  O   UNL     1      51.833   9.098  30.767  1.00  0.00    -0.544 OA
ENDBRANCH   9  14
ENDBRANCH   8   9
ENDBRANCH   1   8
TORSDOF 7
ENDMDL
MODEL 2
REMARK VINA RESULT:    -4.793      3.328      5.106
REMARK INTER + INTRA:          -6.618
REMARK INTER:                  -6.466
REMARK INTRA:                  -0.152
REMARK UNBOUND:                -0.144
REMARK SMILES [NH3+]CCCC[C@H]([NH3+])C(=O)[O-]
REMARK SMILES IDX 4 1 3 2 2 3 1 4 5 8 6 9 7 10 8 14 9 15 10 16
REMARK H PARENT 1 5 1 6 1 7 7 11 7 12 7 13
REMARK Flexibility Score: inf
ROOT
ATOM      1  C   UNL     1      51.171   7.752  31.662  1.00  0.00     0.012 C 
ENDROOT
BRANCH   1   2
ATOM      2  C   UNL     1      52.502   7.375  31.000  1.00  0.00     0.061 C 
BRANCH   2   3
ATOM      3  C   UNL     1      52.732   8.187  29.718  1.00  0.00     0.258 C 
BRANCH   3   4
ATOM      4  N   UNL     1      52.250   9.560  29.876  1.00  0.00    -0.358 N 
ATOM      5  H   UNL     1      52.972  10.235  29.534  1.00  0.00     0.344 HD
ATOM      6  H   UNL     1      51.360   9.691  29.344  1.00  0.00     0.344 HD
ATOM      7  H   UNL     1      52.069   9.744  30.889  1.00  0.00     0.344 HD
ENDBRANCH   3   4
ENDBRANCH   2   3
ENDBRANCH   1   2
BRANCH   1   8
ATOM      8  C   UNL     1      50.369   6.494  32.037  1.00  0.00     0.072 C 
BRANCH   8   9
ATOM      9  C   UNL     1      49.448   5.969  30.912  1.00  0.00     0.227 C 
BRANCH   9  10
ATOM     10  N   UNL     1      49.158   7.000  29.906  1.00  0.00    -0.350 N 
ATOM     11  H   UNL     1      49.999   7.141  29.300  1.00  0.00     0.345 HD
ATOM     12  H   UNL     1      48.940   7.907  30.378  1.00  0.00     0.345 HD
ATOM     13  H   UNL     1      48.352   6.726  29.299  1.00  0.00     0.345 HD
ENDBRANCH   9  10
BRANCH   9  14
ATOM     14  C   UNL     1      48.182   5.365  31.469  1.00  0.00     0.099 C 
ATOM     15  O   UNL     1      47.189   6.089  31.750  1.00  0.00    -0.544 OA
ATOM     16  O   UNL     1      48.125   4.001  31.724  1.00  0.00    -0.544 OA
ENDBRANCH   9  14
ENDBRANCH   8   9
ENDBRANCH   1   8
TORSDOF 7
ENDMDL
MODEL 3
REMARK VINA RESULT:    -4.686      2.032      2.262
REMARK INTER + INTRA:          -6.474
REMARK INTER:                  -6.023
REMARK INTRA:                  -0.452
REMARK UNBOUND:                -0.144
REMARK SMILES [NH3+]CCCC[C@H]([NH3+])C(=O)[O-]
REMARK SMILES IDX 4 1 3 2 2 3 1 4 5 8 6 9 7 10 8 14 9 15 10 16
REMARK H PARENT 1 5 1 6 1 7 7 11 7 12 7 13
REMARK Flexibility Score: inf
ROOT
ATOM      1  C   UNL     1      50.365   5.833  32.056  1.00  0.00     0.012 C 
ENDROOT
BRANCH   1   2
ATOM      2  C   UNL     1      48.965   5.273  31.774  1.00  0.00     0.061 C 
BRANCH   2   3
ATOM      3  C   UNL     1      48.368   5.893  30.502  1.00  0.00     0.258 C 
BRANCH   3   4
ATOM      4  N   UNL     1      48.819   5.174  29.310  1.00  0.00    -0.358 N 
ATOM      5  H   UNL     1      48.348   5.558  28.459  1.00  0.00     0.344 HD
ATOM      6  H   UNL     1      49.856   5.260  29.210  1.00  0.00     0.344 HD
ATOM      7  H   UNL     1      48.571   4.163  29.406  1.00  0.00     0.344 HD
ENDBRANCH   3   4
ENDBRANCH   2   3
ENDBRANCH   1   2
BRANCH   1   8
ATOM      8  C   UNL     1      50.383   7.364  31.906  1.00  0.00     0.072 C 
BRANCH   8   9
ATOM      9  C   UNL     1      51.668   7.924  31.254  1.00  0.00     0.227 C 
BRANCH   9  10
ATOM     10  N   UNL     1      51.488   9.298  30.764  1.00  0.00    -0.350 N 
ATOM     11  H   UNL     1      52.139   9.471  29.964  1.00  0.00     0.345 HD
ATOM     12  H   UNL     1      51.715   9.980  31.524  1.00  0.00     0.345 HD
ATOM     13  H   UNL     1      50.508   9.462  30.438  1.00  0.00     0.345 HD
ENDBRANCH   9  10
BRANCH   9  14
ATOM     14  C   UNL     1      52.184   7.011  30.170  1.00  0.00     0.099 C 
ATOM     15  O   UNL     1      53.328   6.488  30.255  1.00  0.00    -0.544 OA
ATOM     16  O   UNL     1      51.412   6.782  29.039  1.00  0.00    -0.544 OA
ENDBRANCH   9  14
ENDBRANCH   8   9
ENDBRANCH   1   8
TORSDOF 7
ENDMDL
MODEL 4
REMARK VINA RESULT:    -4.555      2.767      4.574
REMARK INTER + INTRA:          -6.297
REMARK INTER:                  -5.963
REMARK INTRA:                  -0.334
REMARK UNBOUND:                -0.144
REMARK SMILES [NH3+]CCCC[C@H]([NH3+])C(=O)[O-]
REMARK SMILES IDX 4 1 3 2 2 3 1 4 5 8 6 9 7 10 8 14 9 15 10 16
REMARK H PARENT 1 5 1 6 1 7 7 11 7 12 7 13
REMARK Flexibility Score: inf
ROOT
ATOM      1  C   UNL     1      51.405   7.798  32.113  1.00  0.00     0.012 C 
ENDROOT
BRANCH   1   2
ATOM      2  C   UNL     1      51.594   8.792  30.961  1.00  0.00     0.061 C 
BRANCH   2   3
ATOM      3  C   UNL     1      52.817   8.425  30.109  1.00  0.00     0.258 C 
BRANCH   3   4
ATOM      4  N   UNL     1      52.688   8.957  28.752  1.00  0.00    -0.358 N 
ATOM      5  H   UNL     1      51.679   9.014  28.484  1.00  0.00     0.344 HD
ATOM      6  H   UNL     1      53.125   9.905  28.695  1.00  0.00     0.344 HD
ATOM      7  H   UNL     1      53.178   8.317  28.087  1.00  0.00     0.344 HD
ENDBRANCH   3   4
ENDBRANCH   2   3
ENDBRANCH   1   2
BRANCH   1   8
ATOM      8  C   UNL     1      50.945   6.428  31.586  1.00  0.00     0.072 C 
BRANCH   8   9
ATOM      9  C   UNL     1      49.627   6.468  30.779  1.00  0.00     0.227 C 
BRANCH   9  10
ATOM     10  N   UNL     1      48.516   5.832  31.501  1.00  0.00    -0.350 N 
ATOM     11  H   UNL     1      48.879   5.026  32.060  1.00  0.00     0.345 HD
ATOM     12  H   UNL     1      47.811   5.467  30.820  1.00  0.00     0.345 HD
ATOM     13  H   UNL     1      48.048   6.504  32.152  1.00  0.00     0.345 HD
ENDBRANCH   9  10
BRANCH   9  14
ATOM     14  C   UNL     1      49.802   5.880  29.401  1.00  0.00     0.099 C 
ATOM     15  O   UNL     1      50.780   6.210  28.676  1.00  0.00    -0.544 OA
ATOM     16  O   UNL     1      48.849   5.002  28.901  1.00  0.00    -0.544 OA
ENDBRANCH   9  14
ENDBRANCH   8   9
ENDBRANCH   1   8
TORSDOF 7
ENDMDL
MODEL 5
REMARK VINA RESULT:    -4.425     10.858     11.284
REMARK INTER + INTRA:          -6.122
REMARK INTER:                  -5.959
REMARK INTRA:                  -0.162
REMARK UNBOUND:                -0.144
REMARK SMILES [NH3+]CCCC[C@H]([NH3+])C(=O)[O-]
REMARK SMILES IDX 4 1 3 2 2 3 1 4 5 8 6 9 7 10 8 14 9 15 10 16
REMARK H PARENT 1 5 1 6 1 7 7 11 7 12 7 13
REMARK Flexibility Score: inf
ROOT
ATOM      1  C   UNL     1      47.021   3.253  20.615  1.00  0.00     0.012 C 
ENDROOT
BRANCH   1   2
ATOM      2  C   UNL     1      46.248   1.960  20.901  1.00  0.00     0.061 C 
BRANCH   2   3
ATOM      3  C   UNL     1      46.987   1.092  21.931  1.00  0.00     0.258 C 
BRANCH   3   4
ATOM      4  N   UNL     1      46.247   1.034  23.191  1.00  0.00    -0.358 N 
ATOM      5  H   UNL     1      45.301   0.618  23.034  1.00  0.00     0.344 HD
ATOM      6  H   UNL     1      46.774   0.463  23.891  1.00  0.00     0.344 HD
ATOM      7  H   UNL     1      46.132   2.004  23.565  1.00  0.00     0.344 HD
ENDBRANCH   3   4
ENDBRANCH   2   3
ENDBRANCH   1   2
BRANCH   1   8
ATOM      8  C   UNL     1      48.535   3.034  20.773  1.00  0.00     0.072 C 
BRANCH   8   9
ATOM      9  C   UNL     1      49.300   2.894  19.436  1.00  0.00     0.227 C 
BRANCH   9  10
ATOM     10  N   UNL     1      49.099   1.577  18.817  1.00  0.00    -0.350 N 
ATOM     11  H   UNL     1      49.984   1.274  18.348  1.00  0.00     0.345 HD
ATOM     12  H   UNL     1      48.348   1.635  18.091  1.00  0.00     0.345 HD
ATOM     13  H   UNL     1      48.835   0.857  19.527  1.00  0.00     0.345 HD
ENDBRANCH   9  10
BRANCH   9  14
ATOM     14  C   UNL     1      50.766   3.214  19.600  1.00  0.00     0.099 C 
ATOM     15  O   UNL     1      51.342   4.025  18.825  1.00  0.00    -0.544 OA
ATOM     16  O   UNL     1      51.504   2.569  20.584  1.00  0.00    -0.544 OA
ENDBRANCH   9  14
ENDBRANCH   8   9
ENDBRANCH   1   8
TORSDOF 7
ENDMDL
MODEL 6
REMARK VINA RESULT:    -4.305     11.204     12.118
REMARK INTER + INTRA:          -5.960
REMARK INTER:                  -5.844
REMARK INTRA:                  -0.116
REMARK UNBOUND:                -0.144
REMARK SMILES [NH3+]CCCC[C@H]([NH3+])C(=O)[O-]
REMARK SMILES IDX 4 1 3 2 2 3 1 4 5 8 6 9 7 10 8 14 9 15 10 16
REMARK H PARENT 1 5 1 6 1 7 7 11 7 12 7 13
REMARK Flexibility Score: inf
ROOT
ATOM      1  C   UNL     1      50.412   2.805  19.809  1.00  0.00     0.012 C 
ENDROOT
BRANCH   1   2
ATOM      2  C   UNL     1      51.106   3.981  19.111  1.00  0.00     0.061 C 
BRANCH   2   3
ATOM      3  C   UNL     1      52.178   4.605  20.015  1.00  0.00     0.258 C 
BRANCH   3   4
ATOM      4  N   UNL     1      52.149   6.065  19.928  1.00  0.00    -0.358 N 
ATOM      5  H   UNL     1      52.759   6.390  19.144  1.00  0.00     0.344 HD
ATOM      6  H   UNL     1      51.169   6.396  19.777  1.00  0.00     0.344 HD
ATOM      7  H   UNL     1      52.508   6.467  20.824  1.00  0.00     0.344 HD
ENDBRANCH   3   4
ENDBRANCH   2   3
ENDBRANCH   1   2
BRANCH   1   8
ATOM      8  C   UNL     1      48.911   2.777  19.474  1.00  0.00     0.072 C 
BRANCH   8   9
ATOM      9  C   UNL     1      47.984   3.054  20.681  1.00  0.00     0.227 C 
BRANCH   9  10
ATOM     10  N   UNL     1      48.741   3.297  21.916  1.00  0.00    -0.350 N 
ATOM     11  H   UNL     1      49.145   4.262  21.894  1.00  0.00     0.345 HD
ATOM     12  H   UNL     1      49.530   2.615  21.991  1.00  0.00     0.345 HD
ATOM     13  H   UNL     1      48.132   3.211  22.762  1.00  0.00     0.345 HD
ENDBRANCH   9  10
BRANCH   9  14
ATOM     14  C   UNL     1      46.964   1.958  20.860  1.00  0.00     0.099 C 
ATOM     15  O   UNL     1      46.339   1.487  19.872  1.00  0.00    -0.544 OA
ATOM     16  O   UNL     1      46.669   1.494  22.136  1.00  0.00    -0.544 OA
ENDBRANCH   9  14
ENDBRANCH   8   9
ENDBRANCH   1   8
TORSDOF 7
ENDMDL
MODEL 7
REMARK VINA RESULT:    -4.146     12.860     13.873
REMARK INTER + INTRA:          -5.745
REMARK INTER:                  -5.570
REMARK INTRA:                  -0.175
REMARK UNBOUND:                -0.144
REMARK SMILES [NH3+]CCCC[C@H]([NH3+])C(=O)[O-]
REMARK SMILES IDX 4 1 3 2 2 3 1 4 5 8 6 9 7 10 8 14 9 15 10 16
REMARK H PARENT 1 5 1 6 1 7 7 11 7 12 7 13
REMARK Flexibility Score: inf
ROOT
ATOM      1  C   UNL     1      43.964   9.476  18.399  1.00  0.00     0.012 C 
ENDROOT
BRANCH   1   2
ATOM      2  C   UNL     1      44.677  10.694  18.999  1.00  0.00     0.061 C 
BRANCH   2   3
ATOM      3  C   UNL     1      45.458  10.309  20.263  1.00  0.00     0.258 C 
BRANCH   3   4
ATOM      4  N   UNL     1      46.218  11.450  20.775  1.00  0.00    -0.358 N 
ATOM      5  H   UNL     1      45.865  11.721  21.721  1.00  0.00     0.344 HD
ATOM      6  H   UNL     1      47.234  11.208  20.831  1.00  0.00     0.344 HD
ATOM      7  H   UNL     1      46.099  12.259  20.125  1.00  0.00     0.344 HD
ENDBRANCH   3   4
ENDBRANCH   2   3
ENDBRANCH   1   2
BRANCH   1   8
ATOM      8  C   UNL     1      42.652   9.185  19.147  1.00  0.00     0.072 C 
BRANCH   8   9
ATOM      9  C   UNL     1      42.411   7.687  19.448  1.00  0.00     0.227 C 
BRANCH   9  10
ATOM     10  N   UNL     1      41.082   7.241  19.007  1.00  0.00    -0.350 N 
ATOM     11  H   UNL     1      41.098   7.066  17.975  1.00  0.00     0.345 HD
ATOM     12  H   UNL     1      40.373   7.985  19.201  1.00  0.00     0.345 HD
ATOM     13  H   UNL     1      40.795   6.359  19.490  1.00  0.00     0.345 HD
ENDBRANCH   9  10
BRANCH   9  14
ATOM     14  C   UNL     1      42.650   7.368  20.903  1.00  0.00     0.099 C 
ATOM     15  O   UNL     1      41.695   7.348  21.726  1.00  0.00    -0.544 OA
ATOM     16  O   UNL     1      43.944   7.143  21.354  1.00  0.00    -0.544 OA
ENDBRANCH   9  14
ENDBRANCH   8   9
ENDBRANCH   1   8
TORSDOF 7
ENDMDL
MODEL 8
REMARK VINA RESULT:    -4.092     13.357     13.932
REMARK INTER + INTRA:          -5.672
REMARK INTER:                  -5.453
REMARK INTRA:                  -0.219
REMARK UNBOUND:                -0.144
REMARK SMILES [NH3+]CCCC[C@H]([NH3+])C(=O)[O-]
REMARK SMILES IDX 4 1 3 2 2 3 1 4 5 8 6 9 7 10 8 14 9 15 10 16
REMARK H PARENT 1 5 1 6 1 7 7 11 7 12 7 13
REMARK Flexibility Score: inf
ROOT
ATOM      1  C   UNL     1      42.510   8.700  19.981  1.00  0.00     0.012 C 
ENDROOT
BRANCH   1   2
ATOM      2  C   UNL     1      42.638   7.427  20.826  1.00  0.00     0.061 C 
BRANCH   2   3
ATOM      3  C   UNL     1      44.070   7.255  21.353  1.00  0.00     0.258 C 
BRANCH   3   4
ATOM      4  N   UNL     1      44.620   5.958  20.958  1.00  0.00    -0.358 N 
ATOM      5  H   UNL     1      45.316   6.083  20.189  1.00  0.00     0.344 HD
ATOM      6  H   UNL     1      45.075   5.496  21.778  1.00  0.00     0.344 HD
ATOM      7  H   UNL     1      43.843   5.348  20.614  1.00  0.00     0.344 HD
ENDBRANCH   3   4
ENDBRANCH   2   3
ENDBRANCH   1   2
BRANCH   1   8
ATOM      8  C   UNL     1      43.399   8.617  18.728  1.00  0.00     0.072 C 
BRANCH   8   9
ATOM      9  C   UNL     1      44.337   9.831  18.534  1.00  0.00     0.227 C 
BRANCH   9  10
ATOM     10  N   UNL     1      44.660  10.492  19.806  1.00  0.00    -0.350 N 
ATOM     11  H   UNL     1      44.362   9.881  20.601  1.00  0.00     0.345 HD
ATOM     12  H   UNL     1      44.142  11.398  19.878  1.00  0.00     0.345 HD
ATOM     13  H   UNL     1      45.686  10.675  19.892  1.00  0.00     0.345 HD
ENDBRANCH   9  10
BRANCH   9  14
ATOM     14  C   UNL     1      43.781  10.806  17.526  1.00  0.00     0.099 C 
ATOM     15  O   UNL     1      44.326  11.928  17.343  1.00  0.00    -0.544 OA
ATOM     16  O   UNL     1      42.624  10.488  16.827  1.00  0.00    -0.544 OA
ENDBRANCH   9  14
ENDBRANCH   8   9
ENDBRANCH   1   8
TORSDOF 7
ENDMDL
MODEL 9
REMARK VINA RESULT:    -3.892     14.453     15.246
REMARK INTER + INTRA:          -5.402
REMARK INTER:                  -4.928
REMARK INTRA:                  -0.474
REMARK UNBOUND:                -0.144
REMARK SMILES [NH3+]CCCC[C@H]([NH3+])C(=O)[O-]
REMARK SMILES IDX 4 1 3 2 2 3 1 4 5 8 6 9 7 10 8 14 9 15 10 16
REMARK H PARENT 1 5 1 6 1 7 7 11 7 12 7 13
REMARK Flexibility Score: inf
ROOT
ATOM      1  C   UNL     1      55.576  -5.546  21.434  1.00  0.00     0.012 C 
ENDROOT
BRANCH   1   2
ATOM      2  C   UNL     1      56.041  -5.764  19.989  1.00  0.00     0.061 C 
BRANCH   2   3
ATOM      3  C   UNL     1      57.545  -5.496  19.847  1.00  0.00     0.258 C 
BRANCH   3   4
ATOM      4  N   UNL     1      57.800  -4.083  19.561  1.00  0.00    -0.358 N 
ATOM      5  H   UNL     1      57.364  -3.484  20.299  1.00  0.00     0.344 HD
ATOM      6  H   UNL     1      58.829  -3.905  19.521  1.00  0.00     0.344 HD
ATOM      7  H   UNL     1      57.378  -3.841  18.636  1.00  0.00     0.344 HD
ENDBRANCH   3   4
ENDBRANCH   2   3
ENDBRANCH   1   2
BRANCH   1   8
ATOM      8  C   UNL     1      54.540  -4.411  21.511  1.00  0.00     0.072 C 
BRANCH   8   9
ATOM      9  C   UNL     1      54.942  -3.245  22.444  1.00  0.00     0.227 C 
BRANCH   9  10
ATOM     10  N   UNL     1      53.876  -2.906  23.397  1.00  0.00    -0.350 N 
ATOM     11  H   UNL     1      53.995  -1.916  23.715  1.00  0.00     0.345 HD
ATOM     12  H   UNL     1      53.937  -3.527  24.236  1.00  0.00     0.345 HD
ATOM     13  H   UNL     1      52.930  -3.005  22.964  1.00  0.00     0.345 HD
ENDBRANCH   9  10
BRANCH   9  14
ATOM     14  C   UNL     1      55.392  -2.037  21.660  1.00  0.00     0.099 C 
ATOM     15  O   UNL     1      55.487  -0.907  22.211  1.00  0.00    -0.544 OA
ATOM     16  O   UNL     1      55.656  -2.157  20.302  1.00  0.00    -0.544 OA
ENDBRANCH   9  14
ENDBRANCH   8   9
ENDBRANCH   1   8
TORSDOF 7
ENDMDL
