MODEL 1
REMARK VINA RESULT:    -3.929      0.000      0.000
REMARK INTER + INTRA:          -5.571
REMARK INTER:                  -5.537
REMARK INTRA:                  -0.034
REMARK UNBOUND:                -0.034
REMARK SMILES CC1=CCC(=C(C)C)C(=O)CC(C)=CCC1
REMARK SMILES IDX 12 1 14 2 13 3 15 4 16 5 2 6 1 7 3 8 11 10 9 11 10 12 5 13
REMARK SMILES IDX 6 14 7 15 8 16 4 17
REMARK H PARENT
REMARK Flexibility Score: 60.00
ROOT
ATOM      1  C   UNL     1     -11.413  -5.039 -14.665  1.00  0.00    -0.070 C 
ATOM      2  C   UNL     1     -11.507  -6.384 -14.547  1.00  0.00    -0.027 C 
ATOM      3  C   UNL     1     -12.601  -4.290 -15.211  1.00  0.00     0.039 C 
ENDROOT
BRANCH   2   4
ATOM      4  C   UNL     1     -10.479  -7.268 -13.888  1.00  0.00     0.032 C 
BRANCH   4   5
ATOM      5  C   UNL     1      -9.818  -8.169 -14.936  1.00  0.00     0.034 C 
BRANCH   5   6
ATOM      6  C   UNL     1      -8.317  -8.268 -14.752  1.00  0.00    -0.077 C 
ATOM      7  C   UNL     1      -7.764  -9.400 -13.922  1.00  0.00     0.039 C 
ATOM      8  C   UNL     1      -7.440  -7.352 -15.233  1.00  0.00    -0.023 CG0
ATOM      9  G   UNL     1      -7.743  -6.169 -16.136  1.00  0.00     0.000 G0
ENDBRANCH   5   6
ENDBRANCH   4   5
ENDBRANCH   2   4
BRANCH   1  10
ATOM     10  C   UNL     1     -10.169  -4.255 -14.294  1.00  0.00     0.111 C 
BRANCH  10  11
ATOM     11  C   UNL     1      -9.202  -4.153 -15.449  1.00  0.00     0.163 C 
ATOM     12  O   UNL     1      -9.576  -3.488 -16.452  1.00  0.00    -0.294 OA
BRANCH  11  13
ATOM     13  C   UNL     1      -7.854  -4.812 -15.469  1.00  0.00    -0.002 C 
ATOM     14  C   UNL     1      -6.743  -4.137 -15.041  1.00  0.00    -0.069 C 
ATOM     15  C   UNL     1      -5.346  -4.672 -15.258  1.00  0.00     0.039 C 
ATOM     16  C   UNL     1      -6.855  -2.836 -14.277  1.00  0.00     0.039 C 
BRANCH  13  17
ATOM     17  C   UNL     1      -7.738  -6.174 -16.145  1.00  0.00     0.066 CG0
ATOM     18  G   UNL     1      -7.431  -7.354 -15.240  1.00  0.00     0.000 G0
ENDBRANCH  13  17
ENDBRANCH  11  13
ENDBRANCH  10  11
ENDBRANCH   1  10
TORSDOF 0
ENDMDL
MODEL 2
REMARK VINA RESULT:    -3.735      6.463      9.133
REMARK INTER + INTRA:          -5.297
REMARK INTER:                  -5.351
REMARK INTRA:                   0.055
REMARK UNBOUND:                -0.034
REMARK SMILES CC1=CCC(=C(C)C)C(=O)CC(C)=CCC1
REMARK SMILES IDX 12 1 14 2 13 3 15 4 16 5 2 6 1 7 3 8 11 10 9 11 10 12 5 13
REMARK SMILES IDX 6 14 7 15 8 16 4 17
REMARK H PARENT
REMARK Flexibility Score: 60.00
ROOT
ATOM      1  C   UNL     1      -6.526   2.177 -10.454  1.00  0.00    -0.070 C 
ATOM      2  C   UNL     1      -5.229   2.538 -10.583  1.00  0.00    -0.027 C 
ATOM      3  C   UNL     1      -7.501   3.207  -9.943  1.00  0.00     0.039 C 
ENDROOT
BRANCH   2   4
ATOM      4  C   UNL     1      -4.155   1.688 -11.213  1.00  0.00     0.032 C 
BRANCH   4   5
ATOM      5  C   UNL     1      -3.103   1.317 -10.162  1.00  0.00     0.034 C 
BRANCH   5   6
ATOM      6  C   UNL     1      -2.565  -0.088 -10.351  1.00  0.00    -0.077 C 
ATOM      7  C   UNL     1      -1.284  -0.273 -11.127  1.00  0.00     0.039 C 
ATOM      8  C   UNL     1      -3.209  -1.202  -9.923  1.00  0.00    -0.023 CG0
ATOM      9  G   UNL     1      -4.470  -1.273  -9.080  1.00  0.00     0.000 G0
ENDBRANCH   5   6
ENDBRANCH   4   5
ENDBRANCH   2   4
BRANCH   1  10
ATOM     10  C   UNL     1      -7.042   0.788 -10.776  1.00  0.00     0.111 C 
BRANCH  10  11
ATOM     11  C   UNL     1      -6.748  -0.193  -9.667  1.00  0.00     0.163 C 
ATOM     12  O   UNL     1      -7.322   0.003  -8.561  1.00  0.00    -0.294 OA
BRANCH  11  13
ATOM     13  C   UNL     1      -5.806  -1.354  -9.806  1.00  0.00    -0.002 C 
ATOM     14  C   UNL     1      -6.200  -2.497 -10.447  1.00  0.00    -0.069 C 
ATOM     15  C   UNL     1      -5.375  -3.762 -10.409  1.00  0.00     0.039 C 
ATOM     16  C   UNL     1      -7.465  -2.540 -11.277  1.00  0.00     0.039 C 
BRANCH  13  17
ATOM     17  C   UNL     1      -4.479  -1.285  -9.059  1.00  0.00     0.066 CG0
ATOM     18  G   UNL     1      -3.226  -1.203  -9.914  1.00  0.00     0.000 G0
ENDBRANCH  13  17
ENDBRANCH  11  13
ENDBRANCH  10  11
ENDBRANCH   1  10
TORSDOF 0
ENDMDL
MODEL 3
REMARK VINA RESULT:    -3.607      8.028     10.007
REMARK INTER + INTRA:          -5.117
REMARK INTER:                  -5.305
REMARK INTRA:                   0.188
REMARK UNBOUND:                -0.034
REMARK SMILES CC1=CCC(=C(C)C)C(=O)CC(C)=CCC1
REMARK SMILES IDX 12 1 14 2 13 3 15 4 16 5 2 6 1 7 3 8 11 10 9 11 10 12 5 13
REMARK SMILES IDX 6 14 7 15 8 16 4 17
REMARK H PARENT
REMARK Flexibility Score: 60.00
ROOT
ATOM      1  C   UNL     1      -6.322  -0.092  -9.110  1.00  0.00    -0.070 C 
ATOM      2  C   UNL     1      -6.315  -0.792 -10.268  1.00  0.00    -0.027 C 
ATOM      3  C   UNL     1      -7.623   0.521  -8.659  1.00  0.00     0.039 C 
ENDROOT
BRANCH   2   4
ATOM      4  C   UNL     1      -5.146  -1.589 -10.788  1.00  0.00     0.032 C 
BRANCH   4   5
ATOM      5  C   UNL     1      -4.451  -0.817 -11.915  1.00  0.00     0.034 C 
BRANCH   5   6
ATOM      6  C   UNL     1      -2.983  -0.567 -11.627  1.00  0.00    -0.077 C 
ATOM      7  C   UNL     1      -1.982  -1.631 -12.003  1.00  0.00     0.039 C 
ATOM      8  C   UNL     1      -2.522   0.533 -10.981  1.00  0.00    -0.023 CG0
ATOM      9  G   UNL     1      -3.317   1.756 -10.558  1.00  0.00     0.000 G0
ENDBRANCH   5   6
ENDBRANCH   4   5
ENDBRANCH   2   4
BRANCH   1  10
ATOM     10  C   UNL     1      -5.086   0.123  -8.258  1.00  0.00     0.111 C 
BRANCH  10  11
ATOM     11  C   UNL     1      -4.613   1.556  -8.303  1.00  0.00     0.163 C 
ATOM     12  O   UNL     1      -5.317   2.412  -7.702  1.00  0.00    -0.294 OA
BRANCH  11  13
ATOM     13  C   UNL     1      -3.382   2.006  -9.034  1.00  0.00    -0.002 C 
ATOM     14  C   UNL     1      -2.432   2.759  -8.399  1.00  0.00    -0.069 C 
ATOM     15  C   UNL     1      -1.301   3.424  -9.151  1.00  0.00     0.039 C 
ATOM     16  C   UNL     1      -2.432   2.926  -6.895  1.00  0.00     0.039 C 
BRANCH  13  17
ATOM     17  C   UNL     1      -3.316   1.755 -10.537  1.00  0.00     0.066 CG0
ATOM     18  G   UNL     1      -2.522   0.541 -10.985  1.00  0.00     0.000 G0
ENDBRANCH  13  17
ENDBRANCH  11  13
ENDBRANCH  10  11
ENDBRANCH   1  10
TORSDOF 0
ENDMDL
MODEL 4
REMARK VINA RESULT:    -3.599      2.073      2.470
REMARK INTER + INTRA:          -5.106
REMARK INTER:                  -5.382
REMARK INTRA:                   0.276
REMARK UNBOUND:                -0.034
REMARK SMILES CC1=CCC(=C(C)C)C(=O)CC(C)=CCC1
REMARK SMILES IDX 12 1 14 2 13 3 15 4 16 5 2 6 1 7 3 8 11 10 9 11 10 12 5 13
REMARK SMILES IDX 6 14 7 15 8 16 4 17
REMARK H PARENT
REMARK Flexibility Score: 60.00
ROOT
ATOM      1  C   UNL     1      -9.987  -4.278 -15.377  1.00  0.00    -0.070 C 
ATOM      2  C   UNL     1     -10.541  -5.511 -15.327  1.00  0.00    -0.027 C 
ATOM      3  C   UNL     1     -10.019  -3.539 -16.690  1.00  0.00     0.039 C 
ENDROOT
BRANCH   2   4
ATOM      4  C   UNL     1     -10.728  -6.324 -14.072  1.00  0.00     0.032 C 
BRANCH   4   5
ATOM      5  C   UNL     1     -10.083  -7.704 -14.244  1.00  0.00     0.034 C 
BRANCH   5   6
ATOM      6  C   UNL     1      -8.664  -7.619 -14.771  1.00  0.00    -0.077 C 
ATOM      7  C   UNL     1      -8.354  -8.228 -16.116  1.00  0.00     0.039 C 
ATOM      8  C   UNL     1      -7.633  -7.089 -14.066  1.00  0.00    -0.023 CG0
ATOM      9  G   UNL     1      -7.701  -6.371 -12.730  1.00  0.00     0.000 G0
ENDBRANCH   5   6
ENDBRANCH   4   5
ENDBRANCH   2   4
BRANCH   1  10
ATOM     10  C   UNL     1      -9.322  -3.613 -14.187  1.00  0.00     0.111 C 
BRANCH  10  11
ATOM     11  C   UNL     1      -7.910  -4.107 -13.982  1.00  0.00     0.163 C 
ATOM     12  O   UNL     1      -7.086  -3.888 -14.911  1.00  0.00    -0.294 OA
BRANCH  11  13
ATOM     13  C   UNL     1      -7.456  -4.854 -12.762  1.00  0.00    -0.002 C 
ATOM     14  C   UNL     1      -6.730  -4.220 -11.789  1.00  0.00    -0.069 C 
ATOM     15  C   UNL     1      -6.060  -4.979 -10.667  1.00  0.00     0.039 C 
ATOM     16  C   UNL     1      -6.603  -2.713 -11.755  1.00  0.00     0.039 C 
BRANCH  13  17
ATOM     17  C   UNL     1      -7.668  -6.363 -12.731  1.00  0.00     0.066 CG0
ATOM     18  G   UNL     1      -7.629  -7.079 -14.069  1.00  0.00     0.000 G0
ENDBRANCH  13  17
ENDBRANCH  11  13
ENDBRANCH  10  11
ENDBRANCH   1  10
TORSDOF 0
ENDMDL
MODEL 5
REMARK VINA RESULT:    -3.564      7.311      9.781
REMARK INTER + INTRA:          -5.057
REMARK INTER:                  -5.225
REMARK INTRA:                   0.168
REMARK UNBOUND:                -0.034
REMARK SMILES CC1=CCC(=C(C)C)C(=O)CC(C)=CCC1
REMARK SMILES IDX 12 1 14 2 13 3 15 4 16 5 2 6 1 7 3 8 11 10 9 11 10 12 5 13
REMARK SMILES IDX 6 14 7 15 8 16 4 17
REMARK H PARENT
REMARK Flexibility Score: 60.00
ROOT
ATOM      1  C   UNL     1      -4.392   2.015  -8.405  1.00  0.00    -0.070 C 
ATOM      2  C   UNL     1      -5.722   1.849  -8.228  1.00  0.00    -0.027 C 
ATOM      3  C   UNL     1      -3.537   2.247  -7.185  1.00  0.00     0.039 C 
ENDROOT
BRANCH   2   4
ATOM      4  C   UNL     1      -6.697   1.464  -9.311  1.00  0.00     0.032 C 
BRANCH   4   5
ATOM      5  C   UNL     1      -7.184   0.028  -9.087  1.00  0.00     0.034 C 
BRANCH   5   6
ATOM      6  C   UNL     1      -6.574  -0.952 -10.070  1.00  0.00    -0.077 C 
ATOM      7  C   UNL     1      -7.375  -1.349 -11.285  1.00  0.00     0.039 C 
ATOM      8  C   UNL     1      -5.372  -1.552  -9.883  1.00  0.00    -0.023 CG0
ATOM      9  G   UNL     1      -4.365  -1.278  -8.780  1.00  0.00     0.000 G0
ENDBRANCH   5   6
ENDBRANCH   4   5
ENDBRANCH   2   4
BRANCH   1  10
ATOM     10  C   UNL     1      -3.723   1.998  -9.766  1.00  0.00     0.111 C 
BRANCH  10  11
ATOM     11  C   UNL     1      -3.265   0.611 -10.151  1.00  0.00     0.163 C 
ATOM     12  O   UNL     1      -3.028   0.405 -11.372  1.00  0.00    -0.294 OA
BRANCH  11  13
ATOM     13  C   UNL     1      -3.105  -0.517  -9.174  1.00  0.00    -0.002 C 
ATOM     14  C   UNL     1      -1.859  -0.923  -8.778  1.00  0.00    -0.069 C 
ATOM     15  C   UNL     1      -1.644  -2.191  -7.985  1.00  0.00     0.039 C 
ATOM     16  C   UNL     1      -0.628  -0.094  -9.071  1.00  0.00     0.039 C 
BRANCH  13  17
ATOM     17  C   UNL     1      -4.352  -1.303  -8.784  1.00  0.00     0.066 CG0
ATOM     18  G   UNL     1      -5.363  -1.557  -9.888  1.00  0.00     0.000 G0
ENDBRANCH  13  17
ENDBRANCH  11  13
ENDBRANCH  10  11
ENDBRANCH   1  10
TORSDOF 0
ENDMDL
MODEL 6
REMARK VINA RESULT:    -3.501      4.568      6.964
REMARK INTER + INTRA:          -4.967
REMARK INTER:                  -5.488
REMARK INTRA:                   0.520
REMARK UNBOUND:                -0.034
REMARK SMILES CC1=CCC(=C(C)C)C(=O)CC(C)=CCC1
REMARK SMILES IDX 12 1 14 2 13 3 15 4 16 5 2 6 1 7 3 8 11 10 9 11 10 12 5 13
REMARK SMILES IDX 6 14 7 15 8 16 4 17
REMARK H PARENT
REMARK Flexibility Score: 60.00
ROOT
ATOM      1  C   UNL     1      -7.277  -1.891 -11.269  1.00  0.00    -0.070 C 
ATOM      2  C   UNL     1      -7.065  -0.770 -10.542  1.00  0.00    -0.027 C 
ATOM      3  C   UNL     1      -8.127  -1.782 -12.509  1.00  0.00     0.039 C 
ENDROOT
BRANCH   2   4
ATOM      4  C   UNL     1      -6.128  -0.668  -9.365  1.00  0.00     0.032 C 
BRANCH   4   5
ATOM      5  C   UNL     1      -4.712  -1.072  -9.791  1.00  0.00     0.034 C 
BRANCH   5   6
ATOM      6  C   UNL     1      -4.235  -0.313 -11.014  1.00  0.00    -0.077 C 
ATOM      7  C   UNL     1      -4.178   1.194 -10.952  1.00  0.00     0.039 C 
ATOM      8  C   UNL     1      -3.922  -0.908 -12.192  1.00  0.00    -0.023 CG0
ATOM      9  G   UNL     1      -3.848  -2.397 -12.482  1.00  0.00     0.000 G0
ENDBRANCH   5   6
ENDBRANCH   4   5
ENDBRANCH   2   4
BRANCH   1  10
ATOM     10  C   UNL     1      -6.722  -3.250 -10.888  1.00  0.00     0.111 C 
BRANCH  10  11
ATOM     11  C   UNL     1      -5.926  -3.868 -12.012  1.00  0.00     0.163 C 
ATOM     12  O   UNL     1      -5.939  -5.126 -12.099  1.00  0.00    -0.294 OA
BRANCH  11  13
ATOM     13  C   UNL     1      -5.118  -3.076 -12.998  1.00  0.00    -0.002 C 
ATOM     14  C   UNL     1      -5.430  -3.097 -14.331  1.00  0.00    -0.069 C 
ATOM     15  C   UNL     1      -4.515  -2.506 -15.378  1.00  0.00     0.039 C 
ATOM     16  C   UNL     1      -6.740  -3.670 -14.826  1.00  0.00     0.039 C 
BRANCH  13  17
ATOM     17  C   UNL     1      -3.846  -2.402 -12.496  1.00  0.00     0.066 CG0
ATOM     18  G   UNL     1      -3.942  -0.918 -12.189  1.00  0.00     0.000 G0
ENDBRANCH  13  17
ENDBRANCH  11  13
ENDBRANCH  10  11
ENDBRANCH   1  10
TORSDOF 0
ENDMDL
MODEL 7
REMARK VINA RESULT:    -3.485      2.727      3.807
REMARK INTER + INTRA:          -4.945
REMARK INTER:                  -5.078
REMARK INTRA:                   0.133
REMARK UNBOUND:                -0.034
REMARK SMILES CC1=CCC(=C(C)C)C(=O)CC(C)=CCC1
REMARK SMILES IDX 12 1 14 2 13 3 15 4 16 5 2 6 1 7 3 8 11 10 9 11 10 12 5 13
REMARK SMILES IDX 6 14 7 15 8 16 4 17
REMARK H PARENT
REMARK Flexibility Score: 60.00
ROOT
ATOM      1  C   UNL     1      -7.849  -2.979 -13.897  1.00  0.00    -0.070 C 
ATOM      2  C   UNL     1      -8.886  -3.428 -14.640  1.00  0.00    -0.027 C 
ATOM      3  C   UNL     1      -8.150  -2.053 -12.746  1.00  0.00     0.039 C 
ENDROOT
BRANCH   2   4
ATOM      4  C   UNL     1      -8.784  -4.468 -15.727  1.00  0.00     0.032 C 
BRANCH   4   5
ATOM      5  C   UNL     1      -9.311  -5.812 -15.212  1.00  0.00     0.034 C 
BRANCH   5   6
ATOM      6  C   UNL     1      -8.209  -6.837 -15.032  1.00  0.00    -0.077 C 
ATOM      7  C   UNL     1      -7.835  -7.710 -16.204  1.00  0.00     0.039 C 
ATOM      8  C   UNL     1      -7.584  -7.067 -13.850  1.00  0.00    -0.023 CG0
ATOM      9  G   UNL     1      -7.743  -6.288 -12.555  1.00  0.00     0.000 G0
ENDBRANCH   5   6
ENDBRANCH   4   5
ENDBRANCH   2   4
BRANCH   1  10
ATOM     10  C   UNL     1      -6.404  -3.343 -14.176  1.00  0.00     0.111 C 
BRANCH  10  11
ATOM     11  C   UNL     1      -5.993  -4.607 -13.460  1.00  0.00     0.163 C 
ATOM     12  O   UNL     1      -4.980  -5.213 -13.902  1.00  0.00    -0.294 OA
BRANCH  11  13
ATOM     13  C   UNL     1      -6.732  -5.178 -12.285  1.00  0.00    -0.002 C 
ATOM     14  C   UNL     1      -6.383  -4.830 -11.007  1.00  0.00    -0.069 C 
ATOM     15  C   UNL     1      -6.939  -5.550  -9.801  1.00  0.00     0.039 C 
ATOM     16  C   UNL     1      -5.456  -3.666 -10.732  1.00  0.00     0.039 C 
BRANCH  13  17
ATOM     17  C   UNL     1      -7.747  -6.284 -12.552  1.00  0.00     0.066 CG0
ATOM     18  G   UNL     1      -7.566  -7.072 -13.837  1.00  0.00     0.000 G0
ENDBRANCH  13  17
ENDBRANCH  11  13
ENDBRANCH  10  11
ENDBRANCH   1  10
TORSDOF 0
ENDMDL
MODEL 8
REMARK VINA RESULT:    -3.440      7.951     10.324
REMARK INTER + INTRA:          -4.882
REMARK INTER:                  -4.779
REMARK INTRA:                  -0.104
REMARK UNBOUND:                -0.034
REMARK SMILES CC1=CCC(=C(C)C)C(=O)CC(C)=CCC1
REMARK SMILES IDX 12 1 14 2 13 3 15 4 16 5 2 6 1 7 3 8 11 10 9 11 10 12 5 13
REMARK SMILES IDX 6 14 7 15 8 16 4 17
REMARK H PARENT
REMARK Flexibility Score: 60.00
ROOT
ATOM      1  C   UNL     1      -5.002  -2.280 -10.061  1.00  0.00    -0.070 C 
ATOM      2  C   UNL     1      -6.280  -1.843 -10.011  1.00  0.00    -0.027 C 
ATOM      3  C   UNL     1      -4.747  -3.751  -9.855  1.00  0.00     0.039 C 
ENDROOT
BRANCH   2   4
ATOM      4  C   UNL     1      -6.727  -0.440 -10.339  1.00  0.00     0.032 C 
BRANCH   4   5
ATOM      5  C   UNL     1      -6.862   0.377  -9.050  1.00  0.00     0.034 C 
BRANCH   5   6
ATOM      6  C   UNL     1      -6.225   1.749  -9.164  1.00  0.00    -0.077 C 
ATOM      7  C   UNL     1      -6.967   2.830  -9.910  1.00  0.00     0.039 C 
ATOM      8  C   UNL     1      -4.988   2.042  -8.693  1.00  0.00    -0.023 CG0
ATOM      9  G   UNL     1      -4.079   1.150  -7.866  1.00  0.00     0.000 G0
ENDBRANCH   5   6
ENDBRANCH   4   5
ENDBRANCH   2   4
BRANCH   1  10
ATOM     10  C   UNL     1      -3.815  -1.364 -10.294  1.00  0.00     0.111 C 
BRANCH  10  11
ATOM     11  C   UNL     1      -3.143  -0.974  -8.999  1.00  0.00     0.163 C 
ATOM     12  O   UNL     1      -2.763  -1.911  -8.246  1.00  0.00    -0.294 OA
BRANCH  11  13
ATOM     13  C   UNL     1      -2.931   0.447  -8.564  1.00  0.00    -0.002 C 
ATOM     14  C   UNL     1      -1.695   1.026  -8.658  1.00  0.00    -0.069 C 
ATOM     15  C   UNL     1      -1.386   2.362  -8.023  1.00  0.00     0.039 C 
ATOM     16  C   UNL     1      -0.579   0.381  -9.450  1.00  0.00     0.039 C 
BRANCH  13  17
ATOM     17  C   UNL     1      -4.081   1.152  -7.853  1.00  0.00     0.066 CG0
ATOM     18  G   UNL     1      -4.969   2.034  -8.713  1.00  0.00     0.000 G0
ENDBRANCH  13  17
ENDBRANCH  11  13
ENDBRANCH  10  11
ENDBRANCH   1  10
TORSDOF 0
ENDMDL
MODEL 9
REMARK VINA RESULT:    -3.393      5.480      8.236
REMARK INTER + INTRA:          -4.815
REMARK INTER:                  -5.145
REMARK INTRA:                   0.330
REMARK UNBOUND:                -0.034
REMARK SMILES CC1=CCC(=C(C)C)C(=O)CC(C)=CCC1
REMARK SMILES IDX 12 1 14 2 13 3 15 4 16 5 2 6 1 7 3 8 11 10 9 11 10 12 5 13
REMARK SMILES IDX 6 14 7 15 8 16 4 17
REMARK H PARENT
REMARK Flexibility Score: 60.00
ROOT
ATOM      1  C   UNL     1      -6.560   0.433  -9.883  1.00  0.00    -0.070 C 
ATOM      2  C   UNL     1      -5.493   1.264  -9.885  1.00  0.00    -0.027 C 
ATOM      3  C   UNL     1      -7.353   0.301  -8.608  1.00  0.00     0.039 C 
ENDROOT
BRANCH   2   4
ATOM      4  C   UNL     1      -4.683   1.627 -11.104  1.00  0.00     0.032 C 
BRANCH   4   5
ATOM      5  C   UNL     1      -3.197   1.363 -10.839  1.00  0.00     0.034 C 
BRANCH   5   6
ATOM      6  C   UNL     1      -2.941  -0.035 -10.312  1.00  0.00    -0.077 C 
ATOM      7  C   UNL     1      -2.322  -0.190  -8.945  1.00  0.00     0.039 C 
ATOM      8  C   UNL     1      -3.171  -1.162 -11.032  1.00  0.00    -0.023 CG0
ATOM      9  G   UNL     1      -3.834  -1.268 -12.394  1.00  0.00     0.000 G0
ENDBRANCH   5   6
ENDBRANCH   4   5
ENDBRANCH   2   4
BRANCH   1  10
ATOM     10  C   UNL     1      -6.984  -0.384 -11.088  1.00  0.00     0.111 C 
BRANCH  10  11
ATOM     11  C   UNL     1      -6.135  -1.620 -11.258  1.00  0.00     0.163 C 
ATOM     12  O   UNL     1      -6.182  -2.479 -10.336  1.00  0.00    -0.294 OA
BRANCH  11  13
ATOM     13  C   UNL     1      -5.237  -1.861 -12.436  1.00  0.00    -0.002 C 
ATOM     14  C   UNL     1      -5.613  -2.720 -13.434  1.00  0.00    -0.069 C 
ATOM     15  C   UNL     1      -4.652  -3.167 -14.511  1.00  0.00     0.039 C 
ATOM     16  C   UNL     1      -7.033  -3.231 -13.541  1.00  0.00     0.039 C 
BRANCH  13  17
ATOM     17  C   UNL     1      -3.833  -1.267 -12.394  1.00  0.00     0.066 CG0
ATOM     18  G   UNL     1      -3.188  -1.152 -11.024  1.00  0.00     0.000 G0
ENDBRANCH  13  17
ENDBRANCH  11  13
ENDBRANCH  10  11
ENDBRANCH   1  10
TORSDOF 0
ENDMDL
