MODEL 1
REMARK VINA RESULT:    -3.674      0.000      0.000
REMARK INTER + INTRA:          -4.248
REMARK INTER:                  -4.103
REMARK INTRA:                  -0.145
REMARK UNBOUND:                -0.145
REMARK SMILES O=C([O-])C=Cc1ccccc1
REMARK SMILES IDX 4 1 5 2 2 3 1 4 3 5 6 6 7 7 11 8 8 9 10 10 9 11
REMARK H PARENT
REMARK Flexibility Score: inf
ROOT
ATOM      1  C   UNL     1       0.760  -0.042   7.222  1.00  0.00     0.025 C 
ATOM      2  C   UNL     1      -0.065  -1.081   7.026  1.00  0.00     0.010 C 
ENDROOT
BRANCH   1   3
ATOM      3  C   UNL     1       0.451   1.302   6.709  1.00  0.00     0.064 C 
ATOM      4  O   UNL     1       0.418   1.500   5.466  1.00  0.00    -0.545 OA
ATOM      5  O   UNL     1       0.196   2.361   7.574  1.00  0.00    -0.545 OA
ENDBRANCH   1   3
BRANCH   2   6
ATOM      6  C   UNL     1       0.181  -2.466   7.514  1.00  0.00    -0.026 A 
ATOM      7  C   UNL     1      -0.501  -3.597   7.015  1.00  0.00     0.008 A 
ATOM      8  C   UNL     1       1.142  -2.651   8.525  1.00  0.00     0.008 A 
ATOM      9  C   UNL     1      -0.221  -4.872   7.519  1.00  0.00     0.001 A 
ATOM     10  C   UNL     1       1.417  -3.927   9.024  1.00  0.00     0.001 A 
ATOM     11  C   UNL     1       0.736  -5.037   8.522  1.00  0.00     0.000 A 
ENDBRANCH   2   6
TORSDOF 2
ENDMDL
MODEL 2
REMARK VINA RESULT:    -3.662      0.083      1.460
REMARK INTER + INTRA:          -4.234
REMARK INTER:                  -4.103
REMARK INTRA:                  -0.132
REMARK UNBOUND:                -0.145
REMARK SMILES O=C([O-])C=Cc1ccccc1
REMARK SMILES IDX 4 1 5 2 2 3 1 4 3 5 6 6 7 7 11 8 8 9 10 10 9 11
REMARK H PARENT
REMARK Flexibility Score: inf
ROOT
ATOM      1  C   UNL     1       0.772  -0.005   7.278  1.00  0.00     0.025 C 
ATOM      2  C   UNL     1      -0.018  -1.069   7.076  1.00  0.00     0.010 C 
ENDROOT
BRANCH   1   3
ATOM      3  C   UNL     1       0.436   1.324   6.742  1.00  0.00     0.064 C 
ATOM      4  O   UNL     1       0.420   1.506   5.496  1.00  0.00    -0.545 OA
ATOM      5  O   UNL     1       0.137   2.386   7.589  1.00  0.00    -0.545 OA
ENDBRANCH   1   3
BRANCH   2   6
ATOM      6  C   UNL     1       0.257  -2.440   7.585  1.00  0.00    -0.026 A 
ATOM      7  C   UNL     1       1.209  -2.719   8.590  1.00  0.00     0.008 A 
ATOM      8  C   UNL     1      -0.471  -3.511   7.032  1.00  0.00     0.008 A 
ATOM      9  C   UNL     1       1.418  -4.033   9.023  1.00  0.00     0.001 A 
ATOM     10  C   UNL     1      -0.257  -4.821   7.469  1.00  0.00     0.001 A 
ATOM     11  C   UNL     1       0.686  -5.082   8.464  1.00  0.00     0.000 A 
ENDBRANCH   2   6
TORSDOF 2
ENDMDL
MODEL 3
REMARK VINA RESULT:    -3.594     13.569     14.510
REMARK INTER + INTRA:          -4.159
REMARK INTER:                  -4.026
REMARK INTRA:                  -0.133
REMARK UNBOUND:                -0.145
REMARK SMILES O=C([O-])C=Cc1ccccc1
REMARK SMILES IDX 4 1 5 2 2 3 1 4 3 5 6 6 7 7 11 8 8 9 10 10 9 11
REMARK H PARENT
REMARK Flexibility Score: inf
ROOT
ATOM      1  C   UNL     1      -6.404  -3.600  -4.953  1.00  0.00     0.025 C 
ATOM      2  C   UNL     1      -5.799  -2.430  -4.702  1.00  0.00     0.010 C 
ENDROOT
BRANCH   1   3
ATOM      3  C   UNL     1      -5.719  -4.691  -5.666  1.00  0.00     0.064 C 
ATOM      4  O   UNL     1      -4.483  -4.605  -5.894  1.00  0.00    -0.545 OA
ATOM      5  O   UNL     1      -6.413  -5.817  -6.094  1.00  0.00    -0.545 OA
ENDBRANCH   1   3
BRANCH   2   6
ATOM      6  C   UNL     1      -6.428  -1.285  -3.989  1.00  0.00    -0.026 A 
ATOM      7  C   UNL     1      -7.301  -1.439  -2.890  1.00  0.00     0.008 A 
ATOM      8  C   UNL     1      -6.134   0.017  -4.438  1.00  0.00     0.008 A 
ATOM      9  C   UNL     1      -7.857  -0.318  -2.265  1.00  0.00     0.001 A 
ATOM     10  C   UNL     1      -6.694   1.132  -3.809  1.00  0.00     0.001 A 
ATOM     11  C   UNL     1      -7.555   0.966  -2.723  1.00  0.00     0.000 A 
ENDBRANCH   2   6
TORSDOF 2
ENDMDL
MODEL 4
REMARK VINA RESULT:    -3.420     13.158     13.516
REMARK INTER + INTRA:          -3.965
REMARK INTER:                  -3.836
REMARK INTRA:                  -0.129
REMARK UNBOUND:                -0.145
REMARK SMILES O=C([O-])C=Cc1ccccc1
REMARK SMILES IDX 4 1 5 2 2 3 1 4 3 5 6 6 7 7 11 8 8 9 10 10 9 11
REMARK H PARENT
REMARK Flexibility Score: inf
ROOT
ATOM      1  C   UNL     1      -7.321   1.402  -3.824  1.00  0.00     0.025 C 
ATOM      2  C   UNL     1      -6.327   0.504  -3.869  1.00  0.00     0.010 C 
ENDROOT
BRANCH   1   3
ATOM      3  C   UNL     1      -7.070   2.846  -3.959  1.00  0.00     0.064 C 
ATOM      4  O   UNL     1      -7.521   3.639  -3.091  1.00  0.00    -0.545 OA
ATOM      5  O   UNL     1      -6.344   3.352  -5.032  1.00  0.00    -0.545 OA
ENDBRANCH   1   3
BRANCH   2   6
ATOM      6  C   UNL     1      -6.504  -0.968  -3.740  1.00  0.00    -0.026 A 
ATOM      7  C   UNL     1      -7.454  -1.564  -2.880  1.00  0.00     0.008 A 
ATOM      8  C   UNL     1      -5.680  -1.806  -4.514  1.00  0.00     0.008 A 
ATOM      9  C   UNL     1      -7.568  -2.956  -2.807  1.00  0.00     0.001 A 
ATOM     10  C   UNL     1      -5.799  -3.196  -4.437  1.00  0.00     0.001 A 
ATOM     11  C   UNL     1      -6.742  -3.771  -3.584  1.00  0.00     0.000 A 
ENDBRANCH   2   6
TORSDOF 2
ENDMDL
MODEL 5
REMARK VINA RESULT:    -3.405     13.478     14.316
REMARK INTER + INTRA:          -3.948
REMARK INTER:                  -3.800
REMARK INTRA:                  -0.148
REMARK UNBOUND:                -0.145
REMARK SMILES O=C([O-])C=Cc1ccccc1
REMARK SMILES IDX 4 1 5 2 2 3 1 4 3 5 6 6 7 7 11 8 8 9 10 10 9 11
REMARK H PARENT
REMARK Flexibility Score: inf
ROOT
ATOM      1  C   UNL     1      -6.157  -1.664  -4.326  1.00  0.00     0.025 C 
ATOM      2  C   UNL     1      -6.923  -1.145  -3.356  1.00  0.00     0.010 C 
ENDROOT
BRANCH   1   3
ATOM      3  C   UNL     1      -5.852  -3.103  -4.387  1.00  0.00     0.064 C 
ATOM      4  O   UNL     1      -6.332  -3.878  -3.518  1.00  0.00    -0.545 OA
ATOM      5  O   UNL     1      -5.040  -3.624  -5.389  1.00  0.00    -0.545 OA
ENDBRANCH   1   3
BRANCH   2   6
ATOM      6  C   UNL     1      -7.273   0.297  -3.230  1.00  0.00    -0.026 A 
ATOM      7  C   UNL     1      -8.225   0.787  -2.310  1.00  0.00     0.008 A 
ATOM      8  C   UNL     1      -6.619   1.213  -4.074  1.00  0.00     0.008 A 
ATOM      9  C   UNL     1      -8.507   2.156  -2.244  1.00  0.00     0.001 A 
ATOM     10  C   UNL     1      -6.905   2.580  -4.003  1.00  0.00     0.001 A 
ATOM     11  C   UNL     1      -7.848   3.051  -3.088  1.00  0.00     0.000 A 
ENDBRANCH   2   6
TORSDOF 2
ENDMDL
MODEL 6
REMARK VINA RESULT:    -3.401      1.036      1.426
REMARK INTER + INTRA:          -3.943
REMARK INTER:                  -3.810
REMARK INTRA:                  -0.133
REMARK UNBOUND:                -0.145
REMARK SMILES O=C([O-])C=Cc1ccccc1
REMARK SMILES IDX 4 1 5 2 2 3 1 4 3 5 6 6 7 7 11 8 8 9 10 10 9 11
REMARK H PARENT
REMARK Flexibility Score: inf
ROOT
ATOM      1  C   UNL     1      -0.844  -0.069   6.717  1.00  0.00     0.025 C 
ATOM      2  C   UNL     1      -0.034  -1.103   6.985  1.00  0.00     0.010 C 
ENDROOT
BRANCH   1   3
ATOM      3  C   UNL     1      -0.324   1.292   6.511  1.00  0.00     0.064 C 
ATOM      4  O   UNL     1       0.456   1.521   5.549  1.00  0.00    -0.545 OA
ATOM      5  O   UNL     1      -0.677   2.333   7.363  1.00  0.00    -0.545 OA
ENDBRANCH   1   3
BRANCH   2   6
ATOM      6  C   UNL     1      -0.487  -2.504   7.204  1.00  0.00    -0.026 A 
ATOM      7  C   UNL     1      -1.839  -2.903   7.129  1.00  0.00     0.008 A 
ATOM      8  C   UNL     1       0.486  -3.476   7.504  1.00  0.00     0.008 A 
ATOM      9  C   UNL     1      -2.196  -4.238   7.347  1.00  0.00     0.001 A 
ATOM     10  C   UNL     1       0.122  -4.808   7.720  1.00  0.00     0.001 A 
ATOM     11  C   UNL     1      -1.218  -5.189   7.642  1.00  0.00     0.000 A 
ENDBRANCH   2   6
TORSDOF 2
ENDMDL
MODEL 7
REMARK VINA RESULT:    -3.280     11.654     12.306
REMARK INTER + INTRA:          -3.808
REMARK INTER:                  -3.666
REMARK INTRA:                  -0.142
REMARK UNBOUND:                -0.145
REMARK SMILES O=C([O-])C=Cc1ccccc1
REMARK SMILES IDX 4 1 5 2 2 3 1 4 3 5 6 6 7 7 11 8 8 9 10 10 9 11
REMARK H PARENT
REMARK Flexibility Score: inf
ROOT
ATOM      1  C   UNL     1       4.892  -2.967  -3.393  1.00  0.00     0.025 C 
ATOM      2  C   UNL     1       5.742  -3.310  -2.415  1.00  0.00     0.010 C 
ENDROOT
BRANCH   1   3
ATOM      3  C   UNL     1       3.830  -3.877  -3.853  1.00  0.00     0.064 C 
ATOM      4  O   UNL     1       2.655  -3.445  -3.984  1.00  0.00    -0.545 OA
ATOM      5  O   UNL     1       4.103  -5.209  -4.146  1.00  0.00    -0.545 OA
ENDBRANCH   1   3
BRANCH   2   6
ATOM      6  C   UNL     1       6.837  -2.444  -1.898  1.00  0.00    -0.026 A 
ATOM      7  C   UNL     1       8.018  -2.952  -1.312  1.00  0.00     0.008 A 
ATOM      8  C   UNL     1       6.683  -1.049  -2.000  1.00  0.00     0.008 A 
ATOM      9  C   UNL     1       9.008  -2.081  -0.847  1.00  0.00     0.001 A 
ATOM     10  C   UNL     1       7.677  -0.184  -1.533  1.00  0.00     0.001 A 
ATOM     11  C   UNL     1       8.839  -0.700  -0.956  1.00  0.00     0.000 A 
ENDBRANCH   2   6
TORSDOF 2
ENDMDL
MODEL 8
REMARK VINA RESULT:    -3.271      4.107      7.082
REMARK INTER + INTRA:          -3.798
REMARK INTER:                  -3.670
REMARK INTRA:                  -0.128
REMARK UNBOUND:                -0.145
REMARK SMILES O=C([O-])C=Cc1ccccc1
REMARK SMILES IDX 4 1 5 2 2 3 1 4 3 5 6 6 7 7 11 8 8 9 10 10 9 11
REMARK H PARENT
REMARK Flexibility Score: inf
ROOT
ATOM      1  C   UNL     1      -0.419   2.243   7.187  1.00  0.00     0.025 C 
ATOM      2  C   UNL     1      -1.729   2.305   6.910  1.00  0.00     0.010 C 
ENDROOT
BRANCH   1   3
ATOM      3  C   UNL     1       0.452   1.215   6.595  1.00  0.00     0.064 C 
ATOM      4  O   UNL     1       0.596   1.167   5.344  1.00  0.00    -0.545 OA
ATOM      5  O   UNL     1       1.120   0.292   7.392  1.00  0.00    -0.545 OA
ENDBRANCH   1   3
BRANCH   2   6
ATOM      6  C   UNL     1      -2.669   3.314   7.471  1.00  0.00    -0.026 A 
ATOM      7  C   UNL     1      -2.816   3.554   8.855  1.00  0.00     0.008 A 
ATOM      8  C   UNL     1      -3.451   4.062   6.571  1.00  0.00     0.008 A 
ATOM      9  C   UNL     1      -3.719   4.518   9.314  1.00  0.00     0.001 A 
ATOM     10  C   UNL     1      -4.352   5.024   7.037  1.00  0.00     0.001 A 
ATOM     11  C   UNL     1      -4.486   5.252   8.408  1.00  0.00     0.000 A 
ENDBRANCH   2   6
TORSDOF 2
ENDMDL
MODEL 9
REMARK VINA RESULT:    -3.077     11.442     11.996
REMARK INTER + INTRA:          -3.582
REMARK INTER:                  -3.452
REMARK INTRA:                  -0.129
REMARK UNBOUND:                -0.145
REMARK SMILES O=C([O-])C=Cc1ccccc1
REMARK SMILES IDX 4 1 5 2 2 3 1 4 3 5 6 6 7 7 11 8 8 9 10 10 9 11
REMARK H PARENT
REMARK Flexibility Score: inf
ROOT
ATOM      1  C   UNL     1       0.654   7.619  -0.261  1.00  0.00     0.025 C 
ATOM      2  C   UNL     1       0.902   7.127   0.962  1.00  0.00     0.010 C 
ENDROOT
BRANCH   1   3
ATOM      3  C   UNL     1       0.724   6.776  -1.465  1.00  0.00     0.064 C 
ATOM      4  O   UNL     1       1.503   5.787  -1.488  1.00  0.00    -0.545 OA
ATOM      5  O   UNL     1      -0.055   7.054  -2.583  1.00  0.00    -0.545 OA
ENDBRANCH   1   3
BRANCH   2   6
ATOM      6  C   UNL     1       0.851   7.917   2.222  1.00  0.00    -0.026 A 
ATOM      7  C   UNL     1      -0.352   8.241   2.887  1.00  0.00     0.008 A 
ATOM      8  C   UNL     1       2.066   8.362   2.775  1.00  0.00     0.008 A 
ATOM      9  C   UNL     1      -0.329   8.988   4.069  1.00  0.00     0.001 A 
ATOM     10  C   UNL     1       2.083   9.108   3.957  1.00  0.00     0.001 A 
ATOM     11  C   UNL     1       0.886   9.421   4.604  1.00  0.00     0.000 A 
ENDBRANCH   2   6
TORSDOF 2
ENDMDL
