MODEL 1
REMARK VINA RESULT:    -0.788      0.000      0.000
REMARK INTER + INTRA:          -0.462
REMARK INTER:                  -1.064
REMARK INTRA:                   0.602
REMARK UNBOUND:                 0.602
REMARK SMILES C=C1C(=O)O[C@H]2[C@H]1CCC(C)=CCC[C@@]1(C)O[C@@H]21
REMARK SMILES IDX 6 1 7 2 2 3 1 4 3 5 4 6 5 7 8 8 9 9 10 10 11 11 12 12 18 14
REMARK SMILES IDX 15 15 17 16 16 17 14 18 13 19
REMARK H PARENT
REMARK Flexibility Score: 70.00
ROOT
ATOM      1  C   UNL     1     -16.552 -13.834  84.050  1.00  0.00     0.216 C 
ATOM      2  C   UNL     1     -15.274 -14.244  83.259  1.00  0.00     0.070 C 
ATOM      3  C   UNL     1     -14.266 -13.238  83.740  1.00  0.00     0.037 C 
ATOM      4  C   UNL     1     -13.024 -13.053  83.289  1.00  0.00     0.021 C 
ATOM      5  C   UNL     1     -14.792 -12.700  84.979  1.00  0.00     0.334 C 
ATOM      6  O   UNL     1     -14.170 -11.948  85.775  1.00  0.00    -0.247 OA
ATOM      7  O   UNL     1     -16.069 -13.169  85.211  1.00  0.00    -0.455 OA
ENDROOT
BRANCH   2   8
ATOM      8  C   UNL     1     -15.419 -14.411  81.716  1.00  0.00     0.017 C 
BRANCH   8   9
ATOM      9  C   UNL     1     -16.039 -13.247  80.902  1.00  0.00     0.031 C 
BRANCH   9  10
ATOM     10  C   UNL     1     -17.387 -13.636  80.294  1.00  0.00    -0.077 C 
ATOM     11  C   UNL     1     -17.382 -14.225  78.904  1.00  0.00     0.039 C 
ATOM     12  C   UNL     1     -18.586 -13.540  80.921  1.00  0.00    -0.028 CG0
ATOM     13  G   UNL     1     -18.835 -12.946  82.283  1.00  0.00     0.000 G0
ENDBRANCH   9  10
ENDBRANCH   8   9
ENDBRANCH   2   8
BRANCH   1  14
ATOM     14  C   UNL     1     -17.443 -15.024  84.405  1.00  0.00     0.192 C 
ATOM     15  C   UNL     1     -18.872 -15.091  83.959  1.00  0.00     0.096 C 
ATOM     16  O   UNL     1     -17.839 -15.692  83.221  1.00  0.00    -0.362 OA
ATOM     17  C   UNL     1     -19.742 -16.125  84.676  1.00  0.00     0.045 C 
BRANCH  15  18
ATOM     18  C   UNL     1     -19.595 -13.882  83.289  1.00  0.00     0.042 C 
BRANCH  18  19
ATOM     19  C   UNL     1     -18.856 -12.943  82.297  1.00  0.00     0.030 CG0
ATOM     20  G   UNL     1     -18.604 -13.524  80.930  1.00  0.00     0.000 G0
ENDBRANCH  18  19
ENDBRANCH  15  18
ENDBRANCH   1  14
TORSDOF 0
ENDMDL
MODEL 2
REMARK VINA RESULT:    -0.683      3.800      5.387
REMARK INTER + INTRA:          -0.320
REMARK INTER:                  -0.950
REMARK INTRA:                   0.630
REMARK UNBOUND:                 0.602
REMARK SMILES C=C1C(=O)O[C@H]2[C@H]1CCC(C)=CCC[C@@]1(C)O[C@@H]21
REMARK SMILES IDX 6 1 7 2 2 3 1 4 3 5 4 6 5 7 8 8 9 9 10 10 11 11 12 12 18 14
REMARK SMILES IDX 15 15 17 16 16 17 14 18 13 19
REMARK H PARENT
REMARK Flexibility Score: 70.00
ROOT
ATOM      1  C   UNL     1     -18.972 -17.988  82.264  1.00  0.00     0.216 C 
ATOM      2  C   UNL     1     -18.670 -16.865  81.228  1.00  0.00     0.070 C 
ATOM      3  C   UNL     1     -17.419 -17.372  80.565  1.00  0.00     0.037 C 
ATOM      4  C   UNL     1     -16.656 -16.733  79.676  1.00  0.00     0.021 C 
ATOM      5  C   UNL     1     -17.357 -18.791  80.851  1.00  0.00     0.334 C 
ATOM      6  O   UNL     1     -16.546 -19.608  80.340  1.00  0.00    -0.247 OA
ATOM      7  O   UNL     1     -18.354 -19.155  81.733  1.00  0.00    -0.455 OA
ENDROOT
BRANCH   2   8
ATOM      8  C   UNL     1     -18.641 -15.400  81.759  1.00  0.00     0.017 C 
BRANCH   8   9
ATOM      9  C   UNL     1     -17.726 -15.070  82.966  1.00  0.00     0.031 C 
BRANCH   9  10
ATOM     10  C   UNL     1     -18.537 -14.663  84.196  1.00  0.00    -0.077 C 
ATOM     11  C   UNL     1     -18.806 -13.192  84.399  1.00  0.00     0.039 C 
ATOM     12  C   UNL     1     -19.077 -15.521  85.097  1.00  0.00    -0.028 CG0
ATOM     13  G   UNL     1     -18.904 -17.017  85.120  1.00  0.00     0.000 G0
ENDBRANCH   9  10
ENDBRANCH   8   9
ENDBRANCH   2   8
BRANCH   1  14
ATOM     14  C   UNL     1     -20.467 -18.195  82.504  1.00  0.00     0.192 C 
ATOM     15  C   UNL     1     -21.069 -18.033  83.866  1.00  0.00     0.096 C 
ATOM     16  O   UNL     1     -21.051 -16.981  82.936  1.00  0.00    -0.362 OA
ATOM     17  C   UNL     1     -22.472 -18.618  84.045  1.00  0.00     0.045 C 
BRANCH  15  18
ATOM     18  C   UNL     1     -20.199 -17.847  85.147  1.00  0.00     0.042 C 
BRANCH  18  19
ATOM     19  C   UNL     1     -18.888 -17.013  85.123  1.00  0.00     0.030 CG0
ATOM     20  G   UNL     1     -19.079 -15.519  85.083  1.00  0.00     0.000 G0
ENDBRANCH  18  19
ENDBRANCH  15  18
ENDBRANCH   1  14
TORSDOF 0
ENDMDL
MODEL 3
REMARK VINA RESULT:    -0.673      2.068      4.792
REMARK INTER + INTRA:          -0.307
REMARK INTER:                  -0.964
REMARK INTRA:                   0.656
REMARK UNBOUND:                 0.602
REMARK SMILES C=C1C(=O)O[C@H]2[C@H]1CCC(C)=CCC[C@@]1(C)O[C@@H]21
REMARK SMILES IDX 6 1 7 2 2 3 1 4 3 5 4 6 5 7 8 8 9 9 10 10 11 11 12 12 18 14
REMARK SMILES IDX 15 15 17 16 16 17 14 18 13 19
REMARK H PARENT
REMARK Flexibility Score: 70.00
ROOT
ATOM      1  C   UNL     1     -16.551 -13.909  83.139  1.00  0.00     0.216 C 
ATOM      2  C   UNL     1     -17.405 -14.793  84.094  1.00  0.00     0.070 C 
ATOM      3  C   UNL     1     -18.173 -15.653  83.128  1.00  0.00     0.037 C 
ATOM      4  C   UNL     1     -19.153 -16.514  83.410  1.00  0.00     0.021 C 
ATOM      5  C   UNL     1     -17.457 -15.588  81.870  1.00  0.00     0.334 C 
ATOM      6  O   UNL     1     -17.689 -16.297  80.856  1.00  0.00    -0.247 OA
ATOM      7  O   UNL     1     -16.429 -14.669  81.942  1.00  0.00    -0.455 OA
ENDROOT
BRANCH   2   8
ATOM      8  C   UNL     1     -18.231 -14.058  85.191  1.00  0.00     0.017 C 
BRANCH   8   9
ATOM      9  C   UNL     1     -18.121 -12.515  85.290  1.00  0.00     0.031 C 
BRANCH   9  10
ATOM     10  C   UNL     1     -18.647 -11.828  84.030  1.00  0.00    -0.077 C 
ATOM     11  C   UNL     1     -19.993 -12.266  83.507  1.00  0.00     0.039 C 
ATOM     12  C   UNL     1     -18.023 -10.821  83.369  1.00  0.00    -0.028 CG0
ATOM     13  G   UNL     1     -16.662 -10.256  83.682  1.00  0.00     0.000 G0
ENDBRANCH   9  10
ENDBRANCH   8   9
ENDBRANCH   2   8
BRANCH   1  14
ATOM     14  C   UNL     1     -15.185 -13.545  83.722  1.00  0.00     0.192 C 
ATOM     15  C   UNL     1     -14.703 -12.127  83.754  1.00  0.00     0.096 C 
ATOM     16  O   UNL     1     -15.358 -12.710  84.851  1.00  0.00    -0.362 OA
ATOM     17  C   UNL     1     -13.206 -11.942  84.012  1.00  0.00     0.045 C 
BRANCH  15  18
ATOM     18  C   UNL     1     -15.455 -10.971  83.025  1.00  0.00     0.042 C 
BRANCH  18  19
ATOM     19  C   UNL     1     -16.655 -10.240  83.687  1.00  0.00     0.030 CG0
ATOM     20  G   UNL     1     -18.011 -10.811  83.367  1.00  0.00     0.000 G0
ENDBRANCH  18  19
ENDBRANCH  15  18
ENDBRANCH   1  14
TORSDOF 0
ENDMDL
MODEL 4
REMARK VINA RESULT:    -0.574      7.817     10.036
REMARK INTER + INTRA:          -0.173
REMARK INTER:                  -0.902
REMARK INTRA:                   0.729
REMARK UNBOUND:                 0.602
REMARK SMILES C=C1C(=O)O[C@H]2[C@H]1CCC(C)=CCC[C@@]1(C)O[C@@H]21
REMARK SMILES IDX 6 1 7 2 2 3 1 4 3 5 4 6 5 7 8 8 9 9 10 10 11 11 12 12 18 14
REMARK SMILES IDX 15 15 17 16 16 17 14 18 13 19
REMARK H PARENT
REMARK Flexibility Score: 70.00
ROOT
ATOM      1  C   UNL     1     -17.114 -21.786  81.706  1.00  0.00     0.216 C 
ATOM      2  C   UNL     1     -18.414 -22.644  81.715  1.00  0.00     0.070 C 
ATOM      3  C   UNL     1     -19.485 -21.596  81.841  1.00  0.00     0.037 C 
ATOM      4  C   UNL     1     -20.793 -21.791  82.020  1.00  0.00     0.021 C 
ATOM      5  C   UNL     1     -18.875 -20.344  81.441  1.00  0.00     0.334 C 
ATOM      6  O   UNL     1     -19.484 -19.257  81.256  1.00  0.00    -0.247 OA
ATOM      7  O   UNL     1     -17.520 -20.507  81.233  1.00  0.00    -0.455 OA
ENDROOT
BRANCH   2   8
ATOM      8  C   UNL     1     -18.471 -23.832  82.722  1.00  0.00     0.017 C 
BRANCH   8   9
ATOM      9  C   UNL     1     -17.162 -24.265  83.430  1.00  0.00     0.031 C 
BRANCH   9  10
ATOM     10  C   UNL     1     -16.817 -23.340  84.596  1.00  0.00    -0.077 C 
ATOM     11  C   UNL     1     -17.933 -22.959  85.538  1.00  0.00     0.039 C 
ATOM     12  C   UNL     1     -15.577 -22.870  84.884  1.00  0.00    -0.028 CG0
ATOM     13  G   UNL     1     -14.331 -23.082  84.065  1.00  0.00     0.000 G0
ENDBRANCH   9  10
ENDBRANCH   8   9
ENDBRANCH   2   8
BRANCH   1  14
ATOM     14  C   UNL     1     -16.007 -22.386  80.840  1.00  0.00     0.192 C 
ATOM     15  C   UNL     1     -14.642 -22.660  81.397  1.00  0.00     0.096 C 
ATOM     16  O   UNL     1     -15.636 -23.652  81.355  1.00  0.00    -0.362 OA
ATOM     17  C   UNL     1     -13.542 -22.905  80.362  1.00  0.00     0.045 C 
BRANCH  15  18
ATOM     18  C   UNL     1     -14.204 -22.171  82.812  1.00  0.00     0.042 C 
BRANCH  18  19
ATOM     19  C   UNL     1     -14.327 -23.087  84.060  1.00  0.00     0.030 CG0
ATOM     20  G   UNL     1     -15.567 -22.879  84.890  1.00  0.00     0.000 G0
ENDBRANCH  18  19
ENDBRANCH  15  18
ENDBRANCH   1  14
TORSDOF 0
ENDMDL
MODEL 5
REMARK VINA RESULT:    -0.561      2.526      5.000
REMARK INTER + INTRA:          -0.156
REMARK INTER:                  -0.872
REMARK INTRA:                   0.716
REMARK UNBOUND:                 0.602
REMARK SMILES C=C1C(=O)O[C@H]2[C@H]1CCC(C)=CCC[C@@]1(C)O[C@@H]21
REMARK SMILES IDX 6 1 7 2 2 3 1 4 3 5 4 6 5 7 8 8 9 9 10 10 11 11 12 12 18 14
REMARK SMILES IDX 15 15 17 16 16 17 14 18 13 19
REMARK H PARENT
REMARK Flexibility Score: 70.00
ROOT
ATOM      1  C   UNL     1     -18.819 -15.794  82.857  1.00  0.00     0.216 C 
ATOM      2  C   UNL     1     -18.307 -16.101  84.296  1.00  0.00     0.070 C 
ATOM      3  C   UNL     1     -19.398 -16.982  84.840  1.00  0.00     0.037 C 
ATOM      4  C   UNL     1     -19.528 -17.436  86.088  1.00  0.00     0.021 C 
ATOM      5  C   UNL     1     -20.124 -17.483  83.690  1.00  0.00     0.334 C 
ATOM      6  O   UNL     1     -21.009 -18.378  83.714  1.00  0.00    -0.247 OA
ATOM      7  O   UNL     1     -19.677 -16.881  82.531  1.00  0.00    -0.455 OA
ENDROOT
BRANCH   2   8
ATOM      8  C   UNL     1     -17.884 -14.883  85.172  1.00  0.00     0.017 C 
BRANCH   8   9
ATOM      9  C   UNL     1     -18.023 -13.460  84.576  1.00  0.00     0.031 C 
BRANCH   9  10
ATOM     10  C   UNL     1     -19.468 -13.148  84.185  1.00  0.00    -0.077 C 
ATOM     11  C   UNL     1     -20.542 -13.426  85.209  1.00  0.00     0.039 C 
ATOM     12  C   UNL     1     -19.860 -12.596  83.010  1.00  0.00    -0.028 CG0
ATOM     13  G   UNL     1     -18.974 -12.278  81.834  1.00  0.00     0.000 G0
ENDBRANCH   9  10
ENDBRANCH   8   9
ENDBRANCH   2   8
BRANCH   1  14
ATOM     14  C   UNL     1     -17.688 -15.637  81.841  1.00  0.00     0.192 C 
ATOM     15  C   UNL     1     -17.621 -14.453  80.924  1.00  0.00     0.096 C 
ATOM     16  O   UNL     1     -16.932 -14.481  82.147  1.00  0.00    -0.362 OA
ATOM     17  C   UNL     1     -16.677 -14.594  79.729  1.00  0.00     0.045 C 
BRANCH  15  18
ATOM     18  C   UNL     1     -18.787 -13.423  80.803  1.00  0.00     0.042 C 
BRANCH  18  19
ATOM     19  C   UNL     1     -18.963 -12.273  81.832  1.00  0.00     0.030 CG0
ATOM     20  G   UNL     1     -19.855 -12.591  83.004  1.00  0.00     0.000 G0
ENDBRANCH  18  19
ENDBRANCH  15  18
ENDBRANCH   1  14
TORSDOF 0
ENDMDL
MODEL 6
REMARK VINA RESULT:    -0.555      2.394      4.161
REMARK INTER + INTRA:          -0.148
REMARK INTER:                  -0.782
REMARK INTRA:                   0.634
REMARK UNBOUND:                 0.602
REMARK SMILES C=C1C(=O)O[C@H]2[C@H]1CCC(C)=CCC[C@@]1(C)O[C@@H]21
REMARK SMILES IDX 6 1 7 2 2 3 1 4 3 5 4 6 5 7 8 8 9 9 10 10 11 11 12 12 18 14
REMARK SMILES IDX 15 15 17 16 16 17 14 18 13 19
REMARK H PARENT
REMARK Flexibility Score: 70.00
ROOT
ATOM      1  C   UNL     1     -17.831 -13.198  81.843  1.00  0.00     0.216 C 
ATOM      2  C   UNL     1     -18.530 -13.136  83.234  1.00  0.00     0.070 C 
ATOM      3  C   UNL     1     -17.503 -12.427  84.074  1.00  0.00     0.037 C 
ATOM      4  C   UNL     1     -17.536 -12.218  85.391  1.00  0.00     0.021 C 
ATOM      5  C   UNL     1     -16.612 -11.761  83.146  1.00  0.00     0.334 C 
ATOM      6  O   UNL     1     -15.715 -10.932  83.455  1.00  0.00    -0.247 OA
ATOM      7  O   UNL     1     -16.909 -12.115  81.845  1.00  0.00    -0.455 OA
ENDROOT
BRANCH   2   8
ATOM      8  C   UNL     1     -19.102 -14.470  83.800  1.00  0.00     0.017 C 
BRANCH   8   9
ATOM      9  C   UNL     1     -18.173 -15.710  83.852  1.00  0.00     0.031 C 
BRANCH   9  10
ATOM     10  C   UNL     1     -18.645 -16.811  82.903  1.00  0.00    -0.077 C 
ATOM     11  C   UNL     1     -19.606 -17.839  83.451  1.00  0.00     0.039 C 
ATOM     12  C   UNL     1     -18.309 -16.915  81.593  1.00  0.00    -0.028 CG0
ATOM     13  G   UNL     1     -17.339 -16.035  80.849  1.00  0.00     0.000 G0
ENDBRANCH   9  10
ENDBRANCH   8   9
ENDBRANCH   2   8
BRANCH   1  14
ATOM     14  C   UNL     1     -18.814 -13.107  80.676  1.00  0.00     0.192 C 
ATOM     15  C   UNL     1     -18.903 -14.189  79.644  1.00  0.00     0.096 C 
ATOM     16  O   UNL     1     -19.752 -14.162  80.761  1.00  0.00    -0.362 OA
ATOM     17  C   UNL     1     -19.638 -13.817  78.354  1.00  0.00     0.045 C 
BRANCH  15  18
ATOM     18  C   UNL     1     -17.878 -15.363  79.574  1.00  0.00     0.042 C 
BRANCH  18  19
ATOM     19  C   UNL     1     -17.325 -16.035  80.862  1.00  0.00     0.030 CG0
ATOM     20  G   UNL     1     -18.303 -16.911  81.599  1.00  0.00     0.000 G0
ENDBRANCH  18  19
ENDBRANCH  15  18
ENDBRANCH   1  14
TORSDOF 0
ENDMDL
MODEL 7
REMARK VINA RESULT:    -0.516      9.186     10.169
REMARK INTER + INTRA:          -0.095
REMARK INTER:                  -0.730
REMARK INTRA:                   0.635
REMARK UNBOUND:                 0.602
REMARK SMILES C=C1C(=O)O[C@H]2[C@H]1CCC(C)=CCC[C@@]1(C)O[C@@H]21
REMARK SMILES IDX 6 1 7 2 2 3 1 4 3 5 4 6 5 7 8 8 9 9 10 10 11 11 12 12 18 14
REMARK SMILES IDX 15 15 17 16 16 17 14 18 13 19
REMARK H PARENT
REMARK Flexibility Score: 70.00
ROOT
ATOM      1  C   UNL     1     -16.008 -22.905  81.714  1.00  0.00     0.216 C 
ATOM      2  C   UNL     1     -15.468 -24.178  82.431  1.00  0.00     0.070 C 
ATOM      3  C   UNL     1     -14.102 -23.736  82.878  1.00  0.00     0.037 C 
ATOM      4  C   UNL     1     -13.151 -24.483  83.440  1.00  0.00     0.021 C 
ATOM      5  C   UNL     1     -14.118 -22.287  82.852  1.00  0.00     0.334 C 
ATOM      6  O   UNL     1     -13.217 -21.535  83.309  1.00  0.00    -0.247 OA
ATOM      7  O   UNL     1     -15.294 -21.822  82.298  1.00  0.00    -0.455 OA
ENDROOT
BRANCH   2   8
ATOM      8  C   UNL     1     -15.550 -25.522  81.646  1.00  0.00     0.017 C 
BRANCH   8   9
ATOM      9  C   UNL     1     -16.234 -25.525  80.255  1.00  0.00     0.031 C 
BRANCH   9  10
ATOM     10  C   UNL     1     -15.441 -24.711  79.232  1.00  0.00    -0.077 C 
ATOM     11  C   UNL     1     -13.955 -24.961  79.143  1.00  0.00     0.039 C 
ATOM     12  C   UNL     1     -15.971 -23.815  78.363  1.00  0.00    -0.028 CG0
ATOM     13  G   UNL     1     -17.411 -23.377  78.301  1.00  0.00     0.000 G0
ENDBRANCH   9  10
ENDBRANCH   8   9
ENDBRANCH   2   8
BRANCH   1  14
ATOM     14  C   UNL     1     -17.520 -22.733  81.858  1.00  0.00     0.192 C 
ATOM     15  C   UNL     1     -18.396 -22.496  80.665  1.00  0.00     0.096 C 
ATOM     16  O   UNL     1     -18.184 -23.785  81.182  1.00  0.00    -0.362 OA
ATOM     17  C   UNL     1     -19.804 -21.980  80.969  1.00  0.00     0.045 C 
BRANCH  15  18
ATOM     18  C   UNL     1     -17.815 -22.210  79.246  1.00  0.00     0.042 C 
BRANCH  18  19
ATOM     19  C   UNL     1     -17.415 -23.363  78.285  1.00  0.00     0.030 CG0
ATOM     20  G   UNL     1     -15.976 -23.800  78.372  1.00  0.00     0.000 G0
ENDBRANCH  18  19
ENDBRANCH  15  18
ENDBRANCH   1  14
TORSDOF 0
ENDMDL
MODEL 8
REMARK VINA RESULT:    -0.501      7.855      9.506
REMARK INTER + INTRA:          -0.074
REMARK INTER:                  -0.710
REMARK INTRA:                   0.636
REMARK UNBOUND:                 0.602
REMARK SMILES C=C1C(=O)O[C@H]2[C@H]1CCC(C)=CCC[C@@]1(C)O[C@@H]21
REMARK SMILES IDX 6 1 7 2 2 3 1 4 3 5 4 6 5 7 8 8 9 9 10 10 11 11 12 12 18 14
REMARK SMILES IDX 15 15 17 16 16 17 14 18 13 19
REMARK H PARENT
REMARK Flexibility Score: 70.00
ROOT
ATOM      1  C   UNL     1     -17.719 -22.859  83.658  1.00  0.00     0.216 C 
ATOM      2  C   UNL     1     -17.978 -24.394  83.697  1.00  0.00     0.070 C 
ATOM      3  C   UNL     1     -16.602 -24.943  83.952  1.00  0.00     0.037 C 
ATOM      4  C   UNL     1     -16.226 -26.223  83.955  1.00  0.00     0.021 C 
ATOM      5  C   UNL     1     -15.819 -23.843  84.477  1.00  0.00     0.334 C 
ATOM      6  O   UNL     1     -14.661 -23.932  84.964  1.00  0.00    -0.247 OA
ATOM      7  O   UNL     1     -16.537 -22.665  84.426  1.00  0.00    -0.455 OA
ENDROOT
BRANCH   2   8
ATOM      8  C   UNL     1     -18.772 -25.010  82.505  1.00  0.00     0.017 C 
BRANCH   8   9
ATOM      9  C   UNL     1     -19.365 -24.053  81.440  1.00  0.00     0.031 C 
BRANCH   9  10
ATOM     10  C   UNL     1     -18.273 -23.401  80.593  1.00  0.00    -0.077 C 
ATOM     11  C   UNL     1     -17.189 -24.295  80.044  1.00  0.00     0.039 C 
ATOM     12  C   UNL     1     -18.223 -22.089  80.254  1.00  0.00    -0.028 CG0
ATOM     13  G   UNL     1     -19.166 -21.010  80.720  1.00  0.00     0.000 G0
ENDBRANCH   9  10
ENDBRANCH   8   9
ENDBRANCH   2   8
BRANCH   1  14
ATOM     14  C   UNL     1     -18.890 -22.040  84.199  1.00  0.00     0.192 C 
ATOM     15  C   UNL     1     -19.483 -20.910  83.413  1.00  0.00     0.096 C 
ATOM     16  O   UNL     1     -20.016 -22.208  83.359  1.00  0.00    -0.362 OA
ATOM     17  C   UNL     1     -20.379 -19.953  84.201  1.00  0.00     0.045 C 
BRANCH  15  18
ATOM     18  C   UNL     1     -18.828 -20.370  82.104  1.00  0.00     0.042 C 
BRANCH  18  19
ATOM     19  C   UNL     1     -19.158 -20.988  80.717  1.00  0.00     0.030 CG0
ATOM     20  G   UNL     1     -18.228 -22.084  80.266  1.00  0.00     0.000 G0
ENDBRANCH  18  19
ENDBRANCH  15  18
ENDBRANCH   1  14
TORSDOF 0
ENDMDL
MODEL 9
REMARK VINA RESULT:    -0.373      4.011      6.285
REMARK INTER + INTRA:           0.098
REMARK INTER:                  -0.574
REMARK INTRA:                   0.672
REMARK UNBOUND:                 0.602
REMARK SMILES C=C1C(=O)O[C@H]2[C@H]1CCC(C)=CCC[C@@]1(C)O[C@@H]21
REMARK SMILES IDX 6 1 7 2 2 3 1 4 3 5 4 6 5 7 8 8 9 9 10 10 11 11 12 12 18 14
REMARK SMILES IDX 15 15 17 16 16 17 14 18 13 19
REMARK H PARENT
REMARK Flexibility Score: 70.00
ROOT
ATOM      1  C   UNL     1     -20.039 -16.892  81.873  1.00  0.00     0.216 C 
ATOM      2  C   UNL     1     -20.390 -15.506  82.488  1.00  0.00     0.070 C 
ATOM      3  C   UNL     1     -19.138 -14.716  82.227  1.00  0.00     0.037 C 
ATOM      4  C   UNL     1     -18.848 -13.487  82.660  1.00  0.00     0.021 C 
ATOM      5  C   UNL     1     -18.427 -15.419  81.179  1.00  0.00     0.334 C 
ATOM      6  O   UNL     1     -17.412 -14.994  80.567  1.00  0.00    -0.247 OA
ATOM      7  O   UNL     1     -19.046 -16.619  80.891  1.00  0.00    -0.455 OA
ENDROOT
BRANCH   2   8
ATOM      8  C   UNL     1     -20.936 -15.496  83.948  1.00  0.00     0.017 C 
BRANCH   8   9
ATOM      9  C   UNL     1     -21.272 -16.852  84.620  1.00  0.00     0.031 C 
BRANCH   9  10
ATOM     10  C   UNL     1     -20.009 -17.627  84.994  1.00  0.00    -0.077 C 
ATOM     11  C   UNL     1     -18.902 -16.868  85.683  1.00  0.00     0.039 C 
ATOM     12  C   UNL     1     -19.819 -18.956  84.799  1.00  0.00    -0.028 CG0
ATOM     13  G   UNL     1     -20.762 -19.898  84.096  1.00  0.00     0.000 G0
ENDBRANCH   9  10
ENDBRANCH   8   9
ENDBRANCH   2   8
BRANCH   1  14
ATOM     14  C   UNL     1     -21.251 -17.605  81.273  1.00  0.00     0.192 C 
ATOM     15  C   UNL     1     -21.606 -19.007  81.666  1.00  0.00     0.096 C 
ATOM     16  O   UNL     1     -22.186 -17.894  82.296  1.00  0.00    -0.362 OA
ATOM     17  C   UNL     1     -22.593 -19.724  80.743  1.00  0.00     0.045 C 
BRANCH  15  18
ATOM     18  C   UNL     1     -20.666 -19.893  82.541  1.00  0.00     0.042 C 
BRANCH  18  19
ATOM     19  C   UNL     1     -20.764 -19.893  84.091  1.00  0.00     0.030 CG0
ATOM     20  G   UNL     1     -19.811 -18.963  84.795  1.00  0.00     0.000 G0
ENDBRANCH  18  19
ENDBRANCH  15  18
ENDBRANCH   1  14
TORSDOF 0
ENDMDL
