MODEL 1
REMARK VINA RESULT:    -2.692      0.000      0.000
REMARK INTER + INTRA:          -2.692
REMARK INTER:                  -2.692
REMARK INTRA:                   0.000
REMARK UNBOUND:                 0.000
REMARK SMILES CC(=O)[O-]
REMARK SMILES IDX 1 1 2 2 3 3 4 4
REMARK H PARENT
REMARK Flexibility Score: inf
ROOT
ATOM      1  C   UNL     1     -21.918 -60.116   0.402  1.00  0.00     0.063 C 
ATOM      2  C   UNL     1     -22.094 -59.651  -1.005  1.00  0.00     0.038 C 
ATOM      3  O   UNL     1     -21.875 -60.438  -1.962  1.00  0.00    -0.550 OA
ATOM      4  O   UNL     1     -22.550 -58.364  -1.261  1.00  0.00    -0.550 OA
ENDROOT
TORSDOF 0
ENDMDL
MODEL 2
REMARK VINA RESULT:    -2.636      0.156      1.621
REMARK INTER + INTRA:          -2.636
REMARK INTER:                  -2.636
REMARK INTRA:                   0.000
REMARK UNBOUND:                 0.000
REMARK SMILES CC(=O)[O-]
REMARK SMILES IDX 1 1 2 2 3 3 4 4
REMARK H PARENT
REMARK Flexibility Score: inf
ROOT
ATOM      1  C   UNL     1     -21.950 -60.111   0.473  1.00  0.00     0.063 C 
ATOM      2  C   UNL     1     -22.066 -59.627  -0.934  1.00  0.00     0.038 C 
ATOM      3  O   UNL     1     -22.288 -58.411  -1.166  1.00  0.00    -0.550 OA
ATOM      4  O   UNL     1     -21.876 -60.508  -1.990  1.00  0.00    -0.550 OA
ENDROOT
TORSDOF 0
ENDMDL
MODEL 3
REMARK VINA RESULT:    -2.540      1.321      1.321
REMARK INTER + INTRA:          -2.540
REMARK INTER:                  -2.540
REMARK INTRA:                   0.000
REMARK UNBOUND:                 0.000
REMARK SMILES CC(=O)[O-]
REMARK SMILES IDX 1 1 2 2 3 3 4 4
REMARK H PARENT
REMARK Flexibility Score: inf
ROOT
ATOM      1  C   UNL     1     -22.143 -60.710  -0.535  1.00  0.00     0.063 C 
ATOM      2  C   UNL     1     -22.894 -59.633  -1.242  1.00  0.00     0.038 C 
ATOM      3  O   UNL     1     -24.022 -59.875  -1.744  1.00  0.00    -0.550 OA
ATOM      4  O   UNL     1     -22.374 -58.346  -1.302  1.00  0.00    -0.550 OA
ENDROOT
TORSDOF 0
ENDMDL
MODEL 4
REMARK VINA RESULT:    -2.433      9.012      9.628
REMARK INTER + INTRA:          -2.433
REMARK INTER:                  -2.433
REMARK INTRA:                   0.000
REMARK UNBOUND:                 0.000
REMARK SMILES CC(=O)[O-]
REMARK SMILES IDX 1 1 2 2 3 3 4 4
REMARK H PARENT
REMARK Flexibility Score: inf
ROOT
ATOM      1  C   UNL     1     -24.842 -50.949   0.242  1.00  0.00     0.063 C 
ATOM      2  C   UNL     1     -26.146 -51.318   0.866  1.00  0.00     0.038 C 
ATOM      3  O   UNL     1     -27.098 -50.495   0.872  1.00  0.00    -0.550 OA
ATOM      4  O   UNL     1     -26.329 -52.589   1.395  1.00  0.00    -0.550 OA
ENDROOT
TORSDOF 0
ENDMDL
MODEL 5
REMARK VINA RESULT:    -2.346      3.905      4.108
REMARK INTER + INTRA:          -2.346
REMARK INTER:                  -2.346
REMARK INTRA:                   0.000
REMARK UNBOUND:                 0.000
REMARK SMILES CC(=O)[O-]
REMARK SMILES IDX 1 1 2 2 3 3 4 4
REMARK H PARENT
REMARK Flexibility Score: inf
ROOT
ATOM      1  C   UNL     1     -24.844 -59.473  -1.597  1.00  0.00     0.063 C 
ATOM      2  C   UNL     1     -25.785 -58.940  -2.625  1.00  0.00     0.038 C 
ATOM      3  O   UNL     1     -25.921 -59.536  -3.725  1.00  0.00    -0.550 OA
ATOM      4  O   UNL     1     -26.551 -57.815  -2.350  1.00  0.00    -0.550 OA
ENDROOT
TORSDOF 0
ENDMDL
MODEL 6
REMARK VINA RESULT:    -2.308      5.381      5.915
REMARK INTER + INTRA:          -2.308
REMARK INTER:                  -2.308
REMARK INTRA:                   0.000
REMARK UNBOUND:                 0.000
REMARK SMILES CC(=O)[O-]
REMARK SMILES IDX 1 1 2 2 3 3 4 4
REMARK H PARENT
REMARK Flexibility Score: inf
ROOT
ATOM      1  C   UNL     1     -24.525 -62.676   2.894  1.00  0.00     0.063 C 
ATOM      2  C   UNL     1     -23.435 -63.681   2.725  1.00  0.00     0.038 C 
ATOM      3  O   UNL     1     -22.769 -63.715   1.658  1.00  0.00    -0.550 OA
ATOM      4  O   UNL     1     -23.119 -64.545   3.764  1.00  0.00    -0.550 OA
ENDROOT
TORSDOF 0
ENDMDL
MODEL 7
REMARK VINA RESULT:    -2.267     12.405     12.544
REMARK INTER + INTRA:          -2.267
REMARK INTER:                  -2.267
REMARK INTRA:                   0.000
REMARK UNBOUND:                 0.000
REMARK SMILES CC(=O)[O-]
REMARK SMILES IDX 1 1 2 2 3 3 4 4
REMARK H PARENT
REMARK Flexibility Score: inf
ROOT
ATOM      1  C   UNL     1     -35.373 -60.526   1.233  1.00  0.00     0.063 C 
ATOM      2  C   UNL     1     -34.519 -59.684   0.346  1.00  0.00     0.038 C 
ATOM      3  O   UNL     1     -33.887 -60.210  -0.606  1.00  0.00    -0.550 OA
ATOM      4  O   UNL     1     -34.461 -58.309   0.536  1.00  0.00    -0.550 OA
ENDROOT
TORSDOF 0
ENDMDL
MODEL 8
REMARK VINA RESULT:    -2.253      3.335      3.686
REMARK INTER + INTRA:          -2.253
REMARK INTER:                  -2.253
REMARK INTRA:                   0.000
REMARK UNBOUND:                 0.000
REMARK SMILES CC(=O)[O-]
REMARK SMILES IDX 1 1 2 2 3 3 4 4
REMARK H PARENT
REMARK Flexibility Score: inf
ROOT
ATOM      1  C   UNL     1     -25.597 -59.475  -0.635  1.00  0.00     0.063 C 
ATOM      2  C   UNL     1     -25.235 -58.896  -1.962  1.00  0.00     0.038 C 
ATOM      3  O   UNL     1     -24.503 -57.875  -2.026  1.00  0.00    -0.550 OA
ATOM      4  O   UNL     1     -25.663 -59.513  -3.130  1.00  0.00    -0.550 OA
ENDROOT
TORSDOF 0
ENDMDL
MODEL 9
REMARK VINA RESULT:    -2.220      4.560      5.196
REMARK INTER + INTRA:          -2.220
REMARK INTER:                  -2.220
REMARK INTRA:                   0.000
REMARK UNBOUND:                 0.000
REMARK SMILES CC(=O)[O-]
REMARK SMILES IDX 1 1 2 2 3 3 4 4
REMARK H PARENT
REMARK Flexibility Score: inf
ROOT
ATOM      1  C   UNL     1     -26.730 -56.994  -3.916  1.00  0.00     0.063 C 
ATOM      2  C   UNL     1     -25.811 -57.918  -3.190  1.00  0.00     0.038 C 
ATOM      3  O   UNL     1     -24.837 -57.457  -2.540  1.00  0.00    -0.550 OA
ATOM      4  O   UNL     1     -26.057 -59.284  -3.186  1.00  0.00    -0.550 OA
ENDROOT
TORSDOF 0
ENDMDL
