MODEL 1
REMARK VINA RESULT:    -4.629      0.000      0.000
REMARK INTER + INTRA:          -7.216
REMARK INTER:                  -6.793
REMARK INTRA:                  -0.423
REMARK UNBOUND:                -0.423
REMARK SMILES O=C([O-])CCCCCCCC(=O)[O-]
REMARK SMILES IDX 7 1 6 2 5 3 4 4 2 5 1 6 3 7 8 8 9 9 10 10 11 11 12 12 13 13
REMARK H PARENT
REMARK Flexibility Score: inf
ROOT
ATOM      1  C   UNL     1     -21.018 -26.400  39.822  1.00  0.00     0.000 C 
ENDROOT
BRANCH   1   2
ATOM      2  C   UNL     1     -21.081 -26.974  38.392  1.00  0.00     0.000 C 
BRANCH   2   3
ATOM      3  C   UNL     1     -22.105 -28.116  38.269  1.00  0.00     0.006 C 
BRANCH   3   4
ATOM      4  C   UNL     1     -22.626 -28.578  39.635  1.00  0.00     0.053 C 
BRANCH   4   5
ATOM      5  C   UNL     1     -23.997 -29.173  39.532  1.00  0.00     0.041 C 
ATOM      6  O   UNL     1     -24.591 -29.580  40.564  1.00  0.00    -0.550 OA
ATOM      7  O   UNL     1     -24.631 -29.252  38.298  1.00  0.00    -0.550 OA
ENDBRANCH   4   5
ENDBRANCH   3   4
ENDBRANCH   2   3
ENDBRANCH   1   2
BRANCH   1   8
ATOM      8  C   UNL     1     -20.448 -24.972  39.887  1.00  0.00     0.000 C 
BRANCH   8   9
ATOM      9  C   UNL     1     -21.510 -23.919  40.233  1.00  0.00     0.006 C 
BRANCH   9  10
ATOM     10  C   UNL     1     -22.263 -24.299  41.512  1.00  0.00     0.053 C 
BRANCH  10  11
ATOM     11  C   UNL     1     -23.736 -24.351  41.255  1.00  0.00     0.041 C 
ATOM     12  O   UNL     1     -24.374 -25.421  41.436  1.00  0.00    -0.550 OA
ATOM     13  O   UNL     1     -24.396 -23.230  40.767  1.00  0.00    -0.550 OA
ENDBRANCH  10  11
ENDBRANCH   9  10
ENDBRANCH   8   9
ENDBRANCH   1   8
TORSDOF 8
ENDMDL
MODEL 2
REMARK VINA RESULT:    -4.616      0.896      1.598
REMARK INTER + INTRA:          -7.197
REMARK INTER:                  -6.717
REMARK INTRA:                  -0.481
REMARK UNBOUND:                -0.423
REMARK SMILES O=C([O-])CCCCCCCC(=O)[O-]
REMARK SMILES IDX 7 1 6 2 5 3 4 4 2 5 1 6 3 7 8 8 9 9 10 10 11 11 12 12 13 13
REMARK H PARENT
REMARK Flexibility Score: inf
ROOT
ATOM      1  C   UNL     1     -21.090 -27.003  38.231  1.00  0.00     0.000 C 
ENDROOT
BRANCH   1   2
ATOM      2  C   UNL     1     -22.136 -28.118  38.443  1.00  0.00     0.000 C 
BRANCH   2   3
ATOM      3  C   UNL     1     -22.605 -28.204  39.906  1.00  0.00     0.006 C 
BRANCH   3   4
ATOM      4  C   UNL     1     -23.316 -29.528  40.211  1.00  0.00     0.053 C 
BRANCH   4   5
ATOM      5  C   UNL     1     -24.753 -29.495  39.786  1.00  0.00     0.041 C 
ATOM      6  O   UNL     1     -25.294 -30.522  39.299  1.00  0.00    -0.550 OA
ATOM      7  O   UNL     1     -25.503 -28.337  39.955  1.00  0.00    -0.550 OA
ENDBRANCH   4   5
ENDBRANCH   3   4
ENDBRANCH   2   3
ENDBRANCH   1   2
BRANCH   1   8
ATOM      8  C   UNL     1     -20.742 -26.234  39.518  1.00  0.00     0.000 C 
BRANCH   8   9
ATOM      9  C   UNL     1     -21.327 -24.816  39.544  1.00  0.00     0.006 C 
BRANCH   9  10
ATOM     10  C   UNL     1     -21.707 -24.405  40.970  1.00  0.00     0.053 C 
BRANCH  10  11
ATOM     11  C   UNL     1     -23.194 -24.345  41.119  1.00  0.00     0.041 C 
ATOM     12  O   UNL     1     -23.815 -23.282  40.858  1.00  0.00    -0.550 OA
ATOM     13  O   UNL     1     -23.890 -25.450  41.593  1.00  0.00    -0.550 OA
ENDBRANCH  10  11
ENDBRANCH   9  10
ENDBRANCH   8   9
ENDBRANCH   1   8
TORSDOF 8
ENDMDL
MODEL 3
REMARK VINA RESULT:    -4.600      0.899      4.624
REMARK INTER + INTRA:          -7.174
REMARK INTER:                  -6.684
REMARK INTRA:                  -0.490
REMARK UNBOUND:                -0.423
REMARK SMILES O=C([O-])CCCCCCCC(=O)[O-]
REMARK SMILES IDX 7 1 6 2 5 3 4 4 2 5 1 6 3 7 8 8 9 9 10 10 11 11 12 12 13 13
REMARK H PARENT
REMARK Flexibility Score: inf
ROOT
ATOM      1  C   UNL     1     -21.172 -27.046  38.086  1.00  0.00     0.000 C 
ENDROOT
BRANCH   1   2
ATOM      2  C   UNL     1     -20.639 -26.237  39.287  1.00  0.00     0.000 C 
BRANCH   2   3
ATOM      3  C   UNL     1     -21.209 -24.807  39.322  1.00  0.00     0.006 C 
BRANCH   3   4
ATOM      4  C   UNL     1     -21.567 -24.360  40.744  1.00  0.00     0.053 C 
BRANCH   4   5
ATOM      5  C   UNL     1     -23.050 -24.277  40.941  1.00  0.00     0.041 C 
ATOM      6  O   UNL     1     -23.667 -25.216  41.509  1.00  0.00    -0.550 OA
ATOM      7  O   UNL     1     -23.747 -23.150  40.524  1.00  0.00    -0.550 OA
ENDBRANCH   4   5
ENDBRANCH   3   4
ENDBRANCH   2   3
ENDBRANCH   1   2
BRANCH   1   8
ATOM      8  C   UNL     1     -22.138 -28.176  38.486  1.00  0.00     0.000 C 
BRANCH   8   9
ATOM      9  C   UNL     1     -22.517 -28.139  39.973  1.00  0.00     0.006 C 
BRANCH   9  10
ATOM     10  C   UNL     1     -23.132 -29.471  40.415  1.00  0.00     0.053 C 
BRANCH  10  11
ATOM     11  C   UNL     1     -24.599 -29.492  40.125  1.00  0.00     0.041 C 
ATOM     12  O   UNL     1     -25.083 -30.373  39.369  1.00  0.00    -0.550 OA
ATOM     13  O   UNL     1     -25.426 -28.507  40.651  1.00  0.00    -0.550 OA
ENDBRANCH  10  11
ENDBRANCH   9  10
ENDBRANCH   8   9
ENDBRANCH   1   8
TORSDOF 8
ENDMDL
MODEL 4
REMARK VINA RESULT:    -4.559      2.296      3.874
REMARK INTER + INTRA:          -7.114
REMARK INTER:                  -6.592
REMARK INTRA:                  -0.521
REMARK UNBOUND:                -0.423
REMARK SMILES O=C([O-])CCCCCCCC(=O)[O-]
REMARK SMILES IDX 7 1 6 2 5 3 4 4 2 5 1 6 3 7 8 8 9 9 10 10 11 11 12 12 13 13
REMARK H PARENT
REMARK Flexibility Score: inf
ROOT
ATOM      1  C   UNL     1     -22.629 -28.771  39.679  1.00  0.00     0.000 C 
ENDROOT
BRANCH   1   2
ATOM      2  C   UNL     1     -24.160 -28.812  39.868  1.00  0.00     0.000 C 
BRANCH   2   3
ATOM      3  C   UNL     1     -24.583 -28.352  41.274  1.00  0.00     0.006 C 
BRANCH   3   4
ATOM      4  C   UNL     1     -24.477 -26.831  41.445  1.00  0.00     0.053 C 
BRANCH   4   5
ATOM      5  C   UNL     1     -25.828 -26.186  41.505  1.00  0.00     0.041 C 
ATOM      6  O   UNL     1     -26.860 -26.890  41.665  1.00  0.00    -0.550 OA
ATOM      7  O   UNL     1     -25.946 -24.805  41.415  1.00  0.00    -0.550 OA
ENDBRANCH   4   5
ENDBRANCH   3   4
ENDBRANCH   2   3
ENDBRANCH   1   2
BRANCH   1   8
ATOM      8  C   UNL     1     -22.189 -28.083  38.375  1.00  0.00     0.000 C 
BRANCH   8   9
ATOM      9  C   UNL     1     -21.117 -27.007  38.599  1.00  0.00     0.006 C 
BRANCH   9  10
ATOM     10  C   UNL     1     -21.101 -26.544  40.060  1.00  0.00     0.053 C 
BRANCH  10  11
ATOM     11  C   UNL     1     -20.661 -25.118  40.151  1.00  0.00     0.041 C 
ATOM     12  O   UNL     1     -21.402 -24.259  40.698  1.00  0.00    -0.550 OA
ATOM     13  O   UNL     1     -19.454 -24.725  39.587  1.00  0.00    -0.550 OA
ENDBRANCH  10  11
ENDBRANCH   9  10
ENDBRANCH   8   9
ENDBRANCH   1   8
TORSDOF 8
ENDMDL
MODEL 5
REMARK VINA RESULT:    -4.554      2.076      4.547
REMARK INTER + INTRA:          -7.107
REMARK INTER:                  -6.665
REMARK INTRA:                  -0.442
REMARK UNBOUND:                -0.423
REMARK SMILES O=C([O-])CCCCCCCC(=O)[O-]
REMARK SMILES IDX 7 1 6 2 5 3 4 4 2 5 1 6 3 7 8 8 9 9 10 10 11 11 12 12 13 13
REMARK H PARENT
REMARK Flexibility Score: inf
ROOT
ATOM      1  C   UNL     1     -22.673 -28.681  39.672  1.00  0.00     0.000 C 
ENDROOT
BRANCH   1   2
ATOM      2  C   UNL     1     -22.114 -28.117  38.350  1.00  0.00     0.000 C 
BRANCH   2   3
ATOM      3  C   UNL     1     -21.175 -26.920  38.580  1.00  0.00     0.006 C 
BRANCH   3   4
ATOM      4  C   UNL     1     -21.090 -26.525  40.060  1.00  0.00     0.053 C 
BRANCH   4   5
ATOM      5  C   UNL     1     -21.025 -25.038  40.232  1.00  0.00     0.041 C 
ATOM      6  O   UNL     1     -20.133 -24.371  39.645  1.00  0.00    -0.550 OA
ATOM      7  O   UNL     1     -21.967 -24.385  41.019  1.00  0.00    -0.550 OA
ENDBRANCH   4   5
ENDBRANCH   3   4
ENDBRANCH   2   3
ENDBRANCH   1   2
BRANCH   1   8
ATOM      8  C   UNL     1     -23.964 -29.501  39.494  1.00  0.00     0.000 C 
BRANCH   8   9
ATOM      9  C   UNL     1     -24.987 -29.255  40.611  1.00  0.00     0.006 C 
BRANCH   9  10
ATOM     10  C   UNL     1     -25.998 -28.178  40.202  1.00  0.00     0.053 C 
BRANCH  10  11
ATOM     11  C   UNL     1     -25.913 -27.004  41.124  1.00  0.00     0.041 C 
ATOM     12  O   UNL     1     -26.889 -26.218  41.242  1.00  0.00    -0.550 OA
ATOM     13  O   UNL     1     -24.737 -26.748  41.818  1.00  0.00    -0.550 OA
ENDBRANCH  10  11
ENDBRANCH   9  10
ENDBRANCH   8   9
ENDBRANCH   1   8
TORSDOF 8
ENDMDL
MODEL 6
REMARK VINA RESULT:    -4.486      0.278      4.617
REMARK INTER + INTRA:          -7.007
REMARK INTER:                  -6.587
REMARK INTRA:                  -0.420
REMARK UNBOUND:                -0.423
REMARK SMILES O=C([O-])CCCCCCCC(=O)[O-]
REMARK SMILES IDX 7 1 6 2 5 3 4 4 2 5 1 6 3 7 8 8 9 9 10 10 11 11 12 12 13 13
REMARK H PARENT
REMARK Flexibility Score: inf
ROOT
ATOM      1  C   UNL     1     -21.061 -26.486  39.799  1.00  0.00     0.000 C 
ENDROOT
BRANCH   1   2
ATOM      2  C   UNL     1     -20.328 -25.129  39.856  1.00  0.00     0.000 C 
BRANCH   2   3
ATOM      3  C   UNL     1     -21.288 -23.962  40.144  1.00  0.00     0.006 C 
BRANCH   3   4
ATOM      4  C   UNL     1     -22.038 -24.141  41.471  1.00  0.00     0.053 C 
BRANCH   4   5
ATOM      5  C   UNL     1     -23.514 -24.284  41.257  1.00  0.00     0.041 C 
ATOM      6  O   UNL     1     -24.215 -23.274  40.985  1.00  0.00    -0.550 OA
ATOM      7  O   UNL     1     -24.111 -25.537  41.328  1.00  0.00    -0.550 OA
ENDBRANCH   4   5
ENDBRANCH   3   4
ENDBRANCH   2   3
ENDBRANCH   1   2
BRANCH   1   8
ATOM      8  C   UNL     1     -21.093 -27.109  38.393  1.00  0.00     0.000 C 
BRANCH   8   9
ATOM      9  C   UNL     1     -22.264 -28.082  38.197  1.00  0.00     0.006 C 
BRANCH   9  10
ATOM     10  C   UNL     1     -22.651 -28.749  39.520  1.00  0.00     0.053 C 
BRANCH  10  11
ATOM     11  C   UNL     1     -24.116 -29.048  39.545  1.00  0.00     0.041 C 
ATOM     12  O   UNL     1     -24.731 -29.299  38.476  1.00  0.00    -0.550 OA
ATOM     13  O   UNL     1     -24.815 -29.000  40.745  1.00  0.00    -0.550 OA
ENDBRANCH  10  11
ENDBRANCH   9  10
ENDBRANCH   8   9
ENDBRANCH   1   8
TORSDOF 8
ENDMDL
MODEL 7
REMARK VINA RESULT:    -4.455      2.943      5.760
REMARK INTER + INTRA:          -6.962
REMARK INTER:                  -6.637
REMARK INTRA:                  -0.324
REMARK UNBOUND:                -0.423
REMARK SMILES O=C([O-])CCCCCCCC(=O)[O-]
REMARK SMILES IDX 7 1 6 2 5 3 4 4 2 5 1 6 3 7 8 8 9 9 10 10 11 11 12 12 13 13
REMARK H PARENT
REMARK Flexibility Score: inf
ROOT
ATOM      1  C   UNL     1     -21.937 -28.065  38.235  1.00  0.00     0.000 C 
ENDROOT
BRANCH   1   2
ATOM      2  C   UNL     1     -20.813 -27.025  38.050  1.00  0.00     0.000 C 
BRANCH   2   3
ATOM      3  C   UNL     1     -20.997 -25.802  38.966  1.00  0.00     0.006 C 
BRANCH   3   4
ATOM      4  C   UNL     1     -19.855 -25.659  39.980  1.00  0.00     0.053 C 
BRANCH   4   5
ATOM      5  C   UNL     1     -18.616 -25.107  39.344  1.00  0.00     0.041 C 
ATOM      6  O   UNL     1     -18.489 -23.866  39.177  1.00  0.00    -0.550 OA
ATOM      7  O   UNL     1     -17.588 -25.961  38.962  1.00  0.00    -0.550 OA
ENDBRANCH   4   5
ENDBRANCH   3   4
ENDBRANCH   2   3
ENDBRANCH   1   2
BRANCH   1   8
ATOM      8  C   UNL     1     -22.540 -28.073  39.651  1.00  0.00     0.000 C 
BRANCH   8   9
ATOM      9  C   UNL     1     -23.188 -29.415  40.018  1.00  0.00     0.006 C 
BRANCH   9  10
ATOM     10  C   UNL     1     -24.716 -29.325  39.945  1.00  0.00     0.053 C 
BRANCH  10  11
ATOM     11  C   UNL     1     -25.225 -30.046  38.738  1.00  0.00     0.041 C 
ATOM     12  O   UNL     1     -24.886 -29.671  37.586  1.00  0.00    -0.550 OA
ATOM     13  O   UNL     1     -26.116 -31.102  38.884  1.00  0.00    -0.550 OA
ENDBRANCH  10  11
ENDBRANCH   9  10
ENDBRANCH   8   9
ENDBRANCH   1   8
TORSDOF 8
ENDMDL
MODEL 8
REMARK VINA RESULT:    -4.347      1.589      5.019
REMARK INTER + INTRA:          -6.803
REMARK INTER:                  -6.383
REMARK INTRA:                  -0.420
REMARK UNBOUND:                -0.423
REMARK SMILES O=C([O-])CCCCCCCC(=O)[O-]
REMARK SMILES IDX 7 1 6 2 5 3 4 4 2 5 1 6 3 7 8 8 9 9 10 10 11 11 12 12 13 13
REMARK H PARENT
REMARK Flexibility Score: inf
ROOT
ATOM      1  C   UNL     1     -21.965 -27.085  40.061  1.00  0.00     0.000 C 
ENDROOT
BRANCH   1   2
ATOM      2  C   UNL     1     -20.810 -26.270  39.442  1.00  0.00     0.000 C 
BRANCH   2   3
ATOM      3  C   UNL     1     -20.563 -24.950  40.193  1.00  0.00     0.006 C 
BRANCH   3   4
ATOM      4  C   UNL     1     -21.786 -24.508  41.008  1.00  0.00     0.053 C 
BRANCH   4   5
ATOM      5  C   UNL     1     -22.270 -23.154  40.587  1.00  0.00     0.041 C 
ATOM      6  O   UNL     1     -22.777 -22.988  39.447  1.00  0.00    -0.550 OA
ATOM      7  O   UNL     1     -22.188 -22.080  41.466  1.00  0.00    -0.550 OA
ENDBRANCH   4   5
ENDBRANCH   3   4
ENDBRANCH   2   3
ENDBRANCH   1   2
BRANCH   1   8
ATOM      8  C   UNL     1     -22.381 -28.301  39.215  1.00  0.00     0.000 C 
BRANCH   8   9
ATOM      9  C   UNL     1     -23.275 -29.285  39.982  1.00  0.00     0.006 C 
BRANCH   9  10
ATOM     10  C   UNL     1     -24.126 -28.555  41.026  1.00  0.00     0.053 C 
BRANCH  10  11
ATOM     11  C   UNL     1     -25.556 -28.503  40.593  1.00  0.00     0.041 C 
ATOM     12  O   UNL     1     -25.981 -29.299  39.715  1.00  0.00    -0.550 OA
ATOM     13  O   UNL     1     -26.409 -27.543  41.122  1.00  0.00    -0.550 OA
ENDBRANCH  10  11
ENDBRANCH   9  10
ENDBRANCH   8   9
ENDBRANCH   1   8
TORSDOF 8
ENDMDL
MODEL 9
REMARK VINA RESULT:    -4.241      1.405      4.453
REMARK INTER + INTRA:          -6.647
REMARK INTER:                  -6.128
REMARK INTRA:                  -0.519
REMARK UNBOUND:                -0.423
REMARK SMILES O=C([O-])CCCCCCCC(=O)[O-]
REMARK SMILES IDX 7 1 6 2 5 3 4 4 2 5 1 6 3 7 8 8 9 9 10 10 11 11 12 12 13 13
REMARK H PARENT
REMARK Flexibility Score: inf
ROOT
ATOM      1  C   UNL     1     -21.511 -24.550  39.714  1.00  0.00     0.000 C 
ENDROOT
BRANCH   1   2
ATOM      2  C   UNL     1     -22.112 -24.597  41.135  1.00  0.00     0.000 C 
BRANCH   2   3
ATOM      3  C   UNL     1     -23.607 -24.231  41.145  1.00  0.00     0.006 C 
BRANCH   3   4
ATOM      4  C   UNL     1     -24.491 -25.410  41.570  1.00  0.00     0.053 C 
BRANCH   4   5
ATOM      5  C   UNL     1     -25.946 -25.057  41.518  1.00  0.00     0.041 C 
ATOM      6  O   UNL     1     -26.820 -25.963  41.558  1.00  0.00    -0.550 OA
ATOM      7  O   UNL     1     -26.339 -23.725  41.456  1.00  0.00    -0.550 OA
ENDBRANCH   4   5
ENDBRANCH   3   4
ENDBRANCH   2   3
ENDBRANCH   1   2
BRANCH   1   8
ATOM      8  C   UNL     1     -20.987 -25.911  39.223  1.00  0.00     0.000 C 
BRANCH   8   9
ATOM      9  C   UNL     1     -21.562 -27.094  40.014  1.00  0.00     0.006 C 
BRANCH   9  10
ATOM     10  C   UNL     1     -22.300 -28.067  39.089  1.00  0.00     0.053 C 
BRANCH  10  11
ATOM     11  C   UNL     1     -23.281 -28.885  39.866  1.00  0.00     0.041 C 
ATOM     12  O   UNL     1     -24.176 -29.538  39.269  1.00  0.00    -0.550 OA
ATOM     13  O   UNL     1     -23.238 -28.888  41.255  1.00  0.00    -0.550 OA
ENDBRANCH  10  11
ENDBRANCH   9  10
ENDBRANCH   8   9
ENDBRANCH   1   8
TORSDOF 8
ENDMDL
