MODEL 1
REMARK VINA RESULT:    -4.638      0.000      0.000
REMARK INTER + INTRA:          -4.774
REMARK INTER:                  -4.774
REMARK INTRA:                   0.000
REMARK UNBOUND:                 0.000
REMARK SMILES O=c1ccc2ccc(O)cc2o1
REMARK SMILES IDX 6 1 7 2 8 3 10 4 11 5 5 6 4 7 3 8 2 9 1 10 12 11 9 12
REMARK H PARENT 9 13
REMARK Flexibility Score: inf
ROOT
ATOM      1  C   UNL     1       4.290  -7.147   4.897  1.00  0.00     0.016 A 
ATOM      2  C   UNL     1       5.218  -8.044   4.357  1.00  0.00     0.047 A 
ATOM      3  C   UNL     1       4.783  -9.186   3.674  1.00  0.00     0.119 A 
ATOM      4  C   UNL     1       3.409  -9.435   3.529  1.00  0.00     0.094 A 
ATOM      5  C   UNL     1       2.474  -8.544   4.067  1.00  0.00     0.142 A 
ATOM      6  C   UNL     1       2.917  -7.392   4.756  1.00  0.00     0.018 A 
ATOM      7  C   UNL     1       1.959  -6.520   5.282  1.00  0.00     0.019 A 
ATOM      8  C   UNL     1       0.605  -6.809   5.113  1.00  0.00     0.094 A 
ATOM      9  C   UNL     1       0.240  -7.968   4.420  1.00  0.00     0.336 A 
ATOM     10  O   UNL     1      -0.977  -8.246   4.258  1.00  0.00    -0.246 OA
ATOM     11  O   UNL     1       1.172  -8.782   3.930  1.00  0.00    -0.423 OA
ENDROOT
BRANCH   3  12
ATOM     12  O   UNL     1       5.721 -10.067   3.142  1.00  0.00    -0.508 OA
ATOM     13  H   UNL     1       5.441 -10.891   2.624  1.00  0.00     0.293 HD
ENDBRANCH   3  12
TORSDOF 1
ENDMDL
MODEL 2
REMARK VINA RESULT:    -4.633     18.274     19.704
REMARK INTER + INTRA:          -4.768
REMARK INTER:                  -4.768
REMARK INTRA:                   0.000
REMARK UNBOUND:                 0.000
REMARK SMILES O=c1ccc2ccc(O)cc2o1
REMARK SMILES IDX 6 1 7 2 8 3 10 4 11 5 5 6 4 7 3 8 2 9 1 10 12 11 9 12
REMARK H PARENT 9 13
REMARK Flexibility Score: inf
ROOT
ATOM      1  C   UNL     1      -5.159   8.427  -4.707  1.00  0.00     0.016 A 
ATOM      2  C   UNL     1      -4.150   7.459  -4.669  1.00  0.00     0.047 A 
ATOM      3  C   UNL     1      -4.347   6.259  -3.975  1.00  0.00     0.119 A 
ATOM      4  C   UNL     1      -5.562   6.024  -3.314  1.00  0.00     0.094 A 
ATOM      5  C   UNL     1      -6.577   6.987  -3.346  1.00  0.00     0.142 A 
ATOM      6  C   UNL     1      -6.374   8.197  -4.047  1.00  0.00     0.018 A 
ATOM      7  C   UNL     1      -7.407   9.139  -4.061  1.00  0.00     0.019 A 
ATOM      8  C   UNL     1      -8.597   8.861  -3.389  1.00  0.00     0.094 A 
ATOM      9  C   UNL     1      -8.727   7.642  -2.716  1.00  0.00     0.336 A 
ATOM     10  O   UNL     1      -9.793   7.373  -2.103  1.00  0.00    -0.246 OA
ATOM     11  O   UNL     1      -7.729   6.762  -2.717  1.00  0.00    -0.423 OA
ENDROOT
BRANCH   3  12
ATOM     12  O   UNL     1      -3.332   5.307  -3.948  1.00  0.00    -0.508 OA
ATOM     13  H   UNL     1      -2.858   5.060  -3.087  1.00  0.00     0.293 HD
ENDBRANCH   3  12
TORSDOF 1
ENDMDL
MODEL 3
REMARK VINA RESULT:    -4.622      1.453      2.217
REMARK INTER + INTRA:          -4.757
REMARK INTER:                  -4.757
REMARK INTRA:                   0.000
REMARK UNBOUND:                 0.000
REMARK SMILES O=c1ccc2ccc(O)cc2o1
REMARK SMILES IDX 6 1 7 2 8 3 10 4 11 5 5 6 4 7 3 8 2 9 1 10 12 11 9 12
REMARK H PARENT 9 13
REMARK Flexibility Score: inf
ROOT
ATOM      1  C   UNL     1       3.559  -9.528   3.432  1.00  0.00     0.016 A 
ATOM      2  C   UNL     1       4.930  -9.257   3.485  1.00  0.00     0.047 A 
ATOM      3  C   UNL     1       5.399  -8.101   4.120  1.00  0.00     0.119 A 
ATOM      4  C   UNL     1       4.491  -7.207   4.706  1.00  0.00     0.094 A 
ATOM      5  C   UNL     1       3.117  -7.469   4.657  1.00  0.00     0.142 A 
ATOM      6  C   UNL     1       2.648  -8.637   4.015  1.00  0.00     0.018 A 
ATOM      7  C   UNL     1       1.270  -8.871   3.983  1.00  0.00     0.019 A 
ATOM      8  C   UNL     1       0.406  -7.954   4.579  1.00  0.00     0.094 A 
ATOM      9  C   UNL     1       0.941  -6.818   5.197  1.00  0.00     0.336 A 
ATOM     10  O   UNL     1       0.177  -5.979   5.740  1.00  0.00    -0.246 OA
ATOM     11  O   UNL     1       2.257  -6.619   5.213  1.00  0.00    -0.423 OA
ENDROOT
BRANCH   3  12
ATOM     12  O   UNL     1       6.768  -7.849   4.163  1.00  0.00    -0.508 OA
ATOM     13  H   UNL     1       7.172  -7.228   4.855  1.00  0.00     0.293 HD
ENDBRANCH   3  12
TORSDOF 1
ENDMDL
MODEL 4
REMARK VINA RESULT:    -4.611      0.849      4.229
REMARK INTER + INTRA:          -4.746
REMARK INTER:                  -4.746
REMARK INTRA:                   0.000
REMARK UNBOUND:                 0.000
REMARK SMILES O=c1ccc2ccc(O)cc2o1
REMARK SMILES IDX 6 1 7 2 8 3 10 4 11 5 5 6 4 7 3 8 2 9 1 10 12 11 9 12
REMARK H PARENT 9 13
REMARK Flexibility Score: inf
ROOT
ATOM      1  C   UNL     1       1.773  -6.715   5.193  1.00  0.00     0.016 A 
ATOM      2  C   UNL     1       0.430  -7.079   5.058  1.00  0.00     0.047 A 
ATOM      3  C   UNL     1       0.082  -8.274   4.415  1.00  0.00     0.119 A 
ATOM      4  C   UNL     1       1.085  -9.111   3.903  1.00  0.00     0.094 A 
ATOM      5  C   UNL     1       2.431  -8.755   4.033  1.00  0.00     0.142 A 
ATOM      6  C   UNL     1       2.778  -7.548   4.682  1.00  0.00     0.018 A 
ATOM      7  C   UNL     1       4.133  -7.219   4.797  1.00  0.00     0.019 A 
ATOM      8  C   UNL     1       5.093  -8.083   4.272  1.00  0.00     0.094 A 
ATOM      9  C   UNL     1       4.677  -9.260   3.642  1.00  0.00     0.336 A 
ATOM     10  O   UNL     1       5.529 -10.052   3.162  1.00  0.00    -0.246 OA
ATOM     11  O   UNL     1       3.381  -9.550   3.546  1.00  0.00    -0.423 OA
ENDROOT
BRANCH   3  12
ATOM     12  O   UNL     1      -1.261  -8.620   4.291  1.00  0.00    -0.508 OA
ATOM     13  H   UNL     1      -1.988  -8.105   4.773  1.00  0.00     0.293 HD
ENDBRANCH   3  12
TORSDOF 1
ENDMDL
MODEL 5
REMARK VINA RESULT:    -4.586      1.620      4.767
REMARK INTER + INTRA:          -4.720
REMARK INTER:                  -4.720
REMARK INTRA:                   0.000
REMARK UNBOUND:                 0.000
REMARK SMILES O=c1ccc2ccc(O)cc2o1
REMARK SMILES IDX 6 1 7 2 8 3 10 4 11 5 5 6 4 7 3 8 2 9 1 10 12 11 9 12
REMARK H PARENT 9 13
REMARK Flexibility Score: inf
ROOT
ATOM      1  C   UNL     1       1.291  -8.937   3.969  1.00  0.00     0.016 A 
ATOM      2  C   UNL     1       0.327  -8.077   4.506  1.00  0.00     0.047 A 
ATOM      3  C   UNL     1       0.711  -6.874   5.111  1.00  0.00     0.119 A 
ATOM      4  C   UNL     1       2.069  -6.528   5.181  1.00  0.00     0.094 A 
ATOM      5  C   UNL     1       3.040  -7.382   4.648  1.00  0.00     0.142 A 
ATOM      6  C   UNL     1       2.649  -8.596   4.038  1.00  0.00     0.018 A 
ATOM      7  C   UNL     1       3.642  -9.429   3.514  1.00  0.00     0.019 A 
ATOM      8  C   UNL     1       4.978  -9.042   3.608  1.00  0.00     0.094 A 
ATOM      9  C   UNL     1       5.292  -7.827   4.225  1.00  0.00     0.336 A 
ATOM     10  O   UNL     1       6.493  -7.461   4.319  1.00  0.00    -0.246 OA
ATOM     11  O   UNL     1       4.328  -7.052   4.716  1.00  0.00    -0.423 OA
ENDROOT
BRANCH   3  12
ATOM     12  O   UNL     1      -0.263  -6.030   5.638  1.00  0.00    -0.508 OA
ATOM     13  H   UNL     1      -0.856  -5.466   5.041  1.00  0.00     0.293 HD
ENDBRANCH   3  12
TORSDOF 1
ENDMDL
MODEL 6
REMARK VINA RESULT:    -4.462     11.775     12.569
REMARK INTER + INTRA:          -4.593
REMARK INTER:                  -4.593
REMARK INTRA:                   0.000
REMARK UNBOUND:                 0.000
REMARK SMILES O=c1ccc2ccc(O)cc2o1
REMARK SMILES IDX 6 1 7 2 8 3 10 4 11 5 5 6 4 7 3 8 2 9 1 10 12 11 9 12
REMARK H PARENT 9 13
REMARK Flexibility Score: inf
ROOT
ATOM      1  C   UNL     1       7.302   5.341   5.872  1.00  0.00     0.016 A 
ATOM      2  C   UNL     1       8.402   4.516   6.121  1.00  0.00     0.047 A 
ATOM      3  C   UNL     1       8.284   3.125   6.006  1.00  0.00     0.119 A 
ATOM      4  C   UNL     1       7.056   2.555   5.639  1.00  0.00     0.094 A 
ATOM      5  C   UNL     1       5.949   3.373   5.389  1.00  0.00     0.142 A 
ATOM      6  C   UNL     1       6.072   4.776   5.506  1.00  0.00     0.018 A 
ATOM      7  C   UNL     1       4.948   5.567   5.249  1.00  0.00     0.019 A 
ATOM      8  C   UNL     1       3.749   4.956   4.887  1.00  0.00     0.094 A 
ATOM      9  C   UNL     1       3.700   3.561   4.791  1.00  0.00     0.336 A 
ATOM     10  O   UNL     1       2.626   2.990   4.466  1.00  0.00    -0.246 OA
ATOM     11  O   UNL     1       4.784   2.830   5.042  1.00  0.00    -0.423 OA
ENDROOT
BRANCH   3  12
ATOM     12  O   UNL     1       9.391   2.319   6.258  1.00  0.00    -0.508 OA
ATOM     13  H   UNL     1       9.326   1.308   6.241  1.00  0.00     0.293 HD
ENDBRANCH   3  12
TORSDOF 1
ENDMDL
MODEL 7
REMARK VINA RESULT:    -4.446      2.107      4.326
REMARK INTER + INTRA:          -4.576
REMARK INTER:                  -4.576
REMARK INTRA:                   0.000
REMARK UNBOUND:                 0.000
REMARK SMILES O=c1ccc2ccc(O)cc2o1
REMARK SMILES IDX 6 1 7 2 8 3 10 4 11 5 5 6 4 7 3 8 2 9 1 10 12 11 9 12
REMARK H PARENT 9 13
REMARK Flexibility Score: inf
ROOT
ATOM      1  C   UNL     1       3.279  -9.687   3.481  1.00  0.00     0.016 A 
ATOM      2  C   UNL     1       1.889  -9.824   3.548  1.00  0.00     0.047 A 
ATOM      3  C   UNL     1       1.107  -8.826   4.143  1.00  0.00     0.119 A 
ATOM      4  C   UNL     1       1.720  -7.682   4.677  1.00  0.00     0.094 A 
ATOM      5  C   UNL     1       3.110  -7.537   4.615  1.00  0.00     0.142 A 
ATOM      6  C   UNL     1       3.895  -8.546   4.014  1.00  0.00     0.018 A 
ATOM      7  C   UNL     1       5.282  -8.372   3.968  1.00  0.00     0.019 A 
ATOM      8  C   UNL     1       5.845  -7.218   4.511  1.00  0.00     0.094 A 
ATOM      9  C   UNL     1       5.006  -6.261   5.091  1.00  0.00     0.336 A 
ATOM     10  O   UNL     1       5.496  -5.213   5.587  1.00  0.00    -0.246 OA
ATOM     11  O   UNL     1       3.689  -6.451   5.123  1.00  0.00    -0.423 OA
ENDROOT
BRANCH   3  12
ATOM     12  O   UNL     1      -0.276  -8.980   4.199  1.00  0.00    -0.508 OA
ATOM     13  H   UNL     1      -0.703  -9.887   4.345  1.00  0.00     0.293 HD
ENDBRANCH   3  12
TORSDOF 1
ENDMDL
MODEL 8
REMARK VINA RESULT:    -4.328     13.849     15.031
REMARK INTER + INTRA:          -4.454
REMARK INTER:                  -4.454
REMARK INTRA:                   0.000
REMARK UNBOUND:                 0.000
REMARK SMILES O=c1ccc2ccc(O)cc2o1
REMARK SMILES IDX 6 1 7 2 8 3 10 4 11 5 5 6 4 7 3 8 2 9 1 10 12 11 9 12
REMARK H PARENT 9 13
REMARK Flexibility Score: inf
ROOT
ATOM      1  C   UNL     1       6.446   7.010   6.430  1.00  0.00     0.016 A 
ATOM      2  C   UNL     1       5.899   8.217   6.880  1.00  0.00     0.047 A 
ATOM      3  C   UNL     1       4.521   8.445   6.793  1.00  0.00     0.119 A 
ATOM      4  C   UNL     1       3.681   7.460   6.252  1.00  0.00     0.094 A 
ATOM      5  C   UNL     1       4.218   6.251   5.799  1.00  0.00     0.142 A 
ATOM      6  C   UNL     1       5.610   6.024   5.888  1.00  0.00     0.018 A 
ATOM      7  C   UNL     1       6.118   4.805   5.427  1.00  0.00     0.019 A 
ATOM      8  C   UNL     1       5.244   3.857   4.897  1.00  0.00     0.094 A 
ATOM      9  C   UNL     1       3.877   4.149   4.840  1.00  0.00     0.336 A 
ATOM     10  O   UNL     1       3.073   3.306   4.365  1.00  0.00    -0.246 OA
ATOM     11  O   UNL     1       3.420   5.317   5.285  1.00  0.00    -0.423 OA
ENDROOT
BRANCH   3  12
ATOM     12  O   UNL     1       3.995   9.652   7.247  1.00  0.00    -0.508 OA
ATOM     13  H   UNL     1       4.589  10.378   7.629  1.00  0.00     0.293 HD
ENDBRANCH   3  12
TORSDOF 1
ENDMDL
MODEL 9
REMARK VINA RESULT:    -4.263     13.604     14.706
REMARK INTER + INTRA:          -4.388
REMARK INTER:                  -4.388
REMARK INTRA:                   0.000
REMARK UNBOUND:                 0.000
REMARK SMILES O=c1ccc2ccc(O)cc2o1
REMARK SMILES IDX 6 1 7 2 8 3 10 4 11 5 5 6 4 7 3 8 2 9 1 10 12 11 9 12
REMARK H PARENT 9 13
REMARK Flexibility Score: inf
ROOT
ATOM      1  C   UNL     1       3.868   7.292   6.201  1.00  0.00     0.016 A 
ATOM      2  C   UNL     1       4.828   8.264   6.498  1.00  0.00     0.047 A 
ATOM      3  C   UNL     1       6.188   7.931   6.526  1.00  0.00     0.119 A 
ATOM      4  C   UNL     1       6.591   6.615   6.255  1.00  0.00     0.094 A 
ATOM      5  C   UNL     1       5.638   5.635   5.958  1.00  0.00     0.142 A 
ATOM      6  C   UNL     1       4.267   5.975   5.931  1.00  0.00     0.018 A 
ATOM      7  C   UNL     1       3.338   4.975   5.630  1.00  0.00     0.019 A 
ATOM      8  C   UNL     1       3.787   3.681   5.368  1.00  0.00     0.094 A 
ATOM      9  C   UNL     1       5.160   3.416   5.413  1.00  0.00     0.336 A 
ATOM     10  O   UNL     1       5.584   2.254   5.179  1.00  0.00    -0.246 OA
ATOM     11  O   UNL     1       6.023   4.387   5.702  1.00  0.00    -0.423 OA
ENDROOT
BRANCH   3  12
ATOM     12  O   UNL     1       7.129   8.913   6.823  1.00  0.00    -0.508 OA
ATOM     13  H   UNL     1       7.331   9.182   7.779  1.00  0.00     0.293 HD
ENDBRANCH   3  12
TORSDOF 1
ENDMDL
