MODEL 1
REMARK VINA RESULT:    -3.351      0.000      0.000
REMARK INTER + INTRA:          -3.890
REMARK INTER:                  -3.841
REMARK INTRA:                  -0.049
REMARK UNBOUND:                -0.049
REMARK SMILES O=C([O-])c1cc(O)c(O)c(O)c1
REMARK SMILES IDX 4 1 5 2 12 3 6 4 10 5 8 6 2 7 1 8 3 9 7 10 11 12 9 14
REMARK H PARENT 7 11 11 13 9 15
REMARK Flexibility Score: inf
ROOT
ATOM      1  C   UNL     1      -9.315 -19.725  -2.522  1.00  0.00     0.005 A 
ATOM      2  C   UNL     1      -8.808 -19.447  -1.243  1.00  0.00     0.060 A 
ATOM      3  C   UNL     1      -9.374 -18.693  -3.470  1.00  0.00     0.060 A 
ATOM      4  C   UNL     1      -8.366 -18.162  -0.907  1.00  0.00     0.162 A 
ATOM      5  C   UNL     1      -8.937 -17.404  -3.150  1.00  0.00     0.162 A 
ATOM      6  C   UNL     1      -8.430 -17.125  -1.868  1.00  0.00     0.200 A 
ENDROOT
BRANCH   1   7
ATOM      7  C   UNL     1      -9.779 -21.089  -2.862  1.00  0.00     0.072 C 
ATOM      8  O   UNL     1      -9.564 -21.574  -4.005  1.00  0.00    -0.545 OA
ATOM      9  O   UNL     1     -10.460 -21.857  -1.923  1.00  0.00    -0.545 OA
ENDBRANCH   1   7
BRANCH   4  10
ATOM     10  O   UNL     1      -7.875 -17.964   0.386  1.00  0.00    -0.504 OA
ATOM     11  H   UNL     1      -8.255 -17.295   1.041  1.00  0.00     0.293 HD
ENDBRANCH   4  10
BRANCH   5  12
ATOM     12  O   UNL     1      -9.015 -16.410  -4.125  1.00  0.00    -0.504 OA
ATOM     13  H   UNL     1      -8.912 -16.610  -5.113  1.00  0.00     0.293 HD
ENDBRANCH   5  12
BRANCH   6  14
ATOM     14  O   UNL     1      -8.003 -15.824  -1.590  1.00  0.00    -0.502 OA
ATOM     15  H   UNL     1      -7.920 -15.093  -2.281  1.00  0.00     0.293 HD
ENDBRANCH   6  14
TORSDOF 4
ENDMDL
MODEL 2
REMARK VINA RESULT:    -3.349      0.932      2.596
REMARK INTER + INTRA:          -3.887
REMARK INTER:                  -3.839
REMARK INTRA:                  -0.048
REMARK UNBOUND:                -0.049
REMARK SMILES O=C([O-])c1cc(O)c(O)c(O)c1
REMARK SMILES IDX 4 1 5 2 12 3 6 4 10 5 8 6 2 7 1 8 3 9 7 10 11 12 9 14
REMARK H PARENT 7 11 11 13 9 15
REMARK Flexibility Score: inf
ROOT
ATOM      1  C   UNL     1      -9.059 -20.480  -2.071  1.00  0.00     0.005 A 
ATOM      2  C   UNL     1      -9.454 -19.645  -3.127  1.00  0.00     0.060 A 
ATOM      3  C   UNL     1      -8.534 -19.903  -0.906  1.00  0.00     0.060 A 
ATOM      4  C   UNL     1      -9.330 -18.254  -3.031  1.00  0.00     0.162 A 
ATOM      5  C   UNL     1      -8.402 -18.515  -0.793  1.00  0.00     0.162 A 
ATOM      6  C   UNL     1      -8.798 -17.678  -1.852  1.00  0.00     0.200 A 
ENDROOT
BRANCH   1   7
ATOM      7  C   UNL     1      -9.196 -21.949  -2.189  1.00  0.00     0.072 C 
ATOM      8  O   UNL     1      -8.842 -22.545  -3.241  1.00  0.00    -0.545 OA
ATOM      9  O   UNL     1      -9.719 -22.695  -1.137  1.00  0.00    -0.545 OA
ENDBRANCH   1   7
BRANCH   4  10
ATOM     10  O   UNL     1      -9.744 -17.489  -4.125  1.00  0.00    -0.504 OA
ATOM     11  H   UNL     1      -9.275 -16.654  -4.443  1.00  0.00     0.293 HD
ENDBRANCH   4  10
BRANCH   5  12
ATOM     12  O   UNL     1      -7.875 -17.986   0.384  1.00  0.00    -0.504 OA
ATOM     13  H   UNL     1      -8.272 -17.171   0.837  1.00  0.00     0.293 HD
ENDBRANCH   5  12
BRANCH   6  14
ATOM     14  O   UNL     1      -8.651 -16.297  -1.699  1.00  0.00    -0.502 OA
ATOM     15  H   UNL     1      -7.781 -15.840  -1.464  1.00  0.00     0.293 HD
ENDBRANCH   6  14
TORSDOF 4
ENDMDL
MODEL 3
REMARK VINA RESULT:    -3.118     23.335     24.225
REMARK INTER + INTRA:          -3.623
REMARK INTER:                  -3.571
REMARK INTRA:                  -0.052
REMARK UNBOUND:                -0.049
REMARK SMILES O=C([O-])c1cc(O)c(O)c(O)c1
REMARK SMILES IDX 4 1 5 2 12 3 6 4 10 5 8 6 2 7 1 8 3 9 7 10 11 12 9 14
REMARK H PARENT 7 11 11 13 9 15
REMARK Flexibility Score: inf
ROOT
ATOM      1  C   UNL     1     -27.165 -17.354  12.423  1.00  0.00     0.005 A 
ATOM      2  C   UNL     1     -27.667 -18.659  12.540  1.00  0.00     0.060 A 
ATOM      3  C   UNL     1     -26.590 -16.743  13.546  1.00  0.00     0.060 A 
ATOM      4  C   UNL     1     -27.602 -19.350  13.756  1.00  0.00     0.162 A 
ATOM      5  C   UNL     1     -26.516 -17.418  14.769  1.00  0.00     0.162 A 
ATOM      6  C   UNL     1     -27.021 -18.726  14.886  1.00  0.00     0.200 A 
ENDROOT
BRANCH   1   7
ATOM      7  C   UNL     1     -27.242 -16.637  11.131  1.00  0.00     0.072 C 
ATOM      8  O   UNL     1     -26.511 -15.636  10.908  1.00  0.00    -0.545 OA
ATOM      9  O   UNL     1     -28.124 -17.060  10.141  1.00  0.00    -0.545 OA
ENDBRANCH   1   7
BRANCH   4  10
ATOM     10  O   UNL     1     -28.124 -20.646  13.794  1.00  0.00    -0.504 OA
ATOM     11  H   UNL     1     -29.035 -20.900  13.441  1.00  0.00     0.293 HD
ENDBRANCH   4  10
BRANCH   5  12
ATOM     12  O   UNL     1     -25.936 -16.770  15.858  1.00  0.00    -0.504 OA
ATOM     13  H   UNL     1     -24.948 -16.847  16.071  1.00  0.00     0.293 HD
ENDBRANCH   5  12
BRANCH   6  14
ATOM     14  O   UNL     1     -26.927 -19.366  16.125  1.00  0.00    -0.502 OA
ATOM     15  H   UNL     1     -27.608 -19.275  16.864  1.00  0.00     0.293 HD
ENDBRANCH   6  14
TORSDOF 4
ENDMDL
MODEL 4
REMARK VINA RESULT:    -2.794     13.042     15.021
REMARK INTER + INTRA:          -3.252
REMARK INTER:                  -3.200
REMARK INTRA:                  -0.052
REMARK UNBOUND:                -0.049
REMARK SMILES O=C([O-])c1cc(O)c(O)c(O)c1
REMARK SMILES IDX 4 1 5 2 12 3 6 4 10 5 8 6 2 7 1 8 3 9 7 10 11 12 9 14
REMARK H PARENT 7 11 11 13 9 15
REMARK Flexibility Score: inf
ROOT
ATOM      1  C   UNL     1      -9.599 -18.480  11.331  1.00  0.00     0.005 A 
ATOM      2  C   UNL     1      -9.615 -19.843  11.665  1.00  0.00     0.060 A 
ATOM      3  C   UNL     1      -9.724 -17.527  12.352  1.00  0.00     0.060 A 
ATOM      4  C   UNL     1      -9.755 -20.257  12.996  1.00  0.00     0.162 A 
ATOM      5  C   UNL     1      -9.864 -17.923  13.686  1.00  0.00     0.162 A 
ATOM      6  C   UNL     1      -9.881 -19.289  14.021  1.00  0.00     0.200 A 
ENDROOT
BRANCH   1   7
ATOM      7  C   UNL     1      -9.451 -18.059   9.919  1.00  0.00     0.072 C 
ATOM      8  O   UNL     1      -9.115 -18.890   9.034  1.00  0.00    -0.545 OA
ATOM      9  O   UNL     1      -9.683 -16.738   9.550  1.00  0.00    -0.545 OA
ENDBRANCH   1   7
BRANCH   4  10
ATOM     10  O   UNL     1      -9.763 -21.631  13.249  1.00  0.00    -0.504 OA
ATOM     11  H   UNL     1     -10.464 -22.268  12.900  1.00  0.00     0.293 HD
ENDBRANCH   4  10
BRANCH   5  12
ATOM     12  O   UNL     1      -9.985 -16.939  14.666  1.00  0.00    -0.504 OA
ATOM     13  H   UNL     1     -10.312 -16.003  14.457  1.00  0.00     0.293 HD
ENDBRANCH   5  12
BRANCH   6  14
ATOM     14  O   UNL     1     -10.023 -19.642  15.365  1.00  0.00    -0.502 OA
ATOM     15  H   UNL     1     -10.818 -19.398  15.937  1.00  0.00     0.293 HD
ENDBRANCH   6  14
TORSDOF 4
ENDMDL
MODEL 5
REMARK VINA RESULT:    -2.785     13.047     15.036
REMARK INTER + INTRA:          -3.241
REMARK INTER:                  -3.189
REMARK INTRA:                  -0.052
REMARK UNBOUND:                -0.049
REMARK SMILES O=C([O-])c1cc(O)c(O)c(O)c1
REMARK SMILES IDX 4 1 5 2 12 3 6 4 10 5 8 6 2 7 1 8 3 9 7 10 11 12 9 14
REMARK H PARENT 7 11 11 13 9 15
REMARK Flexibility Score: inf
ROOT
ATOM      1  C   UNL     1      -9.594 -18.520  11.335  1.00  0.00     0.005 A 
ATOM      2  C   UNL     1      -9.708 -17.568  12.360  1.00  0.00     0.060 A 
ATOM      3  C   UNL     1      -9.620 -19.883  11.666  1.00  0.00     0.060 A 
ATOM      4  C   UNL     1      -9.848 -17.961  13.697  1.00  0.00     0.162 A 
ATOM      5  C   UNL     1      -9.758 -20.293  12.996  1.00  0.00     0.162 A 
ATOM      6  C   UNL     1      -9.872 -19.338  14.023  1.00  0.00     0.200 A 
ENDROOT
BRANCH   1   7
ATOM      7  C   UNL     1      -9.447 -18.089   9.927  1.00  0.00     0.072 C 
ATOM      8  O   UNL     1      -9.106 -18.911   9.036  1.00  0.00    -0.545 OA
ATOM      9  O   UNL     1      -9.686 -16.766   9.566  1.00  0.00    -0.545 OA
ENDBRANCH   1   7
BRANCH   4  10
ATOM     10  O   UNL     1      -9.955 -16.954  14.659  1.00  0.00    -0.504 OA
ATOM     11  H   UNL     1     -10.277 -17.106  15.604  1.00  0.00     0.293 HD
ENDBRANCH   4  10
BRANCH   5  12
ATOM     12  O   UNL     1      -9.780 -21.658  13.277  1.00  0.00    -0.504 OA
ATOM     13  H   UNL     1      -9.092 -22.300  12.899  1.00  0.00     0.293 HD
ENDBRANCH   5  12
BRANCH   6  14
ATOM     14  O   UNL     1     -10.009 -19.790  15.338  1.00  0.00    -0.502 OA
ATOM     15  H   UNL     1     -10.342 -19.221  16.103  1.00  0.00     0.293 HD
ENDBRANCH   6  14
TORSDOF 4
ENDMDL
MODEL 6
REMARK VINA RESULT:    -2.724     12.592     14.627
REMARK INTER + INTRA:          -3.172
REMARK INTER:                  -3.121
REMARK INTRA:                  -0.050
REMARK UNBOUND:                -0.049
REMARK SMILES O=C([O-])c1cc(O)c(O)c(O)c1
REMARK SMILES IDX 4 1 5 2 12 3 6 4 10 5 8 6 2 7 1 8 3 9 7 10 11 12 9 14
REMARK H PARENT 7 11 11 13 9 15
REMARK Flexibility Score: inf
ROOT
ATOM      1  C   UNL     1      -9.754 -18.070  12.846  1.00  0.00     0.005 A 
ATOM      2  C   UNL     1      -9.178 -19.334  12.647  1.00  0.00     0.060 A 
ATOM      3  C   UNL     1      -9.927 -17.220  11.744  1.00  0.00     0.060 A 
ATOM      4  C   UNL     1      -8.778 -19.752  11.372  1.00  0.00     0.162 A 
ATOM      5  C   UNL     1      -9.533 -17.620  10.463  1.00  0.00     0.162 A 
ATOM      6  C   UNL     1      -8.956 -18.887  10.264  1.00  0.00     0.200 A 
ENDROOT
BRANCH   1   7
ATOM      7  C   UNL     1     -10.171 -17.644  14.200  1.00  0.00     0.072 C 
ATOM      8  O   UNL     1      -9.549 -18.045  15.220  1.00  0.00    -0.545 OA
ATOM      9  O   UNL     1     -11.258 -16.792  14.368  1.00  0.00    -0.545 OA
ENDBRANCH   1   7
BRANCH   4  10
ATOM     10  O   UNL     1      -8.213 -21.024  11.254  1.00  0.00    -0.504 OA
ATOM     11  H   UNL     1      -8.679 -21.879  11.519  1.00  0.00     0.293 HD
ENDBRANCH   4  10
BRANCH   5  12
ATOM     12  O   UNL     1      -9.725 -16.742   9.398  1.00  0.00    -0.504 OA
ATOM     13  H   UNL     1     -10.568 -16.188   9.298  1.00  0.00     0.293 HD
ENDBRANCH   5  12
BRANCH   6  14
ATOM     14  O   UNL     1      -8.576 -19.249   8.969  1.00  0.00    -0.502 OA
ATOM     15  H   UNL     1      -7.660 -19.592   8.720  1.00  0.00     0.293 HD
ENDBRANCH   6  14
TORSDOF 4
ENDMDL
MODEL 7
REMARK VINA RESULT:    -2.695     12.580     14.762
REMARK INTER + INTRA:          -3.139
REMARK INTER:                  -3.089
REMARK INTRA:                  -0.050
REMARK UNBOUND:                -0.049
REMARK SMILES O=C([O-])c1cc(O)c(O)c(O)c1
REMARK SMILES IDX 4 1 5 2 12 3 6 4 10 5 8 6 2 7 1 8 3 9 7 10 11 12 9 14
REMARK H PARENT 7 11 11 13 9 15
REMARK Flexibility Score: inf
ROOT
ATOM      1  C   UNL     1      -9.744 -18.029  12.833  1.00  0.00     0.005 A 
ATOM      2  C   UNL     1      -9.911 -17.186  11.723  1.00  0.00     0.060 A 
ATOM      3  C   UNL     1      -9.176 -19.298  12.645  1.00  0.00     0.060 A 
ATOM      4  C   UNL     1      -9.520 -17.594  10.442  1.00  0.00     0.162 A 
ATOM      5  C   UNL     1      -8.781 -19.722  11.372  1.00  0.00     0.162 A 
ATOM      6  C   UNL     1      -8.948 -18.877  10.260  1.00  0.00     0.200 A 
ENDROOT
BRANCH   1   7
ATOM      7  C   UNL     1     -10.162 -17.582  14.180  1.00  0.00     0.072 C 
ATOM      8  O   UNL     1      -9.526 -17.948  15.204  1.00  0.00    -0.545 OA
ATOM      9  O   UNL     1     -11.266 -16.750  14.336  1.00  0.00    -0.545 OA
ENDBRANCH   1   7
BRANCH   4  10
ATOM     10  O   UNL     1      -9.719 -16.699   9.388  1.00  0.00    -0.504 OA
ATOM     11  H   UNL     1      -8.975 -16.299   8.836  1.00  0.00     0.293 HD
ENDBRANCH   4  10
BRANCH   5  12
ATOM     12  O   UNL     1      -8.221 -20.991  11.233  1.00  0.00    -0.504 OA
ATOM     13  H   UNL     1      -8.535 -21.648  10.528  1.00  0.00     0.293 HD
ENDBRANCH   5  12
BRANCH   6  14
ATOM     14  O   UNL     1      -8.540 -19.338   9.006  1.00  0.00    -0.502 OA
ATOM     15  H   UNL     1      -7.946 -20.142   8.862  1.00  0.00     0.293 HD
ENDBRANCH   6  14
TORSDOF 4
ENDMDL
MODEL 8
REMARK VINA RESULT:    -2.634     17.637     18.026
REMARK INTER + INTRA:          -3.068
REMARK INTER:                  -3.016
REMARK INTRA:                  -0.052
REMARK UNBOUND:                -0.049
REMARK SMILES O=C([O-])c1cc(O)c(O)c(O)c1
REMARK SMILES IDX 4 1 5 2 12 3 6 4 10 5 8 6 2 7 1 8 3 9 7 10 11 12 9 14
REMARK H PARENT 7 11 11 13 9 15
REMARK Flexibility Score: inf
ROOT
ATOM      1  C   UNL     1     -11.340 -19.580  15.641  1.00  0.00     0.005 A 
ATOM      2  C   UNL     1     -12.017 -18.354  15.702  1.00  0.00     0.060 A 
ATOM      3  C   UNL     1      -9.954 -19.583  15.425  1.00  0.00     0.060 A 
ATOM      4  C   UNL     1     -11.331 -17.142  15.550  1.00  0.00     0.162 A 
ATOM      5  C   UNL     1      -9.253 -18.382  15.271  1.00  0.00     0.162 A 
ATOM      6  C   UNL     1      -9.933 -17.153  15.332  1.00  0.00     0.200 A 
ENDROOT
BRANCH   1   7
ATOM      7  C   UNL     1     -12.080 -20.852  15.803  1.00  0.00     0.072 C 
ATOM      8  O   UNL     1     -11.476 -21.910  16.125  1.00  0.00    -0.545 OA
ATOM      9  O   UNL     1     -13.455 -20.898  15.602  1.00  0.00    -0.545 OA
ENDBRANCH   1   7
BRANCH   4  10
ATOM     10  O   UNL     1     -12.076 -15.963  15.623  1.00  0.00    -0.504 OA
ATOM     11  H   UNL     1     -11.808 -15.095  15.182  1.00  0.00     0.293 HD
ENDBRANCH   4  10
BRANCH   5  12
ATOM     12  O   UNL     1      -7.876 -18.434  15.059  1.00  0.00    -0.504 OA
ATOM     13  H   UNL     1      -7.421 -17.908  14.321  1.00  0.00     0.293 HD
ENDBRANCH   5  12
BRANCH   6  14
ATOM     14  O   UNL     1      -9.195 -15.976  15.174  1.00  0.00    -0.502 OA
ATOM     15  H   UNL     1      -8.323 -15.916  14.668  1.00  0.00     0.293 HD
ENDBRANCH   6  14
TORSDOF 4
ENDMDL
