MODEL 1
REMARK VINA RESULT:    -3.480      0.000      0.000
REMARK INTER + INTRA:          -4.040
REMARK INTER:                  -3.988
REMARK INTRA:                  -0.052
REMARK UNBOUND:                -0.052
REMARK SMILES CC(C)[C@H]([NH3+])C(=O)[O-]
REMARK SMILES IDX 4 1 5 2 6 6 7 7 8 8 2 9 1 10 3 11
REMARK H PARENT 5 3 5 4 5 5
REMARK Flexibility Score: inf
ROOT
ATOM      1  C   UNL     1     136.030 122.088 122.213  1.00  0.00     0.230 C 
ENDROOT
BRANCH   1   2
ATOM      2  N   UNL     1     135.263 121.227 121.298  1.00  0.00    -0.350 N 
ATOM      3  H   UNL     1     135.733 120.304 121.158  1.00  0.00     0.345 HD
ATOM      4  H   UNL     1     135.177 121.698 120.368  1.00  0.00     0.345 HD
ATOM      5  H   UNL     1     134.297 121.074 121.665  1.00  0.00     0.345 HD
ENDBRANCH   1   2
BRANCH   1   6
ATOM      6  C   UNL     1     135.736 123.546 121.956  1.00  0.00     0.099 C 
ATOM      7  O   UNL     1     134.760 123.893 121.239  1.00  0.00    -0.544 OA
ATOM      8  O   UNL     1     136.581 124.520 122.476  1.00  0.00    -0.544 OA
ENDBRANCH   1   6
BRANCH   1   9
ATOM      9  C   UNL     1     137.564 121.814 122.169  1.00  0.00     0.047 C 
ATOM     10  C   UNL     1     138.006 120.974 120.959  1.00  0.00     0.014 C 
ATOM     11  C   UNL     1     138.068 121.172 123.471  1.00  0.00     0.014 C 
ENDBRANCH   1   9
TORSDOF 3
ENDMDL
MODEL 2
REMARK VINA RESULT:    -3.442      1.859      2.228
REMARK INTER + INTRA:          -3.997
REMARK INTER:                  -4.032
REMARK INTRA:                   0.035
REMARK UNBOUND:                -0.052
REMARK SMILES CC(C)[C@H]([NH3+])C(=O)[O-]
REMARK SMILES IDX 4 1 5 2 6 6 7 7 8 8 2 9 1 10 3 11
REMARK H PARENT 5 3 5 4 5 5
REMARK Flexibility Score: inf
ROOT
ATOM      1  C   UNL     1     137.049 123.416 121.750  1.00  0.00     0.230 C 
ENDROOT
BRANCH   1   2
ATOM      2  N   UNL     1     136.929 124.480 122.759  1.00  0.00    -0.350 N 
ATOM      3  H   UNL     1     137.769 125.102 122.761  1.00  0.00     0.345 HD
ATOM      4  H   UNL     1     136.834 124.050 123.708  1.00  0.00     0.345 HD
ATOM      5  H   UNL     1     136.072 125.053 122.586  1.00  0.00     0.345 HD
ENDBRANCH   1   2
BRANCH   1   6
ATOM      6  C   UNL     1     135.858 123.413 120.822  1.00  0.00     0.099 C 
ATOM      7  O   UNL     1     134.774 123.959 121.161  1.00  0.00    -0.544 OA
ATOM      8  O   UNL     1     135.940 122.759 119.599  1.00  0.00    -0.544 OA
ENDBRANCH   1   6
BRANCH   1   9
ATOM      9  C   UNL     1     137.270 122.004 122.373  1.00  0.00     0.047 C 
ATOM     10  C   UNL     1     135.964 121.241 122.650  1.00  0.00     0.014 C 
ATOM     11  C   UNL     1     138.124 122.069 123.648  1.00  0.00     0.014 C 
ENDBRANCH   1   9
TORSDOF 3
ENDMDL
MODEL 3
REMARK VINA RESULT:    -3.351      2.485      3.048
REMARK INTER + INTRA:          -3.893
REMARK INTER:                  -4.010
REMARK INTRA:                   0.117
REMARK UNBOUND:                -0.052
REMARK SMILES CC(C)[C@H]([NH3+])C(=O)[O-]
REMARK SMILES IDX 4 1 5 2 6 6 7 7 8 8 2 9 1 10 3 11
REMARK H PARENT 5 3 5 4 5 5
REMARK Flexibility Score: inf
ROOT
ATOM      1  C   UNL     1     135.994 123.450 121.898  1.00  0.00     0.230 C 
ENDROOT
BRANCH   1   2
ATOM      2  N   UNL     1     136.628 124.694 122.363  1.00  0.00    -0.350 N 
ATOM      3  H   UNL     1     136.140 125.537 121.983  1.00  0.00     0.345 HD
ATOM      4  H   UNL     1     137.624 124.717 122.044  1.00  0.00     0.345 HD
ATOM      5  H   UNL     1     136.630 124.735 123.408  1.00  0.00     0.345 HD
ENDBRANCH   1   2
BRANCH   1   6
ATOM      6  C   UNL     1     136.612 122.246 122.567  1.00  0.00     0.099 C 
ATOM      7  O   UNL     1     135.921 121.223 122.822  1.00  0.00    -0.544 OA
ATOM      8  O   UNL     1     137.946 122.281 122.952  1.00  0.00    -0.544 OA
ENDBRANCH   1   6
BRANCH   1   9
ATOM      9  C   UNL     1     136.016 123.295 120.347  1.00  0.00     0.047 C 
ATOM     10  C   UNL     1     135.175 122.115 119.834  1.00  0.00     0.014 C 
ATOM     11  C   UNL     1     137.449 123.200 119.802  1.00  0.00     0.014 C 
ENDBRANCH   1   9
TORSDOF 3
ENDMDL
MODEL 4
REMARK VINA RESULT:    -3.336     15.574     16.294
REMARK INTER + INTRA:          -3.876
REMARK INTER:                  -3.817
REMARK INTRA:                  -0.059
REMARK UNBOUND:                -0.052
REMARK SMILES CC(C)[C@H]([NH3+])C(=O)[O-]
REMARK SMILES IDX 4 1 5 2 6 6 7 7 8 8 2 9 1 10 3 11
REMARK H PARENT 5 3 5 4 5 5
REMARK Flexibility Score: inf
ROOT
ATOM      1  C   UNL     1     134.207 132.614 134.727  1.00  0.00     0.230 C 
ENDROOT
BRANCH   1   2
ATOM      2  N   UNL     1     133.169 132.870 135.738  1.00  0.00    -0.350 N 
ATOM      3  H   UNL     1     133.413 132.433 136.655  1.00  0.00     0.345 HD
ATOM      4  H   UNL     1     132.260 132.469 135.412  1.00  0.00     0.345 HD
ATOM      5  H   UNL     1     133.032 133.898 135.868  1.00  0.00     0.345 HD
ENDBRANCH   1   2
BRANCH   1   6
ATOM      6  C   UNL     1     133.710 131.654 133.673  1.00  0.00     0.099 C 
ATOM      7  O   UNL     1     133.268 132.077 132.571  1.00  0.00    -0.544 OA
ATOM      8  O   UNL     1     133.693 130.290 133.937  1.00  0.00    -0.544 OA
ENDBRANCH   1   6
BRANCH   1   9
ATOM      9  C   UNL     1     135.550 132.116 135.341  1.00  0.00     0.047 C 
ATOM     10  C   UNL     1     135.735 132.506 136.817  1.00  0.00     0.014 C 
ATOM     11  C   UNL     1     136.762 132.578 134.517  1.00  0.00     0.014 C 
ENDBRANCH   1   9
TORSDOF 3
ENDMDL
MODEL 5
REMARK VINA RESULT:    -3.311     21.553     22.671
REMARK INTER + INTRA:          -3.847
REMARK INTER:                  -3.774
REMARK INTRA:                  -0.073
REMARK UNBOUND:                -0.052
REMARK SMILES CC(C)[C@H]([NH3+])C(=O)[O-]
REMARK SMILES IDX 4 1 5 2 6 6 7 7 8 8 2 9 1 10 3 11
REMARK H PARENT 5 3 5 4 5 5
REMARK Flexibility Score: inf
ROOT
ATOM      1  C   UNL     1     120.466 131.080 135.100  1.00  0.00     0.230 C 
ENDROOT
BRANCH   1   2
ATOM      2  N   UNL     1     120.908 130.315 136.277  1.00  0.00    -0.350 N 
ATOM      3  H   UNL     1     120.095 129.947 136.822  1.00  0.00     0.345 HD
ATOM      4  H   UNL     1     121.471 130.936 136.903  1.00  0.00     0.345 HD
ATOM      5  H   UNL     1     121.521 129.521 135.987  1.00  0.00     0.345 HD
ENDBRANCH   1   2
BRANCH   1   6
ATOM      6  C   UNL     1     121.519 131.065 134.019  1.00  0.00     0.099 C 
ATOM      7  O   UNL     1     122.613 131.673 134.172  1.00  0.00    -0.544 OA
ATOM      8  O   UNL     1     121.263 130.415 132.818  1.00  0.00    -0.544 OA
ENDBRANCH   1   6
BRANCH   1   9
ATOM      9  C   UNL     1     120.045 132.541 135.444  1.00  0.00     0.047 C 
ATOM     10  C   UNL     1     119.376 132.682 136.821  1.00  0.00     0.014 C 
ATOM     11  C   UNL     1     119.145 133.148 134.356  1.00  0.00     0.014 C 
ENDBRANCH   1   9
TORSDOF 3
ENDMDL
MODEL 6
REMARK VINA RESULT:    -3.303     21.924     22.886
REMARK INTER + INTRA:          -3.837
REMARK INTER:                  -3.789
REMARK INTRA:                  -0.048
REMARK UNBOUND:                -0.052
REMARK SMILES CC(C)[C@H]([NH3+])C(=O)[O-]
REMARK SMILES IDX 4 1 5 2 6 6 7 7 8 8 2 9 1 10 3 11
REMARK H PARENT 5 3 5 4 5 5
REMARK Flexibility Score: inf
ROOT
ATOM      1  C   UNL     1     120.917 131.902 135.307  1.00  0.00     0.230 C 
ENDROOT
BRANCH   1   2
ATOM      2  N   UNL     1     121.497 131.624 136.631  1.00  0.00    -0.350 N 
ATOM      3  H   UNL     1     120.843 131.896 137.400  1.00  0.00     0.345 HD
ATOM      4  H   UNL     1     122.383 132.169 136.743  1.00  0.00     0.345 HD
ATOM      5  H   UNL     1     121.736 130.611 136.719  1.00  0.00     0.345 HD
ENDBRANCH   1   2
BRANCH   1   6
ATOM      6  C   UNL     1     119.722 132.817 135.421  1.00  0.00     0.099 C 
ATOM      7  O   UNL     1     119.316 133.212 136.547  1.00  0.00    -0.544 OA
ATOM      8  O   UNL     1     119.030 133.192 134.277  1.00  0.00    -0.544 OA
ENDBRANCH   1   6
BRANCH   1   9
ATOM      9  C   UNL     1     120.552 130.610 134.516  1.00  0.00     0.047 C 
ATOM     10  C   UNL     1     120.741 129.317 135.326  1.00  0.00     0.014 C 
ATOM     11  C   UNL     1     121.318 130.517 133.187  1.00  0.00     0.014 C 
ENDBRANCH   1   9
TORSDOF 3
ENDMDL
MODEL 7
REMARK VINA RESULT:    -3.282     16.040     16.962
REMARK INTER + INTRA:          -3.814
REMARK INTER:                  -3.766
REMARK INTRA:                  -0.048
REMARK UNBOUND:                -0.052
REMARK SMILES CC(C)[C@H]([NH3+])C(=O)[O-]
REMARK SMILES IDX 4 1 5 2 6 6 7 7 8 8 2 9 1 10 3 11
REMARK H PARENT 5 3 5 4 5 5
REMARK Flexibility Score: inf
ROOT
ATOM      1  C   UNL     1     134.736 131.723 135.410  1.00  0.00     0.230 C 
ENDROOT
BRANCH   1   2
ATOM      2  N   UNL     1     134.154 131.395 136.722  1.00  0.00    -0.350 N 
ATOM      3  H   UNL     1     134.732 131.779 137.503  1.00  0.00     0.345 HD
ATOM      4  H   UNL     1     134.103 130.355 136.828  1.00  0.00     0.345 HD
ATOM      5  H   UNL     1     133.180 131.767 136.793  1.00  0.00     0.345 HD
ENDBRANCH   1   2
BRANCH   1   6
ATOM      6  C   UNL     1     136.126 132.291 135.562  1.00  0.00     0.099 C 
ATOM      7  O   UNL     1     136.581 132.591 136.698  1.00  0.00    -0.544 OA
ATOM      8  O   UNL     1     136.898 132.533 134.433  1.00  0.00    -0.544 OA
ENDBRANCH   1   6
BRANCH   1   9
ATOM      9  C   UNL     1     133.837 132.674 134.563  1.00  0.00     0.047 C 
ATOM     10  C   UNL     1     132.577 133.153 135.303  1.00  0.00     0.014 C 
ATOM     11  C   UNL     1     133.450 132.045 133.215  1.00  0.00     0.014 C 
ENDBRANCH   1   9
TORSDOF 3
ENDMDL
MODEL 8
REMARK VINA RESULT:    -3.273     16.649     17.414
REMARK INTER + INTRA:          -3.804
REMARK INTER:                  -3.738
REMARK INTRA:                  -0.065
REMARK UNBOUND:                -0.052
REMARK SMILES CC(C)[C@H]([NH3+])C(=O)[O-]
REMARK SMILES IDX 4 1 5 2 6 6 7 7 8 8 2 9 1 10 3 11
REMARK H PARENT 5 3 5 4 5 5
REMARK Flexibility Score: inf
ROOT
ATOM      1  C   UNL     1     134.867 132.243 135.780  1.00  0.00     0.230 C 
ENDROOT
BRANCH   1   2
ATOM      2  N   UNL     1     134.110 131.249 135.003  1.00  0.00    -0.350 N 
ATOM      3  H   UNL     1     134.708 130.794 134.276  1.00  0.00     0.345 HD
ATOM      4  H   UNL     1     133.309 131.721 134.523  1.00  0.00     0.345 HD
ATOM      5  H   UNL     1     133.713 130.517 135.634  1.00  0.00     0.345 HD
ENDBRANCH   1   2
BRANCH   1   6
ATOM      6  C   UNL     1     136.279 132.373 135.261  1.00  0.00     0.099 C 
ATOM      7  O   UNL     1     137.265 132.091 135.993  1.00  0.00    -0.544 OA
ATOM      8  O   UNL     1     136.499 132.856 133.977  1.00  0.00    -0.544 OA
ENDBRANCH   1   6
BRANCH   1   9
ATOM      9  C   UNL     1     134.864 131.954 137.312  1.00  0.00     0.047 C 
ATOM     10  C   UNL     1     134.134 130.655 137.692  1.00  0.00     0.014 C 
ATOM     11  C   UNL     1     134.294 133.133 138.115  1.00  0.00     0.014 C 
ENDBRANCH   1   9
TORSDOF 3
ENDMDL
MODEL 9
REMARK VINA RESULT:    -3.222     23.027     23.621
REMARK INTER + INTRA:          -3.744
REMARK INTER:                  -3.684
REMARK INTRA:                  -0.061
REMARK UNBOUND:                -0.052
REMARK SMILES CC(C)[C@H]([NH3+])C(=O)[O-]
REMARK SMILES IDX 4 1 5 2 6 6 7 7 8 8 2 9 1 10 3 11
REMARK H PARENT 5 3 5 4 5 5
REMARK Flexibility Score: inf
ROOT
ATOM      1  C   UNL     1     120.570 131.724 135.765  1.00  0.00     0.230 C 
ENDROOT
BRANCH   1   2
ATOM      2  N   UNL     1     121.833 131.661 135.013  1.00  0.00    -0.350 N 
ATOM      3  H   UNL     1     122.237 132.614 134.864  1.00  0.00     0.345 HD
ATOM      4  H   UNL     1     121.659 131.226 134.078  1.00  0.00     0.345 HD
ATOM      5  H   UNL     1     122.528 131.064 135.515  1.00  0.00     0.345 HD
ENDBRANCH   1   2
BRANCH   1   6
ATOM      6  C   UNL     1     119.657 132.787 135.203  1.00  0.00     0.099 C 
ATOM      7  O   UNL     1     119.230 132.712 134.019  1.00  0.00    -0.544 OA
ATOM      8  O   UNL     1     119.321 133.888 135.981  1.00  0.00    -0.544 OA
ENDBRANCH   1   6
BRANCH   1   9
ATOM      9  C   UNL     1     120.779 131.926 137.297  1.00  0.00     0.047 C 
ATOM     10  C   UNL     1     122.247 131.809 137.739  1.00  0.00     0.014 C 
ATOM     11  C   UNL     1     119.901 130.975 138.125  1.00  0.00     0.014 C 
ENDBRANCH   1   9
TORSDOF 3
ENDMDL
