MODEL 1
REMARK VINA RESULT:    -3.714      0.000      0.000
REMARK INTER + INTRA:          -6.723
REMARK INTER:                  -5.884
REMARK INTRA:                  -0.838
REMARK UNBOUND:                -0.838
REMARK SMILES CCCCCCCCCCCC(=O)[O-]
REMARK SMILES IDX 7 1 8 2 9 3 10 4 11 5 12 6 13 7 14 8 6 9 5 10 4 11 3 12 2 13
REMARK SMILES IDX 1 14
REMARK H PARENT
REMARK Flexibility Score: inf
ROOT
ATOM      1  C   UNL     1      -4.802 -65.392  -0.387  1.00  0.00     0.000 C 
ENDROOT
BRANCH   1   2
ATOM      2  C   UNL     1      -5.768 -65.956  -1.440  1.00  0.00     0.000 C 
BRANCH   2   3
ATOM      3  C   UNL     1      -5.110 -67.093  -2.235  1.00  0.00     0.000 C 
BRANCH   3   4
ATOM      4  C   UNL     1      -4.309 -66.586  -3.449  1.00  0.00     0.006 C 
BRANCH   4   5
ATOM      5  C   UNL     1      -4.027 -67.658  -4.513  1.00  0.00     0.053 C 
BRANCH   5   6
ATOM      6  C   UNL     1      -4.352 -67.176  -5.894  1.00  0.00     0.041 C 
ATOM      7  O   UNL     1      -4.788 -66.008  -6.072  1.00  0.00    -0.550 OA
ATOM      8  O   UNL     1      -4.140 -68.006  -6.988  1.00  0.00    -0.550 OA
ENDBRANCH   5   6
ENDBRANCH   4   5
ENDBRANCH   3   4
ENDBRANCH   2   3
ENDBRANCH   1   2
BRANCH   1   9
ATOM      9  C   UNL     1      -5.515 -64.568   0.700  1.00  0.00     0.000 C 
BRANCH   9  10
ATOM     10  C   UNL     1      -6.810 -65.198   1.252  1.00  0.00    -0.000 C 
BRANCH  10  11
ATOM     11  C   UNL     1      -8.102 -64.431   0.919  1.00  0.00    -0.000 C 
BRANCH  11  12
ATOM     12  C   UNL     1      -9.168 -65.316   0.257  1.00  0.00    -0.000 C 
BRANCH  12  13
ATOM     13  C   UNL     1      -8.862 -66.801   0.479  1.00  0.00    -0.003 C 
ATOM     14  C   UNL     1      -9.046 -67.601  -0.808  1.00  0.00     0.004 C 
ENDBRANCH  12  13
ENDBRANCH  11  12
ENDBRANCH  10  11
ENDBRANCH   9  10
ENDBRANCH   1   9
TORSDOF 10
ENDMDL
MODEL 2
REMARK VINA RESULT:    -3.672      1.791      3.085
REMARK INTER + INTRA:          -6.658
REMARK INTER:                  -5.226
REMARK INTRA:                  -1.432
REMARK UNBOUND:                -0.838
REMARK SMILES CCCCCCCCCCCC(=O)[O-]
REMARK SMILES IDX 7 1 8 2 9 3 10 4 11 5 12 6 13 7 14 8 6 9 5 10 4 11 3 12 2 13
REMARK SMILES IDX 1 14
REMARK H PARENT
REMARK Flexibility Score: inf
ROOT
ATOM      1  C   UNL     1      -7.253 -63.658  -0.529  1.00  0.00     0.000 C 
ENDROOT
BRANCH   1   2
ATOM      2  C   UNL     1      -5.950 -63.889  -1.308  1.00  0.00     0.000 C 
BRANCH   2   3
ATOM      3  C   UNL     1      -4.856 -64.455  -0.390  1.00  0.00     0.000 C 
BRANCH   3   4
ATOM      4  C   UNL     1      -4.560 -65.942  -0.660  1.00  0.00     0.006 C 
BRANCH   4   5
ATOM      5  C   UNL     1      -5.383 -66.552  -1.806  1.00  0.00     0.053 C 
BRANCH   5   6
ATOM      6  C   UNL     1      -4.545 -66.817  -3.019  1.00  0.00     0.041 C 
ATOM      7  O   UNL     1      -3.668 -65.986  -3.378  1.00  0.00    -0.550 OA
ATOM      8  O   UNL     1      -4.709 -67.997  -3.734  1.00  0.00    -0.550 OA
ENDBRANCH   5   6
ENDBRANCH   4   5
ENDBRANCH   3   4
ENDBRANCH   2   3
ENDBRANCH   1   2
BRANCH   1   9
ATOM      9  C   UNL     1      -8.438 -64.465  -1.091  1.00  0.00     0.000 C 
BRANCH   9  10
ATOM     10  C   UNL     1      -9.105 -65.430  -0.090  1.00  0.00    -0.000 C 
BRANCH  10  11
ATOM     11  C   UNL     1      -8.157 -66.455   0.558  1.00  0.00    -0.000 C 
BRANCH  11  12
ATOM     12  C   UNL     1      -8.382 -66.602   2.070  1.00  0.00    -0.000 C 
BRANCH  12  13
ATOM     13  C   UNL     1      -8.006 -65.313   2.808  1.00  0.00    -0.003 C 
ATOM     14  C   UNL     1      -6.495 -65.099   2.811  1.00  0.00     0.004 C 
ENDBRANCH  12  13
ENDBRANCH  11  12
ENDBRANCH  10  11
ENDBRANCH   9  10
ENDBRANCH   1   9
TORSDOF 10
ENDMDL
MODEL 3
REMARK VINA RESULT:    -3.621      1.613      3.223
REMARK INTER + INTRA:          -6.577
REMARK INTER:                  -5.543
REMARK INTRA:                  -1.034
REMARK UNBOUND:                -0.838
REMARK SMILES CCCCCCCCCCCC(=O)[O-]
REMARK SMILES IDX 7 1 8 2 9 3 10 4 11 5 12 6 13 7 14 8 6 9 5 10 4 11 3 12 2 13
REMARK SMILES IDX 1 14
REMARK H PARENT
REMARK Flexibility Score: inf
ROOT
ATOM      1  C   UNL     1      -8.896 -66.077  -0.589  1.00  0.00     0.000 C 
ENDROOT
BRANCH   1   2
ATOM      2  C   UNL     1      -7.495 -66.671  -0.793  1.00  0.00     0.000 C 
BRANCH   2   3
ATOM      3  C   UNL     1      -6.468 -65.566  -1.081  1.00  0.00     0.000 C 
BRANCH   3   4
ATOM      4  C   UNL     1      -5.059 -66.119  -1.362  1.00  0.00     0.006 C 
BRANCH   4   5
ATOM      5  C   UNL     1      -5.028 -67.303  -2.340  1.00  0.00     0.053 C 
BRANCH   5   6
ATOM      6  C   UNL     1      -4.335 -66.954  -3.622  1.00  0.00     0.041 C 
ATOM      7  O   UNL     1      -3.721 -65.860  -3.733  1.00  0.00    -0.550 OA
ATOM      8  O   UNL     1      -4.341 -67.851  -4.682  1.00  0.00    -0.550 OA
ENDBRANCH   5   6
ENDBRANCH   4   5
ENDBRANCH   3   4
ENDBRANCH   2   3
ENDBRANCH   1   2
BRANCH   1   9
ATOM      9  C   UNL     1      -9.214 -65.785   0.889  1.00  0.00     0.000 C 
BRANCH   9  10
ATOM     10  C   UNL     1      -8.487 -66.690   1.904  1.00  0.00    -0.000 C 
BRANCH  10  11
ATOM     11  C   UNL     1      -7.719 -65.945   3.010  1.00  0.00    -0.000 C 
BRANCH  11  12
ATOM     12  C   UNL     1      -6.760 -64.881   2.457  1.00  0.00    -0.000 C 
BRANCH  12  13
ATOM     13  C   UNL     1      -7.239 -63.470   2.818  1.00  0.00    -0.003 C 
ATOM     14  C   UNL     1      -7.449 -62.622   1.566  1.00  0.00     0.004 C 
ENDBRANCH  12  13
ENDBRANCH  11  12
ENDBRANCH  10  11
ENDBRANCH   9  10
ENDBRANCH   1   9
TORSDOF 10
ENDMDL
MODEL 4
REMARK VINA RESULT:    -3.575      1.451      2.187
REMARK INTER + INTRA:          -6.504
REMARK INTER:                  -5.853
REMARK INTRA:                  -0.651
REMARK UNBOUND:                -0.838
REMARK SMILES CCCCCCCCCCCC(=O)[O-]
REMARK SMILES IDX 7 1 8 2 9 3 10 4 11 5 12 6 13 7 14 8 6 9 5 10 4 11 3 12 2 13
REMARK SMILES IDX 1 14
REMARK H PARENT
REMARK Flexibility Score: inf
ROOT
ATOM      1  C   UNL     1      -5.085 -67.024  -2.158  1.00  0.00     0.000 C 
ENDROOT
BRANCH   1   2
ATOM      2  C   UNL     1      -4.346 -66.591  -3.432  1.00  0.00     0.000 C 
BRANCH   2   3
ATOM      3  C   UNL     1      -4.352 -67.716  -4.478  1.00  0.00     0.000 C 
BRANCH   3   4
ATOM      4  C   UNL     1      -3.703 -67.297  -5.810  1.00  0.00     0.006 C 
BRANCH   4   5
ATOM      5  C   UNL     1      -4.670 -66.634  -6.803  1.00  0.00     0.053 C 
BRANCH   5   6
ATOM      6  C   UNL     1      -4.522 -65.143  -6.819  1.00  0.00     0.041 C 
ATOM      7  O   UNL     1      -5.423 -64.410  -6.332  1.00  0.00    -0.550 OA
ATOM      8  O   UNL     1      -3.372 -64.564  -7.342  1.00  0.00    -0.550 OA
ENDBRANCH   5   6
ENDBRANCH   4   5
ENDBRANCH   3   4
ENDBRANCH   2   3
ENDBRANCH   1   2
BRANCH   1   9
ATOM      9  C   UNL     1      -4.899 -66.035  -0.993  1.00  0.00     0.000 C 
BRANCH   9  10
ATOM     10  C   UNL     1      -6.179 -65.722  -0.191  1.00  0.00    -0.000 C 
BRANCH  10  11
ATOM     11  C   UNL     1      -7.150 -64.740  -0.868  1.00  0.00    -0.000 C 
BRANCH  11  12
ATOM     12  C   UNL     1      -8.555 -65.328  -1.061  1.00  0.00    -0.000 C 
BRANCH  12  13
ATOM     13  C   UNL     1      -8.810 -66.475  -0.077  1.00  0.00    -0.003 C 
ATOM     14  C   UNL     1      -9.219 -67.750  -0.811  1.00  0.00     0.004 C 
ENDBRANCH  12  13
ENDBRANCH  11  12
ENDBRANCH  10  11
ENDBRANCH   9  10
ENDBRANCH   1   9
TORSDOF 10
ENDMDL
MODEL 5
REMARK VINA RESULT:    -3.572      6.012      7.870
REMARK INTER + INTRA:          -6.499
REMARK INTER:                  -5.951
REMARK INTRA:                  -0.548
REMARK UNBOUND:                -0.838
REMARK SMILES CCCCCCCCCCCC(=O)[O-]
REMARK SMILES IDX 7 1 8 2 9 3 10 4 11 5 12 6 13 7 14 8 6 9 5 10 4 11 3 12 2 13
REMARK SMILES IDX 1 14
REMARK H PARENT
REMARK Flexibility Score: inf
ROOT
ATOM      1  C   UNL     1      -8.244 -66.923   3.463  1.00  0.00     0.000 C 
ENDROOT
BRANCH   1   2
ATOM      2  C   UNL     1      -7.626 -67.441   4.770  1.00  0.00     0.000 C 
BRANCH   2   3
ATOM      3  C   UNL     1      -8.413 -68.644   5.309  1.00  0.00     0.000 C 
BRANCH   3   4
ATOM      4  C   UNL     1      -8.125 -69.942   4.532  1.00  0.00     0.006 C 
BRANCH   4   5
ATOM      5  C   UNL     1      -8.662 -71.214   5.207  1.00  0.00     0.053 C 
BRANCH   5   6
ATOM      6  C   UNL     1      -9.193 -72.197   4.208  1.00  0.00     0.041 C 
ATOM      7  O   UNL     1      -8.627 -72.334   3.091  1.00  0.00    -0.550 OA
ATOM      8  O   UNL     1     -10.293 -72.985   4.524  1.00  0.00    -0.550 OA
ENDBRANCH   5   6
ENDBRANCH   4   5
ENDBRANCH   3   4
ENDBRANCH   2   3
ENDBRANCH   1   2
BRANCH   1   9
ATOM      9  C   UNL     1      -7.439 -65.770   2.835  1.00  0.00     0.000 C 
BRANCH   9  10
ATOM     10  C   UNL     1      -7.906 -65.335   1.431  1.00  0.00    -0.000 C 
BRANCH  10  11
ATOM     11  C   UNL     1      -6.954 -65.710   0.282  1.00  0.00    -0.000 C 
BRANCH  11  12
ATOM     12  C   UNL     1      -7.617 -66.606  -0.774  1.00  0.00    -0.000 C 
BRANCH  12  13
ATOM     13  C   UNL     1      -9.034 -67.003  -0.345  1.00  0.00    -0.003 C 
ATOM     14  C   UNL     1      -9.418 -68.370  -0.907  1.00  0.00     0.004 C 
ENDBRANCH  12  13
ENDBRANCH  11  12
ENDBRANCH  10  11
ENDBRANCH   9  10
ENDBRANCH   1   9
TORSDOF 10
ENDMDL
MODEL 6
REMARK VINA RESULT:    -3.559      3.637      6.915
REMARK INTER + INTRA:          -6.478
REMARK INTER:                  -5.932
REMARK INTRA:                  -0.546
REMARK UNBOUND:                -0.838
REMARK SMILES CCCCCCCCCCCC(=O)[O-]
REMARK SMILES IDX 7 1 8 2 9 3 10 4 11 5 12 6 13 7 14 8 6 9 5 10 4 11 3 12 2 13
REMARK SMILES IDX 1 14
REMARK H PARENT
REMARK Flexibility Score: inf
ROOT
ATOM      1  C   UNL     1      -5.039 -67.230  -2.397  1.00  0.00     0.000 C 
ENDROOT
BRANCH   1   2
ATOM      2  C   UNL     1      -5.120 -66.097  -1.364  1.00  0.00     0.000 C 
BRANCH   2   3
ATOM      3  C   UNL     1      -6.561 -65.914  -0.864  1.00  0.00     0.000 C 
BRANCH   3   4
ATOM      4  C   UNL     1      -7.444 -67.149  -1.123  1.00  0.00     0.006 C 
BRANCH   4   5
ATOM      5  C   UNL     1      -8.905 -66.985  -0.675  1.00  0.00     0.053 C 
BRANCH   5   6
ATOM      6  C   UNL     1      -9.013 -66.264   0.634  1.00  0.00     0.041 C 
ATOM      7  O   UNL     1      -8.623 -66.818   1.696  1.00  0.00    -0.550 OA
ATOM      8  O   UNL     1      -9.512 -64.969   0.675  1.00  0.00    -0.550 OA
ENDBRANCH   5   6
ENDBRANCH   4   5
ENDBRANCH   3   4
ENDBRANCH   2   3
ENDBRANCH   1   2
BRANCH   1   9
ATOM      9  C   UNL     1      -4.303 -66.815  -3.684  1.00  0.00     0.000 C 
BRANCH   9  10
ATOM     10  C   UNL     1      -4.322 -67.864  -4.815  1.00  0.00    -0.000 C 
BRANCH  10  11
ATOM     11  C   UNL     1      -3.669 -67.413  -6.133  1.00  0.00    -0.000 C 
BRANCH  11  12
ATOM     12  C   UNL     1      -4.641 -66.665  -7.057  1.00  0.00    -0.000 C 
BRANCH  12  13
ATOM     13  C   UNL     1      -4.356 -65.159  -7.049  1.00  0.00    -0.003 C 
ATOM     14  C   UNL     1      -5.503 -64.384  -6.406  1.00  0.00     0.004 C 
ENDBRANCH  12  13
ENDBRANCH  11  12
ENDBRANCH  10  11
ENDBRANCH   9  10
ENDBRANCH   1   9
TORSDOF 10
ENDMDL
MODEL 7
REMARK VINA RESULT:    -3.554      3.217      6.371
REMARK INTER + INTRA:          -6.470
REMARK INTER:                  -5.582
REMARK INTRA:                  -0.889
REMARK UNBOUND:                -0.838
REMARK SMILES CCCCCCCCCCCC(=O)[O-]
REMARK SMILES IDX 7 1 8 2 9 3 10 4 11 5 12 6 13 7 14 8 6 9 5 10 4 11 3 12 2 13
REMARK SMILES IDX 1 14
REMARK H PARENT
REMARK Flexibility Score: inf
ROOT
ATOM      1  C   UNL     1      -4.514 -65.440  -2.353  1.00  0.00     0.000 C 
ENDROOT
BRANCH   1   2
ATOM      2  C   UNL     1      -5.533 -64.399  -1.866  1.00  0.00     0.000 C 
BRANCH   2   3
ATOM      3  C   UNL     1      -6.622 -65.059  -1.007  1.00  0.00     0.000 C 
BRANCH   3   4
ATOM      4  C   UNL     1      -8.032 -64.523  -1.315  1.00  0.00     0.006 C 
BRANCH   4   5
ATOM      5  C   UNL     1      -9.102 -64.936  -0.292  1.00  0.00     0.053 C 
BRANCH   5   6
ATOM      6  C   UNL     1      -9.016 -66.392   0.053  1.00  0.00     0.041 C 
ATOM      7  O   UNL     1      -9.318 -67.265  -0.803  1.00  0.00    -0.550 OA
ATOM      8  O   UNL     1      -8.570 -66.784   1.309  1.00  0.00    -0.550 OA
ENDBRANCH   5   6
ENDBRANCH   4   5
ENDBRANCH   3   4
ENDBRANCH   2   3
ENDBRANCH   1   2
BRANCH   1   9
ATOM      9  C   UNL     1      -5.013 -66.887  -2.193  1.00  0.00     0.000 C 
BRANCH   9  10
ATOM     10  C   UNL     1      -4.848 -67.777  -3.442  1.00  0.00    -0.000 C 
BRANCH  10  11
ATOM     11  C   UNL     1      -3.811 -67.280  -4.464  1.00  0.00    -0.000 C 
BRANCH  11  12
ATOM     12  C   UNL     1      -4.444 -66.857  -5.798  1.00  0.00    -0.000 C 
BRANCH  12  13
ATOM     13  C   UNL     1      -4.067 -65.413  -6.151  1.00  0.00    -0.003 C 
ATOM     14  C   UNL     1      -5.228 -64.459  -5.884  1.00  0.00     0.004 C 
ENDBRANCH  12  13
ENDBRANCH  11  12
ENDBRANCH  10  11
ENDBRANCH   9  10
ENDBRANCH   1   9
TORSDOF 10
ENDMDL
MODEL 8
REMARK VINA RESULT:    -3.516      1.418      2.289
REMARK INTER + INTRA:          -6.410
REMARK INTER:                  -5.978
REMARK INTRA:                  -0.433
REMARK UNBOUND:                -0.838
REMARK SMILES CCCCCCCCCCCC(=O)[O-]
REMARK SMILES IDX 7 1 8 2 9 3 10 4 11 5 12 6 13 7 14 8 6 9 5 10 4 11 3 12 2 13
REMARK SMILES IDX 1 14
REMARK H PARENT
REMARK Flexibility Score: inf
ROOT
ATOM      1  C   UNL     1      -5.060 -66.878  -1.871  1.00  0.00     0.000 C 
ENDROOT
BRANCH   1   2
ATOM      2  C   UNL     1      -4.433 -66.233  -3.116  1.00  0.00     0.000 C 
BRANCH   2   3
ATOM      3  C   UNL     1      -4.086 -67.297  -4.168  1.00  0.00     0.000 C 
BRANCH   3   4
ATOM      4  C   UNL     1      -4.224 -66.778  -5.611  1.00  0.00     0.006 C 
BRANCH   4   5
ATOM      5  C   UNL     1      -4.049 -67.857  -6.691  1.00  0.00     0.053 C 
BRANCH   5   6
ATOM      6  C   UNL     1      -4.681 -67.459  -7.989  1.00  0.00     0.041 C 
ATOM      7  O   UNL     1      -5.514 -66.515  -8.026  1.00  0.00    -0.550 OA
ATOM      8  O   UNL     1      -4.323 -68.107  -9.165  1.00  0.00    -0.550 OA
ENDBRANCH   5   6
ENDBRANCH   4   5
ENDBRANCH   3   4
ENDBRANCH   2   3
ENDBRANCH   1   2
BRANCH   1   9
ATOM      9  C   UNL     1      -5.539 -65.843  -0.837  1.00  0.00     0.000 C 
BRANCH   9  10
ATOM     10  C   UNL     1      -7.061 -65.597  -0.816  1.00  0.00    -0.000 C 
BRANCH  10  11
ATOM     11  C   UNL     1      -7.927 -66.869  -0.788  1.00  0.00    -0.000 C 
BRANCH  11  12
ATOM     12  C   UNL     1      -8.944 -66.873   0.362  1.00  0.00    -0.000 C 
BRANCH  12  13
ATOM     13  C   UNL     1      -8.447 -66.023   1.537  1.00  0.00    -0.003 C 
ATOM     14  C   UNL     1      -8.337 -66.856   2.812  1.00  0.00     0.004 C 
ENDBRANCH  12  13
ENDBRANCH  11  12
ENDBRANCH  10  11
ENDBRANCH   9  10
ENDBRANCH   1   9
TORSDOF 10
ENDMDL
MODEL 9
REMARK VINA RESULT:    -3.481      4.771      6.588
REMARK INTER + INTRA:          -6.355
REMARK INTER:                  -4.855
REMARK INTRA:                  -1.500
REMARK UNBOUND:                -0.838
REMARK SMILES CCCCCCCCCCCC(=O)[O-]
REMARK SMILES IDX 7 1 8 2 9 3 10 4 11 5 12 6 13 7 14 8 6 9 5 10 4 11 3 12 2 13
REMARK SMILES IDX 1 14
REMARK H PARENT
REMARK Flexibility Score: inf
ROOT
ATOM      1  C   UNL     1      -5.353 -65.337  -0.008  1.00  0.00     0.000 C 
ENDROOT
BRANCH   1   2
ATOM      2  C   UNL     1      -5.409 -63.809  -0.150  1.00  0.00     0.000 C 
BRANCH   2   3
ATOM      3  C   UNL     1      -6.059 -63.167   1.084  1.00  0.00     0.000 C 
BRANCH   3   4
ATOM      4  C   UNL     1      -7.372 -62.434   0.754  1.00  0.00     0.006 C 
BRANCH   4   5
ATOM      5  C   UNL     1      -8.051 -61.776   1.966  1.00  0.00     0.053 C 
BRANCH   5   6
ATOM      6  C   UNL     1      -8.519 -60.386   1.661  1.00  0.00     0.041 C 
ATOM      7  O   UNL     1      -7.773 -59.589   1.032  1.00  0.00    -0.550 OA
ATOM      8  O   UNL     1      -9.792 -59.982   2.041  1.00  0.00    -0.550 OA
ENDBRANCH   5   6
ENDBRANCH   4   5
ENDBRANCH   3   4
ENDBRANCH   2   3
ENDBRANCH   1   2
BRANCH   1   9
ATOM      9  C   UNL     1      -6.065 -66.072  -1.158  1.00  0.00     0.000 C 
BRANCH   9  10
ATOM     10  C   UNL     1      -7.410 -66.726  -0.781  1.00  0.00    -0.000 C 
BRANCH  10  11
ATOM     11  C   UNL     1      -8.616 -65.770  -0.755  1.00  0.00    -0.000 C 
BRANCH  11  12
ATOM     12  C   UNL     1      -9.240 -65.635   0.642  1.00  0.00    -0.000 C 
BRANCH  12  13
ATOM     13  C   UNL     1      -8.526 -66.541   1.652  1.00  0.00    -0.003 C 
ATOM     14  C   UNL     1      -7.999 -65.737   2.837  1.00  0.00     0.004 C 
ENDBRANCH  12  13
ENDBRANCH  11  12
ENDBRANCH  10  11
ENDBRANCH   9  10
ENDBRANCH   1   9
TORSDOF 10
ENDMDL
