MODEL 1
REMARK VINA RESULT:    -3.663      0.000      0.000
REMARK INTER + INTRA:          -4.459
REMARK INTER:                  -4.413
REMARK INTRA:                  -0.046
REMARK UNBOUND:                -0.046
REMARK SMILES CCCCCO
REMARK SMILES IDX 4 1 3 2 2 3 1 4 5 5 6 6
REMARK H PARENT 6 7
REMARK Flexibility Score: inf
ROOT
ATOM      1  C   UNL     1      -6.857 -18.252 -15.397  1.00  0.00     0.028 C 
ENDROOT
BRANCH   1   2
ATOM      2  C   UNL     1      -6.196 -19.422 -14.637  1.00  0.00     0.002 C 
BRANCH   2   3
ATOM      3  C   UNL     1      -5.923 -19.116 -13.155  1.00  0.00    -0.003 C 
ATOM      4  C   UNL     1      -4.870 -20.035 -12.540  1.00  0.00     0.004 C 
ENDBRANCH   2   3
ENDBRANCH   1   2
BRANCH   1   5
ATOM      5  C   UNL     1      -7.698 -17.350 -14.489  1.00  0.00     0.156 C 
BRANCH   5   6
ATOM      6  O   UNL     1      -7.143 -16.064 -14.445  1.00  0.00    -0.396 OA
ATOM      7  H   UNL     1      -6.428 -16.096 -13.758  1.00  0.00     0.210 HD
ENDBRANCH   5   6
ENDBRANCH   1   5
TORSDOF 4
ENDMDL
MODEL 2
REMARK VINA RESULT:    -3.617      3.025      4.342
REMARK INTER + INTRA:          -4.403
REMARK INTER:                  -4.319
REMARK INTRA:                  -0.084
REMARK UNBOUND:                -0.046
REMARK SMILES CCCCCO
REMARK SMILES IDX 4 1 3 2 2 3 1 4 5 5 6 6
REMARK H PARENT 6 7
REMARK Flexibility Score: inf
ROOT
ATOM      1  C   UNL     1      -5.700 -20.630 -11.541  1.00  0.00     0.028 C 
ENDROOT
BRANCH   1   2
ATOM      2  C   UNL     1      -5.040 -19.801 -12.664  1.00  0.00     0.002 C 
BRANCH   2   3
ATOM      3  C   UNL     1      -6.049 -19.058 -13.555  1.00  0.00    -0.003 C 
ATOM      4  C   UNL     1      -6.173 -19.664 -14.951  1.00  0.00     0.004 C 
ENDBRANCH   2   3
ENDBRANCH   1   2
BRANCH   1   5
ATOM      5  C   UNL     1      -5.852 -22.110 -11.903  1.00  0.00     0.156 C 
BRANCH   5   6
ATOM      6  O   UNL     1      -7.195 -22.401 -12.176  1.00  0.00    -0.396 OA
ATOM      7  H   UNL     1      -7.405 -21.949 -13.035  1.00  0.00     0.210 HD
ENDBRANCH   5   6
ENDBRANCH   1   5
TORSDOF 4
ENDMDL
MODEL 3
REMARK VINA RESULT:    -3.414      2.432      3.699
REMARK INTER + INTRA:          -4.158
REMARK INTER:                  -4.102
REMARK INTRA:                  -0.056
REMARK UNBOUND:                -0.046
REMARK SMILES CCCCCO
REMARK SMILES IDX 4 1 3 2 2 3 1 4 5 5 6 6
REMARK H PARENT 6 7
REMARK Flexibility Score: inf
ROOT
ATOM      1  C   UNL     1      -5.557 -19.409 -13.159  1.00  0.00     0.028 C 
ENDROOT
BRANCH   1   2
ATOM      2  C   UNL     1      -6.141 -19.662 -14.565  1.00  0.00     0.002 C 
BRANCH   2   3
ATOM      3  C   UNL     1      -6.892 -18.452 -15.146  1.00  0.00    -0.003 C 
ATOM      4  C   UNL     1      -7.220 -17.393 -14.096  1.00  0.00     0.004 C 
ENDBRANCH   2   3
ENDBRANCH   1   2
BRANCH   1   5
ATOM      5  C   UNL     1      -5.641 -20.638 -12.248  1.00  0.00     0.156 C 
BRANCH   5   6
ATOM      6  O   UNL     1      -6.497 -21.594 -12.812  1.00  0.00    -0.396 OA
ATOM      7  H   UNL     1      -7.047 -21.109 -13.481  1.00  0.00     0.210 HD
ENDBRANCH   5   6
ENDBRANCH   1   5
TORSDOF 4
ENDMDL
MODEL 4
REMARK VINA RESULT:    -3.259      5.741      7.266
REMARK INTER + INTRA:          -3.972
REMARK INTER:                  -3.924
REMARK INTRA:                  -0.048
REMARK UNBOUND:                -0.046
REMARK SMILES CCCCCO
REMARK SMILES IDX 4 1 3 2 2 3 1 4 5 5 6 6
REMARK H PARENT 6 7
REMARK Flexibility Score: inf
ROOT
ATOM      1  C   UNL     1      -1.492 -23.211 -12.096  1.00  0.00     0.028 C 
ENDROOT
BRANCH   1   2
ATOM      2  C   UNL     1      -2.138 -21.910 -11.576  1.00  0.00     0.002 C 
BRANCH   2   3
ATOM      3  C   UNL     1      -3.624 -22.063 -11.213  1.00  0.00    -0.003 C 
ATOM      4  C   UNL     1      -4.508 -20.994 -11.850  1.00  0.00     0.004 C 
ENDBRANCH   2   3
ENDBRANCH   1   2
BRANCH   1   5
ATOM      5  C   UNL     1      -2.494 -24.360 -12.237  1.00  0.00     0.156 C 
BRANCH   5   6
ATOM      6  O   UNL     1      -1.852 -25.497 -12.745  1.00  0.00    -0.396 OA
ATOM      7  H   UNL     1      -1.354 -25.895 -11.983  1.00  0.00     0.210 HD
ENDBRANCH   5   6
ENDBRANCH   1   5
TORSDOF 4
ENDMDL
MODEL 5
REMARK VINA RESULT:    -3.161      1.222      1.505
REMARK INTER + INTRA:          -3.853
REMARK INTER:                  -3.843
REMARK INTRA:                  -0.010
REMARK UNBOUND:                -0.046
REMARK SMILES CCCCCO
REMARK SMILES IDX 4 1 3 2 2 3 1 4 5 5 6 6
REMARK H PARENT 6 7
REMARK Flexibility Score: inf
ROOT
ATOM      1  C   UNL     1      -6.705 -18.434 -13.861  1.00  0.00     0.028 C 
ENDROOT
BRANCH   1   2
ATOM      2  C   UNL     1      -5.616 -19.479 -13.536  1.00  0.00     0.002 C 
BRANCH   2   3
ATOM      3  C   UNL     1      -5.493 -19.793 -12.036  1.00  0.00    -0.003 C 
ATOM      4  C   UNL     1      -4.513 -20.926 -11.742  1.00  0.00     0.004 C 
ENDBRANCH   2   3
ENDBRANCH   1   2
BRANCH   1   5
ATOM      5  C   UNL     1      -7.184 -18.505 -15.314  1.00  0.00     0.156 C 
BRANCH   5   6
ATOM      6  O   UNL     1      -6.911 -17.296 -15.967  1.00  0.00    -0.396 OA
ATOM      7  H   UNL     1      -7.669 -16.690 -15.754  1.00  0.00     0.210 HD
ENDBRANCH   5   6
ENDBRANCH   1   5
TORSDOF 4
ENDMDL
MODEL 6
REMARK VINA RESULT:    -3.146      7.325      8.061
REMARK INTER + INTRA:          -3.835
REMARK INTER:                  -3.729
REMARK INTRA:                  -0.106
REMARK UNBOUND:                -0.046
REMARK SMILES CCCCCO
REMARK SMILES IDX 4 1 3 2 2 3 1 4 5 5 6 6
REMARK H PARENT 6 7
REMARK Flexibility Score: inf
ROOT
ATOM      1  C   UNL     1      -2.533 -23.676 -11.449  1.00  0.00     0.028 C 
ENDROOT
BRANCH   1   2
ATOM      2  C   UNL     1      -1.924 -22.349 -11.949  1.00  0.00     0.002 C 
BRANCH   2   3
ATOM      3  C   UNL     1      -0.397 -22.272 -11.782  1.00  0.00    -0.003 C 
ATOM      4  C   UNL     1       0.091 -22.871 -10.465  1.00  0.00     0.004 C 
ENDBRANCH   2   3
ENDBRANCH   1   2
BRANCH   1   5
ATOM      5  C   UNL     1      -2.574 -24.759 -12.532  1.00  0.00     0.156 C 
BRANCH   5   6
ATOM      6  O   UNL     1      -1.489 -25.632 -12.377  1.00  0.00    -0.396 OA
ATOM      7  H   UNL     1      -1.282 -25.978 -13.285  1.00  0.00     0.210 HD
ENDBRANCH   5   6
ENDBRANCH   1   5
TORSDOF 4
ENDMDL
MODEL 7
REMARK VINA RESULT:    -3.030     14.094     15.637
REMARK INTER + INTRA:          -3.696
REMARK INTER:                  -3.686
REMARK INTRA:                  -0.010
REMARK UNBOUND:                -0.046
REMARK SMILES CCCCCO
REMARK SMILES IDX 4 1 3 2 2 3 1 4 5 5 6 6
REMARK H PARENT 6 7
REMARK Flexibility Score: inf
ROOT
ATOM      1  C   UNL     1       3.225 -30.352 -12.651  1.00  0.00     0.028 C 
ENDROOT
BRANCH   1   2
ATOM      2  C   UNL     1       2.194 -31.383 -12.144  1.00  0.00     0.002 C 
BRANCH   2   3
ATOM      3  C   UNL     1       2.780 -32.405 -11.157  1.00  0.00    -0.003 C 
ATOM      4  C   UNL     1       1.945 -33.678 -11.048  1.00  0.00     0.004 C 
ENDBRANCH   2   3
ENDBRANCH   1   2
BRANCH   1   5
ATOM      5  C   UNL     1       2.615 -28.968 -12.893  1.00  0.00     0.156 C 
BRANCH   5   6
ATOM      6  O   UNL     1       2.930 -28.525 -14.185  1.00  0.00    -0.396 OA
ATOM      7  H   UNL     1       3.625 -27.824 -14.073  1.00  0.00     0.210 HD
ENDBRANCH   5   6
ENDBRANCH   1   5
TORSDOF 4
ENDMDL
MODEL 8
REMARK VINA RESULT:    -3.006      5.515      7.065
REMARK INTER + INTRA:          -3.666
REMARK INTER:                  -3.615
REMARK INTRA:                  -0.051
REMARK UNBOUND:                -0.046
REMARK SMILES CCCCCO
REMARK SMILES IDX 4 1 3 2 2 3 1 4 5 5 6 6
REMARK H PARENT 6 7
REMARK Flexibility Score: inf
ROOT
ATOM      1  C   UNL     1      -1.654 -23.507 -12.006  1.00  0.00     0.028 C 
ENDROOT
BRANCH   1   2
ATOM      2  C   UNL     1      -3.105 -23.223 -11.562  1.00  0.00     0.002 C 
BRANCH   2   3
ATOM      3  C   UNL     1      -3.323 -21.787 -11.056  1.00  0.00    -0.003 C 
ATOM      4  C   UNL     1      -4.491 -21.083 -11.743  1.00  0.00     0.004 C 
ENDBRANCH   2   3
ENDBRANCH   1   2
BRANCH   1   5
ATOM      5  C   UNL     1      -0.737 -22.289 -11.865  1.00  0.00     0.156 C 
BRANCH   5   6
ATOM      6  O   UNL     1       0.371 -22.423 -12.711  1.00  0.00    -0.396 OA
ATOM      7  H   UNL     1       0.677 -21.500 -12.912  1.00  0.00     0.210 HD
ENDBRANCH   5   6
ENDBRANCH   1   5
TORSDOF 4
ENDMDL
MODEL 9
REMARK VINA RESULT:    -2.997      4.625      5.557
REMARK INTER + INTRA:          -3.656
REMARK INTER:                  -3.634
REMARK INTRA:                  -0.022
REMARK UNBOUND:                -0.046
REMARK SMILES CCCCCO
REMARK SMILES IDX 4 1 3 2 2 3 1 4 5 5 6 6
REMARK H PARENT 6 7
REMARK Flexibility Score: inf
ROOT
ATOM      1  C   UNL     1      -5.108 -21.740 -11.007  1.00  0.00     0.028 C 
ENDROOT
BRANCH   1   2
ATOM      2  C   UNL     1      -3.608 -21.774 -11.367  1.00  0.00     0.002 C 
BRANCH   2   3
ATOM      3  C   UNL     1      -3.031 -23.196 -11.466  1.00  0.00    -0.003 C 
ATOM      4  C   UNL     1      -1.662 -23.240 -12.139  1.00  0.00     0.004 C 
ENDBRANCH   2   3
ENDBRANCH   1   2
BRANCH   1   5
ATOM      5  C   UNL     1      -6.019 -21.881 -12.230  1.00  0.00     0.156 C 
BRANCH   5   6
ATOM      6  O   UNL     1      -7.090 -22.734 -11.934  1.00  0.00    -0.396 OA
ATOM      7  H   UNL     1      -6.687 -23.563 -11.563  1.00  0.00     0.210 HD
ENDBRANCH   5   6
ENDBRANCH   1   5
TORSDOF 4
ENDMDL
