MODEL 1
REMARK VINA RESULT:    -3.982      0.000      0.000
REMARK INTER + INTRA:          -8.294
REMARK INTER:                  -7.241
REMARK INTRA:                  -1.053
REMARK UNBOUND:                -1.053
REMARK SMILES CCCCCCCCCCCCCC[C@@H](C)C(=O)[O-]
REMARK SMILES IDX 9 1 10 2 11 3 12 4 13 5 14 6 15 7 16 8 17 9 18 10 19 11 8 12
REMARK SMILES IDX 7 13 6 14 5 15 4 16 3 17 2 18 1 19
REMARK H PARENT
REMARK Flexibility Score: inf
ROOT
ATOM      1  C   UNL     1       1.867  22.536  22.915  1.00  0.00     0.000 C 
ENDROOT
BRANCH   1   2
ATOM      2  C   UNL     1       1.138  22.973  24.196  1.00  0.00     0.000 C 
BRANCH   2   3
ATOM      3  C   UNL     1       1.854  22.502  25.474  1.00  0.00     0.000 C 
BRANCH   3   4
ATOM      4  C   UNL     1       2.319  23.673  26.353  1.00  0.00     0.000 C 
BRANCH   4   5
ATOM      5  C   UNL     1       3.816  23.592  26.698  1.00  0.00     0.001 C 
BRANCH   5   6
ATOM      6  C   UNL     1       4.727  23.810  25.476  1.00  0.00     0.009 C 
BRANCH   6   7
ATOM      7  C   UNL     1       6.234  23.932  25.801  1.00  0.00     0.032 C 
ATOM      8  C   UNL     1       7.117  23.235  24.758  1.00  0.00     0.014 C 
BRANCH   7   9
ATOM      9  C   UNL     1       6.610  25.387  25.889  1.00  0.00     0.044 C 
ATOM     10  O   UNL     1       6.469  26.012  26.973  1.00  0.00    -0.550 OA
ATOM     11  O   UNL     1       7.101  26.054  24.772  1.00  0.00    -0.550 OA
ENDBRANCH   7   9
ENDBRANCH   6   7
ENDBRANCH   5   6
ENDBRANCH   4   5
ENDBRANCH   3   4
ENDBRANCH   2   3
ENDBRANCH   1   2
BRANCH   1  12
ATOM     12  C   UNL     1       2.110  23.703  21.946  1.00  0.00     0.000 C 
BRANCH  12  13
ATOM     13  C   UNL     1       2.251  25.027  22.706  1.00  0.00    -0.000 C 
BRANCH  13  14
ATOM     14  C   UNL     1       1.941  26.221  21.796  1.00  0.00    -0.000 C 
BRANCH  14  15
ATOM     15  C   UNL     1       0.784  27.056  22.357  1.00  0.00    -0.000 C 
BRANCH  15  16
ATOM     16  C   UNL     1       0.865  28.509  21.864  1.00  0.00    -0.000 C 
BRANCH  16  17
ATOM     17  C   UNL     1      -0.291  28.879  20.921  1.00  0.00    -0.000 C 
BRANCH  17  18
ATOM     18  C   UNL     1       0.034  30.092  20.034  1.00  0.00    -0.003 C 
ATOM     19  C   UNL     1      -1.173  31.016  19.904  1.00  0.00     0.004 C 
ENDBRANCH  17  18
ENDBRANCH  16  17
ENDBRANCH  15  16
ENDBRANCH  14  15
ENDBRANCH  13  14
ENDBRANCH  12  13
ENDBRANCH   1  12
TORSDOF 14
ENDMDL
MODEL 2
REMARK VINA RESULT:    -3.769      3.233      7.664
REMARK INTER + INTRA:          -7.907
REMARK INTER:                  -6.611
REMARK INTRA:                  -1.296
REMARK UNBOUND:                -1.053
REMARK SMILES CCCCCCCCCCCCCC[C@@H](C)C(=O)[O-]
REMARK SMILES IDX 9 1 10 2 11 3 12 4 13 5 14 6 15 7 16 8 17 9 18 10 19 11 8 12
REMARK SMILES IDX 7 13 6 14 5 15 4 16 3 17 2 18 1 19
REMARK H PARENT
REMARK Flexibility Score: inf
ROOT
ATOM      1  C   UNL     1       1.708  22.827  23.115  1.00  0.00     0.000 C 
ENDROOT
BRANCH   1   2
ATOM      2  C   UNL     1       2.070  23.686  21.893  1.00  0.00     0.000 C 
BRANCH   2   3
ATOM      3  C   UNL     1       2.337  25.156  22.261  1.00  0.00     0.000 C 
BRANCH   3   4
ATOM      4  C   UNL     1       1.453  26.130  21.468  1.00  0.00     0.000 C 
BRANCH   4   5
ATOM      5  C   UNL     1       1.690  27.598  21.865  1.00  0.00     0.001 C 
BRANCH   5   6
ATOM      6  C   UNL     1       0.389  28.419  21.933  1.00  0.00     0.009 C 
BRANCH   6   7
ATOM      7  C   UNL     1      -0.230  28.774  20.561  1.00  0.00     0.032 C 
ATOM      8  C   UNL     1      -1.749  28.561  20.530  1.00  0.00     0.014 C 
BRANCH   7   9
ATOM      9  C   UNL     1       0.085  30.207  20.226  1.00  0.00     0.044 C 
ATOM     10  O   UNL     1      -0.833  30.988  19.858  1.00  0.00    -0.550 OA
ATOM     11  O   UNL     1       1.391  30.676  20.304  1.00  0.00    -0.550 OA
ENDBRANCH   7   9
ENDBRANCH   6   7
ENDBRANCH   5   6
ENDBRANCH   4   5
ENDBRANCH   3   4
ENDBRANCH   2   3
ENDBRANCH   1   2
BRANCH   1  12
ATOM     12  C   UNL     1       1.344  23.674  24.344  1.00  0.00     0.000 C 
BRANCH  12  13
ATOM     13  C   UNL     1       0.900  22.784  25.512  1.00  0.00    -0.000 C 
BRANCH  13  14
ATOM     14  C   UNL     1       2.074  22.479  26.450  1.00  0.00    -0.000 C 
BRANCH  14  15
ATOM     15  C   UNL     1       3.120  23.600  26.405  1.00  0.00    -0.000 C 
BRANCH  15  16
ATOM     16  C   UNL     1       4.486  23.097  26.900  1.00  0.00    -0.000 C 
BRANCH  16  17
ATOM     17  C   UNL     1       5.640  23.516  25.977  1.00  0.00    -0.000 C 
BRANCH  17  18
ATOM     18  C   UNL     1       5.151  24.096  24.641  1.00  0.00    -0.003 C 
ATOM     19  C   UNL     1       6.314  24.319  23.680  1.00  0.00     0.004 C 
ENDBRANCH  17  18
ENDBRANCH  16  17
ENDBRANCH  15  16
ENDBRANCH  14  15
ENDBRANCH  13  14
ENDBRANCH  12  13
ENDBRANCH   1  12
TORSDOF 14
ENDMDL
MODEL 3
REMARK VINA RESULT:    -3.609      3.552      7.301
REMARK INTER + INTRA:          -7.616
REMARK INTER:                  -6.195
REMARK INTRA:                  -1.421
REMARK UNBOUND:                -1.053
REMARK SMILES CCCCCCCCCCCCCC[C@@H](C)C(=O)[O-]
REMARK SMILES IDX 9 1 10 2 11 3 12 4 13 5 14 6 15 7 16 8 17 9 18 10 19 11 8 12
REMARK SMILES IDX 7 13 6 14 5 15 4 16 3 17 2 18 1 19
REMARK H PARENT
REMARK Flexibility Score: inf
ROOT
ATOM      1  C   UNL     1       2.291  23.829  23.459  1.00  0.00     0.000 C 
ENDROOT
BRANCH   1   2
ATOM      2  C   UNL     1       2.447  23.893  21.931  1.00  0.00     0.000 C 
BRANCH   2   3
ATOM      3  C   UNL     1       1.824  25.163  21.326  1.00  0.00     0.000 C 
BRANCH   3   4
ATOM      4  C   UNL     1       1.500  26.224  22.389  1.00  0.00     0.000 C 
BRANCH   4   5
ATOM      5  C   UNL     1       1.646  27.659  21.854  1.00  0.00     0.001 C 
BRANCH   5   6
ATOM      6  C   UNL     1       0.335  28.464  21.931  1.00  0.00     0.009 C 
BRANCH   6   7
ATOM      7  C   UNL     1      -0.308  28.795  20.565  1.00  0.00     0.032 C 
ATOM      8  C   UNL     1      -1.825  28.569  20.561  1.00  0.00     0.014 C 
BRANCH   7   9
ATOM      9  C   UNL     1      -0.009  30.225  20.203  1.00  0.00     0.044 C 
ATOM     10  O   UNL     1       1.180  30.639  20.190  1.00  0.00    -0.550 OA
ATOM     11  O   UNL     1      -1.043  31.102  19.897  1.00  0.00    -0.550 OA
ENDBRANCH   7   9
ENDBRANCH   6   7
ENDBRANCH   5   6
ENDBRANCH   4   5
ENDBRANCH   3   4
ENDBRANCH   2   3
ENDBRANCH   1   2
BRANCH   1  12
ATOM     12  C   UNL     1       3.570  24.246  24.201  1.00  0.00     0.000 C 
BRANCH  12  13
ATOM     13  C   UNL     1       3.500  23.851  25.681  1.00  0.00    -0.000 C 
BRANCH  13  14
ATOM     14  C   UNL     1       2.839  22.479  25.855  1.00  0.00    -0.000 C 
BRANCH  14  15
ATOM     15  C   UNL     1       1.809  22.504  26.991  1.00  0.00    -0.000 C 
BRANCH  15  16
ATOM     16  C   UNL     1       1.167  23.894  27.121  1.00  0.00    -0.000 C 
BRANCH  16  17
ATOM     17  C   UNL     1      -0.352  23.869  26.890  1.00  0.00    -0.000 C 
BRANCH  17  18
ATOM     18  C   UNL     1      -0.838  25.037  26.019  1.00  0.00    -0.003 C 
ATOM     19  C   UNL     1       0.276  26.055  25.794  1.00  0.00     0.004 C 
ENDBRANCH  17  18
ENDBRANCH  16  17
ENDBRANCH  15  16
ENDBRANCH  14  15
ENDBRANCH  13  14
ENDBRANCH  12  13
ENDBRANCH   1  12
TORSDOF 14
ENDMDL
MODEL 4
REMARK VINA RESULT:    -3.522      2.883      4.062
REMARK INTER + INTRA:          -7.458
REMARK INTER:                  -5.651
REMARK INTRA:                  -1.807
REMARK UNBOUND:                -1.053
REMARK SMILES CCCCCCCCCCCCCC[C@@H](C)C(=O)[O-]
REMARK SMILES IDX 9 1 10 2 11 3 12 4 13 5 14 6 15 7 16 8 17 9 18 10 19 11 8 12
REMARK SMILES IDX 7 13 6 14 5 15 4 16 3 17 2 18 1 19
REMARK H PARENT
REMARK Flexibility Score: inf
ROOT
ATOM      1  C   UNL     1       0.035  22.731  26.216  1.00  0.00     0.000 C 
ENDROOT
BRANCH   1   2
ATOM      2  C   UNL     1       0.788  21.746  27.125  1.00  0.00     0.000 C 
BRANCH   2   3
ATOM      3  C   UNL     1       2.297  21.700  26.825  1.00  0.00     0.000 C 
BRANCH   3   4
ATOM      4  C   UNL     1       2.974  23.068  27.003  1.00  0.00     0.000 C 
BRANCH   4   5
ATOM      5  C   UNL     1       4.361  23.130  26.341  1.00  0.00     0.001 C 
BRANCH   5   6
ATOM      6  C   UNL     1       5.209  24.318  26.833  1.00  0.00     0.009 C 
BRANCH   6   7
ATOM      7  C   UNL     1       6.644  24.376  26.261  1.00  0.00     0.032 C 
ATOM      8  C   UNL     1       6.985  23.146  25.408  1.00  0.00     0.014 C 
BRANCH   7   9
ATOM      9  C   UNL     1       6.803  25.623  25.434  1.00  0.00     0.044 C 
ATOM     10  O   UNL     1       7.000  26.733  25.995  1.00  0.00    -0.550 OA
ATOM     11  O   UNL     1       6.719  25.562  24.048  1.00  0.00    -0.550 OA
ENDBRANCH   7   9
ENDBRANCH   6   7
ENDBRANCH   5   6
ENDBRANCH   4   5
ENDBRANCH   3   4
ENDBRANCH   2   3
ENDBRANCH   1   2
BRANCH   1  12
ATOM     12  C   UNL     1      -0.855  23.701  27.007  1.00  0.00     0.000 C 
BRANCH  12  13
ATOM     13  C   UNL     1      -0.804  25.110  26.404  1.00  0.00    -0.000 C 
BRANCH  13  14
ATOM     14  C   UNL     1       0.642  25.601  26.271  1.00  0.00    -0.000 C 
BRANCH  14  15
ATOM     15  C   UNL     1       0.920  26.119  24.855  1.00  0.00    -0.000 C 
BRANCH  15  16
ATOM     16  C   UNL     1       1.082  24.955  23.865  1.00  0.00    -0.000 C 
BRANCH  16  17
ATOM     17  C   UNL     1       2.540  24.749  23.427  1.00  0.00    -0.000 C 
BRANCH  17  18
ATOM     18  C   UNL     1       2.695  23.622  22.395  1.00  0.00    -0.003 C 
ATOM     19  C   UNL     1       1.724  22.480  22.679  1.00  0.00     0.004 C 
ENDBRANCH  17  18
ENDBRANCH  16  17
ENDBRANCH  15  16
ENDBRANCH  14  15
ENDBRANCH  13  14
ENDBRANCH  12  13
ENDBRANCH   1  12
TORSDOF 14
ENDMDL
MODEL 5
REMARK VINA RESULT:    -3.334      2.401      3.730
REMARK INTER + INTRA:          -7.115
REMARK INTER:                  -5.551
REMARK INTRA:                  -1.564
REMARK UNBOUND:                -1.053
REMARK SMILES CCCCCCCCCCCCCC[C@@H](C)C(=O)[O-]
REMARK SMILES IDX 9 1 10 2 11 3 12 4 13 5 14 6 15 7 16 8 17 9 18 10 19 11 8 12
REMARK SMILES IDX 7 13 6 14 5 15 4 16 3 17 2 18 1 19
REMARK H PARENT
REMARK Flexibility Score: inf
ROOT
ATOM      1  C   UNL     1       1.722  22.460  22.167  1.00  0.00     0.000 C 
ENDROOT
BRANCH   1   2
ATOM      2  C   UNL     1       1.384  22.100  23.623  1.00  0.00     0.000 C 
BRANCH   2   3
ATOM      3  C   UNL     1       2.422  22.640  24.622  1.00  0.00     0.000 C 
BRANCH   3   4
ATOM      4  C   UNL     1       2.225  22.076  26.037  1.00  0.00     0.000 C 
BRANCH   4   5
ATOM      5  C   UNL     1       3.391  22.425  26.979  1.00  0.00     0.001 C 
BRANCH   5   6
ATOM      6  C   UNL     1       3.967  23.830  26.726  1.00  0.00     0.009 C 
BRANCH   6   7
ATOM      7  C   UNL     1       5.509  23.894  26.628  1.00  0.00     0.032 C 
ATOM      8  C   UNL     1       6.147  22.503  26.517  1.00  0.00     0.014 C 
BRANCH   7   9
ATOM      9  C   UNL     1       5.901  24.726  25.437  1.00  0.00     0.044 C 
ATOM     10  O   UNL     1       6.524  25.808  25.599  1.00  0.00    -0.550 OA
ATOM     11  O   UNL     1       5.567  24.314  24.152  1.00  0.00    -0.550 OA
ENDBRANCH   7   9
ENDBRANCH   6   7
ENDBRANCH   5   6
ENDBRANCH   4   5
ENDBRANCH   3   4
ENDBRANCH   2   3
ENDBRANCH   1   2
BRANCH   1  12
ATOM     12  C   UNL     1       2.618  23.703  22.059  1.00  0.00     0.000 C 
BRANCH  12  13
ATOM     13  C   UNL     1       1.827  24.906  21.530  1.00  0.00    -0.000 C 
BRANCH  13  14
ATOM     14  C   UNL     1       1.804  26.045  22.556  1.00  0.00    -0.000 C 
BRANCH  14  15
ATOM     15  C   UNL     1       1.805  25.496  23.988  1.00  0.00    -0.000 C 
BRANCH  15  16
ATOM     16  C   UNL     1       0.494  25.844  24.711  1.00  0.00    -0.000 C 
BRANCH  16  17
ATOM     17  C   UNL     1       0.535  25.502  26.208  1.00  0.00    -0.000 C 
BRANCH  17  18
ATOM     18  C   UNL     1      -0.818  25.006  26.740  1.00  0.00    -0.003 C 
ATOM     19  C   UNL     1      -0.846  23.483  26.835  1.00  0.00     0.004 C 
ENDBRANCH  17  18
ENDBRANCH  16  17
ENDBRANCH  15  16
ENDBRANCH  14  15
ENDBRANCH  13  14
ENDBRANCH  12  13
ENDBRANCH   1  12
TORSDOF 14
ENDMDL
MODEL 6
REMARK VINA RESULT:    -3.193      5.459      7.335
REMARK INTER + INTRA:          -6.859
REMARK INTER:                  -5.704
REMARK INTRA:                  -1.155
REMARK UNBOUND:                -1.053
REMARK SMILES CCCCCCCCCCCCCC[C@@H](C)C(=O)[O-]
REMARK SMILES IDX 9 1 10 2 11 3 12 4 13 5 14 6 15 7 16 8 17 9 18 10 19 11 8 12
REMARK SMILES IDX 7 13 6 14 5 15 4 16 3 17 2 18 1 19
REMARK H PARENT
REMARK Flexibility Score: inf
ROOT
ATOM      1  C   UNL     1       3.307  21.147  26.290  1.00  0.00     0.000 C 
ENDROOT
BRANCH   1   2
ATOM      2  C   UNL     1       4.354  20.348  27.082  1.00  0.00     0.000 C 
BRANCH   2   3
ATOM      3  C   UNL     1       4.040  18.842  27.125  1.00  0.00     0.000 C 
BRANCH   3   4
ATOM      4  C   UNL     1       5.140  17.994  26.468  1.00  0.00     0.000 C 
BRANCH   4   5
ATOM      5  C   UNL     1       4.907  16.484  26.648  1.00  0.00     0.001 C 
BRANCH   5   6
ATOM      6  C   UNL     1       3.429  16.080  26.483  1.00  0.00     0.009 C 
BRANCH   6   7
ATOM      7  C   UNL     1       3.131  15.188  25.256  1.00  0.00     0.032 C 
ATOM      8  C   UNL     1       1.627  15.005  25.016  1.00  0.00     0.014 C 
BRANCH   7   9
ATOM      9  C   UNL     1       3.768  15.791  24.032  1.00  0.00     0.044 C 
ATOM     10  O   UNL     1       3.266  16.816  23.498  1.00  0.00    -0.550 OA
ATOM     11  O   UNL     1       4.903  15.215  23.475  1.00  0.00    -0.550 OA
ENDBRANCH   7   9
ENDBRANCH   6   7
ENDBRANCH   5   6
ENDBRANCH   4   5
ENDBRANCH   3   4
ENDBRANCH   2   3
ENDBRANCH   1   2
BRANCH   1  12
ATOM     12  C   UNL     1       2.665  22.267  27.122  1.00  0.00     0.000 C 
BRANCH  12  13
ATOM     13  C   UNL     1       1.145  22.299  26.922  1.00  0.00    -0.000 C 
BRANCH  13  14
ATOM     14  C   UNL     1       0.779  22.952  25.584  1.00  0.00    -0.000 C 
BRANCH  14  15
ATOM     15  C   UNL     1       0.895  24.479  25.668  1.00  0.00    -0.000 C 
BRANCH  15  16
ATOM     16  C   UNL     1       1.598  25.046  24.424  1.00  0.00    -0.000 C 
BRANCH  16  17
ATOM     17  C   UNL     1       2.976  24.410  24.182  1.00  0.00    -0.000 C 
BRANCH  17  18
ATOM     18  C   UNL     1       3.159  23.927  22.735  1.00  0.00    -0.003 C 
ATOM     19  C   UNL     1       1.844  23.412  22.157  1.00  0.00     0.004 C 
ENDBRANCH  17  18
ENDBRANCH  16  17
ENDBRANCH  15  16
ENDBRANCH  14  15
ENDBRANCH  13  14
ENDBRANCH  12  13
ENDBRANCH   1  12
TORSDOF 14
ENDMDL
MODEL 7
REMARK VINA RESULT:    -3.171      5.401      7.463
REMARK INTER + INTRA:          -6.819
REMARK INTER:                  -5.816
REMARK INTRA:                  -1.002
REMARK UNBOUND:                -1.053
REMARK SMILES CCCCCCCCCCCCCC[C@@H](C)C(=O)[O-]
REMARK SMILES IDX 9 1 10 2 11 3 12 4 13 5 14 6 15 7 16 8 17 9 18 10 19 11 8 12
REMARK SMILES IDX 7 13 6 14 5 15 4 16 3 17 2 18 1 19
REMARK H PARENT
REMARK Flexibility Score: inf
ROOT
ATOM      1  C   UNL     1       5.308  21.621  27.039  1.00  0.00     0.000 C 
ENDROOT
BRANCH   1   2
ATOM      2  C   UNL     1       6.682  20.975  26.801  1.00  0.00     0.000 C 
BRANCH   2   3
ATOM      3  C   UNL     1       6.664  19.451  27.011  1.00  0.00     0.000 C 
BRANCH   3   4
ATOM      4  C   UNL     1       5.273  18.842  26.777  1.00  0.00     0.000 C 
BRANCH   4   5
ATOM      5  C   UNL     1       5.342  17.420  26.196  1.00  0.00     0.001 C 
BRANCH   5   6
ATOM      6  C   UNL     1       4.436  17.230  24.965  1.00  0.00     0.009 C 
BRANCH   6   7
ATOM      7  C   UNL     1       3.897  15.794  24.769  1.00  0.00     0.032 C 
ATOM      8  C   UNL     1       3.330  15.198  26.064  1.00  0.00     0.014 C 
BRANCH   7   9
ATOM      9  C   UNL     1       2.829  15.801  23.707  1.00  0.00     0.044 C 
ATOM     10  O   UNL     1       1.620  15.946  24.027  1.00  0.00    -0.550 OA
ATOM     11  O   UNL     1       3.169  15.632  22.370  1.00  0.00    -0.550 OA
ENDBRANCH   7   9
ENDBRANCH   6   7
ENDBRANCH   5   6
ENDBRANCH   4   5
ENDBRANCH   3   4
ENDBRANCH   2   3
ENDBRANCH   1   2
BRANCH   1  12
ATOM     12  C   UNL     1       5.320  23.138  26.799  1.00  0.00     0.000 C 
BRANCH  12  13
ATOM     13  C   UNL     1       3.940  23.634  26.349  1.00  0.00    -0.000 C 
BRANCH  13  14
ATOM     14  C   UNL     1       2.844  22.633  26.730  1.00  0.00    -0.000 C 
BRANCH  14  15
ATOM     15  C   UNL     1       1.916  22.353  25.541  1.00  0.00    -0.000 C 
BRANCH  15  16
ATOM     16  C   UNL     1       2.229  23.294  24.367  1.00  0.00    -0.000 C 
BRANCH  16  17
ATOM     17  C   UNL     1       1.706  22.759  23.025  1.00  0.00    -0.000 C 
BRANCH  17  18
ATOM     18  C   UNL     1       2.206  23.580  21.825  1.00  0.00    -0.003 C 
ATOM     19  C   UNL     1       2.292  25.063  22.172  1.00  0.00     0.004 C 
ENDBRANCH  17  18
ENDBRANCH  16  17
ENDBRANCH  15  16
ENDBRANCH  14  15
ENDBRANCH  13  14
ENDBRANCH  12  13
ENDBRANCH   1  12
TORSDOF 14
ENDMDL
MODEL 8
REMARK VINA RESULT:    -3.131     15.388     17.458
REMARK INTER + INTRA:          -6.746
REMARK INTER:                  -4.951
REMARK INTRA:                  -1.796
REMARK UNBOUND:                -1.053
REMARK SMILES CCCCCCCCCCCCCC[C@@H](C)C(=O)[O-]
REMARK SMILES IDX 9 1 10 2 11 3 12 4 13 5 14 6 15 7 16 8 17 9 18 10 19 11 8 12
REMARK SMILES IDX 7 13 6 14 5 15 4 16 3 17 2 18 1 19
REMARK H PARENT
REMARK Flexibility Score: inf
ROOT
ATOM      1  C   UNL     1      -8.307  16.809  24.457  1.00  0.00     0.000 C 
ENDROOT
BRANCH   1   2
ATOM      2  C   UNL     1      -7.857  15.413  23.999  1.00  0.00     0.000 C 
BRANCH   2   3
ATOM      3  C   UNL     1      -8.839  14.773  23.001  1.00  0.00     0.000 C 
BRANCH   3   4
ATOM      4  C   UNL     1      -9.979  14.018  23.702  1.00  0.00     0.000 C 
BRANCH   4   5
ATOM      5  C   UNL     1     -11.366  14.423  23.172  1.00  0.00     0.001 C 
BRANCH   5   6
ATOM      6  C   UNL     1     -11.318  15.006  21.748  1.00  0.00     0.009 C 
BRANCH   6   7
ATOM      7  C   UNL     1     -12.643  15.635  21.257  1.00  0.00     0.032 C 
ATOM      8  C   UNL     1     -13.049  16.865  22.080  1.00  0.00     0.014 C 
BRANCH   7   9
ATOM      9  C   UNL     1     -12.508  16.019  19.808  1.00  0.00     0.044 C 
ATOM     10  O   UNL     1     -12.854  17.167  19.423  1.00  0.00    -0.550 OA
ATOM     11  O   UNL     1     -12.016  15.106  18.883  1.00  0.00    -0.550 OA
ENDBRANCH   7   9
ENDBRANCH   6   7
ENDBRANCH   5   6
ENDBRANCH   4   5
ENDBRANCH   3   4
ENDBRANCH   2   3
ENDBRANCH   1   2
BRANCH   1  12
ATOM     12  C   UNL     1      -8.392  16.929  25.986  1.00  0.00     0.000 C 
BRANCH  12  13
ATOM     13  C   UNL     1      -9.777  17.424  26.422  1.00  0.00    -0.000 C 
BRANCH  13  14
ATOM     14  C   UNL     1     -10.751  17.451  25.238  1.00  0.00    -0.000 C 
BRANCH  14  15
ATOM     15  C   UNL     1     -12.204  17.367  25.719  1.00  0.00    -0.000 C 
BRANCH  15  16
ATOM     16  C   UNL     1     -12.949  18.685  25.453  1.00  0.00    -0.000 C 
BRANCH  16  17
ATOM     17  C   UNL     1     -12.771  19.704  26.588  1.00  0.00    -0.000 C 
BRANCH  17  18
ATOM     18  C   UNL     1     -11.714  20.771  26.266  1.00  0.00    -0.003 C 
ATOM     19  C   UNL     1     -12.353  22.009  25.644  1.00  0.00     0.004 C 
ENDBRANCH  17  18
ENDBRANCH  16  17
ENDBRANCH  15  16
ENDBRANCH  14  15
ENDBRANCH  13  14
ENDBRANCH  12  13
ENDBRANCH   1  12
TORSDOF 14
ENDMDL
MODEL 9
REMARK VINA RESULT:    -3.093      4.825      9.073
REMARK INTER + INTRA:          -6.677
REMARK INTER:                  -6.048
REMARK INTRA:                  -0.629
REMARK UNBOUND:                -1.053
REMARK SMILES CCCCCCCCCCCCCC[C@@H](C)C(=O)[O-]
REMARK SMILES IDX 9 1 10 2 11 3 12 4 13 5 14 6 15 7 16 8 17 9 18 10 19 11 8 12
REMARK SMILES IDX 7 13 6 14 5 15 4 16 3 17 2 18 1 19
REMARK H PARENT
REMARK Flexibility Score: inf
ROOT
ATOM      1  C   UNL     1       7.125  20.767  26.098  1.00  0.00     0.000 C 
ENDROOT
BRANCH   1   2
ATOM      2  C   UNL     1       6.678  22.129  26.653  1.00  0.00     0.000 C 
BRANCH   2   3
ATOM      3  C   UNL     1       6.130  23.062  25.559  1.00  0.00     0.000 C 
BRANCH   3   4
ATOM      4  C   UNL     1       5.196  24.144  26.123  1.00  0.00     0.000 C 
BRANCH   4   5
ATOM      5  C   UNL     1       3.761  24.025  25.581  1.00  0.00     0.001 C 
BRANCH   5   6
ATOM      6  C   UNL     1       3.701  24.000  24.042  1.00  0.00     0.009 C 
BRANCH   6   7
ATOM      7  C   UNL     1       2.287  24.178  23.443  1.00  0.00     0.032 C 
ATOM      8  C   UNL     1       2.323  24.554  21.956  1.00  0.00     0.014 C 
BRANCH   7   9
ATOM      9  C   UNL     1       1.503  22.906  23.623  1.00  0.00     0.044 C 
ATOM     10  O   UNL     1       0.955  22.651  24.728  1.00  0.00    -0.550 OA
ATOM     11  O   UNL     1       1.390  21.997  22.578  1.00  0.00    -0.550 OA
ENDBRANCH   7   9
ENDBRANCH   6   7
ENDBRANCH   5   6
ENDBRANCH   4   5
ENDBRANCH   3   4
ENDBRANCH   2   3
ENDBRANCH   1   2
BRANCH   1  12
ATOM     12  C   UNL     1       6.917  19.624  27.102  1.00  0.00     0.000 C 
BRANCH  12  13
ATOM     13  C   UNL     1       5.509  19.030  26.975  1.00  0.00    -0.000 C 
BRANCH  13  14
ATOM     14  C   UNL     1       5.564  17.583  26.472  1.00  0.00    -0.000 C 
BRANCH  14  15
ATOM     15  C   UNL     1       4.408  17.290  25.508  1.00  0.00    -0.000 C 
BRANCH  15  16
ATOM     16  C   UNL     1       3.648  16.023  25.930  1.00  0.00    -0.000 C 
BRANCH  16  17
ATOM     17  C   UNL     1       3.608  14.960  24.821  1.00  0.00    -0.000 C 
BRANCH  17  18
ATOM     18  C   UNL     1       4.146  15.482  23.480  1.00  0.00    -0.003 C 
ATOM     19  C   UNL     1       3.008  15.779  22.509  1.00  0.00     0.004 C 
ENDBRANCH  17  18
ENDBRANCH  16  17
ENDBRANCH  15  16
ENDBRANCH  14  15
ENDBRANCH  13  14
ENDBRANCH  12  13
ENDBRANCH   1  12
TORSDOF 14
ENDMDL
