MODEL 1
REMARK VINA RESULT:    -3.459      0.000      0.000
REMARK INTER + INTRA:          -4.928
REMARK INTER:                  -4.571
REMARK INTRA:                  -0.357
REMARK UNBOUND:                -0.357
REMARK SMILES C=C[C@H](O)CCCCC
REMARK SMILES IDX 6 1 7 2 8 3 9 4 5 5 3 6 2 7 1 8 4 9
REMARK H PARENT 4 10
REMARK Flexibility Score: inf
ROOT
ATOM      1  C   UNL     1      38.297 -22.086   5.526  1.00  0.00     0.003 C 
ENDROOT
BRANCH   1   2
ATOM      2  C   UNL     1      39.117 -23.042   4.646  1.00  0.00    -0.000 C 
BRANCH   2   3
ATOM      3  C   UNL     1      38.310 -24.266   4.188  1.00  0.00    -0.003 C 
ATOM      4  C   UNL     1      39.124 -25.548   4.341  1.00  0.00     0.004 C 
ENDBRANCH   2   3
ENDBRANCH   1   2
BRANCH   1   5
ATOM      5  C   UNL     1      38.698 -22.156   7.010  1.00  0.00     0.036 C 
BRANCH   5   6
ATOM      6  C   UNL     1      37.523 -22.600   7.910  1.00  0.00     0.136 C 
BRANCH   6   7
ATOM      7  C   UNL     1      36.795 -23.812   7.373  1.00  0.00    -0.004 C 
ATOM      8  C   UNL     1      35.507 -23.782   7.011  1.00  0.00     0.007 C 
ENDBRANCH   6   7
BRANCH   6   9
ATOM      9  O   UNL     1      36.625 -21.539   8.124  1.00  0.00    -0.389 OA
ATOM     10  H   UNL     1      36.580 -21.003   7.290  1.00  0.00     0.211 HD
ENDBRANCH   6   9
ENDBRANCH   5   6
ENDBRANCH   1   5
TORSDOF 6
ENDMDL
MODEL 2
REMARK VINA RESULT:    -2.922      1.696      4.076
REMARK INTER + INTRA:          -4.219
REMARK INTER:                  -3.893
REMARK INTRA:                  -0.325
REMARK UNBOUND:                -0.357
REMARK SMILES C=C[C@H](O)CCCCC
REMARK SMILES IDX 6 1 7 2 8 3 9 4 5 5 3 6 2 7 1 8 4 9
REMARK H PARENT 4 10
REMARK Flexibility Score: inf
ROOT
ATOM      1  C   UNL     1      36.275 -23.239   6.744  1.00  0.00     0.003 C 
ENDROOT
BRANCH   1   2
ATOM      2  C   UNL     1      36.822 -22.760   8.098  1.00  0.00    -0.000 C 
BRANCH   2   3
ATOM      3  C   UNL     1      38.355 -22.674   8.121  1.00  0.00    -0.003 C 
ATOM      4  C   UNL     1      38.823 -21.221   8.120  1.00  0.00     0.004 C 
ENDBRANCH   2   3
ENDBRANCH   1   2
BRANCH   1   5
ATOM      5  C   UNL     1      37.184 -24.285   6.075  1.00  0.00     0.036 C 
BRANCH   5   6
ATOM      6  C   UNL     1      37.630 -23.848   4.662  1.00  0.00     0.136 C 
BRANCH   6   7
ATOM      7  C   UNL     1      38.931 -24.490   4.231  1.00  0.00    -0.004 C 
ATOM      8  C   UNL     1      39.120 -25.815   4.231  1.00  0.00     0.007 C 
ENDBRANCH   6   7
BRANCH   6   9
ATOM      9  O   UNL     1      37.718 -22.448   4.571  1.00  0.00    -0.389 OA
ATOM     10  H   UNL     1      38.145 -22.113   5.403  1.00  0.00     0.211 HD
ENDBRANCH   6   9
ENDBRANCH   5   6
ENDBRANCH   1   5
TORSDOF 6
ENDMDL
MODEL 3
REMARK VINA RESULT:    -2.787      1.947      3.740
REMARK INTER + INTRA:          -4.040
REMARK INTER:                  -3.583
REMARK INTRA:                  -0.457
REMARK UNBOUND:                -0.357
REMARK SMILES C=C[C@H](O)CCCCC
REMARK SMILES IDX 6 1 7 2 8 3 9 4 5 5 3 6 2 7 1 8 4 9
REMARK H PARENT 4 10
REMARK Flexibility Score: inf
ROOT
ATOM      1  C   UNL     1      38.118 -22.309   7.071  1.00  0.00     0.003 C 
ENDROOT
BRANCH   1   2
ATOM      2  C   UNL     1      36.905 -22.095   7.990  1.00  0.00    -0.000 C 
BRANCH   2   3
ATOM      3  C   UNL     1      35.954 -23.301   8.005  1.00  0.00    -0.003 C 
ATOM      4  C   UNL     1      35.453 -23.621   6.600  1.00  0.00     0.004 C 
ENDBRANCH   2   3
ENDBRANCH   1   2
BRANCH   1   5
ATOM      5  C   UNL     1      39.052 -23.424   7.572  1.00  0.00     0.036 C 
BRANCH   5   6
ATOM      6  C   UNL     1      39.125 -24.609   6.583  1.00  0.00     0.136 C 
BRANCH   6   7
ATOM      7  C   UNL     1      38.624 -24.254   5.200  1.00  0.00    -0.004 C 
ATOM      8  C   UNL     1      39.096 -24.832   4.089  1.00  0.00     0.007 C 
ENDBRANCH   6   7
BRANCH   6   9
ATOM      9  O   UNL     1      38.436 -25.728   7.085  1.00  0.00    -0.389 OA
ATOM     10  H   UNL     1      37.797 -25.409   7.775  1.00  0.00     0.211 HD
ENDBRANCH   6   9
ENDBRANCH   5   6
ENDBRANCH   1   5
TORSDOF 6
ENDMDL
MODEL 4
REMARK VINA RESULT:    -2.567     19.544     20.800
REMARK INTER + INTRA:          -3.749
REMARK INTER:                  -3.298
REMARK INTRA:                  -0.450
REMARK UNBOUND:                -0.357
REMARK SMILES C=C[C@H](O)CCCCC
REMARK SMILES IDX 6 1 7 2 8 3 9 4 5 5 3 6 2 7 1 8 4 9
REMARK H PARENT 4 10
REMARK Flexibility Score: inf
ROOT
ATOM      1  C   UNL     1      35.307 -33.770 -11.177  1.00  0.00     0.003 C 
ENDROOT
BRANCH   1   2
ATOM      2  C   UNL     1      35.414 -34.975 -12.125  1.00  0.00    -0.000 C 
BRANCH   2   3
ATOM      3  C   UNL     1      34.480 -36.127 -11.725  1.00  0.00    -0.003 C 
ATOM      4  C   UNL     1      33.020 -35.682 -11.748  1.00  0.00     0.004 C 
ENDBRANCH   2   3
ENDBRANCH   1   2
BRANCH   1   5
ATOM      5  C   UNL     1      36.163 -33.936  -9.909  1.00  0.00     0.036 C 
BRANCH   5   6
ATOM      6  C   UNL     1      37.626 -34.307 -10.240  1.00  0.00     0.136 C 
BRANCH   6   7
ATOM      7  C   UNL     1      38.062 -35.609  -9.604  1.00  0.00    -0.004 C 
ATOM      8  C   UNL     1      37.200 -36.581  -9.281  1.00  0.00     0.007 C 
ENDBRANCH   6   7
BRANCH   6   9
ATOM      9  O   UNL     1      38.503 -33.267  -9.884  1.00  0.00    -0.389 OA
ATOM     10  H   UNL     1      38.444 -32.564 -10.583  1.00  0.00     0.211 HD
ENDBRANCH   6   9
ENDBRANCH   5   6
ENDBRANCH   1   5
TORSDOF 6
ENDMDL
MODEL 5
REMARK VINA RESULT:    -2.544     19.798     20.886
REMARK INTER + INTRA:          -3.718
REMARK INTER:                  -3.187
REMARK INTRA:                  -0.531
REMARK UNBOUND:                -0.357
REMARK SMILES C=C[C@H](O)CCCCC
REMARK SMILES IDX 6 1 7 2 8 3 9 4 5 5 3 6 2 7 1 8 4 9
REMARK H PARENT 4 10
REMARK Flexibility Score: inf
ROOT
ATOM      1  C   UNL     1      35.367 -36.199 -11.074  1.00  0.00     0.003 C 
ENDROOT
BRANCH   1   2
ATOM      2  C   UNL     1      36.603 -36.970 -10.584  1.00  0.00    -0.000 C 
BRANCH   2   3
ATOM      3  C   UNL     1      36.870 -36.770  -9.085  1.00  0.00    -0.003 C 
ATOM      4  C   UNL     1      38.352 -36.514  -8.822  1.00  0.00     0.004 C 
ENDBRANCH   2   3
ENDBRANCH   1   2
BRANCH   1   5
ATOM      5  C   UNL     1      35.382 -34.722 -10.646  1.00  0.00     0.036 C 
BRANCH   5   6
ATOM      6  C   UNL     1      35.830 -33.788 -11.792  1.00  0.00     0.136 C 
BRANCH   6   7
ATOM      7  C   UNL     1      37.287 -33.391 -11.693  1.00  0.00    -0.004 C 
ATOM      8  C   UNL     1      37.932 -33.290 -10.526  1.00  0.00     0.007 C 
ENDBRANCH   6   7
BRANCH   6   9
ATOM      9  O   UNL     1      35.012 -32.647 -11.862  1.00  0.00    -0.389 OA
ATOM     10  H   UNL     1      34.959 -32.252 -10.953  1.00  0.00     0.211 HD
ENDBRANCH   6   9
ENDBRANCH   5   6
ENDBRANCH   1   5
TORSDOF 6
ENDMDL
MODEL 6
REMARK VINA RESULT:    -2.449     20.126     20.935
REMARK INTER + INTRA:          -3.593
REMARK INTER:                  -3.012
REMARK INTRA:                  -0.581
REMARK UNBOUND:                -0.357
REMARK SMILES C=C[C@H](O)CCCCC
REMARK SMILES IDX 6 1 7 2 8 3 9 4 5 5 3 6 2 7 1 8 4 9
REMARK H PARENT 4 10
REMARK Flexibility Score: inf
ROOT
ATOM      1  C   UNL     1      35.645 -34.405 -10.345  1.00  0.00     0.003 C 
ENDROOT
BRANCH   1   2
ATOM      2  C   UNL     1      35.840 -33.332 -11.428  1.00  0.00    -0.000 C 
BRANCH   2   3
ATOM      3  C   UNL     1      37.313 -33.147 -11.820  1.00  0.00    -0.003 C 
ATOM      4  C   UNL     1      38.228 -33.309 -10.608  1.00  0.00     0.004 C 
ENDBRANCH   2   3
ENDBRANCH   1   2
BRANCH   1   5
ATOM      5  C   UNL     1      35.387 -35.802 -10.935  1.00  0.00     0.036 C 
BRANCH   5   6
ATOM      6  C   UNL     1      36.480 -36.816 -10.531  1.00  0.00     0.136 C 
BRANCH   6   7
ATOM      7  C   UNL     1      37.006 -36.588  -9.131  1.00  0.00    -0.004 C 
ATOM      8  C   UNL     1      38.313 -36.554  -8.845  1.00  0.00     0.007 C 
ENDBRANCH   6   7
BRANCH   6   9
ATOM      9  O   UNL     1      37.536 -36.816 -11.460  1.00  0.00    -0.389 OA
ATOM     10  H   UNL     1      38.323 -36.392 -11.029  1.00  0.00     0.211 HD
ENDBRANCH   6   9
ENDBRANCH   5   6
ENDBRANCH   1   5
TORSDOF 6
ENDMDL
MODEL 7
REMARK VINA RESULT:    -2.163      2.323      4.268
REMARK INTER + INTRA:          -3.215
REMARK INTER:                  -3.003
REMARK INTRA:                  -0.212
REMARK UNBOUND:                -0.357
REMARK SMILES C=C[C@H](O)CCCCC
REMARK SMILES IDX 6 1 7 2 8 3 9 4 5 5 3 6 2 7 1 8 4 9
REMARK H PARENT 4 10
REMARK Flexibility Score: inf
ROOT
ATOM      1  C   UNL     1      37.182 -24.435   6.809  1.00  0.00     0.003 C 
ENDROOT
BRANCH   1   2
ATOM      2  C   UNL     1      36.890 -23.139   7.582  1.00  0.00    -0.000 C 
BRANCH   2   3
ATOM      3  C   UNL     1      38.164 -22.474   8.125  1.00  0.00    -0.003 C 
ATOM      4  C   UNL     1      38.090 -20.956   7.988  1.00  0.00     0.004 C 
ENDBRANCH   2   3
ENDBRANCH   1   2
BRANCH   1   5
ATOM      5  C   UNL     1      38.688 -24.679   6.608  1.00  0.00     0.036 C 
BRANCH   5   6
ATOM      6  C   UNL     1      39.093 -24.623   5.119  1.00  0.00     0.136 C 
BRANCH   6   7
ATOM      7  C   UNL     1      38.524 -23.420   4.398  1.00  0.00    -0.004 C 
ATOM      8  C   UNL     1      38.821 -22.162   4.745  1.00  0.00     0.007 C 
ENDBRANCH   6   7
BRANCH   6   9
ATOM      9  O   UNL     1      38.736 -25.810   4.454  1.00  0.00    -0.389 OA
ATOM     10  H   UNL     1      38.631 -25.601   3.489  1.00  0.00     0.211 HD
ENDBRANCH   6   9
ENDBRANCH   5   6
ENDBRANCH   1   5
TORSDOF 6
ENDMDL
