MODEL 1
REMARK VINA RESULT:    -5.141      0.000      0.000
REMARK INTER + INTRA:         -11.701
REMARK INTER:                  -9.349
REMARK INTRA:                  -2.352
REMARK UNBOUND:                -2.352
REMARK SMILES CCCCCCCCCCCCCCCC(=O)[O-]
REMARK SMILES IDX 9 1 10 2 11 3 12 4 13 5 14 6 15 7 16 8 17 9 18 10 8 11 7 12
REMARK SMILES IDX 6 13 5 14 4 15 3 16 2 17 1 18
REMARK H PARENT
REMARK Flexibility Score: inf
ROOT
ATOM      1  C   UNL     1     101.542 104.578 227.732  1.00  0.00     0.000 C 
ENDROOT
BRANCH   1   2
ATOM      2  C   UNL     1     102.720 105.559 227.833  1.00  0.00     0.000 C 
BRANCH   2   3
ATOM      3  C   UNL     1     103.810 105.214 226.805  1.00  0.00     0.000 C 
BRANCH   3   4
ATOM      4  C   UNL     1     105.156 104.869 227.462  1.00  0.00     0.000 C 
BRANCH   4   5
ATOM      5  C   UNL     1     105.341 105.546 228.828  1.00  0.00     0.000 C 
BRANCH   5   6
ATOM      6  C   UNL     1     105.920 104.561 229.854  1.00  0.00     0.006 C 
BRANCH   6   7
ATOM      7  C   UNL     1     105.458 103.120 229.602  1.00  0.00     0.053 C 
BRANCH   7   8
ATOM      8  C   UNL     1     105.314 102.352 230.880  1.00  0.00     0.041 C 
ATOM      9  O   UNL     1     105.953 102.703 231.906  1.00  0.00    -0.550 OA
ATOM     10  O   UNL     1     104.450 101.267 230.945  1.00  0.00    -0.550 OA
ENDBRANCH   7   8
ENDBRANCH   6   7
ENDBRANCH   5   6
ENDBRANCH   4   5
ENDBRANCH   3   4
ENDBRANCH   2   3
ENDBRANCH   1   2
BRANCH   1  11
ATOM     11  C   UNL     1     101.467 103.617 228.930  1.00  0.00     0.000 C 
BRANCH  11  12
ATOM     12  C   UNL     1     102.031 104.236 230.220  1.00  0.00    -0.000 C 
BRANCH  12  13
ATOM     13  C   UNL     1     100.957 104.938 231.070  1.00  0.00    -0.000 C 
BRANCH  13  14
ATOM     14  C   UNL     1     101.456 106.112 231.931  1.00  0.00    -0.000 C 
BRANCH  14  15
ATOM     15  C   UNL     1     102.460 107.014 231.192  1.00  0.00    -0.000 C 
BRANCH  15  16
ATOM     16  C   UNL     1     103.868 106.979 231.815  1.00  0.00    -0.000 C 
BRANCH  16  17
ATOM     17  C   UNL     1     104.007 106.091 233.064  1.00  0.00    -0.003 C 
ATOM     18  C   UNL     1     105.459 105.883 233.493  1.00  0.00     0.004 C 
ENDBRANCH  16  17
ENDBRANCH  15  16
ENDBRANCH  14  15
ENDBRANCH  13  14
ENDBRANCH  12  13
ENDBRANCH  11  12
ENDBRANCH   1  11
TORSDOF 14
ENDMDL
MODEL 2
REMARK VINA RESULT:    -5.071      1.395      4.420
REMARK INTER + INTRA:         -11.573
REMARK INTER:                  -9.315
REMARK INTRA:                  -2.258
REMARK UNBOUND:                -2.352
REMARK SMILES CCCCCCCCCCCCCCCC(=O)[O-]
REMARK SMILES IDX 9 1 10 2 11 3 12 4 13 5 14 6 15 7 16 8 17 9 18 10 8 11 7 12
REMARK SMILES IDX 6 13 5 14 4 15 3 16 2 17 1 18
REMARK H PARENT
REMARK Flexibility Score: inf
ROOT
ATOM      1  C   UNL     1     102.888 107.716 230.451  1.00  0.00     0.000 C 
ENDROOT
BRANCH   1   2
ATOM      2  C   UNL     1     102.636 106.891 231.722  1.00  0.00     0.000 C 
BRANCH   2   3
ATOM      3  C   UNL     1     103.779 105.892 231.964  1.00  0.00     0.000 C 
BRANCH   3   4
ATOM      4  C   UNL     1     104.464 106.092 233.325  1.00  0.00     0.000 C 
BRANCH   4   5
ATOM      5  C   UNL     1     105.905 105.564 233.346  1.00  0.00     0.000 C 
BRANCH   5   6
ATOM      6  C   UNL     1     106.209 104.747 232.081  1.00  0.00     0.006 C 
BRANCH   6   7
ATOM      7  C   UNL     1     106.544 103.284 232.400  1.00  0.00     0.053 C 
BRANCH   7   8
ATOM      8  C   UNL     1     106.856 102.503 231.160  1.00  0.00     0.041 C 
ATOM      9  O   UNL     1     107.107 103.100 230.081  1.00  0.00    -0.550 OA
ATOM     10  O   UNL     1     106.900 101.116 231.206  1.00  0.00    -0.550 OA
ENDBRANCH   7   8
ENDBRANCH   6   7
ENDBRANCH   5   6
ENDBRANCH   4   5
ENDBRANCH   3   4
ENDBRANCH   2   3
ENDBRANCH   1   2
BRANCH   1  11
ATOM     11  C   UNL     1     104.383 107.845 230.115  1.00  0.00     0.000 C 
BRANCH  11  12
ATOM     12  C   UNL     1     104.708 107.388 228.683  1.00  0.00    -0.000 C 
BRANCH  12  13
ATOM     13  C   UNL     1     105.340 105.985 228.628  1.00  0.00    -0.000 C 
BRANCH  13  14
ATOM     14  C   UNL     1     104.377 104.839 228.267  1.00  0.00    -0.000 C 
BRANCH  14  15
ATOM     15  C   UNL     1     103.256 105.276 227.309  1.00  0.00    -0.000 C 
BRANCH  15  16
ATOM     16  C   UNL     1     101.860 104.820 227.771  1.00  0.00    -0.000 C 
BRANCH  16  17
ATOM     17  C   UNL     1     101.841 103.995 229.071  1.00  0.00    -0.003 C 
ATOM     18  C   UNL     1     100.644 104.314 229.966  1.00  0.00     0.004 C 
ENDBRANCH  16  17
ENDBRANCH  15  16
ENDBRANCH  14  15
ENDBRANCH  13  14
ENDBRANCH  12  13
ENDBRANCH  11  12
ENDBRANCH   1  11
TORSDOF 14
ENDMDL
MODEL 3
REMARK VINA RESULT:    -5.041      2.326      4.788
REMARK INTER + INTRA:         -11.518
REMARK INTER:                  -9.137
REMARK INTRA:                  -2.381
REMARK UNBOUND:                -2.352
REMARK SMILES CCCCCCCCCCCCCCCC(=O)[O-]
REMARK SMILES IDX 9 1 10 2 11 3 12 4 13 5 14 6 15 7 16 8 17 9 18 10 8 11 7 12
REMARK SMILES IDX 6 13 5 14 4 15 3 16 2 17 1 18
REMARK H PARENT
REMARK Flexibility Score: inf
ROOT
ATOM      1  C   UNL     1     101.937 102.153 230.727  1.00  0.00     0.000 C 
ENDROOT
BRANCH   1   2
ATOM      2  C   UNL     1     100.771 102.884 230.043  1.00  0.00     0.000 C 
BRANCH   2   3
ATOM      3  C   UNL     1     101.274 103.746 228.874  1.00  0.00     0.000 C 
BRANCH   3   4
ATOM      4  C   UNL     1     101.086 105.251 229.123  1.00  0.00     0.000 C 
BRANCH   4   5
ATOM      5  C   UNL     1     100.579 105.559 230.539  1.00  0.00     0.000 C 
BRANCH   5   6
ATOM      6  C   UNL     1     101.681 106.213 231.387  1.00  0.00     0.006 C 
BRANCH   6   7
ATOM      7  C   UNL     1     102.148 105.307 232.533  1.00  0.00     0.053 C 
BRANCH   7   8
ATOM      8  C   UNL     1     102.170 106.034 233.842  1.00  0.00     0.041 C 
ATOM      9  O   UNL     1     103.235 106.111 234.507  1.00  0.00    -0.550 OA
ATOM     10  O   UNL     1     101.018 106.652 234.313  1.00  0.00    -0.550 OA
ENDBRANCH   7   8
ENDBRANCH   6   7
ENDBRANCH   5   6
ENDBRANCH   4   5
ENDBRANCH   3   4
ENDBRANCH   2   3
ENDBRANCH   1   2
BRANCH   1  11
ATOM     11  C   UNL     1     103.287 102.422 230.044  1.00  0.00     0.000 C 
BRANCH  11  12
ATOM     12  C   UNL     1     104.483 102.142 230.970  1.00  0.00    -0.000 C 
BRANCH  12  13
ATOM     13  C   UNL     1     105.162 103.426 231.481  1.00  0.00    -0.000 C 
BRANCH  13  14
ATOM     14  C   UNL     1     106.173 104.069 230.515  1.00  0.00    -0.000 C 
BRANCH  14  15
ATOM     15  C   UNL     1     105.869 105.548 230.222  1.00  0.00    -0.000 C 
BRANCH  15  16
ATOM     16  C   UNL     1     104.755 105.735 229.176  1.00  0.00    -0.000 C 
BRANCH  16  17
ATOM     17  C   UNL     1     104.967 104.976 227.854  1.00  0.00    -0.003 C 
ATOM     18  C   UNL     1     103.929 105.325 226.789  1.00  0.00     0.004 C 
ENDBRANCH  16  17
ENDBRANCH  15  16
ENDBRANCH  14  15
ENDBRANCH  13  14
ENDBRANCH  12  13
ENDBRANCH  11  12
ENDBRANCH   1  11
TORSDOF 14
ENDMDL
MODEL 4
REMARK VINA RESULT:    -5.018      2.467      3.791
REMARK INTER + INTRA:         -11.476
REMARK INTER:                  -9.069
REMARK INTRA:                  -2.407
REMARK UNBOUND:                -2.352
REMARK SMILES CCCCCCCCCCCCCCCC(=O)[O-]
REMARK SMILES IDX 9 1 10 2 11 3 12 4 13 5 14 6 15 7 16 8 17 9 18 10 8 11 7 12
REMARK SMILES IDX 6 13 5 14 4 15 3 16 2 17 1 18
REMARK H PARENT
REMARK Flexibility Score: inf
ROOT
ATOM      1  C   UNL     1     102.260 104.644 230.252  1.00  0.00     0.000 C 
ENDROOT
BRANCH   1   2
ATOM      2  C   UNL     1     101.616 105.303 229.023  1.00  0.00     0.000 C 
BRANCH   2   3
ATOM      3  C   UNL     1     102.217 104.744 227.724  1.00  0.00     0.000 C 
BRANCH   3   4
ATOM      4  C   UNL     1     103.387 105.591 227.198  1.00  0.00     0.000 C 
BRANCH   4   5
ATOM      5  C   UNL     1     104.751 105.087 227.690  1.00  0.00     0.000 C 
BRANCH   5   6
ATOM      6  C   UNL     1     105.377 106.079 228.683  1.00  0.00     0.006 C 
BRANCH   6   7
ATOM      7  C   UNL     1     104.669 107.440 228.668  1.00  0.00     0.053 C 
BRANCH   7   8
ATOM      8  C   UNL     1     104.399 107.941 230.054  1.00  0.00     0.041 C 
ATOM      9  O   UNL     1     105.351 108.301 230.794  1.00  0.00    -0.550 OA
ATOM     10  O   UNL     1     103.093 108.038 230.516  1.00  0.00    -0.550 OA
ENDBRANCH   7   8
ENDBRANCH   6   7
ENDBRANCH   5   6
ENDBRANCH   4   5
ENDBRANCH   3   4
ENDBRANCH   2   3
ENDBRANCH   1   2
BRANCH   1  11
ATOM     11  C   UNL     1     102.408 103.121 230.100  1.00  0.00     0.000 C 
BRANCH  11  12
ATOM     12  C   UNL     1     103.446 102.529 231.069  1.00  0.00    -0.000 C 
BRANCH  12  13
ATOM     13  C   UNL     1     104.883 102.991 230.768  1.00  0.00    -0.000 C 
BRANCH  13  14
ATOM     14  C   UNL     1     105.944 102.564 231.798  1.00  0.00    -0.000 C 
BRANCH  14  15
ATOM     15  C   UNL     1     106.606 103.757 232.509  1.00  0.00    -0.000 C 
BRANCH  15  16
ATOM     16  C   UNL     1     105.906 105.095 232.212  1.00  0.00    -0.000 C 
BRANCH  16  17
ATOM     17  C   UNL     1     105.343 105.825 233.446  1.00  0.00    -0.003 C 
ATOM     18  C   UNL     1     103.837 106.070 233.363  1.00  0.00     0.004 C 
ENDBRANCH  16  17
ENDBRANCH  15  16
ENDBRANCH  14  15
ENDBRANCH  13  14
ENDBRANCH  12  13
ENDBRANCH  11  12
ENDBRANCH   1  11
TORSDOF 14
ENDMDL
MODEL 5
REMARK VINA RESULT:    -5.011      2.216      4.289
REMARK INTER + INTRA:         -11.465
REMARK INTER:                  -9.239
REMARK INTRA:                  -2.226
REMARK UNBOUND:                -2.352
REMARK SMILES CCCCCCCCCCCCCCCC(=O)[O-]
REMARK SMILES IDX 9 1 10 2 11 3 12 4 13 5 14 6 15 7 16 8 17 9 18 10 8 11 7 12
REMARK SMILES IDX 6 13 5 14 4 15 3 16 2 17 1 18
REMARK H PARENT
REMARK Flexibility Score: inf
ROOT
ATOM      1  C   UNL     1     104.822 103.543 230.391  1.00  0.00     0.000 C 
ENDROOT
BRANCH   1   2
ATOM      2  C   UNL     1     105.256 103.873 228.955  1.00  0.00     0.000 C 
BRANCH   2   3
ATOM      3  C   UNL     1     105.505 105.381 228.791  1.00  0.00     0.000 C 
BRANCH   3   4
ATOM      4  C   UNL     1     104.360 106.094 228.054  1.00  0.00     0.000 C 
BRANCH   4   5
ATOM      5  C   UNL     1     103.616 105.170 227.079  1.00  0.00     0.000 C 
BRANCH   5   6
ATOM      6  C   UNL     1     102.103 105.194 227.346  1.00  0.00     0.006 C 
BRANCH   6   7
ATOM      7  C   UNL     1     101.701 104.260 228.494  1.00  0.00     0.053 C 
BRANCH   7   8
ATOM      8  C   UNL     1     100.881 104.971 229.527  1.00  0.00     0.041 C 
ATOM      9  O   UNL     1     100.434 106.125 229.298  1.00  0.00    -0.550 OA
ATOM     10  O   UNL     1     100.586 104.345 230.731  1.00  0.00    -0.550 OA
ENDBRANCH   7   8
ENDBRANCH   6   7
ENDBRANCH   5   6
ENDBRANCH   4   5
ENDBRANCH   3   4
ENDBRANCH   2   3
ENDBRANCH   1   2
BRANCH   1  11
ATOM     11  C   UNL     1     105.675 102.434 231.029  1.00  0.00     0.000 C 
BRANCH  11  12
ATOM     12  C   UNL     1     106.505 102.940 232.221  1.00  0.00    -0.000 C 
BRANCH  12  13
ATOM     13  C   UNL     1     106.758 104.458 232.177  1.00  0.00    -0.000 C 
BRANCH  13  14
ATOM     14  C   UNL     1     106.440 105.219 233.477  1.00  0.00    -0.000 C 
BRANCH  14  15
ATOM     15  C   UNL     1     105.049 105.874 233.465  1.00  0.00    -0.000 C 
BRANCH  15  16
ATOM     16  C   UNL     1     104.802 106.735 232.213  1.00  0.00    -0.000 C 
BRANCH  16  17
ATOM     17  C   UNL     1     103.363 106.696 231.667  1.00  0.00    -0.003 C 
ATOM     18  C   UNL     1     102.998 107.933 230.847  1.00  0.00     0.004 C 
ENDBRANCH  16  17
ENDBRANCH  15  16
ENDBRANCH  14  15
ENDBRANCH  13  14
ENDBRANCH  12  13
ENDBRANCH  11  12
ENDBRANCH   1  11
TORSDOF 14
ENDMDL
MODEL 6
REMARK VINA RESULT:    -5.006      1.466      3.538
REMARK INTER + INTRA:         -11.455
REMARK INTER:                  -9.272
REMARK INTRA:                  -2.183
REMARK UNBOUND:                -2.352
REMARK SMILES CCCCCCCCCCCCCCCC(=O)[O-]
REMARK SMILES IDX 9 1 10 2 11 3 12 4 13 5 14 6 15 7 16 8 17 9 18 10 8 11 7 12
REMARK SMILES IDX 6 13 5 14 4 15 3 16 2 17 1 18
REMARK H PARENT
REMARK Flexibility Score: inf
ROOT
ATOM      1  C   UNL     1     104.537 107.192 230.012  1.00  0.00     0.000 C 
ENDROOT
BRANCH   1   2
ATOM      2  C   UNL     1     104.692 106.951 228.503  1.00  0.00     0.000 C 
BRANCH   2   3
ATOM      3  C   UNL     1     104.464 105.471 228.157  1.00  0.00     0.000 C 
BRANCH   3   4
ATOM      4  C   UNL     1     103.260 105.258 227.226  1.00  0.00     0.000 C 
BRANCH   4   5
ATOM      5  C   UNL     1     101.917 105.344 227.965  1.00  0.00     0.000 C 
BRANCH   5   6
ATOM      6  C   UNL     1     101.317 103.946 228.178  1.00  0.00     0.006 C 
BRANCH   6   7
ATOM      7  C   UNL     1     101.007 103.664 229.654  1.00  0.00     0.053 C 
BRANCH   7   8
ATOM      8  C   UNL     1     101.919 102.621 230.223  1.00  0.00     0.041 C 
ATOM      9  O   UNL     1     103.167 102.740 230.110  1.00  0.00    -0.550 OA
ATOM     10  O   UNL     1     101.391 101.534 230.906  1.00  0.00    -0.550 OA
ENDBRANCH   7   8
ENDBRANCH   6   7
ENDBRANCH   5   6
ENDBRANCH   4   5
ENDBRANCH   3   4
ENDBRANCH   2   3
ENDBRANCH   1   2
BRANCH   1  11
ATOM     11  C   UNL     1     103.137 107.703 230.391  1.00  0.00     0.000 C 
BRANCH  11  12
ATOM     12  C   UNL     1     102.487 106.870 231.510  1.00  0.00    -0.000 C 
BRANCH  12  13
ATOM     13  C   UNL     1     103.401 105.747 232.031  1.00  0.00    -0.000 C 
BRANCH  13  14
ATOM     14  C   UNL     1     104.046 106.003 233.405  1.00  0.00    -0.000 C 
BRANCH  14  15
ATOM     15  C   UNL     1     105.583 105.958 233.366  1.00  0.00    -0.000 C 
BRANCH  15  16
ATOM     16  C   UNL     1     106.129 104.648 232.769  1.00  0.00    -0.000 C 
BRANCH  16  17
ATOM     17  C   UNL     1     107.023 104.819 231.527  1.00  0.00    -0.003 C 
ATOM     18  C   UNL     1     106.773 103.756 230.458  1.00  0.00     0.004 C 
ENDBRANCH  16  17
ENDBRANCH  15  16
ENDBRANCH  14  15
ENDBRANCH  13  14
ENDBRANCH  12  13
ENDBRANCH  11  12
ENDBRANCH   1  11
TORSDOF 14
ENDMDL
MODEL 7
REMARK VINA RESULT:    -4.978      1.223      3.387
REMARK INTER + INTRA:         -11.404
REMARK INTER:                  -8.845
REMARK INTRA:                  -2.559
REMARK UNBOUND:                -2.352
REMARK SMILES CCCCCCCCCCCCCCCC(=O)[O-]
REMARK SMILES IDX 9 1 10 2 11 3 12 4 13 5 14 6 15 7 16 8 17 9 18 10 8 11 7 12
REMARK SMILES IDX 6 13 5 14 4 15 3 16 2 17 1 18
REMARK H PARENT
REMARK Flexibility Score: inf
ROOT
ATOM      1  C   UNL     1     104.754 107.807 231.194  1.00  0.00     0.000 C 
ENDROOT
BRANCH   1   2
ATOM      2  C   UNL     1     105.740 107.640 230.028  1.00  0.00     0.000 C 
BRANCH   2   3
ATOM      3  C   UNL     1     104.998 107.612 228.682  1.00  0.00     0.000 C 
BRANCH   3   4
ATOM      4  C   UNL     1     104.296 106.270 228.420  1.00  0.00     0.000 C 
BRANCH   4   5
ATOM      5  C   UNL     1     105.285 105.107 228.251  1.00  0.00     0.000 C 
BRANCH   5   6
ATOM      6  C   UNL     1     105.027 104.011 229.297  1.00  0.00     0.006 C 
BRANCH   6   7
ATOM      7  C   UNL     1     106.209 103.836 230.259  1.00  0.00     0.053 C 
BRANCH   7   8
ATOM      8  C   UNL     1     105.848 102.975 231.430  1.00  0.00     0.041 C 
ATOM      9  O   UNL     1     106.535 103.018 232.484  1.00  0.00    -0.550 OA
ATOM     10  O   UNL     1     104.735 102.148 231.368  1.00  0.00    -0.550 OA
ENDBRANCH   7   8
ENDBRANCH   6   7
ENDBRANCH   5   6
ENDBRANCH   4   5
ENDBRANCH   3   4
ENDBRANCH   2   3
ENDBRANCH   1   2
BRANCH   1  11
ATOM     11  C   UNL     1     104.812 106.638 232.191  1.00  0.00     0.000 C 
BRANCH  11  12
ATOM     12  C   UNL     1     103.508 105.822 232.219  1.00  0.00    -0.000 C 
BRANCH  12  13
ATOM     13  C   UNL     1     102.317 106.570 231.593  1.00  0.00    -0.000 C 
BRANCH  13  14
ATOM     14  C   UNL     1     100.924 106.079 232.031  1.00  0.00    -0.000 C 
BRANCH  14  15
ATOM     15  C   UNL     1     100.217 105.239 230.954  1.00  0.00    -0.000 C 
BRANCH  15  16
ATOM     16  C   UNL     1     100.902 105.328 229.578  1.00  0.00    -0.000 C 
BRANCH  16  17
ATOM     17  C   UNL     1     101.292 103.976 228.953  1.00  0.00    -0.003 C 
ATOM     18  C   UNL     1     101.532 102.882 229.993  1.00  0.00     0.004 C 
ENDBRANCH  16  17
ENDBRANCH  15  16
ENDBRANCH  14  15
ENDBRANCH  13  14
ENDBRANCH  12  13
ENDBRANCH  11  12
ENDBRANCH   1  11
TORSDOF 14
ENDMDL
MODEL 8
REMARK VINA RESULT:    -4.966      1.296      3.185
REMARK INTER + INTRA:         -11.382
REMARK INTER:                  -9.060
REMARK INTRA:                  -2.322
REMARK UNBOUND:                -2.352
REMARK SMILES CCCCCCCCCCCCCCCC(=O)[O-]
REMARK SMILES IDX 9 1 10 2 11 3 12 4 13 5 14 6 15 7 16 8 17 9 18 10 8 11 7 12
REMARK SMILES IDX 6 13 5 14 4 15 3 16 2 17 1 18
REMARK H PARENT
REMARK Flexibility Score: inf
ROOT
ATOM      1  C   UNL     1     102.302 105.126 227.416  1.00  0.00     0.000 C 
ENDROOT
BRANCH   1   2
ATOM      2  C   UNL     1     102.207 104.677 228.882  1.00  0.00     0.000 C 
BRANCH   2   3
ATOM      3  C   UNL     1     101.254 103.480 229.028  1.00  0.00     0.000 C 
BRANCH   3   4
ATOM      4  C   UNL     1     101.579 102.609 230.252  1.00  0.00     0.000 C 
BRANCH   4   5
ATOM      5  C   UNL     1     102.863 103.051 230.970  1.00  0.00     0.000 C 
BRANCH   5   6
ATOM      6  C   UNL     1     104.009 102.063 230.701  1.00  0.00     0.006 C 
BRANCH   6   7
ATOM      7  C   UNL     1     105.317 102.776 230.338  1.00  0.00     0.053 C 
BRANCH   7   8
ATOM      8  C   UNL     1     106.391 102.514 231.348  1.00  0.00     0.041 C 
ATOM      9  O   UNL     1     106.576 103.317 232.300  1.00  0.00    -0.550 OA
ATOM     10  O   UNL     1     107.167 101.366 231.256  1.00  0.00    -0.550 OA
ENDBRANCH   7   8
ENDBRANCH   6   7
ENDBRANCH   5   6
ENDBRANCH   4   5
ENDBRANCH   3   4
ENDBRANCH   2   3
ENDBRANCH   1   2
BRANCH   1  11
ATOM     11  C   UNL     1     103.734 105.508 227.005  1.00  0.00     0.000 C 
BRANCH  11  12
ATOM     12  C   UNL     1     104.642 105.783 228.216  1.00  0.00    -0.000 C 
BRANCH  12  13
ATOM     13  C   UNL     1     104.811 107.284 228.513  1.00  0.00    -0.000 C 
BRANCH  13  14
ATOM     14  C   UNL     1     104.792 107.669 230.003  1.00  0.00    -0.000 C 
BRANCH  14  15
ATOM     15  C   UNL     1     104.856 106.451 230.940  1.00  0.00    -0.000 C 
BRANCH  15  16
ATOM     16  C   UNL     1     103.776 106.481 232.036  1.00  0.00    -0.000 C 
BRANCH  16  17
ATOM     17  C   UNL     1     102.387 106.954 231.571  1.00  0.00    -0.003 C 
ATOM     18  C   UNL     1     101.240 106.258 232.303  1.00  0.00     0.004 C 
ENDBRANCH  16  17
ENDBRANCH  15  16
ENDBRANCH  14  15
ENDBRANCH  13  14
ENDBRANCH  12  13
ENDBRANCH  11  12
ENDBRANCH   1  11
TORSDOF 14
ENDMDL
MODEL 9
REMARK VINA RESULT:    -4.959      2.444      4.397
REMARK INTER + INTRA:         -11.370
REMARK INTER:                  -9.194
REMARK INTRA:                  -2.177
REMARK UNBOUND:                -2.352
REMARK SMILES CCCCCCCCCCCCCCCC(=O)[O-]
REMARK SMILES IDX 9 1 10 2 11 3 12 4 13 5 14 6 15 7 16 8 17 9 18 10 8 11 7 12
REMARK SMILES IDX 6 13 5 14 4 15 3 16 2 17 1 18
REMARK H PARENT
REMARK Flexibility Score: inf
ROOT
ATOM      1  C   UNL     1     104.508 105.725 228.200  1.00  0.00     0.000 C 
ENDROOT
BRANCH   1   2
ATOM      2  C   UNL     1     104.752 107.192 228.586  1.00  0.00     0.000 C 
BRANCH   2   3
ATOM      3  C   UNL     1     105.573 107.289 229.881  1.00  0.00     0.000 C 
BRANCH   3   4
ATOM      4  C   UNL     1     104.717 107.667 231.100  1.00  0.00     0.000 C 
BRANCH   4   5
ATOM      5  C   UNL     1     105.017 106.795 232.329  1.00  0.00     0.000 C 
BRANCH   5   6
ATOM      6  C   UNL     1     103.772 106.001 232.754  1.00  0.00     0.006 C 
BRANCH   6   7
ATOM      7  C   UNL     1     102.512 106.451 232.004  1.00  0.00     0.053 C 
BRANCH   7   8
ATOM      8  C   UNL     1     101.280 106.287 232.841  1.00  0.00     0.041 C 
ATOM      9  O   UNL     1     100.177 106.015 232.299  1.00  0.00    -0.550 OA
ATOM     10  O   UNL     1     101.358 106.403 234.223  1.00  0.00    -0.550 OA
ENDBRANCH   7   8
ENDBRANCH   6   7
ENDBRANCH   5   6
ENDBRANCH   4   5
ENDBRANCH   3   4
ENDBRANCH   2   3
ENDBRANCH   1   2
BRANCH   1  11
ATOM     11  C   UNL     1     103.445 105.570 227.101  1.00  0.00     0.000 C 
BRANCH  11  12
ATOM     12  C   UNL     1     102.178 104.856 227.602  1.00  0.00    -0.000 C 
BRANCH  12  13
ATOM     13  C   UNL     1     102.187 104.609 229.121  1.00  0.00    -0.000 C 
BRANCH  13  14
ATOM     14  C   UNL     1     101.457 103.338 229.590  1.00  0.00    -0.000 C 
BRANCH  14  15
ATOM     15  C   UNL     1     102.256 102.532 230.628  1.00  0.00    -0.000 C 
BRANCH  15  16
ATOM     16  C   UNL     1     103.723 102.311 230.215  1.00  0.00    -0.000 C 
BRANCH  16  17
ATOM     17  C   UNL     1     104.768 102.745 231.259  1.00  0.00    -0.003 C 
ATOM     18  C   UNL     1     105.950 103.496 230.648  1.00  0.00     0.004 C 
ENDBRANCH  16  17
ENDBRANCH  15  16
ENDBRANCH  14  15
ENDBRANCH  13  14
ENDBRANCH  12  13
ENDBRANCH  11  12
ENDBRANCH   1  11
TORSDOF 14
ENDMDL
