MODEL 1
REMARK VINA RESULT:    -5.478      0.000      0.000
REMARK INTER + INTRA:          -6.243
REMARK INTER:                  -6.118
REMARK INTRA:                  -0.125
REMARK UNBOUND:                -0.125
REMARK SMILES COc1cc2ccc(=O)oc2cc1OC
REMARK SMILES IDX 3 1 13 2 12 3 11 4 5 5 4 6 6 7 7 8 8 9 9 10 10 11 2 12 1 13
REMARK SMILES IDX 14 14 15 15
REMARK H PARENT
REMARK Flexibility Score: inf
ROOT
ATOM      1  C   UNL     1     171.519 172.389 176.671  1.00  0.00     0.161 A 
ATOM      2  C   UNL     1     172.762 171.765 176.468  1.00  0.00     0.164 A 
ATOM      3  C   UNL     1     173.730 171.785 177.491  1.00  0.00     0.098 A 
ATOM      4  C   UNL     1     173.462 172.420 178.707  1.00  0.00     0.142 A 
ATOM      5  C   UNL     1     172.215 173.045 178.911  1.00  0.00     0.022 A 
ATOM      6  C   UNL     1     171.250 173.028 177.898  1.00  0.00     0.062 A 
ATOM      7  C   UNL     1     171.977 173.671 180.140  1.00  0.00     0.019 A 
ATOM      8  C   UNL     1     172.970 173.660 181.118  1.00  0.00     0.094 A 
ATOM      9  C   UNL     1     174.183 173.021 180.844  1.00  0.00     0.336 A 
ATOM     10  O   UNL     1     175.093 173.000 181.713  1.00  0.00    -0.246 OA
ATOM     11  O   UNL     1     174.384 172.432 179.668  1.00  0.00    -0.423 OA
ENDROOT
BRANCH   1  12
ATOM     12  O   UNL     1     170.578 172.349 175.630  1.00  0.00    -0.493 OA
ATOM     13  C   UNL     1     170.406 173.376 174.658  1.00  0.00     0.278 C 
ENDBRANCH   1  12
BRANCH   2  14
ATOM     14  O   UNL     1     172.998 171.138 175.234  1.00  0.00    -0.493 OA
ATOM     15  C   UNL     1     172.990 169.729 175.031  1.00  0.00     0.278 C 
ENDBRANCH   2  14
TORSDOF 2
ENDMDL
MODEL 2
REMARK VINA RESULT:    -5.440      2.806      3.767
REMARK INTER + INTRA:          -6.201
REMARK INTER:                  -6.069
REMARK INTRA:                  -0.131
REMARK UNBOUND:                -0.125
REMARK SMILES COc1cc2ccc(=O)oc2cc1OC
REMARK SMILES IDX 3 1 13 2 12 3 11 4 5 5 4 6 6 7 7 8 8 9 9 10 10 11 2 12 1 13
REMARK SMILES IDX 14 14 15 15
REMARK H PARENT
REMARK Flexibility Score: inf
ROOT
ATOM      1  C   UNL     1     174.845 173.994 176.665  1.00  0.00     0.161 A 
ATOM      2  C   UNL     1     173.596 174.608 176.467  1.00  0.00     0.164 A 
ATOM      3  C   UNL     1     172.640 174.597 177.502  1.00  0.00     0.098 A 
ATOM      4  C   UNL     1     172.925 173.981 178.722  1.00  0.00     0.142 A 
ATOM      5  C   UNL     1     174.179 173.366 178.922  1.00  0.00     0.022 A 
ATOM      6  C   UNL     1     175.132 173.374 177.897  1.00  0.00     0.062 A 
ATOM      7  C   UNL     1     174.434 172.759 180.156  1.00  0.00     0.019 A 
ATOM      8  C   UNL     1     173.452 172.778 181.145  1.00  0.00     0.094 A 
ATOM      9  C   UNL     1     172.232 173.406 180.876  1.00  0.00     0.336 A 
ATOM     10  O   UNL     1     171.332 173.435 181.755  1.00  0.00    -0.246 OA
ATOM     11  O   UNL     1     172.015 173.977 179.694  1.00  0.00    -0.423 OA
ENDROOT
BRANCH   1  12
ATOM     12  O   UNL     1     175.774 174.025 175.612  1.00  0.00    -0.493 OA
ATOM     13  C   UNL     1     175.969 172.969 174.677  1.00  0.00     0.278 C 
ENDBRANCH   1  12
BRANCH   2  14
ATOM     14  O   UNL     1     173.343 175.216 175.227  1.00  0.00    -0.493 OA
ATOM     15  C   UNL     1     173.370 176.621 174.997  1.00  0.00     0.278 C 
ENDBRANCH   2  14
TORSDOF 2
ENDMDL
MODEL 3
REMARK VINA RESULT:    -5.291      2.335      2.576
REMARK INTER + INTRA:          -6.034
REMARK INTER:                  -5.872
REMARK INTRA:                  -0.162
REMARK UNBOUND:                -0.125
REMARK SMILES COc1cc2ccc(=O)oc2cc1OC
REMARK SMILES IDX 3 1 13 2 12 3 11 4 5 5 4 6 6 7 7 8 8 9 9 10 10 11 2 12 1 13
REMARK SMILES IDX 14 14 15 15
REMARK H PARENT
REMARK Flexibility Score: inf
ROOT
ATOM      1  C   UNL     1     172.313 174.430 176.262  1.00  0.00     0.161 A 
ATOM      2  C   UNL     1     173.713 174.456 176.145  1.00  0.00     0.164 A 
ATOM      3  C   UNL     1     174.513 174.116 177.254  1.00  0.00     0.098 A 
ATOM      4  C   UNL     1     173.924 173.755 178.468  1.00  0.00     0.142 A 
ATOM      5  C   UNL     1     172.519 173.728 178.585  1.00  0.00     0.022 A 
ATOM      6  C   UNL     1     171.719 174.064 177.486  1.00  0.00     0.062 A 
ATOM      7  C   UNL     1     171.959 173.361 179.813  1.00  0.00     0.019 A 
ATOM      8  C   UNL     1     172.798 173.034 180.878  1.00  0.00     0.094 A 
ATOM      9  C   UNL     1     174.183 173.083 180.689  1.00  0.00     0.336 A 
ATOM     10  O   UNL     1     174.957 172.792 181.636  1.00  0.00    -0.246 OA
ATOM     11  O   UNL     1     174.689 173.435 179.509  1.00  0.00    -0.423 OA
ENDROOT
BRANCH   1  12
ATOM     12  O   UNL     1     171.547 174.774 175.136  1.00  0.00    -0.493 OA
ATOM     13  C   UNL     1     170.957 176.052 174.920  1.00  0.00     0.278 C 
ENDBRANCH   1  12
BRANCH   2  14
ATOM     14  O   UNL     1     174.272 174.825 174.911  1.00  0.00    -0.493 OA
ATOM     15  C   UNL     1     174.774 176.122 174.608  1.00  0.00     0.278 C 
ENDBRANCH   2  14
TORSDOF 2
ENDMDL
MODEL 4
REMARK VINA RESULT:    -5.266      1.632      2.758
REMARK INTER + INTRA:          -6.006
REMARK INTER:                  -5.846
REMARK INTRA:                  -0.161
REMARK UNBOUND:                -0.125
REMARK SMILES COc1cc2ccc(=O)oc2cc1OC
REMARK SMILES IDX 3 1 13 2 12 3 11 4 5 5 4 6 6 7 7 8 8 9 9 10 10 11 2 12 1 13
REMARK SMILES IDX 14 14 15 15
REMARK H PARENT
REMARK Flexibility Score: inf
ROOT
ATOM      1  C   UNL     1     174.031 171.863 176.097  1.00  0.00     0.161 A 
ATOM      2  C   UNL     1     172.626 171.826 176.093  1.00  0.00     0.164 A 
ATOM      3  C   UNL     1     171.914 172.177 177.257  1.00  0.00     0.098 A 
ATOM      4  C   UNL     1     172.595 172.562 178.414  1.00  0.00     0.142 A 
ATOM      5  C   UNL     1     174.005 172.599 178.419  1.00  0.00     0.022 A 
ATOM      6  C   UNL     1     174.717 172.252 177.265  1.00  0.00     0.062 A 
ATOM      7  C   UNL     1     174.657 172.990 179.593  1.00  0.00     0.019 A 
ATOM      8  C   UNL     1     173.902 173.327 180.716  1.00  0.00     0.094 A 
ATOM      9  C   UNL     1     172.508 173.266 180.638  1.00  0.00     0.336 A 
ATOM     10  O   UNL     1     171.808 173.565 181.640  1.00  0.00    -0.246 OA
ATOM     11  O   UNL     1     171.912 172.892 179.509  1.00  0.00    -0.423 OA
ENDROOT
BRANCH   1  12
ATOM     12  O   UNL     1     174.708 171.508 174.920  1.00  0.00    -0.493 OA
ATOM     13  C   UNL     1     175.393 170.275 174.723  1.00  0.00     0.278 C 
ENDBRANCH   1  12
BRANCH   2  14
ATOM     14  O   UNL     1     171.975 171.434 174.912  1.00  0.00    -0.493 OA
ATOM     15  C   UNL     1     171.502 170.117 174.651  1.00  0.00     0.278 C 
ENDBRANCH   2  14
TORSDOF 2
ENDMDL
MODEL 5
REMARK VINA RESULT:    -5.205      1.168      1.288
REMARK INTER + INTRA:          -5.938
REMARK INTER:                  -5.828
REMARK INTRA:                  -0.111
REMARK UNBOUND:                -0.125
REMARK SMILES COc1cc2ccc(=O)oc2cc1OC
REMARK SMILES IDX 3 1 13 2 12 3 11 4 5 5 4 6 6 7 7 8 8 9 9 10 10 11 2 12 1 13
REMARK SMILES IDX 14 14 15 15
REMARK H PARENT
REMARK Flexibility Score: inf
ROOT
ATOM      1  C   UNL     1     172.000 171.333 176.004  1.00  0.00     0.161 A 
ATOM      2  C   UNL     1     173.230 170.712 176.284  1.00  0.00     0.164 A 
ATOM      3  C   UNL     1     173.904 171.007 177.487  1.00  0.00     0.098 A 
ATOM      4  C   UNL     1     173.357 171.911 178.401  1.00  0.00     0.142 A 
ATOM      5  C   UNL     1     172.123 172.533 178.120  1.00  0.00     0.022 A 
ATOM      6  C   UNL     1     171.449 172.243 176.927  1.00  0.00     0.062 A 
ATOM      7  C   UNL     1     171.601 173.432 179.056  1.00  0.00     0.019 A 
ATOM      8  C   UNL     1     172.310 173.686 180.230  1.00  0.00     0.094 A 
ATOM      9  C   UNL     1     173.528 173.033 180.441  1.00  0.00     0.336 A 
ATOM     10  O   UNL     1     174.183 173.249 181.493  1.00  0.00    -0.246 OA
ATOM     11  O   UNL     1     174.001 172.182 179.534  1.00  0.00    -0.423 OA
ENDROOT
BRANCH   1  12
ATOM     12  O   UNL     1     171.357 171.015 174.797  1.00  0.00    -0.493 OA
ATOM     13  C   UNL     1     171.466 171.777 173.599  1.00  0.00     0.278 C 
ENDBRANCH   1  12
BRANCH   2  14
ATOM     14  O   UNL     1     173.751 169.811 175.343  1.00  0.00    -0.493 OA
ATOM     15  C   UNL     1     174.372 168.572 175.669  1.00  0.00     0.278 C 
ENDBRANCH   2  14
TORSDOF 2
ENDMDL
MODEL 6
REMARK VINA RESULT:    -5.115      3.736      4.601
REMARK INTER + INTRA:          -5.838
REMARK INTER:                  -5.732
REMARK INTRA:                  -0.106
REMARK UNBOUND:                -0.125
REMARK SMILES COc1cc2ccc(=O)oc2cc1OC
REMARK SMILES IDX 3 1 13 2 12 3 11 4 5 5 4 6 6 7 7 8 8 9 9 10 10 11 2 12 1 13
REMARK SMILES IDX 14 14 15 15
REMARK H PARENT
REMARK Flexibility Score: inf
ROOT
ATOM      1  C   UNL     1     174.384 176.008 175.518  1.00  0.00     0.161 A 
ATOM      2  C   UNL     1     173.108 176.423 175.936  1.00  0.00     0.164 A 
ATOM      3  C   UNL     1     172.509 175.817 177.058  1.00  0.00     0.098 A 
ATOM      4  C   UNL     1     173.175 174.807 177.757  1.00  0.00     0.142 A 
ATOM      5  C   UNL     1     174.455 174.391 177.338  1.00  0.00     0.022 A 
ATOM      6  C   UNL     1     175.055 174.991 176.224  1.00  0.00     0.062 A 
ATOM      7  C   UNL     1     175.097 173.378 178.059  1.00  0.00     0.019 A 
ATOM      8  C   UNL     1     174.458 172.814 179.163  1.00  0.00     0.094 A 
ATOM      9  C   UNL     1     173.187 173.276 179.520  1.00  0.00     0.336 A 
ATOM     10  O   UNL     1     172.593 172.779 180.511  1.00  0.00    -0.246 OA
ATOM     11  O   UNL     1     172.600 174.241 178.816  1.00  0.00    -0.423 OA
ENDROOT
BRANCH   1  12
ATOM     12  O   UNL     1     174.951 176.635 174.396  1.00  0.00    -0.493 OA
ATOM     13  C   UNL     1     174.880 176.128 173.067  1.00  0.00     0.278 C 
ENDBRANCH   1  12
BRANCH   2  14
ATOM     14  O   UNL     1     172.467 177.439 175.210  1.00  0.00    -0.493 OA
ATOM     15  C   UNL     1     171.130 177.873 175.437  1.00  0.00     0.278 C 
ENDBRANCH   2  14
TORSDOF 2
ENDMDL
MODEL 7
REMARK VINA RESULT:    -4.721      1.277      1.277
REMARK INTER + INTRA:          -5.398
REMARK INTER:                  -5.267
REMARK INTRA:                  -0.131
REMARK UNBOUND:                -0.125
REMARK SMILES COc1cc2ccc(=O)oc2cc1OC
REMARK SMILES IDX 3 1 13 2 12 3 11 4 5 5 4 6 6 7 7 8 8 9 9 10 10 11 2 12 1 13
REMARK SMILES IDX 14 14 15 15
REMARK H PARENT
REMARK Flexibility Score: inf
ROOT
ATOM      1  C   UNL     1     172.436 173.202 175.706  1.00  0.00     0.161 A 
ATOM      2  C   UNL     1     173.202 172.030 175.825  1.00  0.00     0.164 A 
ATOM      3  C   UNL     1     173.661 171.621 177.093  1.00  0.00     0.098 A 
ATOM      4  C   UNL     1     173.360 172.373 178.231  1.00  0.00     0.142 A 
ATOM      5  C   UNL     1     172.591 173.549 178.111  1.00  0.00     0.022 A 
ATOM      6  C   UNL     1     172.132 173.960 176.854  1.00  0.00     0.062 A 
ATOM      7  C   UNL     1     172.306 174.280 179.270  1.00  0.00     0.019 A 
ATOM      8  C   UNL     1     172.785 173.828 180.499  1.00  0.00     0.094 A 
ATOM      9  C   UNL     1     173.541 172.653 180.542  1.00  0.00     0.336 A 
ATOM     10  O   UNL     1     173.983 172.229 181.641  1.00  0.00    -0.246 OA
ATOM     11  O   UNL     1     173.798 171.977 179.424  1.00  0.00    -0.423 OA
ENDROOT
BRANCH   1  12
ATOM     12  O   UNL     1     171.995 173.580 174.427  1.00  0.00    -0.493 OA
ATOM     13  C   UNL     1     170.633 173.797 174.075  1.00  0.00     0.278 C 
ENDBRANCH   1  12
BRANCH   2  14
ATOM     14  O   UNL     1     173.486 171.299 174.660  1.00  0.00    -0.493 OA
ATOM     15  C   UNL     1     174.777 171.194 174.069  1.00  0.00     0.278 C 
ENDBRANCH   2  14
TORSDOF 2
ENDMDL
MODEL 8
REMARK VINA RESULT:    -4.501      2.541      5.067
REMARK INTER + INTRA:          -5.153
REMARK INTER:                  -5.046
REMARK INTRA:                  -0.106
REMARK UNBOUND:                -0.125
REMARK SMILES COc1cc2ccc(=O)oc2cc1OC
REMARK SMILES IDX 3 1 13 2 12 3 11 4 5 5 4 6 6 7 7 8 8 9 9 10 10 11 2 12 1 13
REMARK SMILES IDX 14 14 15 15
REMARK H PARENT
REMARK Flexibility Score: inf
ROOT
ATOM      1  C   UNL     1     173.209 172.903 177.522  1.00  0.00     0.161 A 
ATOM      2  C   UNL     1     174.226 173.486 176.749  1.00  0.00     0.164 A 
ATOM      3  C   UNL     1     175.040 172.672 175.935  1.00  0.00     0.098 A 
ATOM      4  C   UNL     1     174.840 171.290 175.893  1.00  0.00     0.142 A 
ATOM      5  C   UNL     1     173.819 170.705 176.669  1.00  0.00     0.022 A 
ATOM      6  C   UNL     1     173.008 171.509 177.478  1.00  0.00     0.062 A 
ATOM      7  C   UNL     1     173.644 169.318 176.604  1.00  0.00     0.019 A 
ATOM      8  C   UNL     1     174.477 168.560 175.781  1.00  0.00     0.094 A 
ATOM      9  C   UNL     1     175.470 169.209 175.041  1.00  0.00     0.336 A 
ATOM     10  O   UNL     1     176.232 168.544 174.293  1.00  0.00    -0.246 OA
ATOM     11  O   UNL     1     175.614 170.530 175.121  1.00  0.00    -0.423 OA
ENDROOT
BRANCH   1  12
ATOM     12  O   UNL     1     172.417 173.744 178.321  1.00  0.00    -0.493 OA
ATOM     13  C   UNL     1     171.953 173.416 179.626  1.00  0.00     0.278 C 
ENDBRANCH   1  12
BRANCH   2  14
ATOM     14  O   UNL     1     174.399 174.878 176.816  1.00  0.00    -0.493 OA
ATOM     15  C   UNL     1     175.193 175.637 175.911  1.00  0.00     0.278 C 
ENDBRANCH   2  14
TORSDOF 2
ENDMDL
MODEL 9
REMARK VINA RESULT:    -4.482      3.048      5.166
REMARK INTER + INTRA:          -5.131
REMARK INTER:                  -5.027
REMARK INTRA:                  -0.103
REMARK UNBOUND:                -0.125
REMARK SMILES COc1cc2ccc(=O)oc2cc1OC
REMARK SMILES IDX 3 1 13 2 12 3 11 4 5 5 4 6 6 7 7 8 8 9 9 10 10 11 2 12 1 13
REMARK SMILES IDX 14 14 15 15
REMARK H PARENT
REMARK Flexibility Score: inf
ROOT
ATOM      1  C   UNL     1     172.812 173.510 177.949  1.00  0.00     0.161 A 
ATOM      2  C   UNL     1     172.066 172.904 176.924  1.00  0.00     0.164 A 
ATOM      3  C   UNL     1     171.514 173.698 175.898  1.00  0.00     0.098 A 
ATOM      4  C   UNL     1     171.704 175.082 175.894  1.00  0.00     0.142 A 
ATOM      5  C   UNL     1     172.454 175.690 176.923  1.00  0.00     0.022 A 
ATOM      6  C   UNL     1     173.004 174.906 177.943  1.00  0.00     0.062 A 
ATOM      7  C   UNL     1     172.627 177.077 176.890  1.00  0.00     0.019 A 
ATOM      8  C   UNL     1     172.059 177.814 175.851  1.00  0.00     0.094 A 
ATOM      9  C   UNL     1     171.328 177.143 174.866  1.00  0.00     0.336 A 
ATOM     10  O   UNL     1     170.808 177.789 173.920  1.00  0.00    -0.246 OA
ATOM     11  O   UNL     1     171.180 175.822 174.920  1.00  0.00    -0.423 OA
ENDROOT
BRANCH   1  12
ATOM     12  O   UNL     1     173.348 172.689 178.954  1.00  0.00    -0.493 OA
ATOM     13  C   UNL     1     174.537 172.975 179.682  1.00  0.00     0.278 C 
ENDBRANCH   1  12
BRANCH   2  14
ATOM     14  O   UNL     1     171.894 171.511 176.959  1.00  0.00    -0.493 OA
ATOM     15  C   UNL     1     171.087 170.774 176.047  1.00  0.00     0.278 C 
ENDBRANCH   2  14
TORSDOF 2
ENDMDL
