MODEL 1
REMARK VINA RESULT:    -4.908      0.000      0.000
REMARK INTER + INTRA:          -5.374
REMARK INTER:                  -5.338
REMARK INTRA:                  -0.036
REMARK UNBOUND:                -0.036
REMARK SMILES O=C([O-])c1ccc(O)cc1
REMARK SMILES IDX 4 1 5 2 10 3 6 4 9 5 7 6 2 7 1 8 3 9 8 10
REMARK H PARENT 8 11
REMARK Flexibility Score: inf
ROOT
ATOM      1  C   UNL     1     157.118 138.243 160.776  1.00  0.00    -0.003 A 
ATOM      2  C   UNL     1     156.821 136.874 160.901  1.00  0.00     0.014 A 
ATOM      3  C   UNL     1     157.375 138.771 159.497  1.00  0.00     0.014 A 
ATOM      4  C   UNL     1     156.781 136.052 159.770  1.00  0.00     0.047 A 
ATOM      5  C   UNL     1     157.335 137.946 158.369  1.00  0.00     0.047 A 
ATOM      6  C   UNL     1     157.039 136.586 158.502  1.00  0.00     0.115 A 
ENDROOT
BRANCH   1   7
ATOM      7  C   UNL     1     157.159 139.111 161.973  1.00  0.00     0.071 C 
ATOM      8  O   UNL     1     157.000 138.623 163.124  1.00  0.00    -0.545 OA
ATOM      9  O   UNL     1     157.374 140.479 161.845  1.00  0.00    -0.545 OA
ENDBRANCH   1   7
BRANCH   6  10
ATOM     10  O   UNL     1     157.002 135.777 157.368  1.00  0.00    -0.508 OA
ATOM     11  H   UNL     1     157.826 135.286 157.042  1.00  0.00     0.293 HD
ENDBRANCH   6  10
TORSDOF 2
ENDMDL
MODEL 2
REMARK VINA RESULT:    -4.640      1.238      4.176
REMARK INTER + INTRA:          -5.083
REMARK INTER:                  -5.050
REMARK INTRA:                  -0.032
REMARK UNBOUND:                -0.036
REMARK SMILES O=C([O-])c1ccc(O)cc1
REMARK SMILES IDX 4 1 5 2 10 3 6 4 9 5 7 6 2 7 1 8 3 9 8 10
REMARK H PARENT 8 11
REMARK Flexibility Score: inf
ROOT
ATOM      1  C   UNL     1     157.230 137.685 159.956  1.00  0.00    -0.003 A 
ATOM      2  C   UNL     1     156.941 137.710 161.332  1.00  0.00     0.014 A 
ATOM      3  C   UNL     1     157.726 138.849 159.341  1.00  0.00     0.014 A 
ATOM      4  C   UNL     1     157.145 138.876 162.077  1.00  0.00     0.047 A 
ATOM      5  C   UNL     1     157.927 140.014 160.089  1.00  0.00     0.047 A 
ATOM      6  C   UNL     1     157.638 140.031 161.456  1.00  0.00     0.115 A 
ENDROOT
BRANCH   1   7
ATOM      7  C   UNL     1     157.014 136.450 159.171  1.00  0.00     0.071 C 
ATOM      8  O   UNL     1     157.814 136.126 158.253  1.00  0.00    -0.545 OA
ATOM      9  O   UNL     1     155.923 135.628 159.434  1.00  0.00    -0.545 OA
ENDBRANCH   1   7
BRANCH   6  10
ATOM     10  O   UNL     1     157.845 141.199 162.188  1.00  0.00    -0.508 OA
ATOM     11  H   UNL     1     157.160 141.946 162.196  1.00  0.00     0.293 HD
ENDBRANCH   6  10
TORSDOF 2
ENDMDL
MODEL 3
REMARK VINA RESULT:    -4.487     19.792     20.992
REMARK INTER + INTRA:          -4.916
REMARK INTER:                  -4.888
REMARK INTRA:                  -0.028
REMARK UNBOUND:                -0.036
REMARK SMILES O=C([O-])c1ccc(O)cc1
REMARK SMILES IDX 4 1 5 2 10 3 6 4 9 5 7 6 2 7 1 8 3 9 8 10
REMARK H PARENT 8 11
REMARK Flexibility Score: inf
ROOT
ATOM      1  C   UNL     1     146.125 146.846 144.543  1.00  0.00    -0.003 A 
ATOM      2  C   UNL     1     147.266 146.744 145.360  1.00  0.00     0.014 A 
ATOM      3  C   UNL     1     146.119 146.196 143.295  1.00  0.00     0.014 A 
ATOM      4  C   UNL     1     148.376 146.006 144.936  1.00  0.00     0.047 A 
ATOM      5  C   UNL     1     147.231 145.459 142.875  1.00  0.00     0.047 A 
ATOM      6  C   UNL     1     148.361 145.363 143.692  1.00  0.00     0.115 A 
ENDROOT
BRANCH   1   7
ATOM      7  C   UNL     1     144.952 147.626 144.994  1.00  0.00     0.071 C 
ATOM      8  O   UNL     1     144.233 147.214 145.943  1.00  0.00    -0.545 OA
ATOM      9  O   UNL     1     144.625 148.827 144.374  1.00  0.00    -0.545 OA
ENDBRANCH   1   7
BRANCH   6  10
ATOM     10  O   UNL     1     149.461 144.625 143.260  1.00  0.00    -0.508 OA
ATOM     11  H   UNL     1     149.368 143.896 142.562  1.00  0.00     0.293 HD
ENDBRANCH   6  10
TORSDOF 2
ENDMDL
MODEL 4
REMARK VINA RESULT:    -3.771      2.077      2.909
REMARK INTER + INTRA:          -4.138
REMARK INTER:                  -4.102
REMARK INTRA:                  -0.036
REMARK UNBOUND:                -0.036
REMARK SMILES O=C([O-])c1ccc(O)cc1
REMARK SMILES IDX 4 1 5 2 10 3 6 4 9 5 7 6 2 7 1 8 3 9 8 10
REMARK H PARENT 8 11
REMARK Flexibility Score: inf
ROOT
ATOM      1  C   UNL     1     157.553 138.638 159.477  1.00  0.00    -0.003 A 
ATOM      2  C   UNL     1     157.593 138.458 160.871  1.00  0.00     0.014 A 
ATOM      3  C   UNL     1     157.212 137.547 158.657  1.00  0.00     0.014 A 
ATOM      4  C   UNL     1     157.298 137.211 161.433  1.00  0.00     0.047 A 
ATOM      5  C   UNL     1     156.919 136.301 159.222  1.00  0.00     0.047 A 
ATOM      6  C   UNL     1     156.961 136.130 160.609  1.00  0.00     0.115 A 
ENDROOT
BRANCH   1   7
ATOM      7  C   UNL     1     157.865 139.958 158.886  1.00  0.00     0.071 C 
ATOM      8  O   UNL     1     157.966 140.093 157.637  1.00  0.00    -0.545 OA
ATOM      9  O   UNL     1     158.052 141.069 159.701  1.00  0.00    -0.545 OA
ENDBRANCH   1   7
BRANCH   6  10
ATOM     10  O   UNL     1     156.665 134.884 161.157  1.00  0.00    -0.508 OA
ATOM     11  H   UNL     1     156.366 134.108 160.576  1.00  0.00     0.293 HD
ENDBRANCH   6  10
TORSDOF 2
ENDMDL
MODEL 5
REMARK VINA RESULT:    -3.541     10.895     12.656
REMARK INTER + INTRA:          -3.887
REMARK INTER:                  -3.853
REMARK INTRA:                  -0.035
REMARK UNBOUND:                -0.036
REMARK SMILES O=C([O-])c1ccc(O)cc1
REMARK SMILES IDX 4 1 5 2 10 3 6 4 9 5 7 6 2 7 1 8 3 9 8 10
REMARK H PARENT 8 11
REMARK Flexibility Score: inf
ROOT
ATOM      1  C   UNL     1     153.094 141.643 149.053  1.00  0.00    -0.003 A 
ATOM      2  C   UNL     1     151.886 140.933 149.167  1.00  0.00     0.014 A 
ATOM      3  C   UNL     1     153.580 142.347 150.170  1.00  0.00     0.014 A 
ATOM      4  C   UNL     1     151.179 140.927 150.374  1.00  0.00     0.047 A 
ATOM      5  C   UNL     1     152.871 142.339 151.375  1.00  0.00     0.047 A 
ATOM      6  C   UNL     1     151.670 141.630 151.480  1.00  0.00     0.115 A 
ENDROOT
BRANCH   1   7
ATOM      7  C   UNL     1     153.840 141.648 147.775  1.00  0.00     0.071 C 
ATOM      8  O   UNL     1     153.259 141.367 146.693  1.00  0.00    -0.545 OA
ATOM      9  O   UNL     1     155.194 141.962 147.751  1.00  0.00    -0.545 OA
ENDBRANCH   1   7
BRANCH   6  10
ATOM     10  O   UNL     1     150.975 141.632 152.688  1.00  0.00    -0.508 OA
ATOM     11  H   UNL     1     149.962 141.627 152.715  1.00  0.00     0.293 HD
ENDBRANCH   6  10
TORSDOF 2
ENDMDL
MODEL 6
REMARK VINA RESULT:    -3.418     20.834     21.717
REMARK INTER + INTRA:          -3.754
REMARK INTER:                  -3.721
REMARK INTRA:                  -0.033
REMARK UNBOUND:                -0.036
REMARK SMILES O=C([O-])c1ccc(O)cc1
REMARK SMILES IDX 4 1 5 2 10 3 6 4 9 5 7 6 2 7 1 8 3 9 8 10
REMARK H PARENT 8 11
REMARK Flexibility Score: inf
ROOT
ATOM      1  C   UNL     1     146.566 146.296 143.886  1.00  0.00    -0.003 A 
ATOM      2  C   UNL     1     146.324 147.653 143.611  1.00  0.00     0.014 A 
ATOM      3  C   UNL     1     145.756 145.636 144.829  1.00  0.00     0.014 A 
ATOM      4  C   UNL     1     145.294 148.336 144.265  1.00  0.00     0.047 A 
ATOM      5  C   UNL     1     144.727 146.323 145.482  1.00  0.00     0.047 A 
ATOM      6  C   UNL     1     144.494 147.672 145.202  1.00  0.00     0.115 A 
ENDROOT
BRANCH   1   7
ATOM      7  C   UNL     1     147.656 145.576 143.193  1.00  0.00     0.071 C 
ATOM      8  O   UNL     1     147.524 144.363 142.876  1.00  0.00    -0.545 OA
ATOM      9  O   UNL     1     148.844 146.227 142.880  1.00  0.00    -0.545 OA
ENDBRANCH   1   7
BRANCH   6  10
ATOM     10  O   UNL     1     143.464 148.342 145.861  1.00  0.00    -0.508 OA
ATOM     11  H   UNL     1     142.808 147.849 146.456  1.00  0.00     0.293 HD
ENDBRANCH   6  10
TORSDOF 2
ENDMDL
MODEL 7
REMARK VINA RESULT:    -3.095     11.636     12.510
REMARK INTER + INTRA:          -3.402
REMARK INTER:                  -3.366
REMARK INTRA:                  -0.036
REMARK UNBOUND:                -0.036
REMARK SMILES O=C([O-])c1ccc(O)cc1
REMARK SMILES IDX 4 1 5 2 10 3 6 4 9 5 7 6 2 7 1 8 3 9 8 10
REMARK H PARENT 8 11
REMARK Flexibility Score: inf
ROOT
ATOM      1  C   UNL     1     153.636 141.939 149.339  1.00  0.00    -0.003 A 
ATOM      2  C   UNL     1     153.103 142.172 150.619  1.00  0.00     0.014 A 
ATOM      3  C   UNL     1     152.854 141.258 148.387  1.00  0.00     0.014 A 
ATOM      4  C   UNL     1     151.814 141.734 150.940  1.00  0.00     0.047 A 
ATOM      5  C   UNL     1     151.566 140.821 148.712  1.00  0.00     0.047 A 
ATOM      6  C   UNL     1     151.043 141.057 149.987  1.00  0.00     0.115 A 
ENDROOT
BRANCH   1   7
ATOM      7  C   UNL     1     154.999 142.404 149.001  1.00  0.00     0.071 C 
ATOM      8  O   UNL     1     155.640 143.143 149.796  1.00  0.00    -0.545 OA
ATOM      9  O   UNL     1     155.593 142.033 147.800  1.00  0.00    -0.545 OA
ENDBRANCH   1   7
BRANCH   6  10
ATOM     10  O   UNL     1     149.758 140.615 150.296  1.00  0.00    -0.508 OA
ATOM     11  H   UNL     1     149.032 140.567 149.590  1.00  0.00     0.293 HD
ENDBRANCH   6  10
TORSDOF 2
ENDMDL
MODEL 8
REMARK VINA RESULT:    -2.866     11.399     12.382
REMARK INTER + INTRA:          -3.153
REMARK INTER:                  -3.118
REMARK INTRA:                  -0.036
REMARK UNBOUND:                -0.036
REMARK SMILES O=C([O-])c1ccc(O)cc1
REMARK SMILES IDX 4 1 5 2 10 3 6 4 9 5 7 6 2 7 1 8 3 9 8 10
REMARK H PARENT 8 11
REMARK Flexibility Score: inf
ROOT
ATOM      1  C   UNL     1     152.536 141.677 149.902  1.00  0.00    -0.003 A 
ATOM      2  C   UNL     1     153.615 142.437 150.387  1.00  0.00     0.014 A 
ATOM      3  C   UNL     1     152.607 141.145 148.601  1.00  0.00     0.014 A 
ATOM      4  C   UNL     1     154.741 142.660 149.588  1.00  0.00     0.047 A 
ATOM      5  C   UNL     1     153.734 141.371 147.804  1.00  0.00     0.047 A 
ATOM      6  C   UNL     1     154.802 142.128 148.295  1.00  0.00     0.115 A 
ENDROOT
BRANCH   1   7
ATOM      7  C   UNL     1     151.347 141.442 150.749  1.00  0.00     0.071 C 
ATOM      8  O   UNL     1     150.310 140.911 150.267  1.00  0.00    -0.545 OA
ATOM      9  O   UNL     1     151.355 141.804 152.092  1.00  0.00    -0.545 OA
ENDBRANCH   1   7
BRANCH   6  10
ATOM     10  O   UNL     1     155.919 142.344 147.489  1.00  0.00    -0.508 OA
ATOM     11  H   UNL     1     156.479 141.573 147.144  1.00  0.00     0.293 HD
ENDBRANCH   6  10
TORSDOF 2
ENDMDL
