MODEL 1
REMARK VINA RESULT:    -3.928      0.000      0.000
REMARK INTER + INTRA:          -4.321
REMARK INTER:                  -5.535
REMARK INTRA:                   1.214
REMARK UNBOUND:                 1.214
REMARK SMILES CC1=CCCC(C)=CCC(C)(C)C=CC1
REMARK SMILES IDX 2 1 3 2 1 3 4 4 5 5 6 6 7 7 8 8 15 10 14 11 13 12 10 13
REMARK SMILES IDX 11 14 12 15 9 16
REMARK H PARENT
REMARK Flexibility Score: 60.00
ROOT
ATOM      1  C   UNL     1       0.617  13.658  17.458  1.00  0.00    -0.074 C 
ATOM      2  C   UNL     1       1.174  12.874  16.500  1.00  0.00    -0.027 C 
ATOM      3  C   UNL     1       0.476  13.064  18.838  1.00  0.00     0.039 C 
ENDROOT
BRANCH   2   4
ATOM      4  C   UNL     1       1.381  13.240  15.048  1.00  0.00     0.032 C 
BRANCH   4   5
ATOM      5  C   UNL     1       2.732  13.932  14.776  1.00  0.00     0.034 C 
BRANCH   5   6
ATOM      6  C   UNL     1       2.770  14.780  13.514  1.00  0.00    -0.077 C 
ATOM      7  C   UNL     1       3.932  14.619  12.565  1.00  0.00     0.039 C 
ATOM      8  C   UNL     1       1.803  15.664  13.184  1.00  0.00    -0.027 CG0
ATOM      9  G   UNL     1       0.578  15.961  14.021  1.00  0.00     0.000 G0
ENDBRANCH   5   6
ENDBRANCH   4   5
ENDBRANCH   2   4
BRANCH   1  10
ATOM     10  C   UNL     1       0.086  15.065  17.222  1.00  0.00     0.057 C 
BRANCH  10  11
ATOM     11  C   UNL     1       1.212  16.070  17.167  1.00  0.00    -0.026 C 
ATOM     12  C   UNL     1       1.466  16.984  16.202  1.00  0.00    -0.024 C 
BRANCH  12  13
ATOM     13  C   UNL     1       0.706  17.243  14.892  1.00  0.00    -0.014 C 
ATOM     14  C   UNL     1       1.496  18.307  14.091  1.00  0.00     0.016 C 
ATOM     15  C   UNL     1      -0.681  17.847  15.202  1.00  0.00     0.016 C 
BRANCH  13  16
ATOM     16  C   UNL     1       0.558  15.972  13.996  1.00  0.00     0.038 CG0
ATOM     17  G   UNL     1       1.797  15.684  13.175  1.00  0.00     0.000 G0
ENDBRANCH  13  16
ENDBRANCH  12  13
ENDBRANCH  10  11
ENDBRANCH   1  10
TORSDOF 0
ENDMDL
MODEL 2
REMARK VINA RESULT:    -3.667      1.198      3.402
REMARK INTER + INTRA:          -3.954
REMARK INTER:                  -4.976
REMARK INTRA:                   1.022
REMARK UNBOUND:                 1.214
REMARK SMILES CC1=CCCC(C)=CCC(C)(C)C=CC1
REMARK SMILES IDX 2 1 3 2 1 3 4 4 5 5 6 6 7 7 8 8 15 10 14 11 13 12 10 13
REMARK SMILES IDX 11 14 12 15 9 16
REMARK H PARENT
REMARK Flexibility Score: 60.00
ROOT
ATOM      1  C   UNL     1       0.114  13.300  17.679  1.00  0.00    -0.074 C 
ATOM      2  C   UNL     1      -0.191  14.558  18.089  1.00  0.00    -0.027 C 
ATOM      3  C   UNL     1      -0.145  12.176  18.652  1.00  0.00     0.039 C 
ENDROOT
BRANCH   2   4
ATOM      4  C   UNL     1       0.016  15.834  17.306  1.00  0.00     0.032 C 
BRANCH   4   5
ATOM      5  C   UNL     1      -0.935  15.974  16.100  1.00  0.00     0.034 C 
BRANCH   5   6
ATOM      6  C   UNL     1      -0.381  16.795  14.945  1.00  0.00    -0.077 C 
ATOM      7  C   UNL     1      -0.505  18.298  14.997  1.00  0.00     0.039 C 
ATOM      8  C   UNL     1       0.236  16.249  13.875  1.00  0.00    -0.027 CG0
ATOM      9  G   UNL     1       0.436  14.765  13.653  1.00  0.00     0.000 G0
ENDBRANCH   5   6
ENDBRANCH   4   5
ENDBRANCH   2   4
BRANCH   1  10
ATOM     10  C   UNL     1       0.739  12.958  16.333  1.00  0.00     0.057 C 
BRANCH  10  11
ATOM     11  C   UNL     1       2.066  13.657  16.157  1.00  0.00    -0.026 C 
ATOM     12  C   UNL     1       2.562  14.232  15.037  1.00  0.00    -0.024 C 
BRANCH  12  13
ATOM     13  C   UNL     1       1.936  14.320  13.637  1.00  0.00    -0.014 C 
ATOM     14  C   UNL     1       2.029  12.917  12.990  1.00  0.00     0.016 C 
ATOM     15  C   UNL     1       2.759  15.283  12.754  1.00  0.00     0.016 C 
BRANCH  13  16
ATOM     16  C   UNL     1       0.433  14.748  13.653  1.00  0.00     0.038 CG0
ATOM     17  G   UNL     1       0.247  16.234  13.869  1.00  0.00     0.000 G0
ENDBRANCH  13  16
ENDBRANCH  12  13
ENDBRANCH  10  11
ENDBRANCH   1  10
TORSDOF 0
ENDMDL
MODEL 3
REMARK VINA RESULT:    -3.638      1.365      4.250
REMARK INTER + INTRA:          -3.914
REMARK INTER:                  -4.874
REMARK INTRA:                   0.960
REMARK UNBOUND:                 1.214
REMARK SMILES CC1=CCCC(C)=CCC(C)(C)C=CC1
REMARK SMILES IDX 2 1 3 2 1 3 4 4 5 5 6 6 7 7 8 8 15 10 14 11 13 12 10 13
REMARK SMILES IDX 11 14 12 15 9 16
REMARK H PARENT
REMARK Flexibility Score: 60.00
ROOT
ATOM      1  C   UNL     1       3.531  14.074  13.283  1.00  0.00    -0.074 C 
ATOM      2  C   UNL     1       3.131  15.172  12.593  1.00  0.00    -0.027 C 
ATOM      3  C   UNL     1       4.212  12.978  12.499  1.00  0.00     0.039 C 
ENDROOT
BRANCH   2   4
ATOM      4  C   UNL     1       2.401  16.371  13.156  1.00  0.00     0.032 C 
BRANCH   4   5
ATOM      5  C   UNL     1       0.871  16.182  13.220  1.00  0.00     0.034 C 
BRANCH   5   6
ATOM      6  C   UNL     1       0.172  17.014  14.285  1.00  0.00    -0.077 C 
ATOM      7  C   UNL     1      -0.918  17.968  13.863  1.00  0.00     0.039 C 
ATOM      8  C   UNL     1       0.464  16.931  15.601  1.00  0.00    -0.027 CG0
ATOM      9  G   UNL     1       1.532  16.041  16.198  1.00  0.00     0.000 G0
ENDBRANCH   5   6
ENDBRANCH   4   5
ENDBRANCH   2   4
BRANCH   1  10
ATOM     10  C   UNL     1       3.297  13.855  14.771  1.00  0.00     0.057 C 
BRANCH  10  11
ATOM     11  C   UNL     1       1.974  13.170  15.019  1.00  0.00    -0.026 C 
ATOM     12  C   UNL     1       0.992  13.538  15.874  1.00  0.00    -0.024 C 
BRANCH  12  13
ATOM     13  C   UNL     1       0.951  14.730  16.843  1.00  0.00    -0.014 C 
ATOM     14  C   UNL     1       1.804  14.361  18.081  1.00  0.00     0.016 C 
ATOM     15  C   UNL     1      -0.494  14.953  17.338  1.00  0.00     0.016 C 
BRANCH  13  16
ATOM     16  C   UNL     1       1.527  16.048  16.232  1.00  0.00     0.038 CG0
ATOM     17  G   UNL     1       0.462  16.917  15.600  1.00  0.00     0.000 G0
ENDBRANCH  13  16
ENDBRANCH  12  13
ENDBRANCH  10  11
ENDBRANCH   1  10
TORSDOF 0
ENDMDL
MODEL 4
REMARK VINA RESULT:    -3.568      1.482      3.768
REMARK INTER + INTRA:          -3.815
REMARK INTER:                  -4.747
REMARK INTRA:                   0.932
REMARK UNBOUND:                 1.214
REMARK SMILES CC1=CCCC(C)=CCC(C)(C)C=CC1
REMARK SMILES IDX 2 1 3 2 1 3 4 4 5 5 6 6 7 7 8 8 15 10 14 11 13 12 10 13
REMARK SMILES IDX 11 14 12 15 9 16
REMARK H PARENT
REMARK Flexibility Score: 60.00
ROOT
ATOM      1  C   UNL     1       1.095  17.526  16.356  1.00  0.00    -0.074 C 
ATOM      2  C   UNL     1       0.628  18.151  15.246  1.00  0.00    -0.027 C 
ATOM      3  C   UNL     1       2.205  18.209  17.117  1.00  0.00     0.039 C 
ENDROOT
BRANCH   2   4
ATOM      4  C   UNL     1      -0.446  17.643  14.311  1.00  0.00     0.032 C 
BRANCH   4   5
ATOM      5  C   UNL     1       0.078  17.310  12.899  1.00  0.00     0.034 C 
BRANCH   5   6
ATOM      6  C   UNL     1       1.367  16.503  12.872  1.00  0.00    -0.077 C 
ATOM      7  C   UNL     1       2.596  17.118  12.250  1.00  0.00     0.039 C 
ATOM      8  C   UNL     1       1.478  15.263  13.396  1.00  0.00    -0.027 CG0
ATOM      9  G   UNL     1       0.349  14.493  14.046  1.00  0.00     0.000 G0
ENDBRANCH   5   6
ENDBRANCH   4   5
ENDBRANCH   2   4
BRANCH   1  10
ATOM     10  C   UNL     1       0.611  16.170  16.852  1.00  0.00     0.057 C 
BRANCH  10  11
ATOM     11  C   UNL     1       1.734  15.160  16.857  1.00  0.00    -0.026 C 
ATOM     12  C   UNL     1       1.839  14.028  16.123  1.00  0.00    -0.024 C 
BRANCH  12  13
ATOM     13  C   UNL     1       0.851  13.441  15.104  1.00  0.00    -0.014 C 
ATOM     14  C   UNL     1      -0.379  12.920  15.887  1.00  0.00     0.016 C 
ATOM     15  C   UNL     1       1.487  12.225  14.397  1.00  0.00     0.016 C 
BRANCH  13  16
ATOM     16  C   UNL     1       0.350  14.482  14.052  1.00  0.00     0.038 CG0
ATOM     17  G   UNL     1       1.480  15.250  13.400  1.00  0.00     0.000 G0
ENDBRANCH  13  16
ENDBRANCH  12  13
ENDBRANCH  10  11
ENDBRANCH   1  10
TORSDOF 0
ENDMDL
MODEL 5
REMARK VINA RESULT:    -3.554      1.926      4.389
REMARK INTER + INTRA:          -3.795
REMARK INTER:                  -4.718
REMARK INTRA:                   0.923
REMARK UNBOUND:                 1.214
REMARK SMILES CC1=CCCC(C)=CCC(C)(C)C=CC1
REMARK SMILES IDX 2 1 3 2 1 3 4 4 5 5 6 6 7 7 8 8 15 10 14 11 13 12 10 13
REMARK SMILES IDX 11 14 12 15 9 16
REMARK H PARENT
REMARK Flexibility Score: 60.00
ROOT
ATOM      1  C   UNL     1       1.467  16.200  15.432  1.00  0.00    -0.074 C 
ATOM      2  C   UNL     1       1.897  15.261  14.553  1.00  0.00    -0.027 C 
ATOM      3  C   UNL     1       1.118  17.559  14.875  1.00  0.00     0.039 C 
ENDROOT
BRANCH   2   4
ATOM      4  C   UNL     1       2.335  13.852  14.884  1.00  0.00     0.032 C 
BRANCH   4   5
ATOM      5  C   UNL     1       1.283  12.783  14.526  1.00  0.00     0.034 C 
BRANCH   5   6
ATOM      6  C   UNL     1      -0.161  13.235  14.679  1.00  0.00    -0.077 C 
ATOM      7  C   UNL     1      -0.858  13.858  13.495  1.00  0.00     0.039 C 
ATOM      8  C   UNL     1      -0.866  13.093  15.823  1.00  0.00    -0.027 CG0
ATOM      9  G   UNL     1      -0.325  12.502  17.107  1.00  0.00     0.000 G0
ENDBRANCH   5   6
ENDBRANCH   4   5
ENDBRANCH   2   4
BRANCH   1  10
ATOM     10  C   UNL     1       1.362  15.991  16.937  1.00  0.00     0.057 C 
BRANCH  10  11
ATOM     11  C   UNL     1      -0.082  15.941  17.380  1.00  0.00    -0.026 C 
ATOM     12  C   UNL     1      -0.741  14.909  17.955  1.00  0.00    -0.024 C 
BRANCH  12  13
ATOM     13  C   UNL     1      -0.224  13.503  18.298  1.00  0.00    -0.014 C 
ATOM     14  C   UNL     1      -1.090  12.953  19.459  1.00  0.00     0.016 C 
ATOM     15  C   UNL     1       1.227  13.591  18.817  1.00  0.00     0.016 C 
BRANCH  13  16
ATOM     16  C   UNL     1      -0.317  12.498  17.106  1.00  0.00     0.038 CG0
ATOM     17  G   UNL     1      -0.877  13.127  15.848  1.00  0.00     0.000 G0
ENDBRANCH  13  16
ENDBRANCH  12  13
ENDBRANCH  10  11
ENDBRANCH   1  10
TORSDOF 0
ENDMDL
MODEL 6
REMARK VINA RESULT:    -3.520      1.441      2.986
REMARK INTER + INTRA:          -3.747
REMARK INTER:                  -4.881
REMARK INTRA:                   1.134
REMARK UNBOUND:                 1.214
REMARK SMILES CC1=CCCC(C)=CCC(C)(C)C=CC1
REMARK SMILES IDX 2 1 3 2 1 3 4 4 5 5 6 6 7 7 8 8 15 10 14 11 13 12 10 13
REMARK SMILES IDX 11 14 12 15 9 16
REMARK H PARENT
REMARK Flexibility Score: 60.00
ROOT
ATOM      1  C   UNL     1       1.452  12.004  13.891  1.00  0.00    -0.074 C 
ATOM      2  C   UNL     1       2.234  12.561  12.933  1.00  0.00    -0.027 C 
ATOM      3  C   UNL     1       1.077  10.552  13.717  1.00  0.00     0.039 C 
ENDROOT
BRANCH   2   4
ATOM      4  C   UNL     1       2.702  13.998  12.876  1.00  0.00     0.032 C 
BRANCH   4   5
ATOM      5  C   UNL     1       1.595  14.986  12.455  1.00  0.00     0.034 C 
BRANCH   5   6
ATOM      6  C   UNL     1       1.750  16.391  13.019  1.00  0.00    -0.077 C 
ATOM      7  C   UNL     1       2.576  17.394  12.253  1.00  0.00     0.039 C 
ATOM      8  C   UNL     1       1.168  16.798  14.168  1.00  0.00    -0.027 CG0
ATOM      9  G   UNL     1       0.319  15.925  15.066  1.00  0.00     0.000 G0
ENDBRANCH   5   6
ENDBRANCH   4   5
ENDBRANCH   2   4
BRANCH   1  10
ATOM     10  C   UNL     1       0.891  12.753  15.092  1.00  0.00     0.057 C 
BRANCH  10  11
ATOM     11  C   UNL     1       1.997  13.384  15.905  1.00  0.00    -0.026 C 
ATOM     12  C   UNL     1       2.009  14.604  16.489  1.00  0.00    -0.024 C 
BRANCH  12  13
ATOM     13  C   UNL     1       0.926  15.693  16.475  1.00  0.00    -0.014 C 
ATOM     14  C   UNL     1       1.580  17.015  16.947  1.00  0.00     0.016 C 
ATOM     15  C   UNL     1      -0.180  15.345  17.496  1.00  0.00     0.016 C 
BRANCH  13  16
ATOM     16  C   UNL     1       0.305  15.935  15.062  1.00  0.00     0.038 CG0
ATOM     17  G   UNL     1       1.174  16.804  14.179  1.00  0.00     0.000 G0
ENDBRANCH  13  16
ENDBRANCH  12  13
ENDBRANCH  10  11
ENDBRANCH   1  10
TORSDOF 0
ENDMDL
MODEL 7
REMARK VINA RESULT:    -3.433      1.507      4.543
REMARK INTER + INTRA:          -3.624
REMARK INTER:                  -5.101
REMARK INTRA:                   1.477
REMARK UNBOUND:                 1.214
REMARK SMILES CC1=CCCC(C)=CCC(C)(C)C=CC1
REMARK SMILES IDX 2 1 3 2 1 3 4 4 5 5 6 6 7 7 8 8 15 10 14 11 13 12 10 13
REMARK SMILES IDX 11 14 12 15 9 16
REMARK H PARENT
REMARK Flexibility Score: 60.00
ROOT
ATOM      1  C   UNL     1       2.331  14.764  13.662  1.00  0.00    -0.074 C 
ATOM      2  C   UNL     1       1.110  15.140  13.207  1.00  0.00    -0.027 C 
ATOM      3  C   UNL     1       3.496  14.908  12.713  1.00  0.00     0.039 C 
ENDROOT
BRANCH   2   4
ATOM      4  C   UNL     1      -0.198  15.052  13.961  1.00  0.00     0.032 C 
BRANCH   4   5
ATOM      5  C   UNL     1      -0.608  16.378  14.634  1.00  0.00     0.034 C 
BRANCH   5   6
ATOM      6  C   UNL     1       0.243  16.775  15.831  1.00  0.00    -0.077 C 
ATOM      7  C   UNL     1       1.035  18.057  15.766  1.00  0.00     0.039 C 
ATOM      8  C   UNL     1       0.316  16.044  16.965  1.00  0.00    -0.027 CG0
ATOM      9  G   UNL     1      -0.400  14.731  17.197  1.00  0.00     0.000 G0
ENDBRANCH   5   6
ENDBRANCH   4   5
ENDBRANCH   2   4
BRANCH   1  10
ATOM     10  C   UNL     1       2.594  14.166  15.038  1.00  0.00     0.057 C 
BRANCH  10  11
ATOM     11  C   UNL     1       1.753  12.932  15.265  1.00  0.00    -0.026 C 
ATOM     12  C   UNL     1       0.909  12.676  16.291  1.00  0.00    -0.024 C 
BRANCH  12  13
ATOM     13  C   UNL     1       0.585  13.546  17.515  1.00  0.00    -0.014 C 
ATOM     14  C   UNL     1       1.915  14.146  18.033  1.00  0.00     0.016 C 
ATOM     15  C   UNL     1       0.015  12.664  18.647  1.00  0.00     0.016 C 
BRANCH  13  16
ATOM     16  C   UNL     1      -0.390  14.725  17.200  1.00  0.00     0.038 CG0
ATOM     17  G   UNL     1       0.329  16.037  16.968  1.00  0.00     0.000 G0
ENDBRANCH  13  16
ENDBRANCH  12  13
ENDBRANCH  10  11
ENDBRANCH   1  10
TORSDOF 0
ENDMDL
MODEL 8
REMARK VINA RESULT:    -3.405      1.301      3.617
REMARK INTER + INTRA:          -3.585
REMARK INTER:                  -4.487
REMARK INTRA:                   0.903
REMARK UNBOUND:                 1.214
REMARK SMILES CC1=CCCC(C)=CCC(C)(C)C=CC1
REMARK SMILES IDX 2 1 3 2 1 3 4 4 5 5 6 6 7 7 8 8 15 10 14 11 13 12 10 13
REMARK SMILES IDX 11 14 12 15 9 16
REMARK H PARENT
REMARK Flexibility Score: 60.00
ROOT
ATOM      1  C   UNL     1       1.544  15.182  17.501  1.00  0.00    -0.074 C 
ATOM      2  C   UNL     1       1.520  16.538  17.439  1.00  0.00    -0.027 C 
ATOM      3  C   UNL     1       2.541  14.553  18.443  1.00  0.00     0.039 C 
ENDROOT
BRANCH   2   4
ATOM      4  C   UNL     1       0.638  17.381  16.547  1.00  0.00     0.032 C 
BRANCH   4   5
ATOM      5  C   UNL     1       1.326  17.813  15.236  1.00  0.00     0.034 C 
BRANCH   5   6
ATOM      6  C   UNL     1       0.654  17.308  13.968  1.00  0.00    -0.077 C 
ATOM      7  C   UNL     1      -0.448  18.134  13.351  1.00  0.00     0.039 C 
ATOM      8  C   UNL     1       1.005  16.160  13.349  1.00  0.00    -0.027 CG0
ATOM      9  G   UNL     1       2.075  15.206  13.833  1.00  0.00     0.000 G0
ENDBRANCH   5   6
ENDBRANCH   4   5
ENDBRANCH   2   4
BRANCH   1  10
ATOM     10  C   UNL     1       0.674  14.263  16.655  1.00  0.00     0.057 C 
BRANCH  10  11
ATOM     11  C   UNL     1       1.464  13.080  16.147  1.00  0.00    -0.026 C 
ATOM     12  C   UNL     1       1.898  12.848  14.886  1.00  0.00    -0.024 C 
BRANCH  12  13
ATOM     13  C   UNL     1       1.695  13.697  13.623  1.00  0.00    -0.014 C 
ATOM     14  C   UNL     1       0.195  13.627  13.243  1.00  0.00     0.016 C 
ATOM     15  C   UNL     1       2.489  13.086  12.448  1.00  0.00     0.016 C 
BRANCH  13  16
ATOM     16  C   UNL     1       2.077  15.200  13.814  1.00  0.00     0.038 CG0
ATOM     17  G   UNL     1       0.990  16.147  13.355  1.00  0.00     0.000 G0
ENDBRANCH  13  16
ENDBRANCH  12  13
ENDBRANCH  10  11
ENDBRANCH   1  10
TORSDOF 0
ENDMDL
MODEL 9
REMARK VINA RESULT:    -3.103      2.108      4.027
REMARK INTER + INTRA:          -3.159
REMARK INTER:                  -3.997
REMARK INTRA:                   0.838
REMARK UNBOUND:                 1.214
REMARK SMILES CC1=CCCC(C)=CCC(C)(C)C=CC1
REMARK SMILES IDX 2 1 3 2 1 3 4 4 5 5 6 6 7 7 8 8 15 10 14 11 13 12 10 13
REMARK SMILES IDX 11 14 12 15 9 16
REMARK H PARENT
REMARK Flexibility Score: 60.00
ROOT
ATOM      1  C   UNL     1       1.182  14.452  16.602  1.00  0.00    -0.074 C 
ATOM      2  C   UNL     1       1.990  15.107  15.730  1.00  0.00    -0.027 C 
ATOM      3  C   UNL     1       0.758  15.198  17.843  1.00  0.00     0.039 C 
ENDROOT
BRANCH   2   4
ATOM      4  C   UNL     1       2.568  14.551  14.448  1.00  0.00     0.032 C 
BRANCH   4   5
ATOM      5  C   UNL     1       2.050  15.266  13.183  1.00  0.00     0.034 C 
BRANCH   5   6
ATOM      6  C   UNL     1       0.538  15.409  13.107  1.00  0.00    -0.077 C 
ATOM      7  C   UNL     1      -0.082  16.747  13.426  1.00  0.00     0.039 C 
ATOM      8  C   UNL     1      -0.287  14.400  12.750  1.00  0.00    -0.027 CG0
ATOM      9  G   UNL     1       0.160  12.995  12.410  1.00  0.00     0.000 G0
ENDBRANCH   5   6
ENDBRANCH   4   5
ENDBRANCH   2   4
BRANCH   1  10
ATOM     10  C   UNL     1       0.720  13.011  16.436  1.00  0.00     0.057 C 
BRANCH  10  11
ATOM     11  C   UNL     1      -0.674  12.949  15.857  1.00  0.00    -0.026 C 
ATOM     12  C   UNL     1      -1.052  12.492  14.641  1.00  0.00    -0.024 C 
BRANCH  12  13
ATOM     13  C   UNL     1      -0.182  11.933  13.506  1.00  0.00    -0.014 C 
ATOM     14  C   UNL     1      -0.961  10.771  12.843  1.00  0.00     0.016 C 
ATOM     15  C   UNL     1       1.117  11.335  14.088  1.00  0.00     0.016 C 
BRANCH  13  16
ATOM     16  C   UNL     1       0.151  12.986  12.401  1.00  0.00     0.038 CG0
ATOM     17  G   UNL     1      -0.302  14.384  12.764  1.00  0.00     0.000 G0
ENDBRANCH  13  16
ENDBRANCH  12  13
ENDBRANCH  10  11
ENDBRANCH   1  10
TORSDOF 0
ENDMDL
