MODEL 1
REMARK VINA RESULT:    25.351      0.000      0.000
REMARK INTER + INTRA:          30.264
REMARK INTER:                  30.538
REMARK INTRA:                  -0.274
REMARK UNBOUND:                -0.274
REMARK SMILES Oc1cc(O)c2cc(O)c(-c3ccc(O)c(O)c3)[o+]c2c1
REMARK SMILES IDX 10 1 19 2 20 3 21 4 2 5 3 6 4 7 6 8 7 9 8 10 11 11 12 12
REMARK SMILES IDX 13 13 14 14 18 15 16 16 15 17 17 19 9 21 1 23 5 25
REMARK H PARENT 15 18 17 20 9 22 1 24 5 26
REMARK Flexibility Score: inf
ROOT
ATOM      1  C   UNL     1       9.235   2.243   9.071  1.00  0.00     0.402 A 
ATOM      2  O   UNL     1      10.112   1.376   8.573  1.00  0.00    -0.202 OA
ATOM      3  C   UNL     1      11.120   1.730   7.783  1.00  0.00     0.368 A 
ATOM      4  C   UNL     1      11.992   0.745   7.311  1.00  0.00     0.162 A 
ATOM      5  C   UNL     1      13.061   1.088   6.483  1.00  0.00     0.128 A 
ATOM      6  C   UNL     1      13.264   2.425   6.124  1.00  0.00     0.093 A 
ATOM      7  C   UNL     1      12.404   3.430   6.585  1.00  0.00     0.136 A 
ATOM      8  C   UNL     1      11.314   3.085   7.424  1.00  0.00     0.125 A 
ATOM      9  C   UNL     1      10.395   4.023   7.922  1.00  0.00     0.078 A 
ATOM     10  C   UNL     1       9.342   3.606   8.741  1.00  0.00     0.223 A 
ENDROOT
BRANCH   1  11
ATOM     11  C   UNL     1       8.159   1.725   9.948  1.00  0.00     0.087 A 
ATOM     12  C   UNL     1       8.427   1.296  11.260  1.00  0.00     0.022 A 
ATOM     13  C   UNL     1       7.400   0.790  12.061  1.00  0.00     0.051 A 
ATOM     14  C   UNL     1       6.095   0.694  11.559  1.00  0.00     0.157 A 
ATOM     15  C   UNL     1       6.854   1.607   9.444  1.00  0.00     0.068 A 
ATOM     16  C   UNL     1       5.823   1.100  10.247  1.00  0.00     0.158 A 
BRANCH  14  17
ATOM     17  O   UNL     1       5.068   0.191  12.356  1.00  0.00    -0.504 OA
ATOM     18  H   UNL     1       5.204  -0.623  12.945  1.00  0.00     0.293 HD
ENDBRANCH  14  17
BRANCH  16  19
ATOM     19  O   UNL     1       4.526   0.997   9.749  1.00  0.00    -0.504 OA
ATOM     20  H   UNL     1       4.052   0.104   9.684  1.00  0.00     0.293 HD
ENDBRANCH  16  19
ENDBRANCH   1  11
BRANCH  10  21
ATOM     21  O   UNL     1       8.400   4.531   9.194  1.00  0.00    -0.500 OA
ATOM     22  H   UNL     1       8.480   5.519   8.985  1.00  0.00     0.294 HD
ENDBRANCH  10  21
BRANCH   5  23
ATOM     23  O   UNL     1      13.920   0.092   6.022  1.00  0.00    -0.507 OA
ATOM     24  H   UNL     1      14.495   0.227   5.198  1.00  0.00     0.293 HD
ENDBRANCH   5  23
BRANCH   7  25
ATOM     25  O   UNL     1      12.676   4.742   6.183  1.00  0.00    -0.507 OA
ATOM     26  H   UNL     1      12.501   5.559   6.750  1.00  0.00     0.293 HD
ENDBRANCH   7  25
TORSDOF 6
ENDMDL
MODEL 2
REMARK VINA RESULT:    25.589      1.047      2.605
REMARK INTER + INTRA:          30.551
REMARK INTER:                  30.825
REMARK INTRA:                  -0.274
REMARK UNBOUND:                -0.274
REMARK SMILES Oc1cc(O)c2cc(O)c(-c3ccc(O)c(O)c3)[o+]c2c1
REMARK SMILES IDX 10 1 19 2 20 3 21 4 2 5 3 6 4 7 6 8 7 9 8 10 11 11 12 12
REMARK SMILES IDX 13 13 14 14 18 15 16 16 15 17 17 19 9 21 1 23 5 25
REMARK H PARENT 15 18 17 20 9 22 1 24 5 26
REMARK Flexibility Score: inf
ROOT
ATOM      1  C   UNL     1       9.200   1.367   9.162  1.00  0.00     0.402 A 
ATOM      2  O   UNL     1       9.500   2.579   8.704  1.00  0.00    -0.202 OA
ATOM      3  C   UNL     1      10.516   2.817   7.881  1.00  0.00     0.368 A 
ATOM      4  C   UNL     1      10.750   4.126   7.451  1.00  0.00     0.162 A 
ATOM      5  C   UNL     1      11.807   4.405   6.584  1.00  0.00     0.128 A 
ATOM      6  C   UNL     1      12.637   3.369   6.141  1.00  0.00     0.093 A 
ATOM      7  C   UNL     1      12.423   2.049   6.557  1.00  0.00     0.136 A 
ATOM      8  C   UNL     1      11.350   1.762   7.441  1.00  0.00     0.125 A 
ATOM      9  C   UNL     1      11.069   0.473   7.920  1.00  0.00     0.078 A 
ATOM     10  C   UNL     1       9.996   0.268   8.793  1.00  0.00     0.223 A 
ENDROOT
BRANCH   1  11
ATOM     11  C   UNL     1       8.035   1.229  10.067  1.00  0.00     0.087 A 
ATOM     12  C   UNL     1       8.202   0.999  11.445  1.00  0.00     0.022 A 
ATOM     13  C   UNL     1       7.088   0.849  12.275  1.00  0.00     0.051 A 
ATOM     14  C   UNL     1       5.794   0.914  11.740  1.00  0.00     0.157 A 
ATOM     15  C   UNL     1       6.738   1.272   9.534  1.00  0.00     0.068 A 
ATOM     16  C   UNL     1       5.619   1.123  10.366  1.00  0.00     0.158 A 
BRANCH  14  17
ATOM     17  O   UNL     1       4.681   0.766  12.565  1.00  0.00    -0.504 OA
ATOM     18  H   UNL     1       4.298  -0.147  12.779  1.00  0.00     0.293 HD
ENDBRANCH  14  17
BRANCH  16  19
ATOM     19  O   UNL     1       4.332   1.180   9.836  1.00  0.00    -0.504 OA
ATOM     20  H   UNL     1       3.539   1.469  10.397  1.00  0.00     0.293 HD
ENDBRANCH  16  19
ENDBRANCH   1  11
BRANCH  10  21
ATOM     21  O   UNL     1       9.747  -1.005   9.309  1.00  0.00    -0.500 OA
ATOM     22  H   UNL     1       9.545  -1.152  10.291  1.00  0.00     0.294 HD
ENDBRANCH  10  21
BRANCH   5  23
ATOM     23  O   UNL     1      12.026   5.716   6.167  1.00  0.00    -0.507 OA
ATOM     24  H   UNL     1      11.615   6.078   5.315  1.00  0.00     0.293 HD
ENDBRANCH   5  23
BRANCH   7  25
ATOM     25  O   UNL     1      13.294   1.071   6.067  1.00  0.00    -0.507 OA
ATOM     26  H   UNL     1      13.443   0.171   6.501  1.00  0.00     0.293 HD
ENDBRANCH   7  25
TORSDOF 6
ENDMDL
MODEL 3
REMARK VINA RESULT:    27.505      4.655      8.130
REMARK INTER + INTRA:          32.858
REMARK INTER:                  33.145
REMARK INTRA:                  -0.286
REMARK UNBOUND:                -0.274
REMARK SMILES Oc1cc(O)c2cc(O)c(-c3ccc(O)c(O)c3)[o+]c2c1
REMARK SMILES IDX 10 1 19 2 20 3 21 4 2 5 3 6 4 7 6 8 7 9 8 10 11 11 12 12
REMARK SMILES IDX 13 13 14 14 18 15 16 16 15 17 17 19 9 21 1 23 5 25
REMARK H PARENT 15 18 17 20 9 22 1 24 5 26
REMARK Flexibility Score: inf
ROOT
ATOM      1  C   UNL     1      14.906   2.924   9.117  1.00  0.00     0.402 A 
ATOM      2  O   UNL     1      14.056   3.817   8.619  1.00  0.00    -0.202 OA
ATOM      3  C   UNL     1      13.058   3.498   7.802  1.00  0.00     0.368 A 
ATOM      4  C   UNL     1      12.214   4.508   7.332  1.00  0.00     0.162 A 
ATOM      5  C   UNL     1      11.157   4.202   6.475  1.00  0.00     0.128 A 
ATOM      6  C   UNL     1      10.937   2.876   6.084  1.00  0.00     0.093 A 
ATOM      7  C   UNL     1      11.769   1.846   6.541  1.00  0.00     0.136 A 
ATOM      8  C   UNL     1      12.848   2.154   7.411  1.00  0.00     0.125 A 
ATOM      9  C   UNL     1      13.738   1.189   7.908  1.00  0.00     0.078 A 
ATOM     10  C   UNL     1      14.782   1.570   8.757  1.00  0.00     0.223 A 
ENDROOT
BRANCH   1  11
ATOM     11  C   UNL     1      15.972   3.404  10.027  1.00  0.00     0.087 A 
ATOM     12  C   UNL     1      15.689   3.783  11.352  1.00  0.00     0.022 A 
ATOM     13  C   UNL     1      16.708   4.254  12.184  1.00  0.00     0.051 A 
ATOM     14  C   UNL     1      18.018   4.365  11.702  1.00  0.00     0.157 A 
ATOM     15  C   UNL     1      17.283   3.537   9.544  1.00  0.00     0.068 A 
ATOM     16  C   UNL     1      18.307   4.010  10.379  1.00  0.00     0.158 A 
BRANCH  14  17
ATOM     17  O   UNL     1      19.037   4.834  12.530  1.00  0.00    -0.504 OA
ATOM     18  H   UNL     1      19.127   5.818  12.755  1.00  0.00     0.293 HD
ENDBRANCH  14  17
BRANCH  16  19
ATOM     19  O   UNL     1      19.610   4.128   9.900  1.00  0.00    -0.504 OA
ATOM     20  H   UNL     1      19.821   4.053   8.912  1.00  0.00     0.293 HD
ENDBRANCH  16  19
ENDBRANCH   1  11
BRANCH  10  21
ATOM     21  O   UNL     1      15.697   0.619   9.210  1.00  0.00    -0.500 OA
ATOM     22  H   UNL     1      15.555   0.114  10.078  1.00  0.00     0.294 HD
ENDBRANCH  10  21
BRANCH   5  23
ATOM     23  O   UNL     1      10.326   5.222   6.017  1.00  0.00    -0.507 OA
ATOM     24  H   UNL     1      10.370   6.157   6.405  1.00  0.00     0.293 HD
ENDBRANCH   5  23
BRANCH   7  25
ATOM     25  O   UNL     1      11.482   0.548   6.108  1.00  0.00    -0.507 OA
ATOM     26  H   UNL     1      10.748  -0.031   6.488  1.00  0.00     0.293 HD
ENDBRANCH   7  25
TORSDOF 6
ENDMDL
MODEL 4
REMARK VINA RESULT:    27.874      4.851      7.861
REMARK INTER + INTRA:          33.303
REMARK INTER:                  33.587
REMARK INTRA:                  -0.284
REMARK UNBOUND:                -0.274
REMARK SMILES Oc1cc(O)c2cc(O)c(-c3ccc(O)c(O)c3)[o+]c2c1
REMARK SMILES IDX 10 1 19 2 20 3 21 4 2 5 3 6 4 7 6 8 7 9 8 10 11 11 12 12
REMARK SMILES IDX 13 13 14 14 18 15 16 16 15 17 17 19 9 21 1 23 5 25
REMARK H PARENT 15 18 17 20 9 22 1 24 5 26
REMARK Flexibility Score: inf
ROOT
ATOM      1  C   UNL     1      14.959   3.764   9.272  1.00  0.00     0.402 A 
ATOM      2  O   UNL     1      14.652   2.569   8.777  1.00  0.00    -0.202 OA
ATOM      3  C   UNL     1      13.653   2.366   7.925  1.00  0.00     0.368 A 
ATOM      4  C   UNL     1      13.409   1.072   7.458  1.00  0.00     0.162 A 
ATOM      5  C   UNL     1      12.369   0.831   6.560  1.00  0.00     0.128 A 
ATOM      6  C   UNL     1      11.566   1.890   6.122  1.00  0.00     0.093 A 
ATOM      7  C   UNL     1      11.791   3.196   6.575  1.00  0.00     0.136 A 
ATOM      8  C   UNL     1      12.846   3.445   7.491  1.00  0.00     0.125 A 
ATOM      9  C   UNL     1      13.135   4.718   8.007  1.00  0.00     0.078 A 
ATOM     10  C   UNL     1      14.189   4.885   8.911  1.00  0.00     0.223 A 
ENDROOT
BRANCH   1  11
ATOM     11  C   UNL     1      16.103   3.862  10.208  1.00  0.00     0.087 A 
ATOM     12  C   UNL     1      15.907   4.040  11.589  1.00  0.00     0.022 A 
ATOM     13  C   UNL     1      17.002   4.153  12.449  1.00  0.00     0.051 A 
ATOM     14  C   UNL     1      18.307   4.103  11.941  1.00  0.00     0.157 A 
ATOM     15  C   UNL     1      17.413   3.833   9.703  1.00  0.00     0.068 A 
ATOM     16  C   UNL     1      18.513   3.946  10.565  1.00  0.00     0.158 A 
BRANCH  14  17
ATOM     17  O   UNL     1      19.401   4.214  12.797  1.00  0.00    -0.504 OA
ATOM     18  H   UNL     1      20.054   4.986  12.725  1.00  0.00     0.293 HD
ENDBRANCH  14  17
BRANCH  16  19
ATOM     19  O   UNL     1      19.812   3.903  10.062  1.00  0.00    -0.504 OA
ATOM     20  H   UNL     1      20.030   3.425   9.196  1.00  0.00     0.293 HD
ENDBRANCH  16  19
ENDBRANCH   1  11
BRANCH  10  21
ATOM     21  O   UNL     1      14.445   6.141   9.462  1.00  0.00    -0.500 OA
ATOM     22  H   UNL     1      15.004   6.251  10.301  1.00  0.00     0.294 HD
ENDBRANCH  10  21
BRANCH   5  23
ATOM     23  O   UNL     1      12.140  -0.467   6.106  1.00  0.00    -0.507 OA
ATOM     24  H   UNL     1      12.117  -1.255   6.742  1.00  0.00     0.293 HD
ENDBRANCH   5  23
BRANCH   7  25
ATOM     25  O   UNL     1      10.947   4.199   6.088  1.00  0.00    -0.507 OA
ATOM     26  H   UNL     1      10.833   4.423   5.110  1.00  0.00     0.293 HD
ENDBRANCH   7  25
TORSDOF 6
ENDMDL
