MODEL 1
REMARK VINA RESULT:    -5.372      0.000      0.000
REMARK INTER + INTRA:          -5.372
REMARK INTER:                  -5.372
REMARK INTRA:                   0.000
REMARK UNBOUND:                 0.000
REMARK SMILES CC(C)=C1CC[C@H](C)CC1=O
REMARK SMILES IDX 8 1 7 2 6 3 5 4 4 5 2 6 1 7 3 8 10 9 11 10 9 11
REMARK H PARENT
REMARK Flexibility Score: inf
ROOT
ATOM      1  C   UNL     1     -14.737   7.657  26.242  1.00  0.00     0.008 C 
ATOM      2  C   UNL     1     -13.273   7.201  26.255  1.00  0.00    -0.006 C 
ATOM      3  C   UNL     1     -13.147   5.800  26.872  1.00  0.00     0.008 C 
ATOM      4  C   UNL     1     -11.679   5.369  26.986  1.00  0.00     0.039 C 
ATOM      5  C   UNL     1     -10.930   5.496  25.666  1.00  0.00    -0.006 C 
ATOM      6  C   UNL     1      -9.913   4.644  25.343  1.00  0.00    -0.070 C 
ATOM      7  C   UNL     1      -9.476   3.550  26.290  1.00  0.00     0.039 C 
ATOM      8  C   UNL     1      -9.200   4.724  24.012  1.00  0.00     0.039 C 
ATOM      9  C   UNL     1     -11.295   6.667  24.814  1.00  0.00     0.159 C 
ATOM     10  O   UNL     1     -10.443   7.231  24.077  1.00  0.00    -0.295 OA
ATOM     11  C   UNL     1     -12.698   7.201  24.830  1.00  0.00     0.084 C 
ENDROOT
TORSDOF 0
ENDMDL
MODEL 2
REMARK VINA RESULT:    -5.358      1.875      3.036
REMARK INTER + INTRA:          -5.358
REMARK INTER:                  -5.358
REMARK INTRA:                   0.000
REMARK UNBOUND:                 0.000
REMARK SMILES CC(C)=C1CC[C@H](C)CC1=O
REMARK SMILES IDX 8 1 7 2 6 3 5 4 4 5 2 6 1 7 3 8 10 9 11 10 9 11
REMARK H PARENT
REMARK Flexibility Score: inf
ROOT
ATOM      1  C   UNL     1     -16.333   7.156  27.917  1.00  0.00     0.008 C 
ATOM      2  C   UNL     1     -15.264   6.617  26.959  1.00  0.00    -0.006 C 
ATOM      3  C   UNL     1     -14.450   7.769  26.352  1.00  0.00     0.008 C 
ATOM      4  C   UNL     1     -13.443   7.257  25.315  1.00  0.00     0.039 C 
ATOM      5  C   UNL     1     -12.561   6.140  25.859  1.00  0.00    -0.006 C 
ATOM      6  C   UNL     1     -11.275   5.980  25.429  1.00  0.00    -0.070 C 
ATOM      7  C   UNL     1     -10.678   6.892  24.381  1.00  0.00     0.039 C 
ATOM      8  C   UNL     1     -10.372   4.912  26.003  1.00  0.00     0.039 C 
ATOM      9  C   UNL     1     -13.221   5.178  26.790  1.00  0.00     0.159 C 
ATOM     10  O   UNL     1     -12.872   3.968  26.837  1.00  0.00    -0.295 OA
ATOM     11  C   UNL     1     -14.329   5.642  27.691  1.00  0.00     0.084 C 
ENDROOT
TORSDOF 0
ENDMDL
MODEL 3
REMARK VINA RESULT:    -5.277      2.261      5.219
REMARK INTER + INTRA:          -5.277
REMARK INTER:                  -5.277
REMARK INTRA:                   0.000
REMARK UNBOUND:                 0.000
REMARK SMILES CC(C)=C1CC[C@H](C)CC1=O
REMARK SMILES IDX 8 1 7 2 6 3 5 4 4 5 2 6 1 7 3 8 10 9 11 10 9 11
REMARK H PARENT
REMARK Flexibility Score: inf
ROOT
ATOM      1  C   UNL     1     -10.390   5.079  25.633  1.00  0.00     0.008 C 
ATOM      2  C   UNL     1     -11.588   5.785  26.280  1.00  0.00    -0.006 C 
ATOM      3  C   UNL     1     -12.240   6.762  25.291  1.00  0.00     0.008 C 
ATOM      4  C   UNL     1     -13.377   7.551  25.952  1.00  0.00     0.039 C 
ATOM      5  C   UNL     1     -14.393   6.647  26.638  1.00  0.00    -0.006 C 
ATOM      6  C   UNL     1     -15.712   6.993  26.714  1.00  0.00    -0.070 C 
ATOM      7  C   UNL     1     -16.216   8.297  26.138  1.00  0.00     0.039 C 
ATOM      8  C   UNL     1     -16.740   6.078  27.341  1.00  0.00     0.039 C 
ATOM      9  C   UNL     1     -13.843   5.434  27.312  1.00  0.00     0.159 C 
ATOM     10  O   UNL     1     -14.379   4.962  28.350  1.00  0.00    -0.295 OA
ATOM     11  C   UNL     1     -12.622   4.756  26.761  1.00  0.00     0.084 C 
ENDROOT
TORSDOF 0
ENDMDL
MODEL 4
REMARK VINA RESULT:    -4.861      1.883      2.618
REMARK INTER + INTRA:          -4.861
REMARK INTER:                  -4.861
REMARK INTRA:                   0.000
REMARK UNBOUND:                 0.000
REMARK SMILES CC(C)=C1CC[C@H](C)CC1=O
REMARK SMILES IDX 8 1 7 2 6 3 5 4 4 5 2 6 1 7 3 8 10 9 11 10 9 11
REMARK H PARENT
REMARK Flexibility Score: inf
ROOT
ATOM      1  C   UNL     1     -16.845   5.186  27.512  1.00  0.00     0.008 C 
ATOM      2  C   UNL     1     -15.359   5.559  27.444  1.00  0.00    -0.006 C 
ATOM      3  C   UNL     1     -14.500   4.316  27.170  1.00  0.00     0.008 C 
ATOM      4  C   UNL     1     -13.004   4.653  27.199  1.00  0.00     0.039 C 
ATOM      5  C   UNL     1     -12.651   5.821  26.286  1.00  0.00    -0.006 C 
ATOM      6  C   UNL     1     -11.437   5.893  25.665  1.00  0.00    -0.070 C 
ATOM      7  C   UNL     1     -10.385   4.827  25.872  1.00  0.00     0.039 C 
ATOM      8  C   UNL     1     -11.096   7.017  24.713  1.00  0.00     0.039 C 
ATOM      9  C   UNL     1     -13.657   6.921  26.210  1.00  0.00     0.159 C 
ATOM     10  O   UNL     1     -13.307   8.118  26.032  1.00  0.00    -0.295 OA
ATOM     11  C   UNL     1     -15.120   6.614  26.353  1.00  0.00     0.084 C 
ENDROOT
TORSDOF 0
ENDMDL
MODEL 5
REMARK VINA RESULT:    -4.748      2.697      5.243
REMARK INTER + INTRA:          -4.748
REMARK INTER:                  -4.748
REMARK INTRA:                   0.000
REMARK UNBOUND:                 0.000
REMARK SMILES CC(C)=C1CC[C@H](C)CC1=O
REMARK SMILES IDX 8 1 7 2 6 3 5 4 4 5 2 6 1 7 3 8 10 9 11 10 9 11
REMARK H PARENT
REMARK Flexibility Score: inf
ROOT
ATOM      1  C   UNL     1     -11.123   5.998  25.994  1.00  0.00     0.008 C 
ATOM      2  C   UNL     1     -12.648   5.880  25.889  1.00  0.00    -0.006 C 
ATOM      3  C   UNL     1     -13.157   4.688  26.714  1.00  0.00     0.008 C 
ATOM      4  C   UNL     1     -14.668   4.493  26.541  1.00  0.00     0.039 C 
ATOM      5  C   UNL     1     -15.456   5.769  26.808  1.00  0.00    -0.006 C 
ATOM      6  C   UNL     1     -16.717   5.728  27.331  1.00  0.00    -0.070 C 
ATOM      7  C   UNL     1     -17.391   4.412  27.650  1.00  0.00     0.039 C 
ATOM      8  C   UNL     1     -17.487   6.988  27.653  1.00  0.00     0.039 C 
ATOM      9  C   UNL     1     -14.817   7.041  26.359  1.00  0.00     0.159 C 
ATOM     10  O   UNL     1     -15.508   8.017  25.961  1.00  0.00    -0.295 OA
ATOM     11  C   UNL     1     -13.321   7.175  26.367  1.00  0.00     0.084 C 
ENDROOT
TORSDOF 0
ENDMDL
MODEL 6
REMARK VINA RESULT:    -4.530      2.543      3.911
REMARK INTER + INTRA:          -4.530
REMARK INTER:                  -4.530
REMARK INTRA:                   0.000
REMARK UNBOUND:                 0.000
REMARK SMILES CC(C)=C1CC[C@H](C)CC1=O
REMARK SMILES IDX 8 1 7 2 6 3 5 4 4 5 2 6 1 7 3 8 10 9 11 10 9 11
REMARK H PARENT
REMARK Flexibility Score: inf
ROOT
ATOM      1  C   UNL     1     -16.454   9.730  26.856  1.00  0.00     0.008 C 
ATOM      2  C   UNL     1     -15.701   8.496  26.346  1.00  0.00    -0.006 C 
ATOM      3  C   UNL     1     -14.183   8.719  26.421  1.00  0.00     0.008 C 
ATOM      4  C   UNL     1     -13.414   7.535  25.822  1.00  0.00     0.039 C 
ATOM      5  C   UNL     1     -13.840   6.200  26.418  1.00  0.00    -0.006 C 
ATOM      6  C   UNL     1     -12.955   5.168  26.550  1.00  0.00    -0.070 C 
ATOM      7  C   UNL     1     -11.520   5.301  26.092  1.00  0.00     0.039 C 
ATOM      8  C   UNL     1     -13.350   3.858  27.192  1.00  0.00     0.039 C 
ATOM      9  C   UNL     1     -15.291   6.056  26.736  1.00  0.00     0.159 C 
ATOM     10  O   UNL     1     -15.873   4.943  26.649  1.00  0.00    -0.295 OA
ATOM     11  C   UNL     1     -16.090   7.254  27.161  1.00  0.00     0.084 C 
ENDROOT
TORSDOF 0
ENDMDL
MODEL 7
REMARK VINA RESULT:    -4.522      1.238      4.327
REMARK INTER + INTRA:          -4.522
REMARK INTER:                  -4.522
REMARK INTRA:                   0.000
REMARK UNBOUND:                 0.000
REMARK SMILES CC(C)=C1CC[C@H](C)CC1=O
REMARK SMILES IDX 8 1 7 2 6 3 5 4 4 5 2 6 1 7 3 8 10 9 11 10 9 11
REMARK H PARENT
REMARK Flexibility Score: inf
ROOT
ATOM      1  C   UNL     1      -9.674   4.385  26.010  1.00  0.00     0.008 C 
ATOM      2  C   UNL     1     -11.112   4.840  25.731  1.00  0.00    -0.006 C 
ATOM      3  C   UNL     1     -12.041   4.433  26.885  1.00  0.00     0.008 C 
ATOM      4  C   UNL     1     -13.501   4.789  26.578  1.00  0.00     0.039 C 
ATOM      5  C   UNL     1     -13.673   6.248  26.174  1.00  0.00    -0.006 C 
ATOM      6  C   UNL     1     -14.816   6.935  26.468  1.00  0.00    -0.070 C 
ATOM      7  C   UNL     1     -15.966   6.271  27.192  1.00  0.00     0.039 C 
ATOM      8  C   UNL     1     -14.977   8.398  26.123  1.00  0.00     0.039 C 
ATOM      9  C   UNL     1     -12.578   6.833  25.345  1.00  0.00     0.159 C 
ATOM     10  O   UNL     1     -12.812   7.720  24.482  1.00  0.00    -0.295 OA
ATOM     11  C   UNL     1     -11.164   6.361  25.526  1.00  0.00     0.084 C 
ENDROOT
TORSDOF 0
ENDMDL
MODEL 8
REMARK VINA RESULT:    -4.334      3.197      4.362
REMARK INTER + INTRA:          -4.334
REMARK INTER:                  -4.334
REMARK INTRA:                   0.000
REMARK UNBOUND:                 0.000
REMARK SMILES CC(C)=C1CC[C@H](C)CC1=O
REMARK SMILES IDX 8 1 7 2 6 3 5 4 4 5 2 6 1 7 3 8 10 9 11 10 9 11
REMARK H PARENT
REMARK Flexibility Score: inf
ROOT
ATOM      1  C   UNL     1     -17.322   2.541  27.600  1.00  0.00     0.008 C 
ATOM      2  C   UNL     1     -16.124   3.494  27.693  1.00  0.00    -0.006 C 
ATOM      3  C   UNL     1     -14.871   2.849  27.082  1.00  0.00     0.008 C 
ATOM      4  C   UNL     1     -13.639   3.746  27.257  1.00  0.00     0.039 C 
ATOM      5  C   UNL     1     -13.873   5.164  26.752  1.00  0.00    -0.006 C 
ATOM      6  C   UNL     1     -12.857   5.904  26.220  1.00  0.00    -0.070 C 
ATOM      7  C   UNL     1     -11.451   5.354  26.126  1.00  0.00     0.039 C 
ATOM      8  C   UNL     1     -13.088   7.291  25.664  1.00  0.00     0.039 C 
ATOM      9  C   UNL     1     -15.237   5.726  26.982  1.00  0.00     0.159 C 
ATOM     10  O   UNL     1     -15.413   6.956  27.186  1.00  0.00    -0.295 OA
ATOM     11  C   UNL     1     -16.434   4.818  26.980  1.00  0.00     0.084 C 
ENDROOT
TORSDOF 0
ENDMDL
MODEL 9
REMARK VINA RESULT:    -4.301      3.468      4.585
REMARK INTER + INTRA:          -4.301
REMARK INTER:                  -4.301
REMARK INTRA:                   0.000
REMARK UNBOUND:                 0.000
REMARK SMILES CC(C)=C1CC[C@H](C)CC1=O
REMARK SMILES IDX 8 1 7 2 6 3 5 4 4 5 2 6 1 7 3 8 10 9 11 10 9 11
REMARK H PARENT
REMARK Flexibility Score: inf
ROOT
ATOM      1  C   UNL     1     -14.966  10.270  25.661  1.00  0.00     0.008 C 
ATOM      2  C   UNL     1     -15.024   8.958  26.452  1.00  0.00    -0.006 C 
ATOM      3  C   UNL     1     -16.373   8.256  26.239  1.00  0.00     0.008 C 
ATOM      4  C   UNL     1     -16.488   6.993  27.102  1.00  0.00     0.039 C 
ATOM      5  C   UNL     1     -15.304   6.052  26.921  1.00  0.00    -0.006 C 
ATOM      6  C   UNL     1     -15.449   4.699  27.034  1.00  0.00    -0.070 C 
ATOM      7  C   UNL     1     -16.789   4.079  27.361  1.00  0.00     0.039 C 
ATOM      8  C   UNL     1     -14.295   3.752  26.801  1.00  0.00     0.039 C 
ATOM      9  C   UNL     1     -13.973   6.701  26.732  1.00  0.00     0.159 C 
ATOM     10  O   UNL     1     -12.916   6.163  27.154  1.00  0.00    -0.295 OA
ATOM     11  C   UNL     1     -13.875   8.028  26.034  1.00  0.00     0.084 C 
ENDROOT
TORSDOF 0
ENDMDL
