MODEL 1
REMARK VINA RESULT:    -4.357      0.000      0.000
REMARK INTER + INTRA:          -5.523
REMARK INTER:                  -6.139
REMARK INTRA:                   0.617
REMARK UNBOUND:                 0.617
REMARK SMILES CC1=CCCC(C)=CCC(C)(C)C=CC1
REMARK SMILES IDX 2 1 3 2 1 3 4 4 5 5 6 6 7 7 8 8 15 10 14 11 13 12 10 13
REMARK SMILES IDX 11 14 12 15 9 16
REMARK H PARENT
REMARK Flexibility Score: 60.00
ROOT
ATOM      1  C   UNL     1     142.071 147.806 159.595  1.00  0.00    -0.074 C 
ATOM      2  C   UNL     1     143.251 148.474 159.497  1.00  0.00    -0.027 C 
ATOM      3  C   UNL     1     141.671 146.938 158.428  1.00  0.00     0.039 C 
ENDROOT
BRANCH   2   4
ATOM      4  C   UNL     1     143.881 149.381 160.534  1.00  0.00     0.032 C 
BRANCH   4   5
ATOM      5  C   UNL     1     144.946 148.625 161.360  1.00  0.00     0.034 C 
BRANCH   5   6
ATOM      6  C   UNL     1     144.712 148.745 162.857  1.00  0.00    -0.077 C 
ATOM      7  C   UNL     1     145.376 149.866 163.616  1.00  0.00     0.039 C 
ATOM      8  C   UNL     1     143.950 147.866 163.550  1.00  0.00    -0.027 CG0
ATOM      9  G   UNL     1     143.224 146.688 162.936  1.00  0.00     0.000 G0
ENDBRANCH   5   6
ENDBRANCH   4   5
ENDBRANCH   2   4
BRANCH   1  10
ATOM     10  C   UNL     1     141.096 147.932 160.755  1.00  0.00     0.057 C 
BRANCH  10  11
ATOM     11  C   UNL     1     140.588 146.587 161.233  1.00  0.00    -0.026 C 
ATOM     12  C   UNL     1     140.867 145.952 162.397  1.00  0.00    -0.024 C 
BRANCH  12  13
ATOM     13  C   UNL     1     141.802 146.395 163.531  1.00  0.00    -0.014 C 
ATOM     14  C   UNL     1     141.205 147.608 164.296  1.00  0.00     0.016 C 
ATOM     15  C   UNL     1     141.901 145.223 164.538  1.00  0.00     0.016 C 
BRANCH  13  16
ATOM     16  C   UNL     1     143.229 146.660 162.954  1.00  0.00     0.038 CG0
ATOM     17  G   UNL     1     143.918 147.873 163.545  1.00  0.00     0.000 G0
ENDBRANCH  13  16
ENDBRANCH  12  13
ENDBRANCH  10  11
ENDBRANCH   1  10
TORSDOF 0
ENDMDL
MODEL 2
REMARK VINA RESULT:    -4.334      6.218      7.737
REMARK INTER + INTRA:          -5.491
REMARK INTER:                  -6.115
REMARK INTRA:                   0.624
REMARK UNBOUND:                 0.617
REMARK SMILES CC1=CCCC(C)=CCC(C)(C)C=CC1
REMARK SMILES IDX 2 1 3 2 1 3 4 4 5 5 6 6 7 7 8 8 15 10 14 11 13 12 10 13
REMARK SMILES IDX 11 14 12 15 9 16
REMARK H PARENT
REMARK Flexibility Score: 60.00
ROOT
ATOM      1  C   UNL     1     148.551 143.051 159.341  1.00  0.00    -0.074 C 
ATOM      2  C   UNL     1     147.368 142.383 159.365  1.00  0.00    -0.027 C 
ATOM      3  C   UNL     1     148.832 143.916 158.137  1.00  0.00     0.039 C 
ENDROOT
BRANCH   2   4
ATOM      4  C   UNL     1     146.845 141.479 160.462  1.00  0.00     0.032 C 
BRANCH   4   5
ATOM      5  C   UNL     1     145.808 142.214 161.341  1.00  0.00     0.034 C 
BRANCH   5   6
ATOM      6  C   UNL     1     146.102 142.073 162.826  1.00  0.00    -0.077 C 
ATOM      7  C   UNL     1     145.462 140.946 163.597  1.00  0.00     0.039 C 
ATOM      8  C   UNL     1     146.895 142.939 163.499  1.00  0.00    -0.027 CG0
ATOM      9  G   UNL     1     147.603 144.122 162.870  1.00  0.00     0.000 G0
ENDBRANCH   5   6
ENDBRANCH   4   5
ENDBRANCH   2   4
BRANCH   1  10
ATOM     10  C   UNL     1     149.638 142.929 160.398  1.00  0.00     0.057 C 
BRANCH  10  11
ATOM     11  C   UNL     1     150.114 144.278 160.898  1.00  0.00    -0.026 C 
ATOM     12  C   UNL     1     149.905 144.843 162.111  1.00  0.00    -0.024 C 
BRANCH  12  13
ATOM     13  C   UNL     1     149.096 144.297 163.296  1.00  0.00    -0.014 C 
ATOM     14  C   UNL     1     149.721 142.978 163.829  1.00  0.00     0.016 C 
ATOM     15  C   UNL     1     149.184 145.338 164.440  1.00  0.00     0.016 C 
BRANCH  13  16
ATOM     16  C   UNL     1     147.597 144.157 162.883  1.00  0.00     0.038 CG0
ATOM     17  G   UNL     1     146.902 142.952 163.481  1.00  0.00     0.000 G0
ENDBRANCH  13  16
ENDBRANCH  12  13
ENDBRANCH  10  11
ENDBRANCH   1  10
TORSDOF 0
ENDMDL
MODEL 3
REMARK VINA RESULT:    -4.267      4.102      5.488
REMARK INTER + INTRA:          -5.397
REMARK INTER:                  -6.071
REMARK INTRA:                   0.674
REMARK UNBOUND:                 0.617
REMARK SMILES CC1=CCCC(C)=CCC(C)(C)C=CC1
REMARK SMILES IDX 2 1 3 2 1 3 4 4 5 5 6 6 7 7 8 8 15 10 14 11 13 12 10 13
REMARK SMILES IDX 11 14 12 15 9 16
REMARK H PARENT
REMARK Flexibility Score: 60.00
ROOT
ATOM      1  C   UNL     1     142.820 142.046 159.691  1.00  0.00    -0.074 C 
ATOM      2  C   UNL     1     142.196 143.252 159.646  1.00  0.00    -0.027 C 
ATOM      3  C   UNL     1     143.560 141.605 158.452  1.00  0.00     0.039 C 
ENDROOT
BRANCH   2   4
ATOM      4  C   UNL     1     141.415 143.923 160.757  1.00  0.00     0.032 C 
BRANCH   4   5
ATOM      5  C   UNL     1     142.322 144.864 161.583  1.00  0.00     0.034 C 
BRANCH   5   6
ATOM      6  C   UNL     1     142.162 144.657 163.080  1.00  0.00    -0.077 C 
ATOM      7  C   UNL     1     141.021 145.334 163.797  1.00  0.00     0.039 C 
ATOM      8  C   UNL     1     143.023 143.910 163.810  1.00  0.00    -0.027 CG0
ATOM      9  G   UNL     1     144.218 143.174 163.240  1.00  0.00     0.000 G0
ENDBRANCH   5   6
ENDBRANCH   4   5
ENDBRANCH   2   4
BRANCH   1  10
ATOM     10  C   UNL     1     142.763 141.081 160.865  1.00  0.00     0.057 C 
BRANCH  10  11
ATOM     11  C   UNL     1     144.136 140.610 161.296  1.00  0.00    -0.026 C 
ATOM     12  C   UNL     1     144.773 140.844 162.469  1.00  0.00    -0.024 C 
BRANCH  12  13
ATOM     13  C   UNL     1     144.301 141.683 163.665  1.00  0.00    -0.014 C 
ATOM     14  C   UNL     1     142.963 141.132 164.230  1.00  0.00     0.016 C 
ATOM     15  C   UNL     1     145.363 141.539 164.783  1.00  0.00     0.016 C 
BRANCH  13  16
ATOM     16  C   UNL     1     144.233 143.187 163.251  1.00  0.00     0.038 CG0
ATOM     17  G   UNL     1     143.032 143.925 163.805  1.00  0.00     0.000 G0
ENDBRANCH  13  16
ENDBRANCH  12  13
ENDBRANCH  10  11
ENDBRANCH   1  10
TORSDOF 0
ENDMDL
MODEL 4
REMARK VINA RESULT:    -4.224      1.338      4.261
REMARK INTER + INTRA:          -5.336
REMARK INTER:                  -6.152
REMARK INTRA:                   0.815
REMARK UNBOUND:                 0.617
REMARK SMILES CC1=CCCC(C)=CCC(C)(C)C=CC1
REMARK SMILES IDX 2 1 3 2 1 3 4 4 5 5 6 6 7 7 8 8 15 10 14 11 13 12 10 13
REMARK SMILES IDX 11 14 12 15 9 16
REMARK H PARENT
REMARK Flexibility Score: 60.00
ROOT
ATOM      1  C   UNL     1     140.694 146.347 163.921  1.00  0.00    -0.074 C 
ATOM      2  C   UNL     1     140.141 145.756 162.829  1.00  0.00    -0.027 C 
ATOM      3  C   UNL     1     140.351 145.765 165.270  1.00  0.00     0.039 C 
ENDROOT
BRANCH   2   4
ATOM      4  C   UNL     1     140.346 146.134 161.377  1.00  0.00     0.032 C 
BRANCH   4   5
ATOM      5  C   UNL     1     141.735 145.677 160.876  1.00  0.00     0.034 C 
BRANCH   5   6
ATOM      6  C   UNL     1     142.586 146.837 160.387  1.00  0.00    -0.077 C 
ATOM      7  C   UNL     1     142.213 147.531 159.101  1.00  0.00     0.039 C 
ATOM      8  C   UNL     1     143.692 147.259 161.044  1.00  0.00    -0.027 CG0
ATOM      9  G   UNL     1     144.200 146.663 162.340  1.00  0.00     0.000 G0
ENDBRANCH   5   6
ENDBRANCH   4   5
ENDBRANCH   2   4
BRANCH   1  10
ATOM     10  C   UNL     1     141.568 147.592 163.885  1.00  0.00     0.057 C 
BRANCH  10  11
ATOM     11  C   UNL     1     142.681 147.548 164.911  1.00  0.00    -0.026 C 
ATOM     12  C   UNL     1     144.018 147.611 164.700  1.00  0.00    -0.024 C 
BRANCH  12  13
ATOM     13  C   UNL     1     144.774 147.701 163.367  1.00  0.00    -0.014 C 
ATOM     14  C   UNL     1     144.774 149.159 162.830  1.00  0.00     0.016 C 
ATOM     15  C   UNL     1     146.250 147.317 163.643  1.00  0.00     0.016 C 
BRANCH  13  16
ATOM     16  C   UNL     1     144.183 146.664 162.362  1.00  0.00     0.038 CG0
ATOM     17  G   UNL     1     143.691 147.272 161.065  1.00  0.00     0.000 G0
ENDBRANCH  13  16
ENDBRANCH  12  13
ENDBRANCH  10  11
ENDBRANCH   1  10
TORSDOF 0
ENDMDL
MODEL 5
REMARK VINA RESULT:    -4.185      3.166      5.626
REMARK INTER + INTRA:          -5.281
REMARK INTER:                  -5.924
REMARK INTRA:                   0.643
REMARK UNBOUND:                 0.617
REMARK SMILES CC1=CCCC(C)=CCC(C)(C)C=CC1
REMARK SMILES IDX 2 1 3 2 1 3 4 4 5 5 6 6 7 7 8 8 15 10 14 11 13 12 10 13
REMARK SMILES IDX 11 14 12 15 9 16
REMARK H PARENT
REMARK Flexibility Score: 60.00
ROOT
ATOM      1  C   UNL     1     146.510 148.770 164.233  1.00  0.00    -0.074 C 
ATOM      2  C   UNL     1     145.169 148.931 164.389  1.00  0.00    -0.027 C 
ATOM      3  C   UNL     1     147.405 149.840 164.808  1.00  0.00     0.039 C 
ENDROOT
BRANCH   2   4
ATOM      4  C   UNL     1     144.072 147.994 163.928  1.00  0.00     0.032 C 
BRANCH   4   5
ATOM      5  C   UNL     1     143.436 147.253 165.126  1.00  0.00     0.034 C 
BRANCH   5   6
ATOM      6  C   UNL     1     143.117 145.801 164.807  1.00  0.00    -0.077 C 
ATOM      7  C   UNL     1     141.748 145.448 164.283  1.00  0.00     0.039 C 
ATOM      8  C   UNL     1     144.006 144.798 165.000  1.00  0.00    -0.027 CG0
ATOM      9  G   UNL     1     145.414 144.988 165.523  1.00  0.00     0.000 G0
ENDBRANCH   5   6
ENDBRANCH   4   5
ENDBRANCH   2   4
BRANCH   1  10
ATOM     10  C   UNL     1     147.163 147.635 163.460  1.00  0.00     0.057 C 
BRANCH  10  11
ATOM     11  C   UNL     1     148.036 146.763 164.338  1.00  0.00    -0.026 C 
ATOM     12  C   UNL     1     147.798 145.498 164.762  1.00  0.00    -0.024 C 
BRANCH  12  13
ATOM     13  C   UNL     1     146.567 144.617 164.507  1.00  0.00    -0.014 C 
ATOM     14  C   UNL     1     146.117 144.715 163.023  1.00  0.00     0.016 C 
ATOM     15  C   UNL     1     146.985 143.147 164.761  1.00  0.00     0.016 C 
BRANCH  13  16
ATOM     16  C   UNL     1     145.444 144.984 165.527  1.00  0.00     0.038 CG0
ATOM     17  G   UNL     1     144.039 144.799 164.992  1.00  0.00     0.000 G0
ENDBRANCH  13  16
ENDBRANCH  12  13
ENDBRANCH  10  11
ENDBRANCH   1  10
TORSDOF 0
ENDMDL
MODEL 6
REMARK VINA RESULT:    -4.140      5.624      7.315
REMARK INTER + INTRA:          -5.218
REMARK INTER:                  -5.832
REMARK INTRA:                   0.614
REMARK UNBOUND:                 0.617
REMARK SMILES CC1=CCCC(C)=CCC(C)(C)C=CC1
REMARK SMILES IDX 2 1 3 2 1 3 4 4 5 5 6 6 7 7 8 8 15 10 14 11 13 12 10 13
REMARK SMILES IDX 11 14 12 15 9 16
REMARK H PARENT
REMARK Flexibility Score: 60.00
ROOT
ATOM      1  C   UNL     1     150.179 144.410 163.945  1.00  0.00    -0.074 C 
ATOM      2  C   UNL     1     150.621 144.989 162.797  1.00  0.00    -0.027 C 
ATOM      3  C   UNL     1     150.658 145.003 165.247  1.00  0.00     0.039 C 
ENDROOT
BRANCH   2   4
ATOM      4  C   UNL     1     150.269 144.599 161.376  1.00  0.00     0.032 C 
BRANCH   4   5
ATOM      5  C   UNL     1     149.239 145.580 160.771  1.00  0.00     0.034 C 
BRANCH   5   6
ATOM      6  C   UNL     1     148.077 144.862 160.104  1.00  0.00    -0.077 C 
ATOM      7  C   UNL     1     148.140 144.578 158.625  1.00  0.00     0.039 C 
ATOM      8  C   UNL     1     146.965 144.489 160.780  1.00  0.00    -0.027 CG0
ATOM      9  G   UNL     1     146.747 144.708 162.263  1.00  0.00     0.000 G0
ENDBRANCH   5   6
ENDBRANCH   4   5
ENDBRANCH   2   4
BRANCH   1  10
ATOM     10  C   UNL     1     149.304 143.167 164.008  1.00  0.00     0.057 C 
BRANCH  10  11
ATOM     11  C   UNL     1     148.075 143.368 164.871  1.00  0.00    -0.026 C 
ATOM     12  C   UNL     1     146.784 143.476 164.478  1.00  0.00    -0.024 C 
BRANCH  12  13
ATOM     13  C   UNL     1     146.213 143.468 163.052  1.00  0.00    -0.014 C 
ATOM     14  C   UNL     1     146.521 142.121 162.342  1.00  0.00     0.016 C 
ATOM     15  C   UNL     1     144.672 143.581 163.167  1.00  0.00     0.016 C 
BRANCH  13  16
ATOM     16  C   UNL     1     146.734 144.718 162.276  1.00  0.00     0.038 CG0
ATOM     17  G   UNL     1     146.951 144.480 160.797  1.00  0.00     0.000 G0
ENDBRANCH  13  16
ENDBRANCH  12  13
ENDBRANCH  10  11
ENDBRANCH   1  10
TORSDOF 0
ENDMDL
MODEL 7
REMARK VINA RESULT:    -4.017      1.360      3.994
REMARK INTER + INTRA:          -5.044
REMARK INTER:                  -5.777
REMARK INTRA:                   0.733
REMARK UNBOUND:                 0.617
REMARK SMILES CC1=CCCC(C)=CCC(C)(C)C=CC1
REMARK SMILES IDX 2 1 3 2 1 3 4 4 5 5 6 6 7 7 8 8 15 10 14 11 13 12 10 13
REMARK SMILES IDX 11 14 12 15 9 16
REMARK H PARENT
REMARK Flexibility Score: 60.00
ROOT
ATOM      1  C   UNL     1     141.497 146.987 161.105  1.00  0.00    -0.074 C 
ATOM      2  C   UNL     1     140.633 146.110 161.681  1.00  0.00    -0.027 C 
ATOM      3  C   UNL     1     140.921 147.985 160.132  1.00  0.00     0.039 C 
ENDROOT
BRANCH   2   4
ATOM      4  C   UNL     1     140.957 145.036 162.699  1.00  0.00     0.032 C 
BRANCH   4   5
ATOM      5  C   UNL     1     141.354 145.660 164.056  1.00  0.00     0.034 C 
BRANCH   5   6
ATOM      6  C   UNL     1     142.712 145.179 164.541  1.00  0.00    -0.077 C 
ATOM      7  C   UNL     1     142.913 143.711 164.820  1.00  0.00     0.039 C 
ATOM      8  C   UNL     1     143.748 146.020 164.764  1.00  0.00    -0.027 CG0
ATOM      9  G   UNL     1     143.702 147.517 164.539  1.00  0.00     0.000 G0
ENDBRANCH   5   6
ENDBRANCH   4   5
ENDBRANCH   2   4
BRANCH   1  10
ATOM     10  C   UNL     1     143.004 146.984 161.313  1.00  0.00     0.057 C 
BRANCH  10  11
ATOM     11  C   UNL     1     143.565 148.378 161.503  1.00  0.00    -0.026 C 
ATOM     12  C   UNL     1     144.378 148.827 162.490  1.00  0.00    -0.024 C 
BRANCH  12  13
ATOM     13  C   UNL     1     144.919 148.063 163.707  1.00  0.00    -0.014 C 
ATOM     14  C   UNL     1     145.926 146.965 163.265  1.00  0.00     0.016 C 
ATOM     15  C   UNL     1     145.702 149.074 164.581  1.00  0.00     0.016 C 
BRANCH  13  16
ATOM     16  C   UNL     1     143.726 147.515 164.550  1.00  0.00     0.038 CG0
ATOM     17  G   UNL     1     143.754 146.015 164.757  1.00  0.00     0.000 G0
ENDBRANCH  13  16
ENDBRANCH  12  13
ENDBRANCH  10  11
ENDBRANCH   1  10
TORSDOF 0
ENDMDL
MODEL 8
REMARK VINA RESULT:    -3.931      1.298      3.799
REMARK INTER + INTRA:          -4.923
REMARK INTER:                  -5.557
REMARK INTRA:                   0.634
REMARK UNBOUND:                 0.617
REMARK SMILES CC1=CCCC(C)=CCC(C)(C)C=CC1
REMARK SMILES IDX 2 1 3 2 1 3 4 4 5 5 6 6 7 7 8 8 15 10 14 11 13 12 10 13
REMARK SMILES IDX 11 14 12 15 9 16
REMARK H PARENT
REMARK Flexibility Score: 60.00
ROOT
ATOM      1  C   UNL     1     144.975 149.091 162.230  1.00  0.00    -0.074 C 
ATOM      2  C   UNL     1     144.765 149.344 160.911  1.00  0.00    -0.027 C 
ATOM      3  C   UNL     1     145.486 150.230 163.078  1.00  0.00     0.039 C 
ENDROOT
BRANCH   2   4
ATOM      4  C   UNL     1     144.239 148.384 159.864  1.00  0.00     0.032 C 
BRANCH   4   5
ATOM      5  C   UNL     1     142.697 148.455 159.772  1.00  0.00     0.034 C 
BRANCH   5   6
ATOM      6  C   UNL     1     142.048 147.082 159.842  1.00  0.00    -0.077 C 
ATOM      7  C   UNL     1     141.990 146.233 158.597  1.00  0.00     0.039 C 
ATOM      8  C   UNL     1     141.488 146.596 160.974  1.00  0.00    -0.027 CG0
ATOM      9  G   UNL     1     141.459 147.327 162.300  1.00  0.00     0.000 G0
ENDBRANCH   5   6
ENDBRANCH   4   5
ENDBRANCH   2   4
BRANCH   1  10
ATOM     10  C   UNL     1     144.807 147.732 162.891  1.00  0.00     0.057 C 
BRANCH  10  11
ATOM     11  C   UNL     1     144.014 147.809 164.179  1.00  0.00    -0.026 C 
ATOM     12  C   UNL     1     142.807 147.259 164.454  1.00  0.00    -0.024 C 
BRANCH  12  13
ATOM     13  C   UNL     1     141.891 146.446 163.528  1.00  0.00    -0.014 C 
ATOM     14  C   UNL     1     142.570 145.112 163.113  1.00  0.00     0.016 C 
ATOM     15  C   UNL     1     140.621 146.079 164.335  1.00  0.00     0.016 C 
BRANCH  13  16
ATOM     16  C   UNL     1     141.457 147.331 162.318  1.00  0.00     0.038 CG0
ATOM     17  G   UNL     1     141.473 146.607 160.987  1.00  0.00     0.000 G0
ENDBRANCH  13  16
ENDBRANCH  12  13
ENDBRANCH  10  11
ENDBRANCH   1  10
TORSDOF 0
ENDMDL
MODEL 9
REMARK VINA RESULT:    -3.866      2.613      5.650
REMARK INTER + INTRA:          -4.831
REMARK INTER:                  -5.480
REMARK INTRA:                   0.650
REMARK UNBOUND:                 0.617
REMARK SMILES CC1=CCCC(C)=CCC(C)(C)C=CC1
REMARK SMILES IDX 2 1 3 2 1 3 4 4 5 5 6 6 7 7 8 8 15 10 14 11 13 12 10 13
REMARK SMILES IDX 11 14 12 15 9 16
REMARK H PARENT
REMARK Flexibility Score: 60.00
ROOT
ATOM      1  C   UNL     1     146.787 145.277 164.791  1.00  0.00    -0.074 C 
ATOM      2  C   UNL     1     145.662 144.522 164.892  1.00  0.00    -0.027 C 
ATOM      3  C   UNL     1     148.077 144.555 164.486  1.00  0.00     0.039 C 
ENDROOT
BRANCH   2   4
ATOM      4  C   UNL     1     144.252 145.006 165.165  1.00  0.00     0.032 C 
BRANCH   4   5
ATOM      5  C   UNL     1     143.602 145.572 163.882  1.00  0.00     0.034 C 
BRANCH   5   6
ATOM      6  C   UNL     1     143.032 146.966 164.087  1.00  0.00    -0.077 C 
ATOM      7  C   UNL     1     141.788 147.135 164.923  1.00  0.00     0.039 C 
ATOM      8  C   UNL     1     143.579 148.070 163.525  1.00  0.00    -0.027 CG0
ATOM      9  G   UNL     1     144.821 148.065 162.658  1.00  0.00     0.000 G0
ENDBRANCH   5   6
ENDBRANCH   4   5
ENDBRANCH   2   4
BRANCH   1  10
ATOM     10  C   UNL     1     146.852 146.776 165.039  1.00  0.00     0.057 C 
BRANCH  10  11
ATOM     11  C   UNL     1     147.663 147.502 163.986  1.00  0.00    -0.026 C 
ATOM     12  C   UNL     1     147.265 148.507 163.169  1.00  0.00    -0.024 C 
BRANCH  12  13
ATOM     13  C   UNL     1     145.879 149.157 163.053  1.00  0.00    -0.014 C 
ATOM     14  C   UNL     1     145.519 149.924 164.355  1.00  0.00     0.016 C 
ATOM     15  C   UNL     1     145.948 150.202 161.912  1.00  0.00     0.016 C 
BRANCH  13  16
ATOM     16  C   UNL     1     144.828 148.073 162.655  1.00  0.00     0.038 CG0
ATOM     17  G   UNL     1     143.585 148.072 163.520  1.00  0.00     0.000 G0
ENDBRANCH  13  16
ENDBRANCH  12  13
ENDBRANCH  10  11
ENDBRANCH   1  10
TORSDOF 0
ENDMDL
