MODEL 1
REMARK VINA RESULT:    -1.769      0.000      0.000
REMARK INTER + INTRA:          -1.769
REMARK INTER:                  -1.769
REMARK INTRA:                   0.000
REMARK UNBOUND:                 0.000
REMARK SMILES CC(=O)[O-]
REMARK SMILES IDX 1 1 2 2 3 3 4 4
REMARK H PARENT
REMARK Flexibility Score: inf
ROOT
ATOM      1  C   UNL     1      58.830  29.376  49.542  1.00  0.00     0.063 C 
ATOM      2  C   UNL     1      59.684  28.157  49.630  1.00  0.00     0.038 C 
ATOM      3  O   UNL     1      59.154  27.016  49.644  1.00  0.00    -0.550 OA
ATOM      4  O   UNL     1      61.068  28.275  49.640  1.00  0.00    -0.550 OA
ENDROOT
TORSDOF 0
ENDMDL
MODEL 2
REMARK VINA RESULT:    -1.757     15.095     15.455
REMARK INTER + INTRA:          -1.757
REMARK INTER:                  -1.757
REMARK INTRA:                   0.000
REMARK UNBOUND:                 0.000
REMARK SMILES CC(=O)[O-]
REMARK SMILES IDX 1 1 2 2 3 3 4 4
REMARK H PARENT
REMARK Flexibility Score: inf
ROOT
ATOM      1  C   UNL     1      62.205  36.079  61.596  1.00  0.00     0.063 C 
ATOM      2  C   UNL     1      63.434  35.871  62.415  1.00  0.00     0.038 C 
ATOM      3  O   UNL     1      64.469  35.389  61.889  1.00  0.00    -0.550 OA
ATOM      4  O   UNL     1      63.455  36.260  63.749  1.00  0.00    -0.550 OA
ENDROOT
TORSDOF 0
ENDMDL
MODEL 3
REMARK VINA RESULT:    -1.754     14.852     15.335
REMARK INTER + INTRA:          -1.754
REMARK INTER:                  -1.754
REMARK INTRA:                   0.000
REMARK UNBOUND:                 0.000
REMARK SMILES CC(=O)[O-]
REMARK SMILES IDX 1 1 2 2 3 3 4 4
REMARK H PARENT
REMARK Flexibility Score: inf
ROOT
ATOM      1  C   UNL     1      67.513  28.117  62.614  1.00  0.00     0.063 C 
ATOM      2  C   UNL     1      68.600  28.906  61.968  1.00  0.00     0.038 C 
ATOM      3  O   UNL     1      69.487  29.454  62.673  1.00  0.00    -0.550 OA
ATOM      4  O   UNL     1      68.669  28.993  60.583  1.00  0.00    -0.550 OA
ENDROOT
TORSDOF 0
ENDMDL
MODEL 4
REMARK VINA RESULT:    -1.723     13.844     14.221
REMARK INTER + INTRA:          -1.723
REMARK INTER:                  -1.723
REMARK INTRA:                   0.000
REMARK UNBOUND:                 0.000
REMARK SMILES CC(=O)[O-]
REMARK SMILES IDX 1 1 2 2 3 3 4 4
REMARK H PARENT
REMARK Flexibility Score: inf
ROOT
ATOM      1  C   UNL     1      62.250  35.668  61.259  1.00  0.00     0.063 C 
ATOM      2  C   UNL     1      63.553  34.965  61.438  1.00  0.00     0.038 C 
ATOM      3  O   UNL     1      64.511  35.546  62.009  1.00  0.00    -0.550 OA
ATOM      4  O   UNL     1      63.694  33.646  61.023  1.00  0.00    -0.550 OA
ENDROOT
TORSDOF 0
ENDMDL
MODEL 5
REMARK VINA RESULT:    -1.721     17.323     17.850
REMARK INTER + INTRA:          -1.721
REMARK INTER:                  -1.721
REMARK INTRA:                   0.000
REMARK UNBOUND:                 0.000
REMARK SMILES CC(=O)[O-]
REMARK SMILES IDX 1 1 2 2 3 3 4 4
REMARK H PARENT
REMARK Flexibility Score: inf
ROOT
ATOM      1  C   UNL     1      72.026  31.596  60.986  1.00  0.00     0.063 C 
ATOM      2  C   UNL     1      72.341  30.498  61.944  1.00  0.00     0.038 C 
ATOM      3  O   UNL     1      73.085  30.719  62.935  1.00  0.00    -0.550 OA
ATOM      4  O   UNL     1      71.771  29.243  61.776  1.00  0.00    -0.550 OA
ENDROOT
TORSDOF 0
ENDMDL
MODEL 6
REMARK VINA RESULT:    -1.712     17.383     17.891
REMARK INTER + INTRA:          -1.712
REMARK INTER:                  -1.712
REMARK INTRA:                   0.000
REMARK UNBOUND:                 0.000
REMARK SMILES CC(=O)[O-]
REMARK SMILES IDX 1 1 2 2 3 3 4 4
REMARK H PARENT
REMARK Flexibility Score: inf
ROOT
ATOM      1  C   UNL     1      73.066  29.839  60.556  1.00  0.00     0.063 C 
ATOM      2  C   UNL     1      72.621  30.851  61.557  1.00  0.00     0.038 C 
ATOM      3  O   UNL     1      72.928  30.718  62.769  1.00  0.00    -0.550 OA
ATOM      4  O   UNL     1      71.912  31.973  61.144  1.00  0.00    -0.550 OA
ENDROOT
TORSDOF 0
ENDMDL
MODEL 7
REMARK VINA RESULT:    -1.682      4.841      5.387
REMARK INTER + INTRA:          -1.682
REMARK INTER:                  -1.682
REMARK INTRA:                   0.000
REMARK UNBOUND:                 0.000
REMARK SMILES CC(=O)[O-]
REMARK SMILES IDX 1 1 2 2 3 3 4 4
REMARK H PARENT
REMARK Flexibility Score: inf
ROOT
ATOM      1  C   UNL     1      53.840  25.798  49.649  1.00  0.00     0.063 C 
ATOM      2  C   UNL     1      54.889  26.720  50.170  1.00  0.00     0.038 C 
ATOM      3  O   UNL     1      56.043  26.285  50.422  1.00  0.00    -0.550 OA
ATOM      4  O   UNL     1      54.613  28.072  50.328  1.00  0.00    -0.550 OA
ENDROOT
TORSDOF 0
ENDMDL
MODEL 8
REMARK VINA RESULT:    -1.659     16.324     16.820
REMARK INTER + INTRA:          -1.659
REMARK INTER:                  -1.659
REMARK INTRA:                   0.000
REMARK UNBOUND:                 0.000
REMARK SMILES CC(=O)[O-]
REMARK SMILES IDX 1 1 2 2 3 3 4 4
REMARK H PARENT
REMARK Flexibility Score: inf
ROOT
ATOM      1  C   UNL     1      72.799  30.773  60.932  1.00  0.00     0.063 C 
ATOM      2  C   UNL     1      71.531  31.555  60.870  1.00  0.00     0.038 C 
ATOM      3  O   UNL     1      70.422  30.967  60.953  1.00  0.00    -0.550 OA
ATOM      4  O   UNL     1      71.572  32.941  60.778  1.00  0.00    -0.550 OA
ENDROOT
TORSDOF 0
ENDMDL
MODEL 9
REMARK VINA RESULT:    -1.643      1.365      2.057
REMARK INTER + INTRA:          -1.643
REMARK INTER:                  -1.643
REMARK INTRA:                   0.000
REMARK UNBOUND:                 0.000
REMARK SMILES CC(=O)[O-]
REMARK SMILES IDX 1 1 2 2 3 3 4 4
REMARK H PARENT
REMARK Flexibility Score: inf
ROOT
ATOM      1  C   UNL     1      59.009  26.858  49.974  1.00  0.00     0.063 C 
ATOM      2  C   UNL     1      59.675  28.146  49.630  1.00  0.00     0.038 C 
ATOM      3  O   UNL     1      60.930  28.231  49.644  1.00  0.00    -0.550 OA
ATOM      4  O   UNL     1      58.914  29.242  49.241  1.00  0.00    -0.550 OA
ENDROOT
TORSDOF 0
ENDMDL
