MODEL 1
REMARK VINA RESULT:    -3.312      0.000      0.000
REMARK INTER + INTRA:          -4.147
REMARK INTER:                  -4.086
REMARK INTRA:                  -0.060
REMARK UNBOUND:                -0.060
REMARK SMILES CCCCCC(=O)[O-]
REMARK SMILES IDX 4 1 5 2 6 3 7 4 8 5 3 6 2 7 1 8
REMARK H PARENT
REMARK Flexibility Score: inf
ROOT
ATOM      1  C   UNL     1      58.641  37.887  55.432  1.00  0.00     0.006 C 
ENDROOT
BRANCH   1   2
ATOM      2  C   UNL     1      59.437  37.876  56.740  1.00  0.00     0.053 C 
BRANCH   2   3
ATOM      3  C   UNL     1      58.685  38.590  57.818  1.00  0.00     0.041 C 
ATOM      4  O   UNL     1      58.243  39.752  57.620  1.00  0.00    -0.550 OA
ATOM      5  O   UNL     1      58.428  37.953  59.026  1.00  0.00    -0.550 OA
ENDBRANCH   2   3
ENDBRANCH   1   2
BRANCH   1   6
ATOM      6  C   UNL     1      58.919  36.619  54.610  1.00  0.00     0.000 C 
BRANCH   6   7
ATOM      7  C   UNL     1      57.687  36.142  53.826  1.00  0.00    -0.003 C 
ATOM      8  C   UNL     1      57.146  37.206  52.870  1.00  0.00     0.004 C 
ENDBRANCH   6   7
ENDBRANCH   1   6
TORSDOF 4
ENDMDL
MODEL 2
REMARK VINA RESULT:    -3.191      2.809      4.354
REMARK INTER + INTRA:          -3.997
REMARK INTER:                  -3.924
REMARK INTRA:                  -0.073
REMARK UNBOUND:                -0.060
REMARK SMILES CCCCCC(=O)[O-]
REMARK SMILES IDX 4 1 5 2 6 3 7 4 8 5 3 6 2 7 1 8
REMARK H PARENT
REMARK Flexibility Score: inf
ROOT
ATOM      1  C   UNL     1      58.871  37.943  55.748  1.00  0.00     0.006 C 
ENDROOT
BRANCH   1   2
ATOM      2  C   UNL     1      59.108  36.797  54.760  1.00  0.00     0.053 C 
BRANCH   2   3
ATOM      3  C   UNL     1      57.913  36.608  53.880  1.00  0.00     0.041 C 
ATOM      4  O   UNL     1      57.478  37.565  53.187  1.00  0.00    -0.550 OA
ATOM      5  O   UNL     1      57.309  35.360  53.787  1.00  0.00    -0.550 OA
ENDBRANCH   2   3
ENDBRANCH   1   2
BRANCH   1   6
ATOM      6  C   UNL     1      59.565  37.664  57.090  1.00  0.00     0.000 C 
BRANCH   6   7
ATOM      7  C   UNL     1      58.849  38.330  58.275  1.00  0.00    -0.003 C 
ATOM      8  C   UNL     1      58.179  39.650  57.893  1.00  0.00     0.004 C 
ENDBRANCH   6   7
ENDBRANCH   1   6
TORSDOF 4
ENDMDL
MODEL 3
REMARK VINA RESULT:    -3.082      9.516     10.898
REMARK INTER + INTRA:          -3.863
REMARK INTER:                  -3.761
REMARK INTRA:                  -0.102
REMARK UNBOUND:                -0.060
REMARK SMILES CCCCCC(=O)[O-]
REMARK SMILES IDX 4 1 5 2 6 3 7 4 8 5 3 6 2 7 1 8
REMARK H PARENT
REMARK Flexibility Score: inf
ROOT
ATOM      1  C   UNL     1      65.758  44.726  57.012  1.00  0.00     0.006 C 
ENDROOT
BRANCH   1   2
ATOM      2  C   UNL     1      65.534  43.220  56.854  1.00  0.00     0.053 C 
BRANCH   2   3
ATOM      3  C   UNL     1      66.636  42.454  57.516  1.00  0.00     0.041 C 
ATOM      4  O   UNL     1      66.940  41.302  57.111  1.00  0.00    -0.550 OA
ATOM      5  O   UNL     1      67.359  43.033  58.552  1.00  0.00    -0.550 OA
ENDBRANCH   2   3
ENDBRANCH   1   2
BRANCH   1   6
ATOM      6  C   UNL     1      64.774  45.323  58.030  1.00  0.00     0.000 C 
BRANCH   6   7
ATOM      7  C   UNL     1      65.314  46.600  58.693  1.00  0.00    -0.003 C 
ATOM      8  C   UNL     1      66.068  47.501  57.715  1.00  0.00     0.004 C 
ENDBRANCH   6   7
ENDBRANCH   1   6
TORSDOF 4
ENDMDL
MODEL 4
REMARK VINA RESULT:    -3.042      8.961     10.187
REMARK INTER + INTRA:          -3.813
REMARK INTER:                  -3.689
REMARK INTRA:                  -0.124
REMARK UNBOUND:                -0.060
REMARK SMILES CCCCCC(=O)[O-]
REMARK SMILES IDX 4 1 5 2 6 3 7 4 8 5 3 6 2 7 1 8
REMARK H PARENT
REMARK Flexibility Score: inf
ROOT
ATOM      1  C   UNL     1      65.500  43.360  56.826  1.00  0.00     0.006 C 
ENDROOT
BRANCH   1   2
ATOM      2  C   UNL     1      65.476  44.714  57.541  1.00  0.00     0.053 C 
BRANCH   2   3
ATOM      3  C   UNL     1      65.911  45.805  56.614  1.00  0.00     0.041 C 
ATOM      4  O   UNL     1      66.219  46.938  57.068  1.00  0.00    -0.550 OA
ATOM      5  O   UNL     1      66.023  45.555  55.252  1.00  0.00    -0.550 OA
ENDBRANCH   2   3
ENDBRANCH   1   2
BRANCH   1   6
ATOM      6  C   UNL     1      66.665  42.494  57.331  1.00  0.00     0.000 C 
BRANCH   6   7
ATOM      7  C   UNL     1      66.188  41.188  57.986  1.00  0.00    -0.003 C 
ATOM      8  C   UNL     1      64.667  41.113  58.115  1.00  0.00     0.004 C 
ENDBRANCH   6   7
ENDBRANCH   1   6
TORSDOF 4
ENDMDL
MODEL 5
REMARK VINA RESULT:    -2.976      8.152      8.900
REMARK INTER + INTRA:          -3.732
REMARK INTER:                  -3.571
REMARK INTRA:                  -0.160
REMARK UNBOUND:                -0.060
REMARK SMILES CCCCCC(=O)[O-]
REMARK SMILES IDX 4 1 5 2 6 3 7 4 8 5 3 6 2 7 1 8
REMARK H PARENT
REMARK Flexibility Score: inf
ROOT
ATOM      1  C   UNL     1      61.859  37.980  48.285  1.00  0.00     0.006 C 
ENDROOT
BRANCH   1   2
ATOM      2  C   UNL     1      61.012  37.027  47.438  1.00  0.00     0.053 C 
BRANCH   2   3
ATOM      3  C   UNL     1      59.558  37.202  47.746  1.00  0.00     0.041 C 
ATOM      4  O   UNL     1      58.867  38.031  47.098  1.00  0.00    -0.550 OA
ATOM      5  O   UNL     1      58.955  36.413  48.718  1.00  0.00    -0.550 OA
ENDBRANCH   2   3
ENDBRANCH   1   2
BRANCH   1   6
ATOM      6  C   UNL     1      62.753  37.200  49.261  1.00  0.00     0.000 C 
BRANCH   6   7
ATOM      7  C   UNL     1      62.617  35.678  49.098  1.00  0.00    -0.003 C 
ATOM      8  C   UNL     1      63.957  34.950  49.210  1.00  0.00     0.004 C 
ENDBRANCH   6   7
ENDBRANCH   1   6
TORSDOF 4
ENDMDL
MODEL 6
REMARK VINA RESULT:    -2.974      2.304      2.457
REMARK INTER + INTRA:          -3.730
REMARK INTER:                  -3.647
REMARK INTRA:                  -0.084
REMARK UNBOUND:                -0.060
REMARK SMILES CCCCCC(=O)[O-]
REMARK SMILES IDX 4 1 5 2 6 3 7 4 8 5 3 6 2 7 1 8
REMARK H PARENT
REMARK Flexibility Score: inf
ROOT
ATOM      1  C   UNL     1      58.954  38.148  55.914  1.00  0.00     0.006 C 
ENDROOT
BRANCH   1   2
ATOM      2  C   UNL     1      59.684  37.637  57.159  1.00  0.00     0.053 C 
BRANCH   2   3
ATOM      3  C   UNL     1      60.995  37.023  56.784  1.00  0.00     0.041 C 
ATOM      4  O   UNL     1      61.872  37.709  56.196  1.00  0.00    -0.550 OA
ATOM      5  O   UNL     1      61.269  35.705  57.128  1.00  0.00    -0.550 OA
ENDBRANCH   2   3
ENDBRANCH   1   2
BRANCH   1   6
ATOM      6  C   UNL     1      58.762  37.020  54.889  1.00  0.00     0.000 C 
BRANCH   6   7
ATOM      7  C   UNL     1      57.646  37.325  53.878  1.00  0.00    -0.003 C 
ATOM      8  C   UNL     1      57.686  36.406  52.657  1.00  0.00     0.004 C 
ENDBRANCH   6   7
ENDBRANCH   1   6
TORSDOF 4
ENDMDL
MODEL 7
REMARK VINA RESULT:    -2.966     17.778     18.680
REMARK INTER + INTRA:          -3.720
REMARK INTER:                  -3.535
REMARK INTRA:                  -0.185
REMARK UNBOUND:                -0.060
REMARK SMILES CCCCCC(=O)[O-]
REMARK SMILES IDX 4 1 5 2 6 3 7 4 8 5 3 6 2 7 1 8
REMARK H PARENT
REMARK Flexibility Score: inf
ROOT
ATOM      1  C   UNL     1      70.600  52.328  51.849  1.00  0.00     0.006 C 
ENDROOT
BRANCH   1   2
ATOM      2  C   UNL     1      70.341  51.737  50.461  1.00  0.00     0.053 C 
BRANCH   2   3
ATOM      3  C   UNL     1      68.891  51.409  50.293  1.00  0.00     0.041 C 
ATOM      4  O   UNL     1      68.130  52.198  49.674  1.00  0.00    -0.550 OA
ATOM      5  O   UNL     1      68.390  50.207  50.777  1.00  0.00    -0.550 OA
ENDBRANCH   2   3
ENDBRANCH   1   2
BRANCH   1   6
ATOM      6  C   UNL     1      71.350  51.326  52.741  1.00  0.00     0.000 C 
BRANCH   6   7
ATOM      7  C   UNL     1      70.841  51.331  54.191  1.00  0.00    -0.003 C 
ATOM      8  C   UNL     1      69.367  50.943  54.302  1.00  0.00     0.004 C 
ENDBRANCH   6   7
ENDBRANCH   1   6
TORSDOF 4
ENDMDL
MODEL 8
REMARK VINA RESULT:    -2.955      3.446      4.686
REMARK INTER + INTRA:          -3.706
REMARK INTER:                  -3.598
REMARK INTRA:                  -0.108
REMARK UNBOUND:                -0.060
REMARK SMILES CCCCCC(=O)[O-]
REMARK SMILES IDX 4 1 5 2 6 3 7 4 8 5 3 6 2 7 1 8
REMARK H PARENT
REMARK Flexibility Score: inf
ROOT
ATOM      1  C   UNL     1      58.541  37.581  55.096  1.00  0.00     0.006 C 
ENDROOT
BRANCH   1   2
ATOM      2  C   UNL     1      58.487  36.309  54.245  1.00  0.00     0.053 C 
BRANCH   2   3
ATOM      3  C   UNL     1      57.808  36.580  52.940  1.00  0.00     0.041 C 
ATOM      4  O   UNL     1      56.928  37.477  52.857  1.00  0.00    -0.550 OA
ATOM      5  O   UNL     1      58.182  35.874  51.802  1.00  0.00    -0.550 OA
ENDBRANCH   2   3
ENDBRANCH   1   2
BRANCH   1   6
ATOM      6  C   UNL     1      59.753  37.559  56.040  1.00  0.00     0.000 C 
BRANCH   6   7
ATOM      7  C   UNL     1      60.995  36.927  55.392  1.00  0.00    -0.003 C 
ATOM      8  C   UNL     1      62.245  37.793  55.541  1.00  0.00     0.004 C 
ENDBRANCH   6   7
ENDBRANCH   1   6
TORSDOF 4
ENDMDL
MODEL 9
REMARK VINA RESULT:    -2.906     17.730     18.336
REMARK INTER + INTRA:          -3.646
REMARK INTER:                  -3.464
REMARK INTRA:                  -0.181
REMARK UNBOUND:                -0.060
REMARK SMILES CCCCCC(=O)[O-]
REMARK SMILES IDX 4 1 5 2 6 3 7 4 8 5 3 6 2 7 1 8
REMARK H PARENT
REMARK Flexibility Score: inf
ROOT
ATOM      1  C   UNL     1      70.391  52.343  51.778  1.00  0.00     0.006 C 
ENDROOT
BRANCH   1   2
ATOM      2  C   UNL     1      71.309  51.449  52.617  1.00  0.00     0.053 C 
BRANCH   2   3
ATOM      3  C   UNL     1      70.728  51.231  53.978  1.00  0.00     0.041 C 
ATOM      4  O   UNL     1      69.496  51.010  54.114  1.00  0.00    -0.550 OA
ATOM      5  O   UNL     1      71.556  51.222  55.094  1.00  0.00    -0.550 OA
ENDBRANCH   2   3
ENDBRANCH   1   2
BRANCH   1   6
ATOM      6  C   UNL     1      70.198  51.762  50.369  1.00  0.00     0.000 C 
BRANCH   6   7
ATOM      7  C   UNL     1      68.742  51.358  50.091  1.00  0.00    -0.003 C 
ATOM      8  C   UNL     1      68.297  50.148  50.912  1.00  0.00     0.004 C 
ENDBRANCH   6   7
ENDBRANCH   1   6
TORSDOF 4
ENDMDL
