MODEL 1
REMARK VINA RESULT:    -4.430      0.000      0.000
REMARK INTER + INTRA:          -7.760
REMARK INTER:                  -7.020
REMARK INTRA:                  -0.740
REMARK UNBOUND:                -0.740
REMARK SMILES CCCCCCCCCCCC(=O)[O-]
REMARK SMILES IDX 7 1 8 2 9 3 10 4 11 5 12 6 13 7 14 8 6 9 5 10 4 11 3 12 2 13
REMARK SMILES IDX 1 14
REMARK H PARENT
REMARK Flexibility Score: inf
ROOT
ATOM      1  C   UNL     1      23.463  -5.220  52.452  1.00  0.00     0.000 C 
ENDROOT
BRANCH   1   2
ATOM      2  C   UNL     1      22.987  -4.783  53.845  1.00  0.00     0.000 C 
BRANCH   2   3
ATOM      3  C   UNL     1      22.508  -3.326  53.830  1.00  0.00     0.000 C 
BRANCH   3   4
ATOM      4  C   UNL     1      23.435  -2.433  54.663  1.00  0.00     0.006 C 
BRANCH   4   5
ATOM      5  C   UNL     1      23.924  -3.165  55.916  1.00  0.00     0.053 C 
BRANCH   5   6
ATOM      6  C   UNL     1      22.920  -3.046  57.018  1.00  0.00     0.041 C 
ATOM      7  O   UNL     1      22.767  -3.987  57.841  1.00  0.00    -0.550 OA
ATOM      8  O   UNL     1      22.185  -1.876  57.166  1.00  0.00    -0.550 OA
ENDBRANCH   5   6
ENDBRANCH   4   5
ENDBRANCH   3   4
ENDBRANCH   2   3
ENDBRANCH   1   2
BRANCH   1   9
ATOM      9  C   UNL     1      24.972  -5.522  52.403  1.00  0.00     0.000 C 
BRANCH   9  10
ATOM     10  C   UNL     1      25.626  -5.786  53.774  1.00  0.00    -0.000 C 
BRANCH  10  11
ATOM     11  C   UNL     1      27.129  -6.129  53.728  1.00  0.00    -0.000 C 
BRANCH  11  12
ATOM     12  C   UNL     1      27.724  -6.252  52.314  1.00  0.00    -0.000 C 
BRANCH  12  13
ATOM     13  C   UNL     1      29.252  -6.105  52.296  1.00  0.00    -0.003 C 
ATOM     14  C   UNL     1      29.931  -7.380  52.788  1.00  0.00     0.004 C 
ENDBRANCH  12  13
ENDBRANCH  11  12
ENDBRANCH  10  11
ENDBRANCH   9  10
ENDBRANCH   1   9
TORSDOF 10
ENDMDL
MODEL 2
REMARK VINA RESULT:    -4.216      3.644      6.614
REMARK INTER + INTRA:          -7.420
REMARK INTER:                  -6.617
REMARK INTRA:                  -0.804
REMARK UNBOUND:                -0.740
REMARK SMILES CCCCCCCCCCCC(=O)[O-]
REMARK SMILES IDX 7 1 8 2 9 3 10 4 11 5 12 6 13 7 14 8 6 9 5 10 4 11 3 12 2 13
REMARK SMILES IDX 1 14
REMARK H PARENT
REMARK Flexibility Score: inf
ROOT
ATOM      1  C   UNL     1      22.940  -4.189  53.884  1.00  0.00     0.000 C 
ENDROOT
BRANCH   1   2
ATOM      2  C   UNL     1      23.754  -4.908  52.798  1.00  0.00     0.000 C 
BRANCH   2   3
ATOM      3  C   UNL     1      24.850  -5.781  53.421  1.00  0.00     0.000 C 
BRANCH   3   4
ATOM      4  C   UNL     1      26.096  -5.822  52.529  1.00  0.00     0.006 C 
BRANCH   4   5
ATOM      5  C   UNL     1      27.356  -6.091  53.356  1.00  0.00     0.053 C 
BRANCH   5   6
ATOM      6  C   UNL     1      28.467  -6.572  52.477  1.00  0.00     0.041 C 
ATOM      7  O   UNL     1      28.232  -6.915  51.289  1.00  0.00    -0.550 OA
ATOM      8  O   UNL     1      29.771  -6.596  52.956  1.00  0.00    -0.550 OA
ENDBRANCH   5   6
ENDBRANCH   4   5
ENDBRANCH   3   4
ENDBRANCH   2   3
ENDBRANCH   1   2
BRANCH   1   9
ATOM      9  C   UNL     1      23.172  -2.667  53.896  1.00  0.00     0.000 C 
BRANCH   9  10
ATOM     10  C   UNL     1      23.515  -2.073  55.277  1.00  0.00    -0.000 C 
BRANCH  10  11
ATOM     11  C   UNL     1      24.309  -3.005  56.213  1.00  0.00    -0.000 C 
BRANCH  11  12
ATOM     12  C   UNL     1      23.675  -3.229  57.598  1.00  0.00    -0.000 C 
BRANCH  12  13
ATOM     13  C   UNL     1      22.160  -2.982  57.606  1.00  0.00    -0.003 C 
ATOM     14  C   UNL     1      21.392  -4.273  57.341  1.00  0.00     0.004 C 
ENDBRANCH  12  13
ENDBRANCH  11  12
ENDBRANCH  10  11
ENDBRANCH   9  10
ENDBRANCH   1   9
TORSDOF 10
ENDMDL
MODEL 3
REMARK VINA RESULT:    -4.006      4.141      6.698
REMARK INTER + INTRA:          -7.087
REMARK INTER:                  -5.642
REMARK INTRA:                  -1.445
REMARK UNBOUND:                -0.740
REMARK SMILES CCCCCCCCCCCC(=O)[O-]
REMARK SMILES IDX 7 1 8 2 9 3 10 4 11 5 12 6 13 7 14 8 6 9 5 10 4 11 3 12 2 13
REMARK SMILES IDX 1 14
REMARK H PARENT
REMARK Flexibility Score: inf
ROOT
ATOM      1  C   UNL     1      24.351  -2.838  56.388  1.00  0.00     0.000 C 
ENDROOT
BRANCH   1   2
ATOM      2  C   UNL     1      23.923  -3.729  55.212  1.00  0.00     0.000 C 
BRANCH   2   3
ATOM      3  C   UNL     1      23.178  -2.913  54.148  1.00  0.00     0.000 C 
BRANCH   3   4
ATOM      4  C   UNL     1      22.119  -3.766  53.441  1.00  0.00     0.006 C 
BRANCH   4   5
ATOM      5  C   UNL     1      22.173  -5.219  53.921  1.00  0.00     0.053 C 
BRANCH   5   6
ATOM      6  C   UNL     1      22.665  -6.114  52.828  1.00  0.00     0.041 C 
ATOM      7  O   UNL     1      23.702  -5.813  52.182  1.00  0.00    -0.550 OA
ATOM      8  O   UNL     1      22.005  -7.306  52.555  1.00  0.00    -0.550 OA
ENDBRANCH   5   6
ENDBRANCH   4   5
ENDBRANCH   3   4
ENDBRANCH   2   3
ENDBRANCH   1   2
BRANCH   1   9
ATOM      9  C   UNL     1      23.659  -3.219  57.709  1.00  0.00     0.000 C 
BRANCH   9  10
ATOM     10  C   UNL     1      22.300  -3.931  57.550  1.00  0.00    -0.000 C 
BRANCH  10  11
ATOM     11  C   UNL     1      21.073  -2.999  57.503  1.00  0.00    -0.000 C 
BRANCH  11  12
ATOM     12  C   UNL     1      21.369  -1.519  57.811  1.00  0.00    -0.000 C 
BRANCH  12  13
ATOM     13  C   UNL     1      21.217  -0.614  56.580  1.00  0.00    -0.003 C 
ATOM     14  C   UNL     1      20.212  -1.197  55.591  1.00  0.00     0.004 C 
ENDBRANCH  12  13
ENDBRANCH  11  12
ENDBRANCH  10  11
ENDBRANCH   9  10
ENDBRANCH   1   9
TORSDOF 10
ENDMDL
MODEL 4
REMARK VINA RESULT:    -3.859      1.615      3.411
REMARK INTER + INTRA:          -6.855
REMARK INTER:                  -6.085
REMARK INTRA:                  -0.770
REMARK UNBOUND:                -0.740
REMARK SMILES CCCCCCCCCCCC(=O)[O-]
REMARK SMILES IDX 7 1 8 2 9 3 10 4 11 5 12 6 13 7 14 8 6 9 5 10 4 11 3 12 2 13
REMARK SMILES IDX 1 14
REMARK H PARENT
REMARK Flexibility Score: inf
ROOT
ATOM      1  C   UNL     1      23.412  -2.227  55.259  1.00  0.00     0.000 C 
ENDROOT
BRANCH   1   2
ATOM      2  C   UNL     1      24.371  -3.017  56.161  1.00  0.00     0.000 C 
BRANCH   2   3
ATOM      3  C   UNL     1      23.789  -3.181  57.571  1.00  0.00     0.000 C 
BRANCH   3   4
ATOM      4  C   UNL     1      22.411  -2.518  57.679  1.00  0.00     0.006 C 
BRANCH   4   5
ATOM      5  C   UNL     1      21.295  -3.566  57.678  1.00  0.00     0.053 C 
BRANCH   5   6
ATOM      6  C   UNL     1      19.995  -2.946  57.274  1.00  0.00     0.041 C 
ATOM      7  O   UNL     1      19.931  -2.218  56.249  1.00  0.00    -0.550 OA
ATOM      8  O   UNL     1      18.841  -3.213  58.002  1.00  0.00    -0.550 OA
ENDBRANCH   5   6
ENDBRANCH   4   5
ENDBRANCH   3   4
ENDBRANCH   2   3
ENDBRANCH   1   2
BRANCH   1   9
ATOM      9  C   UNL     1      22.761  -3.098  54.169  1.00  0.00     0.000 C 
BRANCH   9  10
ATOM     10  C   UNL     1      23.455  -4.452  53.919  1.00  0.00    -0.000 C 
BRANCH  10  11
ATOM     11  C   UNL     1      23.824  -4.738  52.450  1.00  0.00    -0.000 C 
BRANCH  11  12
ATOM     12  C   UNL     1      25.025  -5.681  52.253  1.00  0.00    -0.000 C 
BRANCH  12  13
ATOM     13  C   UNL     1      25.898  -5.804  53.510  1.00  0.00    -0.003 C 
ATOM     14  C   UNL     1      27.342  -6.137  53.146  1.00  0.00     0.004 C 
ENDBRANCH  12  13
ENDBRANCH  11  12
ENDBRANCH  10  11
ENDBRANCH   9  10
ENDBRANCH   1   9
TORSDOF 10
ENDMDL
MODEL 5
REMARK VINA RESULT:    -3.823      3.255      5.128
REMARK INTER + INTRA:          -6.798
REMARK INTER:                  -5.483
REMARK INTRA:                  -1.315
REMARK UNBOUND:                -0.740
REMARK SMILES CCCCCCCCCCCC(=O)[O-]
REMARK SMILES IDX 7 1 8 2 9 3 10 4 11 5 12 6 13 7 14 8 6 9 5 10 4 11 3 12 2 13
REMARK SMILES IDX 1 14
REMARK H PARENT
REMARK Flexibility Score: inf
ROOT
ATOM      1  C   UNL     1      22.657  -3.698  57.793  1.00  0.00     0.000 C 
ENDROOT
BRANCH   1   2
ATOM      2  C   UNL     1      21.300  -3.068  57.449  1.00  0.00     0.000 C 
BRANCH   2   3
ATOM      3  C   UNL     1      21.301  -1.563  57.748  1.00  0.00     0.000 C 
BRANCH   3   4
ATOM      4  C   UNL     1      20.853  -0.758  56.523  1.00  0.00     0.006 C 
BRANCH   4   5
ATOM      5  C   UNL     1      20.100  -1.644  55.526  1.00  0.00     0.053 C 
BRANCH   5   6
ATOM      6  C   UNL     1      18.677  -1.202  55.403  1.00  0.00     0.041 C 
ATOM      7  O   UNL     1      17.895  -1.302  56.384  1.00  0.00    -0.550 OA
ATOM      8  O   UNL     1      18.226  -0.634  54.217  1.00  0.00    -0.550 OA
ENDBRANCH   5   6
ENDBRANCH   4   5
ENDBRANCH   3   4
ENDBRANCH   2   3
ENDBRANCH   1   2
BRANCH   1   9
ATOM      9  C   UNL     1      23.849  -2.855  57.304  1.00  0.00     0.000 C 
BRANCH   9  10
ATOM     10  C   UNL     1      24.351  -3.198  55.887  1.00  0.00    -0.000 C 
BRANCH  10  11
ATOM     11  C   UNL     1      23.683  -2.406  54.746  1.00  0.00    -0.000 C 
BRANCH  11  12
ATOM     12  C   UNL     1      22.860  -3.256  53.760  1.00  0.00    -0.000 C 
BRANCH  12  13
ATOM     13  C   UNL     1      23.236  -4.744  53.800  1.00  0.00    -0.003 C 
ATOM     14  C   UNL     1      24.203  -5.096  52.673  1.00  0.00     0.004 C 
ENDBRANCH  12  13
ENDBRANCH  11  12
ENDBRANCH  10  11
ENDBRANCH   9  10
ENDBRANCH   1   9
TORSDOF 10
ENDMDL
MODEL 6
REMARK VINA RESULT:    -3.800     16.569     17.489
REMARK INTER + INTRA:          -6.762
REMARK INTER:                  -6.089
REMARK INTRA:                  -0.672
REMARK UNBOUND:                -0.740
REMARK SMILES CCCCCCCCCCCC(=O)[O-]
REMARK SMILES IDX 7 1 8 2 9 3 10 4 11 5 12 6 13 7 14 8 6 9 5 10 4 11 3 12 2 13
REMARK SMILES IDX 1 14
REMARK H PARENT
REMARK Flexibility Score: inf
ROOT
ATOM      1  C   UNL     1      27.132   4.226  41.441  1.00  0.00     0.000 C 
ENDROOT
BRANCH   1   2
ATOM      2  C   UNL     1      25.992   5.245  41.289  1.00  0.00     0.000 C 
BRANCH   2   3
ATOM      3  C   UNL     1      24.778   4.611  40.600  1.00  0.00     0.000 C 
BRANCH   3   4
ATOM      4  C   UNL     1      25.174   3.335  39.848  1.00  0.00     0.006 C 
BRANCH   4   5
ATOM      5  C   UNL     1      23.951   2.671  39.209  1.00  0.00     0.053 C 
BRANCH   5   6
ATOM      6  C   UNL     1      23.651   1.369  39.881  1.00  0.00     0.041 C 
ATOM      7  O   UNL     1      23.212   1.351  41.061  1.00  0.00    -0.550 OA
ATOM      8  O   UNL     1      23.811   0.175  39.188  1.00  0.00    -0.550 OA
ENDBRANCH   5   6
ENDBRANCH   4   5
ENDBRANCH   3   4
ENDBRANCH   2   3
ENDBRANCH   1   2
BRANCH   1   9
ATOM      9  C   UNL     1      28.477   4.750  40.906  1.00  0.00     0.000 C 
BRANCH   9  10
ATOM     10  C   UNL     1      28.881   4.207  39.521  1.00  0.00    -0.000 C 
BRANCH  10  11
ATOM     11  C   UNL     1      30.284   4.625  39.037  1.00  0.00    -0.000 C 
BRANCH  11  12
ATOM     12  C   UNL     1      30.346   5.986  38.319  1.00  0.00    -0.000 C 
BRANCH  12  13
ATOM     13  C   UNL     1      30.801   7.125  39.241  1.00  0.00    -0.003 C 
ATOM     14  C   UNL     1      29.686   8.148  39.440  1.00  0.00     0.004 C 
ENDBRANCH  12  13
ENDBRANCH  11  12
ENDBRANCH  10  11
ENDBRANCH   9  10
ENDBRANCH   1   9
TORSDOF 10
ENDMDL
MODEL 7
REMARK VINA RESULT:    -3.779     14.936     15.963
REMARK INTER + INTRA:          -6.728
REMARK INTER:                  -5.330
REMARK INTRA:                  -1.398
REMARK UNBOUND:                -0.740
REMARK SMILES CCCCCCCCCCCC(=O)[O-]
REMARK SMILES IDX 7 1 8 2 9 3 10 4 11 5 12 6 13 7 14 8 6 9 5 10 4 11 3 12 2 13
REMARK SMILES IDX 1 14
REMARK H PARENT
REMARK Flexibility Score: inf
ROOT
ATOM      1  C   UNL     1      31.832   5.622  44.098  1.00  0.00     0.000 C 
ENDROOT
BRANCH   1   2
ATOM      2  C   UNL     1      31.171   5.129  45.393  1.00  0.00     0.000 C 
BRANCH   2   3
ATOM      3  C   UNL     1      30.042   6.071  45.827  1.00  0.00     0.000 C 
BRANCH   3   4
ATOM      4  C   UNL     1      30.234   6.530  47.277  1.00  0.00     0.006 C 
BRANCH   4   5
ATOM      5  C   UNL     1      31.470   5.878  47.902  1.00  0.00     0.053 C 
BRANCH   5   6
ATOM      6  C   UNL     1      31.074   4.977  49.028  1.00  0.00     0.041 C 
ATOM      7  O   UNL     1      29.900   5.004  49.479  1.00  0.00    -0.550 OA
ATOM      8  O   UNL     1      31.991   4.071  49.550  1.00  0.00    -0.550 OA
ENDBRANCH   5   6
ENDBRANCH   4   5
ENDBRANCH   3   4
ENDBRANCH   2   3
ENDBRANCH   1   2
BRANCH   1   9
ATOM      9  C   UNL     1      31.368   7.031  43.689  1.00  0.00     0.000 C 
BRANCH   9  10
ATOM     10  C   UNL     1      32.456   8.121  43.766  1.00  0.00    -0.000 C 
BRANCH  10  11
ATOM     11  C   UNL     1      33.645   7.796  44.691  1.00  0.00    -0.000 C 
BRANCH  11  12
ATOM     12  C   UNL     1      33.533   8.361  46.119  1.00  0.00    -0.000 C 
BRANCH  12  13
ATOM     13  C   UNL     1      32.497   9.489  46.232  1.00  0.00    -0.003 C 
ATOM     14  C   UNL     1      33.177  10.855  46.281  1.00  0.00     0.004 C 
ENDBRANCH  12  13
ENDBRANCH  11  12
ENDBRANCH  10  11
ENDBRANCH   9  10
ENDBRANCH   1   9
TORSDOF 10
ENDMDL
MODEL 8
REMARK VINA RESULT:    -3.775     14.233     15.303
REMARK INTER + INTRA:          -6.721
REMARK INTER:                  -5.550
REMARK INTRA:                  -1.171
REMARK UNBOUND:                -0.740
REMARK SMILES CCCCCCCCCCCC(=O)[O-]
REMARK SMILES IDX 7 1 8 2 9 3 10 4 11 5 12 6 13 7 14 8 6 9 5 10 4 11 3 12 2 13
REMARK SMILES IDX 1 14
REMARK H PARENT
REMARK Flexibility Score: inf
ROOT
ATOM      1  C   UNL     1      29.150   5.568  45.462  1.00  0.00     0.000 C 
ENDROOT
BRANCH   1   2
ATOM      2  C   UNL     1      30.416   4.763  45.134  1.00  0.00     0.000 C 
BRANCH   2   3
ATOM      3  C   UNL     1      31.677   5.609  45.357  1.00  0.00     0.000 C 
BRANCH   3   4
ATOM      4  C   UNL     1      31.331   6.952  46.010  1.00  0.00     0.006 C 
BRANCH   4   5
ATOM      5  C   UNL     1      31.774   8.122  45.128  1.00  0.00     0.053 C 
BRANCH   5   6
ATOM      6  C   UNL     1      33.203   8.471  45.399  1.00  0.00     0.041 C 
ATOM      7  O   UNL     1      33.629   8.529  46.581  1.00  0.00    -0.550 OA
ATOM      8  O   UNL     1      34.079   8.684  44.341  1.00  0.00    -0.550 OA
ENDBRANCH   5   6
ENDBRANCH   4   5
ENDBRANCH   3   4
ENDBRANCH   2   3
ENDBRANCH   1   2
BRANCH   1   9
ATOM      9  C   UNL     1      28.081   4.730  46.187  1.00  0.00     0.000 C 
BRANCH   9  10
ATOM     10  C   UNL     1      27.642   5.282  47.558  1.00  0.00    -0.000 C 
BRANCH  10  11
ATOM     11  C   UNL     1      28.781   5.833  48.438  1.00  0.00    -0.000 C 
BRANCH  11  12
ATOM     12  C   UNL     1      29.567   4.769  49.226  1.00  0.00    -0.000 C 
BRANCH  12  13
ATOM     13  C   UNL     1      31.086   4.973  49.149  1.00  0.00    -0.003 C 
ATOM     14  C   UNL     1      31.831   3.779  49.739  1.00  0.00     0.004 C 
ENDBRANCH  12  13
ENDBRANCH  11  12
ENDBRANCH  10  11
ENDBRANCH   9  10
ENDBRANCH   1   9
TORSDOF 10
ENDMDL
MODEL 9
REMARK VINA RESULT:    -3.762      3.493      5.976
REMARK INTER + INTRA:          -6.701
REMARK INTER:                  -5.266
REMARK INTRA:                  -1.434
REMARK UNBOUND:                -0.740
REMARK SMILES CCCCCCCCCCCC(=O)[O-]
REMARK SMILES IDX 7 1 8 2 9 3 10 4 11 5 12 6 13 7 14 8 6 9 5 10 4 11 3 12 2 13
REMARK SMILES IDX 1 14
REMARK H PARENT
REMARK Flexibility Score: inf
ROOT
ATOM      1  C   UNL     1      20.552  -5.060  55.854  1.00  0.00     0.000 C 
ENDROOT
BRANCH   1   2
ATOM      2  C   UNL     1      20.284  -4.173  54.630  1.00  0.00     0.000 C 
BRANCH   2   3
ATOM      3  C   UNL     1      21.351  -4.392  53.550  1.00  0.00     0.000 C 
BRANCH   3   4
ATOM      4  C   UNL     1      22.414  -5.392  54.019  1.00  0.00     0.006 C 
BRANCH   4   5
ATOM      5  C   UNL     1      23.048  -6.119  52.830  1.00  0.00     0.053 C 
BRANCH   5   6
ATOM      6  C   UNL     1      24.285  -5.409  52.381  1.00  0.00     0.041 C 
ATOM      7  O   UNL     1      24.205  -4.435  51.588  1.00  0.00    -0.550 OA
ATOM      8  O   UNL     1      25.526  -5.792  52.877  1.00  0.00    -0.550 OA
ENDBRANCH   5   6
ENDBRANCH   4   5
ENDBRANCH   3   4
ENDBRANCH   2   3
ENDBRANCH   1   2
BRANCH   1   9
ATOM      9  C   UNL     1      20.818  -4.247  57.134  1.00  0.00     0.000 C 
BRANCH   9  10
ATOM     10  C   UNL     1      22.277  -4.276  57.632  1.00  0.00    -0.000 C 
BRANCH  10  11
ATOM     11  C   UNL     1      23.046  -2.948  57.485  1.00  0.00    -0.000 C 
BRANCH  11  12
ATOM     12  C   UNL     1      23.887  -2.822  56.202  1.00  0.00    -0.000 C 
BRANCH  12  13
ATOM     13  C   UNL     1      23.303  -1.813  55.204  1.00  0.00    -0.003 C 
ATOM     14  C   UNL     1      22.164  -1.015  55.833  1.00  0.00     0.004 C 
ENDBRANCH  12  13
ENDBRANCH  11  12
ENDBRANCH  10  11
ENDBRANCH   9  10
ENDBRANCH   1   9
TORSDOF 10
ENDMDL
