MODEL 1
REMARK VINA RESULT:    -3.273      0.000      0.000
REMARK INTER + INTRA:          -5.961
REMARK INTER:                  -4.995
REMARK INTRA:                  -0.966
REMARK UNBOUND:                -0.966
REMARK SMILES CCCCCCCCCCC(=O)[O-]
REMARK SMILES IDX 7 1 8 2 9 3 10 4 11 5 12 6 13 7 6 8 5 9 4 10 3 11 2 12 1 13
REMARK H PARENT
REMARK Flexibility Score: inf
ROOT
ATOM      1  C   UNL     1      52.434  52.577  48.416  1.00  0.00     0.000 C 
ENDROOT
BRANCH   1   2
ATOM      2  C   UNL     1      53.353  53.065  47.282  1.00  0.00     0.000 C 
BRANCH   2   3
ATOM      3  C   UNL     1      54.044  54.397  47.606  1.00  0.00     0.006 C 
BRANCH   3   4
ATOM      4  C   UNL     1      53.073  55.571  47.446  1.00  0.00     0.053 C 
BRANCH   4   5
ATOM      5  C   UNL     1      52.776  55.812  45.999  1.00  0.00     0.041 C 
ATOM      6  O   UNL     1      51.613  56.124  45.633  1.00  0.00    -0.550 OA
ATOM      7  O   UNL     1      53.775  55.642  45.048  1.00  0.00    -0.550 OA
ENDBRANCH   4   5
ENDBRANCH   3   4
ENDBRANCH   2   3
ENDBRANCH   1   2
BRANCH   1   8
ATOM      8  C   UNL     1      53.093  51.604  49.414  1.00  0.00     0.000 C 
BRANCH   8   9
ATOM      9  C   UNL     1      52.418  51.526  50.798  1.00  0.00    -0.000 C 
BRANCH   9  10
ATOM     10  C   UNL     1      51.824  52.849  51.311  1.00  0.00    -0.000 C 
BRANCH  10  11
ATOM     11  C   UNL     1      52.849  53.711  52.067  1.00  0.00    -0.000 C 
BRANCH  11  12
ATOM     12  C   UNL     1      53.344  54.904  51.233  1.00  0.00    -0.003 C 
ATOM     13  C   UNL     1      52.391  56.098  51.283  1.00  0.00     0.004 C 
ENDBRANCH  11  12
ENDBRANCH  10  11
ENDBRANCH   9  10
ENDBRANCH   8   9
ENDBRANCH   1   8
TORSDOF 9
ENDMDL
MODEL 2
REMARK VINA RESULT:    -3.246      2.861      5.386
REMARK INTER + INTRA:          -5.920
REMARK INTER:                  -5.071
REMARK INTRA:                  -0.849
REMARK UNBOUND:                -0.966
REMARK SMILES CCCCCCCCCCC(=O)[O-]
REMARK SMILES IDX 7 1 8 2 9 3 10 4 11 5 12 6 13 7 6 8 5 9 4 10 3 11 2 12 1 13
REMARK H PARENT
REMARK Flexibility Score: inf
ROOT
ATOM      1  C   UNL     1      54.574  52.921  47.596  1.00  0.00     0.000 C 
ENDROOT
BRANCH   1   2
ATOM      2  C   UNL     1      53.180  52.273  47.531  1.00  0.00     0.000 C 
BRANCH   2   3
ATOM      3  C   UNL     1      52.256  52.733  48.667  1.00  0.00     0.006 C 
BRANCH   3   4
ATOM      4  C   UNL     1      52.873  53.907  49.434  1.00  0.00     0.053 C 
BRANCH   4   5
ATOM      5  C   UNL     1      52.388  53.923  50.849  1.00  0.00     0.041 C 
ATOM      6  O   UNL     1      52.618  54.916  51.588  1.00  0.00    -0.550 OA
ATOM      7  O   UNL     1      51.723  52.818  51.368  1.00  0.00    -0.550 OA
ENDBRANCH   4   5
ENDBRANCH   3   4
ENDBRANCH   2   3
ENDBRANCH   1   2
BRANCH   1   8
ATOM      8  C   UNL     1      55.067  53.539  46.272  1.00  0.00     0.000 C 
BRANCH   8   9
ATOM      9  C   UNL     1      55.060  55.080  46.224  1.00  0.00    -0.000 C 
BRANCH   9  10
ATOM     10  C   UNL     1      53.915  55.703  45.406  1.00  0.00    -0.000 C 
BRANCH  10  11
ATOM     11  C   UNL     1      52.624  55.879  46.223  1.00  0.00    -0.000 C 
BRANCH  11  12
ATOM     12  C   UNL     1      51.449  56.380  45.367  1.00  0.00    -0.003 C 
ATOM     13  C   UNL     1      51.778  56.421  43.875  1.00  0.00     0.004 C 
ENDBRANCH  11  12
ENDBRANCH  10  11
ENDBRANCH   9  10
ENDBRANCH   8   9
ENDBRANCH   1   8
TORSDOF 9
ENDMDL
MODEL 3
REMARK VINA RESULT:    -3.196      1.071      1.549
REMARK INTER + INTRA:          -5.844
REMARK INTER:                  -5.109
REMARK INTRA:                  -0.735
REMARK UNBOUND:                -0.966
REMARK SMILES CCCCCCCCCCC(=O)[O-]
REMARK SMILES IDX 7 1 8 2 9 3 10 4 11 5 12 6 13 7 6 8 5 9 4 10 3 11 2 12 1 13
REMARK H PARENT
REMARK Flexibility Score: inf
ROOT
ATOM      1  C   UNL     1      53.775  52.909  47.673  1.00  0.00     0.000 C 
ENDROOT
BRANCH   1   2
ATOM      2  C   UNL     1      53.148  54.171  47.054  1.00  0.00     0.000 C 
BRANCH   2   3
ATOM      3  C   UNL     1      54.188  55.097  46.408  1.00  0.00     0.006 C 
BRANCH   3   4
ATOM      4  C   UNL     1      53.552  55.951  45.307  1.00  0.00     0.053 C 
BRANCH   4   5
ATOM      5  C   UNL     1      52.309  56.614  45.809  1.00  0.00     0.041 C 
ATOM      6  O   UNL     1      51.203  56.403  45.244  1.00  0.00    -0.550 OA
ATOM      7  O   UNL     1      52.379  57.505  46.874  1.00  0.00    -0.550 OA
ENDBRANCH   4   5
ENDBRANCH   3   4
ENDBRANCH   2   3
ENDBRANCH   1   2
BRANCH   1   8
ATOM      8  C   UNL     1      52.801  52.028  48.481  1.00  0.00     0.000 C 
BRANCH   8   9
ATOM      9  C   UNL     1      53.370  51.452  49.793  1.00  0.00    -0.000 C 
BRANCH   9  10
ATOM     10  C   UNL     1      52.407  51.484  50.993  1.00  0.00    -0.000 C 
BRANCH  10  11
ATOM     11  C   UNL     1      51.798  52.877  51.233  1.00  0.00    -0.000 C 
BRANCH  11  12
ATOM     12  C   UNL     1      52.852  53.916  51.645  1.00  0.00    -0.003 C 
ATOM     13  C   UNL     1      52.798  55.185  50.795  1.00  0.00     0.004 C 
ENDBRANCH  11  12
ENDBRANCH  10  11
ENDBRANCH   9  10
ENDBRANCH   8   9
ENDBRANCH   1   8
TORSDOF 9
ENDMDL
MODEL 4
REMARK VINA RESULT:    -3.089     11.451     13.751
REMARK INTER + INTRA:          -5.680
REMARK INTER:                  -5.211
REMARK INTRA:                  -0.469
REMARK UNBOUND:                -0.966
REMARK SMILES CCCCCCCCCCC(=O)[O-]
REMARK SMILES IDX 7 1 8 2 9 3 10 4 11 5 12 6 13 7 6 8 5 9 4 10 3 11 2 12 1 13
REMARK H PARENT
REMARK Flexibility Score: inf
ROOT
ATOM      1  C   UNL     1      51.444  54.256  60.765  1.00  0.00     0.000 C 
ENDROOT
BRANCH   1   2
ATOM      2  C   UNL     1      51.649  52.769  61.105  1.00  0.00     0.000 C 
BRANCH   2   3
ATOM      3  C   UNL     1      50.391  52.113  61.692  1.00  0.00     0.006 C 
BRANCH   3   4
ATOM      4  C   UNL     1      50.762  51.040  62.721  1.00  0.00     0.053 C 
BRANCH   4   5
ATOM      5  C   UNL     1      50.063  49.754  62.413  1.00  0.00     0.041 C 
ATOM      6  O   UNL     1      49.609  49.039  63.345  1.00  0.00    -0.550 OA
ATOM      7  O   UNL     1      49.956  49.319  61.097  1.00  0.00    -0.550 OA
ENDBRANCH   4   5
ENDBRANCH   3   4
ENDBRANCH   2   3
ENDBRANCH   1   2
BRANCH   1   8
ATOM      8  C   UNL     1      50.028  54.798  61.047  1.00  0.00     0.000 C 
BRANCH   8   9
ATOM      9  C   UNL     1      49.972  56.048  61.947  1.00  0.00    -0.000 C 
BRANCH   9  10
ATOM     10  C   UNL     1      49.678  57.369  61.213  1.00  0.00    -0.000 C 
BRANCH  10  11
ATOM     11  C   UNL     1      49.326  57.162  59.730  1.00  0.00    -0.000 C 
BRANCH  11  12
ATOM     12  C   UNL     1      50.160  58.055  58.797  1.00  0.00    -0.003 C 
ATOM     13  C   UNL     1      49.594  58.122  57.379  1.00  0.00     0.004 C 
ENDBRANCH  11  12
ENDBRANCH  10  11
ENDBRANCH   9  10
ENDBRANCH   8   9
ENDBRANCH   1   8
TORSDOF 9
ENDMDL
MODEL 5
REMARK VINA RESULT:    -3.060      1.160      2.895
REMARK INTER + INTRA:          -5.636
REMARK INTER:                  -4.509
REMARK INTRA:                  -1.127
REMARK UNBOUND:                -0.966
REMARK SMILES CCCCCCCCCCC(=O)[O-]
REMARK SMILES IDX 7 1 8 2 9 3 10 4 11 5 12 6 13 7 6 8 5 9 4 10 3 11 2 12 1 13
REMARK H PARENT
REMARK Flexibility Score: inf
ROOT
ATOM      1  C   UNL     1      54.562  55.640  49.522  1.00  0.00     0.000 C 
ENDROOT
BRANCH   1   2
ATOM      2  C   UNL     1      53.522  56.316  48.611  1.00  0.00     0.000 C 
BRANCH   2   3
ATOM      3  C   UNL     1      53.757  56.026  47.121  1.00  0.00     0.006 C 
BRANCH   3   4
ATOM      4  C   UNL     1      52.440  55.688  46.415  1.00  0.00     0.053 C 
BRANCH   4   5
ATOM      5  C   UNL     1      52.325  56.445  45.130  1.00  0.00     0.041 C 
ATOM      6  O   UNL     1      51.270  56.377  44.445  1.00  0.00    -0.550 OA
ATOM      7  O   UNL     1      53.403  57.187  44.662  1.00  0.00    -0.550 OA
ENDBRANCH   4   5
ENDBRANCH   3   4
ENDBRANCH   2   3
ENDBRANCH   1   2
BRANCH   1   8
ATOM      8  C   UNL     1      53.991  55.019  50.812  1.00  0.00     0.000 C 
BRANCH   8   9
ATOM      9  C   UNL     1      52.477  54.729  50.786  1.00  0.00    -0.000 C 
BRANCH   9  10
ATOM     10  C   UNL     1      52.080  53.294  51.176  1.00  0.00    -0.000 C 
BRANCH  10  11
ATOM     11  C   UNL     1      52.532  52.248  50.143  1.00  0.00    -0.000 C 
BRANCH  11  12
ATOM     12  C   UNL     1      52.221  52.674  48.699  1.00  0.00    -0.003 C 
ATOM     13  C   UNL     1      53.344  52.322  47.723  1.00  0.00     0.004 C 
ENDBRANCH  11  12
ENDBRANCH  10  11
ENDBRANCH   9  10
ENDBRANCH   8   9
ENDBRANCH   1   8
TORSDOF 9
ENDMDL
MODEL 6
REMARK VINA RESULT:    -3.020      2.424      4.925
REMARK INTER + INTRA:          -5.574
REMARK INTER:                  -4.793
REMARK INTRA:                  -0.781
REMARK UNBOUND:                -0.966
REMARK SMILES CCCCCCCCCCC(=O)[O-]
REMARK SMILES IDX 7 1 8 2 9 3 10 4 11 5 12 6 13 7 6 8 5 9 4 10 3 11 2 12 1 13
REMARK H PARENT
REMARK Flexibility Score: inf
ROOT
ATOM      1  C   UNL     1      54.088  51.824  48.442  1.00  0.00     0.000 C 
ENDROOT
BRANCH   1   2
ATOM      2  C   UNL     1      53.112  51.759  49.630  1.00  0.00     0.000 C 
BRANCH   2   3
ATOM      3  C   UNL     1      52.182  52.978  49.703  1.00  0.00     0.006 C 
BRANCH   3   4
ATOM      4  C   UNL     1      52.238  53.628  51.089  1.00  0.00     0.053 C 
BRANCH   4   5
ATOM      5  C   UNL     1      52.629  55.068  50.978  1.00  0.00     0.041 C 
ATOM      6  O   UNL     1      53.704  55.391  50.406  1.00  0.00    -0.550 OA
ATOM      7  O   UNL     1      51.831  56.051  51.550  1.00  0.00    -0.550 OA
ENDBRANCH   4   5
ENDBRANCH   3   4
ENDBRANCH   2   3
ENDBRANCH   1   2
BRANCH   1   8
ATOM      8  C   UNL     1      53.596  52.655  47.240  1.00  0.00     0.000 C 
BRANCH   8   9
ATOM      9  C   UNL     1      54.676  53.506  46.544  1.00  0.00    -0.000 C 
BRANCH   9  10
ATOM     10  C   UNL     1      54.313  54.988  46.345  1.00  0.00    -0.000 C 
BRANCH  10  11
ATOM     11  C   UNL     1      52.889  55.323  46.820  1.00  0.00    -0.000 C 
BRANCH  11  12
ATOM     12  C   UNL     1      52.069  56.060  45.749  1.00  0.00    -0.003 C 
ATOM     13  C   UNL     1      52.903  56.451  44.529  1.00  0.00     0.004 C 
ENDBRANCH  11  12
ENDBRANCH  10  11
ENDBRANCH   9  10
ENDBRANCH   8   9
ENDBRANCH   1   8
TORSDOF 9
ENDMDL
MODEL 7
REMARK VINA RESULT:    -2.978      3.304      5.899
REMARK INTER + INTRA:          -5.510
REMARK INTER:                  -4.659
REMARK INTRA:                  -0.852
REMARK UNBOUND:                -0.966
REMARK SMILES CCCCCCCCCCC(=O)[O-]
REMARK SMILES IDX 7 1 8 2 9 3 10 4 11 5 12 6 13 7 6 8 5 9 4 10 3 11 2 12 1 13
REMARK H PARENT
REMARK Flexibility Score: inf
ROOT
ATOM      1  C   UNL     1      54.405  54.145  47.995  1.00  0.00     0.000 C 
ENDROOT
BRANCH   1   2
ATOM      2  C   UNL     1      53.258  53.394  47.297  1.00  0.00     0.000 C 
BRANCH   2   3
ATOM      3  C   UNL     1      52.458  52.502  48.258  1.00  0.00     0.006 C 
BRANCH   3   4
ATOM      4  C   UNL     1      53.362  51.930  49.354  1.00  0.00     0.053 C 
BRANCH   4   5
ATOM      5  C   UNL     1      52.556  51.559  50.558  1.00  0.00     0.041 C 
ATOM      6  O   UNL     1      51.789  52.402  51.094  1.00  0.00    -0.550 OA
ATOM      7  O   UNL     1      52.688  50.295  51.120  1.00  0.00    -0.550 OA
ENDBRANCH   4   5
ENDBRANCH   3   4
ENDBRANCH   2   3
ENDBRANCH   1   2
BRANCH   1   8
ATOM      8  C   UNL     1      55.404  54.835  47.044  1.00  0.00     0.000 C 
BRANCH   8   9
ATOM      9  C   UNL     1      55.116  54.648  45.541  1.00  0.00    -0.000 C 
BRANCH   9  10
ATOM     10  C   UNL     1      55.223  55.926  44.691  1.00  0.00    -0.000 C 
BRANCH  10  11
ATOM     11  C   UNL     1      54.040  56.886  44.903  1.00  0.00    -0.000 C 
BRANCH  11  12
ATOM     12  C   UNL     1      52.690  56.245  44.543  1.00  0.00    -0.003 C 
ATOM     13  C   UNL     1      51.656  56.372  45.661  1.00  0.00     0.004 C 
ENDBRANCH  11  12
ENDBRANCH  10  11
ENDBRANCH   9  10
ENDBRANCH   8   9
ENDBRANCH   1   8
TORSDOF 9
ENDMDL
MODEL 8
REMARK VINA RESULT:    -2.952      1.721      2.895
REMARK INTER + INTRA:          -5.471
REMARK INTER:                  -4.909
REMARK INTRA:                  -0.563
REMARK UNBOUND:                -0.966
REMARK SMILES CCCCCCCCCCC(=O)[O-]
REMARK SMILES IDX 7 1 8 2 9 3 10 4 11 5 12 6 13 7 6 8 5 9 4 10 3 11 2 12 1 13
REMARK H PARENT
REMARK Flexibility Score: inf
ROOT
ATOM      1  C   UNL     1      54.067  52.439  47.514  1.00  0.00     0.000 C 
ENDROOT
BRANCH   1   2
ATOM      2  C   UNL     1      54.568  53.890  47.407  1.00  0.00     0.000 C 
BRANCH   2   3
ATOM      3  C   UNL     1      54.220  54.542  46.061  1.00  0.00     0.006 C 
BRANCH   3   4
ATOM      4  C   UNL     1      53.046  55.515  46.211  1.00  0.00     0.053 C 
BRANCH   4   5
ATOM      5  C   UNL     1      53.046  56.513  45.097  1.00  0.00     0.041 C 
ATOM      6  O   UNL     1      52.397  56.287  44.041  1.00  0.00    -0.550 OA
ATOM      7  O   UNL     1      53.806  57.672  45.203  1.00  0.00    -0.550 OA
ENDBRANCH   4   5
ENDBRANCH   3   4
ENDBRANCH   2   3
ENDBRANCH   1   2
BRANCH   1   8
ATOM      8  C   UNL     1      52.648  52.282  48.097  1.00  0.00     0.000 C 
BRANCH   8   9
ATOM      9  C   UNL     1      52.349  53.146  49.338  1.00  0.00    -0.000 C 
BRANCH   9  10
ATOM     10  C   UNL     1      52.086  52.360  50.635  1.00  0.00    -0.000 C 
BRANCH  10  11
ATOM     11  C   UNL     1      53.232  51.401  50.995  1.00  0.00    -0.000 C 
BRANCH  11  12
ATOM     12  C   UNL     1      52.795  49.927  50.978  1.00  0.00    -0.003 C 
ATOM     13  C   UNL     1      53.491  49.090  52.050  1.00  0.00     0.004 C 
ENDBRANCH  11  12
ENDBRANCH  10  11
ENDBRANCH   9  10
ENDBRANCH   8   9
ENDBRANCH   1   8
TORSDOF 9
ENDMDL
