MODEL 1
REMARK VINA RESULT:    -6.570      0.000      0.000
REMARK INTER + INTRA:         -10.047
REMARK INTER:                  -8.682
REMARK INTRA:                  -1.365
REMARK UNBOUND:                -1.365
REMARK SMILES CC[C@@H](C=C[C@H](C)[C@H]1CC[C@@H]2[C@H]3CC=C4C[C@@H](O)CC[C@]4(C)[C@@H]3CC[C@@]21C)C(C)C
REMARK SMILES IDX 6 1 7 2 5 3 4 4 3 5 2 6 1 7 28 8 29 9 30 10 8 11 9 12 26 13
REMARK SMILES IDX 10 14 11 15 25 16 27 17 12 18 24 19 23 20 13 21 21 22 14 23
REMARK SMILES IDX 15 24 20 25 22 26 16 27 19 28 17 29 18 30
REMARK H PARENT 18 31
REMARK Flexibility Score: inf
ROOT
ATOM      1  C   UNL     1     124.864 111.520  98.361  1.00  0.00     0.012 C 
ATOM      2  C   UNL     1     125.690 110.429  97.655  1.00  0.00     0.012 C 
ENDROOT
BRANCH   1   3
ATOM      3  C   UNL     1     123.616 110.913  98.961  1.00  0.00    -0.028 C 
ATOM      4  C   UNL     1     123.500 110.669 100.278  1.00  0.00    -0.027 C 
BRANCH   4   5
ATOM      5  C   UNL     1     122.236 110.091 100.882  1.00  0.00     0.014 C 
BRANCH   5   6
ATOM      6  C   UNL     1     120.971 110.932 100.535  1.00  0.00     0.004 C 
ATOM      7  C   UNL     1     119.873 110.214  99.737  1.00  0.00     0.004 C 
ENDBRANCH   5   6
BRANCH   5   8
ATOM      8  C   UNL     1     122.445 109.789 102.400  1.00  0.00    -0.011 C 
ATOM      9  C   UNL     1     123.742 110.372 102.979  1.00  0.00     0.008 C 
ATOM     10  C   UNL     1     121.237 110.221 103.250  1.00  0.00     0.008 C 
ENDBRANCH   5   8
ENDBRANCH   4   5
ENDBRANCH   1   3
BRANCH   1  11
ATOM     11  C   UNL     1     125.690 112.289  99.445  1.00  0.00     0.002 C 
ATOM     12  C   UNL     1     127.112 111.754  99.592  1.00  0.00     0.005 C 
ATOM     13  C   UNL     1     125.877 113.832  99.246  1.00  0.00    -0.026 C 
ATOM     14  C   UNL     1     127.847 112.815 100.381  1.00  0.00     0.005 C 
ATOM     15  C   UNL     1     127.210 114.165  99.998  1.00  0.00    -0.001 C 
ATOM     16  C   UNL     1     124.673 114.618  99.840  1.00  0.00     0.007 C 
ATOM     17  C   UNL     1     126.046 114.197  97.744  1.00  0.00     0.012 C 
ATOM     18  C   UNL     1     127.032 115.092 101.239  1.00  0.00     0.000 C 
ATOM     19  C   UNL     1     124.983 116.109 100.014  1.00  0.00     0.005 C 
ATOM     20  C   UNL     1     126.255 116.384 100.878  1.00  0.00     0.003 C 
ATOM     21  C   UNL     1     128.408 115.494 101.802  1.00  0.00     0.031 C 
ATOM     22  C   UNL     1     126.015 117.304 102.145  1.00  0.00    -0.008 C 
ATOM     23  C   UNL     1     128.286 116.474 102.928  1.00  0.00    -0.027 C 
ATOM     24  C   UNL     1     127.256 117.341 103.056  1.00  0.00    -0.065 C 
ATOM     25  C   UNL     1     124.830 116.806 103.036  1.00  0.00     0.014 C 
ATOM     26  C   UNL     1     125.721 118.737 101.625  1.00  0.00     0.016 C 
ATOM     27  C   UNL     1     127.160 118.142 104.338  1.00  0.00     0.063 C 
ATOM     28  C   UNL     1     124.686 117.573 104.372  1.00  0.00     0.033 C 
ATOM     29  C   UNL     1     125.996 117.598 105.180  1.00  0.00     0.118 C 
BRANCH  29  30
ATOM     30  O   UNL     1     125.840 118.359 106.354  1.00  0.00    -0.393 OA
ATOM     31  H   UNL     1     126.615 118.980 106.414  1.00  0.00     0.210 HD
ENDBRANCH  29  30
ENDBRANCH   1  11
TORSDOF 6
ENDMDL
MODEL 2
REMARK VINA RESULT:    -6.433      4.700      8.575
REMARK INTER + INTRA:          -9.866
REMARK INTER:                  -8.478
REMARK INTRA:                  -1.388
REMARK UNBOUND:                -1.365
REMARK SMILES CC[C@@H](C=C[C@H](C)[C@H]1CC[C@@H]2[C@H]3CC=C4C[C@@H](O)CC[C@]4(C)[C@@H]3CC[C@@]21C)C(C)C
REMARK SMILES IDX 6 1 7 2 5 3 4 4 3 5 2 6 1 7 28 8 29 9 30 10 8 11 9 12 26 13
REMARK SMILES IDX 10 14 11 15 25 16 27 17 12 18 24 19 23 20 13 21 21 22 14 23
REMARK SMILES IDX 15 24 20 25 22 26 16 27 19 28 17 29 18 30
REMARK H PARENT 18 31
REMARK Flexibility Score: inf
ROOT
ATOM      1  C   UNL     1     130.894 114.720 100.823  1.00  0.00     0.012 C 
ATOM      2  C   UNL     1     132.210 115.175 101.479  1.00  0.00     0.012 C 
ENDROOT
BRANCH   1   3
ATOM      3  C   UNL     1     129.795 115.712 101.133  1.00  0.00    -0.028 C 
ATOM      4  C   UNL     1     128.639 115.342 101.712  1.00  0.00    -0.027 C 
BRANCH   4   5
ATOM      5  C   UNL     1     127.553 116.342 102.053  1.00  0.00     0.014 C 
BRANCH   5   6
ATOM      6  C   UNL     1     127.416 116.576 103.587  1.00  0.00     0.004 C 
ATOM      7  C   UNL     1     127.140 118.018 104.035  1.00  0.00     0.004 C 
ENDBRANCH   5   6
BRANCH   5   8
ATOM      8  C   UNL     1     126.227 115.982 101.308  1.00  0.00    -0.011 C 
ATOM      9  C   UNL     1     125.823 116.998 100.229  1.00  0.00     0.008 C 
ATOM     10  C   UNL     1     126.259 114.560 100.720  1.00  0.00     0.008 C 
ENDBRANCH   5   8
ENDBRANCH   4   5
ENDBRANCH   1   3
BRANCH   1  11
ATOM     11  C   UNL     1     131.036 114.505  99.280  1.00  0.00     0.002 C 
ATOM     12  C   UNL     1     132.296 113.729  98.907  1.00  0.00     0.005 C 
ATOM     13  C   UNL     1     129.880 113.737  98.552  1.00  0.00    -0.026 C 
ATOM     14  C   UNL     1     132.082 113.307  97.470  1.00  0.00     0.005 C 
ATOM     15  C   UNL     1     130.565 113.097  97.296  1.00  0.00    -0.001 C 
ATOM     16  C   UNL     1     128.736 114.710  98.146  1.00  0.00     0.007 C 
ATOM     17  C   UNL     1     129.303 112.598  99.440  1.00  0.00     0.012 C 
ATOM     18  C   UNL     1     130.057 113.658  95.933  1.00  0.00     0.000 C 
ATOM     19  C   UNL     1     127.786 114.091  97.114  1.00  0.00     0.005 C 
ATOM     20  C   UNL     1     128.512 113.582  95.827  1.00  0.00     0.003 C 
ATOM     21  C   UNL     1     130.663 112.852  94.769  1.00  0.00     0.031 C 
ATOM     22  C   UNL     1     127.980 114.206  94.471  1.00  0.00    -0.008 C 
ATOM     23  C   UNL     1     130.115 113.285  93.445  1.00  0.00    -0.027 C 
ATOM     24  C   UNL     1     128.887 113.827  93.285  1.00  0.00    -0.065 C 
ATOM     25  C   UNL     1     127.930 115.769  94.505  1.00  0.00     0.014 C 
ATOM     26  C   UNL     1     126.558 113.635  94.228  1.00  0.00     0.016 C 
ATOM     27  C   UNL     1     128.534 114.393  91.926  1.00  0.00     0.063 C 
ATOM     28  C   UNL     1     127.592 116.414  93.141  1.00  0.00     0.033 C 
ATOM     29  C   UNL     1     128.519 115.927  92.012  1.00  0.00     0.118 C 
BRANCH  29  30
ATOM     30  O   UNL     1     128.136 116.486  90.779  1.00  0.00    -0.393 OA
ATOM     31  H   UNL     1     128.135 117.475  90.885  1.00  0.00     0.210 HD
ENDBRANCH  29  30
ENDBRANCH   1  11
TORSDOF 6
ENDMDL
MODEL 3
REMARK VINA RESULT:    -6.421      1.667      2.463
REMARK INTER + INTRA:          -9.851
REMARK INTER:                  -8.523
REMARK INTRA:                  -1.327
REMARK UNBOUND:                -1.365
REMARK SMILES CC[C@@H](C=C[C@H](C)[C@H]1CC[C@@H]2[C@H]3CC=C4C[C@@H](O)CC[C@]4(C)[C@@H]3CC[C@@]21C)C(C)C
REMARK SMILES IDX 6 1 7 2 5 3 4 4 3 5 2 6 1 7 28 8 29 9 30 10 8 11 9 12 26 13
REMARK SMILES IDX 10 14 11 15 25 16 27 17 12 18 24 19 23 20 13 21 21 22 14 23
REMARK SMILES IDX 15 24 20 25 22 26 16 27 19 28 17 29 18 30
REMARK H PARENT 18 31
REMARK Flexibility Score: inf
ROOT
ATOM      1  C   UNL     1     127.056 111.121  97.766  1.00  0.00     0.012 C 
ATOM      2  C   UNL     1     128.384 110.433  97.402  1.00  0.00     0.012 C 
ENDROOT
BRANCH   1   3
ATOM      3  C   UNL     1     125.987 110.079  98.005  1.00  0.00    -0.028 C 
ATOM      4  C   UNL     1     125.197 110.101  99.094  1.00  0.00    -0.027 C 
BRANCH   4   5
ATOM      5  C   UNL     1     124.104 109.075  99.317  1.00  0.00     0.014 C 
BRANCH   5   6
ATOM      6  C   UNL     1     124.165 107.905  98.289  1.00  0.00     0.004 C 
ATOM      7  C   UNL     1     124.429 106.507  98.864  1.00  0.00     0.004 C 
ENDBRANCH   5   6
BRANCH   5   8
ATOM      8  C   UNL     1     122.715 109.779  99.451  1.00  0.00    -0.011 C 
ATOM      9  C   UNL     1     121.871 109.271 100.629  1.00  0.00     0.008 C 
ATOM     10  C   UNL     1     122.844 111.311  99.505  1.00  0.00     0.008 C 
ENDBRANCH   5   8
ENDBRANCH   4   5
ENDBRANCH   1   3
BRANCH   1  11
ATOM     11  C   UNL     1     127.194 112.077  98.996  1.00  0.00     0.002 C 
ATOM     12  C   UNL     1     128.462 111.818  99.806  1.00  0.00     0.005 C 
ATOM     13  C   UNL     1     127.226 113.618  98.710  1.00  0.00    -0.026 C 
ATOM     14  C   UNL     1     128.609 113.031 100.698  1.00  0.00     0.005 C 
ATOM     15  C   UNL     1     128.023 114.223  99.916  1.00  0.00    -0.001 C 
ATOM     16  C   UNL     1     125.786 114.198  98.626  1.00  0.00     0.007 C 
ATOM     17  C   UNL     1     127.992 113.937  97.395  1.00  0.00     0.012 C 
ATOM     18  C   UNL     1     127.180 115.159 100.835  1.00  0.00     0.000 C 
ATOM     19  C   UNL     1     125.769 115.727  98.733  1.00  0.00     0.005 C 
ATOM     20  C   UNL     1     126.470 116.269 100.020  1.00  0.00     0.003 C 
ATOM     21  C   UNL     1     128.088 115.831 101.882  1.00  0.00     0.031 C 
ATOM     22  C   UNL     1     125.562 117.188 100.936  1.00  0.00    -0.008 C 
ATOM     23  C   UNL     1     127.339 116.823 102.716  1.00  0.00    -0.027 C 
ATOM     24  C   UNL     1     126.248 117.493 102.281  1.00  0.00    -0.065 C 
ATOM     25  C   UNL     1     124.188 116.525 101.284  1.00  0.00     0.014 C 
ATOM     26  C   UNL     1     125.329 118.517 100.170  1.00  0.00     0.016 C 
ATOM     27  C   UNL     1     125.478 118.322 103.288  1.00  0.00     0.063 C 
ATOM     28  C   UNL     1     123.357 117.313 102.323  1.00  0.00     0.033 C 
ATOM     29  C   UNL     1     124.152 117.615 103.607  1.00  0.00     0.118 C 
BRANCH  29  30
ATOM     30  O   UNL     1     123.383 118.389 104.496  1.00  0.00    -0.393 OA
ATOM     31  H   UNL     1     123.244 117.850 105.320  1.00  0.00     0.210 HD
ENDBRANCH  29  30
ENDBRANCH   1  11
TORSDOF 6
ENDMDL
MODEL 4
REMARK VINA RESULT:    -6.257      4.126      7.205
REMARK INTER + INTRA:          -9.633
REMARK INTER:                  -8.213
REMARK INTRA:                  -1.420
REMARK UNBOUND:                -1.365
REMARK SMILES CC[C@@H](C=C[C@H](C)[C@H]1CC[C@@H]2[C@H]3CC=C4C[C@@H](O)CC[C@]4(C)[C@@H]3CC[C@@]21C)C(C)C
REMARK SMILES IDX 6 1 7 2 5 3 4 4 3 5 2 6 1 7 28 8 29 9 30 10 8 11 9 12 26 13
REMARK SMILES IDX 10 14 11 15 25 16 27 17 12 18 24 19 23 20 13 21 21 22 14 23
REMARK SMILES IDX 15 24 20 25 22 26 16 27 19 28 17 29 18 30
REMARK H PARENT 18 31
REMARK Flexibility Score: inf
ROOT
ATOM      1  C   UNL     1     124.765 117.287 101.341  1.00  0.00     0.012 C 
ATOM      2  C   UNL     1     124.617 118.333 102.460  1.00  0.00     0.012 C 
ENDROOT
BRANCH   1   3
ATOM      3  C   UNL     1     124.225 117.843 100.043  1.00  0.00    -0.028 C 
ATOM      4  C   UNL     1     123.211 117.259  99.380  1.00  0.00    -0.027 C 
BRANCH   4   5
ATOM      5  C   UNL     1     122.650 117.836  98.096  1.00  0.00     0.014 C 
BRANCH   5   6
ATOM      6  C   UNL     1     121.119 118.111  98.185  1.00  0.00     0.004 C 
ATOM      7  C   UNL     1     120.340 117.295  99.227  1.00  0.00     0.004 C 
ENDBRANCH   5   6
BRANCH   5   8
ATOM      8  C   UNL     1     123.108 116.985  96.869  1.00  0.00    -0.011 C 
ATOM      9  C   UNL     1     123.138 115.473  97.135  1.00  0.00     0.008 C 
ATOM     10  C   UNL     1     122.280 117.291  95.608  1.00  0.00     0.008 C 
ENDBRANCH   5   8
ENDBRANCH   4   5
ENDBRANCH   1   3
BRANCH   1  11
ATOM     11  C   UNL     1     126.241 116.796 101.171  1.00  0.00     0.002 C 
ATOM     12  C   UNL     1     126.957 116.608 102.505  1.00  0.00     0.005 C 
ATOM     13  C   UNL     1     126.466 115.440 100.416  1.00  0.00    -0.026 C 
ATOM     14  C   UNL     1     128.195 115.805 102.172  1.00  0.00     0.005 C 
ATOM     15  C   UNL     1     127.823 114.899 100.982  1.00  0.00    -0.001 C 
ATOM     16  C   UNL     1     126.534 115.665  98.879  1.00  0.00     0.007 C 
ATOM     17  C   UNL     1     125.344 114.414 100.742  1.00  0.00     0.012 C 
ATOM     18  C   UNL     1     128.972 114.826  99.930  1.00  0.00     0.000 C 
ATOM     19  C   UNL     1     127.127 114.458  98.142  1.00  0.00     0.005 C 
ATOM     20  C   UNL     1     128.538 114.039  98.667  1.00  0.00     0.003 C 
ATOM     21  C   UNL     1     130.203 114.128 100.538  1.00  0.00     0.031 C 
ATOM     22  C   UNL     1     129.677 114.011  97.566  1.00  0.00    -0.008 C 
ATOM     23  C   UNL     1     131.291 113.937  99.528  1.00  0.00    -0.027 C 
ATOM     24  C   UNL     1     131.066 113.811  98.200  1.00  0.00    -0.065 C 
ATOM     25  C   UNL     1     129.756 115.341  96.746  1.00  0.00     0.014 C 
ATOM     26  C   UNL     1     129.373 112.822  96.618  1.00  0.00     0.016 C 
ATOM     27  C   UNL     1     132.265 113.813  97.275  1.00  0.00     0.063 C 
ATOM     28  C   UNL     1     130.971 115.417  95.792  1.00  0.00     0.033 C 
ATOM     29  C   UNL     1     132.304 115.147  96.513  1.00  0.00     0.118 C 
BRANCH  29  30
ATOM     30  O   UNL     1     133.374 115.160  95.599  1.00  0.00    -0.393 OA
ATOM     31  H   UNL     1     133.279 115.975  95.038  1.00  0.00     0.210 HD
ENDBRANCH  29  30
ENDBRANCH   1  11
TORSDOF 6
ENDMDL
MODEL 5
REMARK VINA RESULT:    -6.227      3.662      6.912
REMARK INTER + INTRA:          -9.594
REMARK INTER:                  -8.014
REMARK INTRA:                  -1.579
REMARK UNBOUND:                -1.365
REMARK SMILES CC[C@@H](C=C[C@H](C)[C@H]1CC[C@@H]2[C@H]3CC=C4C[C@@H](O)CC[C@]4(C)[C@@H]3CC[C@@]21C)C(C)C
REMARK SMILES IDX 6 1 7 2 5 3 4 4 3 5 2 6 1 7 28 8 29 9 30 10 8 11 9 12 26 13
REMARK SMILES IDX 10 14 11 15 25 16 27 17 12 18 24 19 23 20 13 21 21 22 14 23
REMARK SMILES IDX 15 24 20 25 22 26 16 27 19 28 17 29 18 30
REMARK H PARENT 18 31
REMARK Flexibility Score: inf
ROOT
ATOM      1  C   UNL     1     121.986 117.144  97.357  1.00  0.00     0.012 C 
ATOM      2  C   UNL     1     121.187 118.456  97.460  1.00  0.00     0.012 C 
ENDROOT
BRANCH   1   3
ATOM      3  C   UNL     1     122.320 116.857  95.910  1.00  0.00    -0.028 C 
ATOM      4  C   UNL     1     123.577 116.924  95.438  1.00  0.00    -0.027 C 
BRANCH   4   5
ATOM      5  C   UNL     1     123.914 116.604  93.995  1.00  0.00     0.014 C 
BRANCH   5   6
ATOM      6  C   UNL     1     122.789 115.793  93.286  1.00  0.00     0.004 C 
ATOM      7  C   UNL     1     122.196 116.419  92.015  1.00  0.00     0.004 C 
ENDBRANCH   5   6
BRANCH   5   8
ATOM      8  C   UNL     1     125.348 115.994  93.893  1.00  0.00    -0.011 C 
ATOM      9  C   UNL     1     126.465 116.947  94.341  1.00  0.00     0.008 C 
ATOM     10  C   UNL     1     125.462 114.649  94.634  1.00  0.00     0.008 C 
ENDBRANCH   5   8
ENDBRANCH   4   5
ENDBRANCH   1   3
BRANCH   1  11
ATOM     11  C   UNL     1     123.279 117.159  98.238  1.00  0.00     0.002 C 
ATOM     12  C   UNL     1     123.275 118.281  99.272  1.00  0.00     0.005 C 
ATOM     13  C   UNL     1     123.598 115.868  99.069  1.00  0.00    -0.026 C 
ATOM     14  C   UNL     1     124.382 117.923 100.239  1.00  0.00     0.005 C 
ATOM     15  C   UNL     1     124.446 116.383 100.281  1.00  0.00    -0.001 C 
ATOM     16  C   UNL     1     124.388 114.838  98.213  1.00  0.00     0.007 C 
ATOM     17  C   UNL     1     122.300 115.205  99.613  1.00  0.00     0.012 C 
ATOM     18  C   UNL     1     125.917 115.867 100.300  1.00  0.00     0.000 C 
ATOM     19  C   UNL     1     125.045 113.752  99.073  1.00  0.00     0.005 C 
ATOM     20  C   UNL     1     125.980 114.322 100.189  1.00  0.00     0.003 C 
ATOM     21  C   UNL     1     126.610 116.288 101.609  1.00  0.00     0.031 C 
ATOM     22  C   UNL     1     127.471 113.791 100.145  1.00  0.00    -0.008 C 
ATOM     23  C   UNL     1     127.990 115.718 101.718  1.00  0.00    -0.027 C 
ATOM     24  C   UNL     1     128.372 114.563 101.127  1.00  0.00    -0.065 C 
ATOM     25  C   UNL     1     128.126 113.947  98.733  1.00  0.00     0.014 C 
ATOM     26  C   UNL     1     127.440 112.294 100.551  1.00  0.00     0.016 C 
ATOM     27  C   UNL     1     129.842 114.202 101.162  1.00  0.00     0.063 C 
ATOM     28  C   UNL     1     129.635 113.610  98.702  1.00  0.00     0.033 C 
ATOM     29  C   UNL     1     130.436 114.393  99.758  1.00  0.00     0.118 C 
BRANCH  29  30
ATOM     30  O   UNL     1     131.790 114.009  99.740  1.00  0.00    -0.393 OA
ATOM     31  H   UNL     1     132.336 114.830  99.862  1.00  0.00     0.210 HD
ENDBRANCH  29  30
ENDBRANCH   1  11
TORSDOF 6
ENDMDL
MODEL 6
REMARK VINA RESULT:    -6.197      4.251      7.689
REMARK INTER + INTRA:          -9.554
REMARK INTER:                  -8.151
REMARK INTRA:                  -1.403
REMARK UNBOUND:                -1.365
REMARK SMILES CC[C@@H](C=C[C@H](C)[C@H]1CC[C@@H]2[C@H]3CC=C4C[C@@H](O)CC[C@]4(C)[C@@H]3CC[C@@]21C)C(C)C
REMARK SMILES IDX 6 1 7 2 5 3 4 4 3 5 2 6 1 7 28 8 29 9 30 10 8 11 9 12 26 13
REMARK SMILES IDX 10 14 11 15 25 16 27 17 12 18 24 19 23 20 13 21 21 22 14 23
REMARK SMILES IDX 15 24 20 25 22 26 16 27 19 28 17 29 18 30
REMARK H PARENT 18 31
REMARK Flexibility Score: inf
ROOT
ATOM      1  C   UNL     1     127.338 115.745 101.874  1.00  0.00     0.012 C 
ATOM      2  C   UNL     1     128.364 116.235 102.912  1.00  0.00     0.012 C 
ENDROOT
BRANCH   1   3
ATOM      3  C   UNL     1     126.283 116.806 101.653  1.00  0.00    -0.028 C 
ATOM      4  C   UNL     1     125.030 116.679 102.125  1.00  0.00    -0.027 C 
BRANCH   4   5
ATOM      5  C   UNL     1     123.984 117.758 101.932  1.00  0.00     0.014 C 
BRANCH   5   6
ATOM      6  C   UNL     1     123.120 117.987 103.209  1.00  0.00     0.004 C 
ATOM      7  C   UNL     1     123.762 117.589 104.546  1.00  0.00     0.004 C 
ENDBRANCH   5   6
BRANCH   5   8
ATOM      8  C   UNL     1     123.181 117.510 100.615  1.00  0.00    -0.011 C 
ATOM      9  C   UNL     1     123.727 118.274  99.400  1.00  0.00     0.008 C 
ATOM     10  C   UNL     1     123.047 116.012 100.290  1.00  0.00     0.008 C 
ENDBRANCH   5   8
ENDBRANCH   4   5
ENDBRANCH   1   3
BRANCH   1  11
ATOM     11  C   UNL     1     128.005 115.329 100.522  1.00  0.00     0.002 C 
ATOM     12  C   UNL     1     129.156 114.343 100.711  1.00  0.00     0.005 C 
ATOM     13  C   UNL     1     127.089 114.651  99.445  1.00  0.00    -0.026 C 
ATOM     14  C   UNL     1     129.423 113.787  99.330  1.00  0.00     0.005 C 
ATOM     15  C   UNL     1     128.069 113.775  98.593  1.00  0.00    -0.001 C 
ATOM     16  C   UNL     1     126.371 115.721  98.574  1.00  0.00     0.007 C 
ATOM     17  C   UNL     1     126.031 113.720 100.103  1.00  0.00     0.012 C 
ATOM     18  C   UNL     1     128.215 114.235  97.110  1.00  0.00     0.000 C 
ATOM     19  C   UNL     1     125.783 115.124  97.290  1.00  0.00     0.005 C 
ATOM     20  C   UNL     1     126.835 114.367  96.417  1.00  0.00     0.003 C 
ATOM     21  C   UNL     1     129.059 113.217  96.320  1.00  0.00     0.031 C 
ATOM     22  C   UNL     1     126.967 114.892  94.928  1.00  0.00    -0.008 C 
ATOM     23  C   UNL     1     129.132 113.562  94.865  1.00  0.00    -0.027 C 
ATOM     24  C   UNL     1     128.169 114.250  94.210  1.00  0.00    -0.065 C 
ATOM     25  C   UNL     1     127.185 116.440  94.853  1.00  0.00     0.014 C 
ATOM     26  C   UNL     1     125.662 114.505  94.184  1.00  0.00     0.016 C 
ATOM     27  C   UNL     1     128.455 114.694  92.792  1.00  0.00     0.063 C 
ATOM     28  C   UNL     1     127.501 116.958  93.430  1.00  0.00     0.033 C 
ATOM     29  C   UNL     1     128.681 116.213  92.780  1.00  0.00     0.118 C 
BRANCH  29  30
ATOM     30  O   UNL     1     128.892 116.670  91.465  1.00  0.00    -0.393 OA
ATOM     31  H   UNL     1     129.504 117.452  91.513  1.00  0.00     0.210 HD
ENDBRANCH  29  30
ENDBRANCH   1  11
TORSDOF 6
ENDMDL
MODEL 7
REMARK VINA RESULT:    -6.100      3.652      7.661
REMARK INTER + INTRA:          -9.426
REMARK INTER:                  -8.042
REMARK INTRA:                  -1.384
REMARK UNBOUND:                -1.365
REMARK SMILES CC[C@@H](C=C[C@H](C)[C@H]1CC[C@@H]2[C@H]3CC=C4C[C@@H](O)CC[C@]4(C)[C@@H]3CC[C@@]21C)C(C)C
REMARK SMILES IDX 6 1 7 2 5 3 4 4 3 5 2 6 1 7 28 8 29 9 30 10 8 11 9 12 26 13
REMARK SMILES IDX 10 14 11 15 25 16 27 17 12 18 24 19 23 20 13 21 21 22 14 23
REMARK SMILES IDX 15 24 20 25 22 26 16 27 19 28 17 29 18 30
REMARK H PARENT 18 31
REMARK Flexibility Score: inf
ROOT
ATOM      1  C   UNL     1     126.975 117.206 102.270  1.00  0.00     0.012 C 
ATOM      2  C   UNL     1     127.103 117.927 103.625  1.00  0.00     0.012 C 
ENDROOT
BRANCH   1   3
ATOM      3  C   UNL     1     127.859 115.980 102.255  1.00  0.00    -0.028 C 
ATOM      4  C   UNL     1     128.032 115.235 101.149  1.00  0.00    -0.027 C 
BRANCH   4   5
ATOM      5  C   UNL     1     128.944 114.025 101.126  1.00  0.00     0.014 C 
BRANCH   5   6
ATOM      6  C   UNL     1     130.225 114.259 100.271  1.00  0.00     0.004 C 
ATOM      7  C   UNL     1     131.250 115.252 100.837  1.00  0.00     0.004 C 
ENDBRANCH   5   6
BRANCH   5   8
ATOM      8  C   UNL     1     128.132 112.736 100.780  1.00  0.00    -0.011 C 
ATOM      9  C   UNL     1     126.652 112.997 100.468  1.00  0.00     0.008 C 
ATOM     10  C   UNL     1     128.784 111.926  99.646  1.00  0.00     0.008 C 
ENDBRANCH   5   8
ENDBRANCH   4   5
ENDBRANCH   1   3
BRANCH   1  11
ATOM     11  C   UNL     1     125.495 116.835 101.926  1.00  0.00     0.002 C 
ATOM     12  C   UNL     1     124.497 117.397 102.935  1.00  0.00     0.005 C 
ATOM     13  C   UNL     1     124.941 117.300 100.535  1.00  0.00    -0.026 C 
ATOM     14  C   UNL     1     123.147 117.262 102.264  1.00  0.00     0.005 C 
ATOM     15  C   UNL     1     123.394 117.420 100.751  1.00  0.00    -0.001 C 
ATOM     16  C   UNL     1     125.287 116.266  99.427  1.00  0.00     0.007 C 
ATOM     17  C   UNL     1     125.500 118.696 100.137  1.00  0.00     0.012 C 
ATOM     18  C   UNL     1     122.551 116.405  99.920  1.00  0.00     0.000 C 
ATOM     19  C   UNL     1     124.454 116.477  98.157  1.00  0.00     0.005 C 
ATOM     20  C   UNL     1     122.912 116.462  98.414  1.00  0.00     0.003 C 
ATOM     21  C   UNL     1     121.049 116.714 100.070  1.00  0.00     0.031 C 
ATOM     22  C   UNL     1     122.106 115.392  97.569  1.00  0.00    -0.008 C 
ATOM     23  C   UNL     1     120.208 115.833  99.201  1.00  0.00    -0.027 C 
ATOM     24  C   UNL     1     120.643 115.291  98.041  1.00  0.00    -0.065 C 
ATOM     25  C   UNL     1     122.707 113.953  97.688  1.00  0.00     0.014 C 
ATOM     26  C   UNL     1     122.133 115.857  96.089  1.00  0.00     0.016 C 
ATOM     27  C   UNL     1     119.757 114.270  97.360  1.00  0.00     0.063 C 
ATOM     28  C   UNL     1     121.839 112.856  97.027  1.00  0.00     0.033 C 
ATOM     29  C   UNL     1     120.383 112.876  97.525  1.00  0.00     0.118 C 
BRANCH  29  30
ATOM     30  O   UNL     1     119.614 111.908  96.852  1.00  0.00    -0.393 OA
ATOM     31  H   UNL     1     118.656 112.130  96.999  1.00  0.00     0.210 HD
ENDBRANCH  29  30
ENDBRANCH   1  11
TORSDOF 6
ENDMDL
MODEL 8
REMARK VINA RESULT:    -5.928      4.707      7.914
REMARK INTER + INTRA:          -9.199
REMARK INTER:                  -7.847
REMARK INTRA:                  -1.352
REMARK UNBOUND:                -1.365
REMARK SMILES CC[C@@H](C=C[C@H](C)[C@H]1CC[C@@H]2[C@H]3CC=C4C[C@@H](O)CC[C@]4(C)[C@@H]3CC[C@@]21C)C(C)C
REMARK SMILES IDX 6 1 7 2 5 3 4 4 3 5 2 6 1 7 28 8 29 9 30 10 8 11 9 12 26 13
REMARK SMILES IDX 10 14 11 15 25 16 27 17 12 18 24 19 23 20 13 21 21 22 14 23
REMARK SMILES IDX 15 24 20 25 22 26 16 27 19 28 17 29 18 30
REMARK H PARENT 18 31
REMARK Flexibility Score: inf
ROOT
ATOM      1  C   UNL     1     130.429 114.951  96.334  1.00  0.00     0.012 C 
ATOM      2  C   UNL     1     131.645 115.373  95.489  1.00  0.00     0.012 C 
ENDROOT
BRANCH   1   3
ATOM      3  C   UNL     1     130.709 115.201  97.798  1.00  0.00    -0.028 C 
ATOM      4  C   UNL     1     130.779 114.202  98.695  1.00  0.00    -0.027 C 
BRANCH   4   5
ATOM      5  C   UNL     1     131.092 114.451 100.156  1.00  0.00     0.014 C 
BRANCH   5   6
ATOM      6  C   UNL     1     129.807 114.631 101.019  1.00  0.00     0.004 C 
ATOM      7  C   UNL     1     128.670 113.632 100.764  1.00  0.00     0.004 C 
ENDBRANCH   5   6
BRANCH   5   8
ATOM      8  C   UNL     1     132.162 115.580 100.301  1.00  0.00    -0.011 C 
ATOM      9  C   UNL     1     131.897 116.543 101.467  1.00  0.00     0.008 C 
ATOM     10  C   UNL     1     133.592 115.019 100.384  1.00  0.00     0.008 C 
ENDBRANCH   5   8
ENDBRANCH   4   5
ENDBRANCH   1   3
BRANCH   1  11
ATOM     11  C   UNL     1     129.111 115.664  95.884  1.00  0.00     0.002 C 
ATOM     12  C   UNL     1     129.201 116.236  94.472  1.00  0.00     0.005 C 
ATOM     13  C   UNL     1     127.798 114.808  95.871  1.00  0.00    -0.026 C 
ATOM     14  C   UNL     1     127.772 116.544  94.085  1.00  0.00     0.005 C 
ATOM     15  C   UNL     1     126.890 115.500  94.798  1.00  0.00    -0.001 C 
ATOM     16  C   UNL     1     127.125 114.802  97.273  1.00  0.00     0.007 C 
ATOM     17  C   UNL     1     128.076 113.345  95.422  1.00  0.00     0.012 C 
ATOM     18  C   UNL     1     125.591 116.140  95.375  1.00  0.00     0.000 C 
ATOM     19  C   UNL     1     125.673 114.314  97.217  1.00  0.00     0.005 C 
ATOM     20  C   UNL     1     124.782 115.123  96.220  1.00  0.00     0.003 C 
ATOM     21  C   UNL     1     124.692 116.641  94.228  1.00  0.00     0.031 C 
ATOM     22  C   UNL     1     123.491 115.779  96.862  1.00  0.00    -0.008 C 
ATOM     23  C   UNL     1     123.383 117.162  94.733  1.00  0.00    -0.027 C 
ATOM     24  C   UNL     1     122.796 116.735  95.874  1.00  0.00    -0.065 C 
ATOM     25  C   UNL     1     123.815 116.625  98.137  1.00  0.00     0.014 C 
ATOM     26  C   UNL     1     122.519 114.626  97.225  1.00  0.00     0.016 C 
ATOM     27  C   UNL     1     121.572 117.479  96.363  1.00  0.00     0.063 C 
ATOM     28  C   UNL     1     122.608 117.427  98.680  1.00  0.00     0.033 C 
ATOM     29  C   UNL     1     121.951 118.306  97.600  1.00  0.00     0.118 C 
BRANCH  29  30
ATOM     30  O   UNL     1     120.821 118.966  98.117  1.00  0.00    -0.393 OA
ATOM     31  H   UNL     1     121.137 119.794  98.568  1.00  0.00     0.210 HD
ENDBRANCH  29  30
ENDBRANCH   1  11
TORSDOF 6
ENDMDL
MODEL 9
REMARK VINA RESULT:    -5.819      4.413      7.489
REMARK INTER + INTRA:          -9.054
REMARK INTER:                  -7.646
REMARK INTRA:                  -1.409
REMARK UNBOUND:                -1.365
REMARK SMILES CC[C@@H](C=C[C@H](C)[C@H]1CC[C@@H]2[C@H]3CC=C4C[C@@H](O)CC[C@]4(C)[C@@H]3CC[C@@]21C)C(C)C
REMARK SMILES IDX 6 1 7 2 5 3 4 4 3 5 2 6 1 7 28 8 29 9 30 10 8 11 9 12 26 13
REMARK SMILES IDX 10 14 11 15 25 16 27 17 12 18 24 19 23 20 13 21 21 22 14 23
REMARK SMILES IDX 15 24 20 25 22 26 16 27 19 28 17 29 18 30
REMARK H PARENT 18 31
REMARK Flexibility Score: inf
ROOT
ATOM      1  C   UNL     1     124.865 114.079  95.920  1.00  0.00     0.012 C 
ATOM      2  C   UNL     1     123.484 114.760  95.914  1.00  0.00     0.012 C 
ENDROOT
BRANCH   1   3
ATOM      3  C   UNL     1     125.589 114.374  94.626  1.00  0.00    -0.028 C 
ATOM      4  C   UNL     1     126.292 115.505  94.441  1.00  0.00    -0.027 C 
BRANCH   4   5
ATOM      5  C   UNL     1     127.045 115.785  93.155  1.00  0.00     0.014 C 
BRANCH   5   6
ATOM      6  C   UNL     1     127.449 114.480  92.405  1.00  0.00     0.004 C 
ATOM      7  C   UNL     1     126.796 114.253  91.034  1.00  0.00     0.004 C 
ENDBRANCH   5   6
BRANCH   5   8
ATOM      8  C   UNL     1     128.206 116.798  93.412  1.00  0.00    -0.011 C 
ATOM      9  C   UNL     1     127.846 117.923  94.393  1.00  0.00     0.008 C 
ATOM     10  C   UNL     1     129.502 116.096  93.856  1.00  0.00     0.008 C 
ENDBRANCH   5   8
ENDBRANCH   4   5
ENDBRANCH   1   3
BRANCH   1  11
ATOM     11  C   UNL     1     125.732 114.492  97.155  1.00  0.00     0.002 C 
ATOM     12  C   UNL     1     124.907 114.641  98.431  1.00  0.00     0.005 C 
ATOM     13  C   UNL     1     126.905 113.536  97.563  1.00  0.00    -0.026 C 
ATOM     14  C   UNL     1     125.925 114.674  99.550  1.00  0.00     0.005 C 
ATOM     15  C   UNL     1     127.105 113.793  99.095  1.00  0.00    -0.001 C 
ATOM     16  C   UNL     1     128.194 113.862  96.754  1.00  0.00     0.007 C 
ATOM     17  C   UNL     1     126.524 112.043  97.352  1.00  0.00     0.012 C 
ATOM     18  C   UNL     1     128.478 114.432  99.464  1.00  0.00     0.000 C 
ATOM     19  C   UNL     1     129.444 113.230  97.376  1.00  0.00     0.005 C 
ATOM     20  C   UNL     1     129.661 113.622  98.874  1.00  0.00     0.003 C 
ATOM     21  C   UNL     1     128.644 114.487 100.995  1.00  0.00     0.031 C 
ATOM     22  C   UNL     1     131.058 114.297  99.190  1.00  0.00    -0.008 C 
ATOM     23  C   UNL     1     129.996 114.992 101.392  1.00  0.00    -0.027 C 
ATOM     24  C   UNL     1     131.102 114.851 100.627  1.00  0.00    -0.065 C 
ATOM     25  C   UNL     1     131.374 115.502  98.245  1.00  0.00     0.014 C 
ATOM     26  C   UNL     1     132.146 113.201  99.033  1.00  0.00     0.016 C 
ATOM     27  C   UNL     1     132.360 115.572 101.061  1.00  0.00     0.063 C 
ATOM     28  C   UNL     1     132.641 116.295  98.644  1.00  0.00     0.033 C 
ATOM     29  C   UNL     1     132.610 116.755 100.113  1.00  0.00     0.118 C 
BRANCH  29  30
ATOM     30  O   UNL     1     133.807 117.414 100.452  1.00  0.00    -0.393 OA
ATOM     31  H   UNL     1     134.071 117.107 101.360  1.00  0.00     0.210 HD
ENDBRANCH  29  30
ENDBRANCH   1  11
TORSDOF 6
ENDMDL
