MODEL 1
REMARK VINA RESULT:    -2.606      0.000      0.000
REMARK INTER + INTRA:          -2.612
REMARK INTER:                  -2.910
REMARK INTRA:                   0.298
REMARK UNBOUND:                 0.298
REMARK SMILES O=C([O-])c1ccccc1C(=O)[O-]
REMARK SMILES IDX 4 1 9 2 5 3 8 4 6 5 7 6 2 7 1 8 3 9 10 10 11 11 12 12
REMARK H PARENT
REMARK Flexibility Score: inf
ROOT
ATOM      1  C   UNL     1      21.601   5.931   6.841  1.00  0.00     0.006 A 
ATOM      2  C   UNL     1      22.735   5.826   5.985  1.00  0.00     0.006 A 
ATOM      3  C   UNL     1      21.067   4.764   7.416  1.00  0.00     0.010 A 
ATOM      4  C   UNL     1      23.249   4.550   5.686  1.00  0.00     0.010 A 
ATOM      5  C   UNL     1      21.608   3.511   7.122  1.00  0.00     0.001 A 
ATOM      6  C   UNL     1      22.688   3.404   6.250  1.00  0.00     0.001 A 
ENDROOT
BRANCH   1   7
ATOM      7  C   UNL     1      20.907   7.213   7.105  1.00  0.00     0.072 C 
ATOM      8  O   UNL     1      20.177   7.744   6.228  1.00  0.00    -0.545 OA
ATOM      9  O   UNL     1      21.002   7.811   8.356  1.00  0.00    -0.545 OA
ENDBRANCH   1   7
BRANCH   2  10
ATOM     10  C   UNL     1      23.450   7.004   5.442  1.00  0.00     0.072 C 
ATOM     11  O   UNL     1      22.820   7.935   4.875  1.00  0.00    -0.545 OA
ATOM     12  O   UNL     1      24.824   7.125   5.613  1.00  0.00    -0.545 OA
ENDBRANCH   2  10
TORSDOF 2
ENDMDL
MODEL 2
REMARK VINA RESULT:    -2.571      0.048      2.959
REMARK INTER + INTRA:          -2.574
REMARK INTER:                  -2.913
REMARK INTRA:                   0.339
REMARK UNBOUND:                 0.298
REMARK SMILES O=C([O-])c1ccccc1C(=O)[O-]
REMARK SMILES IDX 4 1 9 2 5 3 8 4 6 5 7 6 2 7 1 8 3 9 10 10 11 11 12 12
REMARK H PARENT
REMARK Flexibility Score: inf
ROOT
ATOM      1  C   UNL     1      22.737   5.812   5.978  1.00  0.00     0.006 A 
ATOM      2  C   UNL     1      21.619   5.904   6.856  1.00  0.00     0.006 A 
ATOM      3  C   UNL     1      23.253   4.544   5.657  1.00  0.00     0.010 A 
ATOM      4  C   UNL     1      21.103   4.727   7.430  1.00  0.00     0.010 A 
ATOM      5  C   UNL     1      22.709   3.388   6.221  1.00  0.00     0.001 A 
ATOM      6  C   UNL     1      21.645   3.481   7.114  1.00  0.00     0.001 A 
ENDROOT
BRANCH   1   7
ATOM      7  C   UNL     1      23.435   7.000   5.434  1.00  0.00     0.072 C 
ATOM      8  O   UNL     1      22.792   7.927   4.875  1.00  0.00    -0.545 OA
ATOM      9  O   UNL     1      24.809   7.135   5.596  1.00  0.00    -0.545 OA
ENDBRANCH   1   7
BRANCH   2  10
ATOM     10  C   UNL     1      20.923   7.179   7.147  1.00  0.00     0.072 C 
ATOM     11  O   UNL     1      20.218   7.743   6.269  1.00  0.00    -0.545 OA
ATOM     12  O   UNL     1      20.987   7.732   8.421  1.00  0.00    -0.545 OA
ENDBRANCH   2  10
TORSDOF 2
ENDMDL
MODEL 3
REMARK VINA RESULT:    -2.002      2.215      3.357
REMARK INTER + INTRA:          -1.939
REMARK INTER:                  -2.403
REMARK INTRA:                   0.464
REMARK UNBOUND:                 0.298
REMARK SMILES O=C([O-])c1ccccc1C(=O)[O-]
REMARK SMILES IDX 4 1 9 2 5 3 8 4 6 5 7 6 2 7 1 8 3 9 10 10 11 11 12 12
REMARK H PARENT
REMARK Flexibility Score: inf
ROOT
ATOM      1  C   UNL     1      21.774   5.296   7.049  1.00  0.00     0.006 A 
ATOM      2  C   UNL     1      22.317   6.416   6.353  1.00  0.00     0.006 A 
ATOM      3  C   UNL     1      20.657   5.485   7.881  1.00  0.00     0.010 A 
ATOM      4  C   UNL     1      21.760   7.690   6.570  1.00  0.00     0.010 A 
ATOM      5  C   UNL     1      20.107   6.755   8.063  1.00  0.00     0.001 A 
ATOM      6  C   UNL     1      20.665   7.856   7.418  1.00  0.00     0.001 A 
ENDROOT
BRANCH   1   7
ATOM      7  C   UNL     1      22.375   3.943   6.993  1.00  0.00     0.072 C 
ATOM      8  O   UNL     1      23.261   3.596   7.816  1.00  0.00    -0.545 OA
ATOM      9  O   UNL     1      21.915   3.016   6.066  1.00  0.00    -0.545 OA
ENDBRANCH   1   7
BRANCH   2  10
ATOM     10  C   UNL     1      23.403   6.296   5.353  1.00  0.00     0.072 C 
ATOM     11  O   UNL     1      23.718   5.174   4.875  1.00  0.00    -0.545 OA
ATOM     12  O   UNL     1      24.042   7.436   4.880  1.00  0.00    -0.545 OA
ENDBRANCH   2  10
TORSDOF 2
ENDMDL
MODEL 4
REMARK VINA RESULT:    -1.942      2.216      3.959
REMARK INTER + INTRA:          -1.871
REMARK INTER:                  -2.216
REMARK INTRA:                   0.344
REMARK UNBOUND:                 0.298
REMARK SMILES O=C([O-])c1ccccc1C(=O)[O-]
REMARK SMILES IDX 4 1 9 2 5 3 8 4 6 5 7 6 2 7 1 8 3 9 10 10 11 11 12 12
REMARK H PARENT
REMARK Flexibility Score: inf
ROOT
ATOM      1  C   UNL     1      22.280   6.381   6.297  1.00  0.00     0.006 A 
ATOM      2  C   UNL     1      21.744   5.306   7.064  1.00  0.00     0.006 A 
ATOM      3  C   UNL     1      21.690   7.654   6.399  1.00  0.00     0.010 A 
ATOM      4  C   UNL     1      20.599   5.532   7.851  1.00  0.00     0.010 A 
ATOM      5  C   UNL     1      20.568   7.859   7.204  1.00  0.00     0.001 A 
ATOM      6  C   UNL     1      20.018   6.798   7.918  1.00  0.00     0.001 A 
ENDROOT
BRANCH   1   7
ATOM      7  C   UNL     1      23.395   6.210   5.337  1.00  0.00     0.072 C 
ATOM      8  O   UNL     1      23.680   5.074   4.875  1.00  0.00    -0.545 OA
ATOM      9  O   UNL     1      24.099   7.319   4.884  1.00  0.00    -0.545 OA
ENDBRANCH   1   7
BRANCH   2  10
ATOM     10  C   UNL     1      22.375   3.967   7.129  1.00  0.00     0.072 C 
ATOM     11  O   UNL     1      23.361   3.756   7.882  1.00  0.00    -0.545 OA
ATOM     12  O   UNL     1      21.838   2.909   6.405  1.00  0.00    -0.545 OA
ENDBRANCH   2  10
TORSDOF 2
ENDMDL
MODEL 5
REMARK VINA RESULT:    -0.868      1.925      3.657
REMARK INTER + INTRA:          -0.672
REMARK INTER:                  -1.346
REMARK INTRA:                   0.674
REMARK UNBOUND:                 0.298
REMARK SMILES O=C([O-])c1ccccc1C(=O)[O-]
REMARK SMILES IDX 4 1 9 2 5 3 8 4 6 5 7 6 2 7 1 8 3 9 10 10 11 11 12 12
REMARK H PARENT
REMARK Flexibility Score: inf
ROOT
ATOM      1  C   UNL     1      22.481   5.534   6.254  1.00  0.00     0.006 A 
ATOM      2  C   UNL     1      21.966   6.862   6.292  1.00  0.00     0.006 A 
ATOM      3  C   UNL     1      23.677   5.284   5.559  1.00  0.00     0.010 A 
ATOM      4  C   UNL     1      22.633   7.874   5.577  1.00  0.00     0.010 A 
ATOM      5  C   UNL     1      24.334   6.309   4.876  1.00  0.00     0.001 A 
ATOM      6  C   UNL     1      23.807   7.597   4.875  1.00  0.00     0.001 A 
ENDROOT
BRANCH   1   7
ATOM      7  C   UNL     1      21.778   4.378   6.859  1.00  0.00     0.072 C 
ATOM      8  O   UNL     1      20.712   4.540   7.509  1.00  0.00    -0.545 OA
ATOM      9  O   UNL     1      22.256   3.089   6.656  1.00  0.00    -0.545 OA
ENDBRANCH   1   7
BRANCH   2  10
ATOM     10  C   UNL     1      20.791   7.250   7.107  1.00  0.00     0.072 C 
ATOM     11  O   UNL     1      19.681   7.489   6.564  1.00  0.00    -0.545 OA
ATOM     12  O   UNL     1      20.887   7.287   8.493  1.00  0.00    -0.545 OA
ENDBRANCH   2  10
TORSDOF 2
ENDMDL
MODEL 6
REMARK VINA RESULT:    -0.792      2.030      3.281
REMARK INTER + INTRA:          -0.587
REMARK INTER:                  -0.473
REMARK INTRA:                  -0.114
REMARK UNBOUND:                 0.298
REMARK SMILES O=C([O-])c1ccccc1C(=O)[O-]
REMARK SMILES IDX 4 1 9 2 5 3 8 4 6 5 7 6 2 7 1 8 3 9 10 10 11 11 12 12
REMARK H PARENT
REMARK Flexibility Score: inf
ROOT
ATOM      1  C   UNL     1      20.813   7.251   6.343  1.00  0.00     0.006 A 
ATOM      2  C   UNL     1      21.046   6.660   7.619  1.00  0.00     0.006 A 
ATOM      3  C   UNL     1      21.172   6.540   5.184  1.00  0.00     0.010 A 
ATOM      4  C   UNL     1      21.689   5.409   7.685  1.00  0.00     0.010 A 
ATOM      5  C   UNL     1      21.788   5.291   5.274  1.00  0.00     0.001 A 
ATOM      6  C   UNL     1      22.057   4.733   6.521  1.00  0.00     0.001 A 
ENDROOT
BRANCH   1   7
ATOM      7  C   UNL     1      20.269   8.619   6.175  1.00  0.00     0.072 C 
ATOM      8  O   UNL     1      19.046   8.802   5.940  1.00  0.00    -0.545 OA
ATOM      9  O   UNL     1      21.097   9.722   6.343  1.00  0.00    -0.545 OA
ENDBRANCH   1   7
BRANCH   2  10
ATOM     10  C   UNL     1      20.582   7.267   8.887  1.00  0.00     0.072 C 
ATOM     11  O   UNL     1      19.705   6.699   9.591  1.00  0.00    -0.545 OA
ATOM     12  O   UNL     1      21.162   8.442   9.350  1.00  0.00    -0.545 OA
ENDBRANCH   2  10
TORSDOF 2
ENDMDL
MODEL 7
REMARK VINA RESULT:    -0.781      2.016      2.750
REMARK INTER + INTRA:          -0.574
REMARK INTER:                  -0.455
REMARK INTRA:                  -0.119
REMARK UNBOUND:                 0.298
REMARK SMILES O=C([O-])c1ccccc1C(=O)[O-]
REMARK SMILES IDX 4 1 9 2 5 3 8 4 6 5 7 6 2 7 1 8 3 9 10 10 11 11 12 12
REMARK H PARENT
REMARK Flexibility Score: inf
ROOT
ATOM      1  C   UNL     1      21.059   6.635   7.623  1.00  0.00     0.006 A 
ATOM      2  C   UNL     1      20.828   7.219   6.344  1.00  0.00     0.006 A 
ATOM      3  C   UNL     1      21.708   5.390   7.699  1.00  0.00     0.010 A 
ATOM      4  C   UNL     1      21.198   6.504   5.190  1.00  0.00     0.010 A 
ATOM      5  C   UNL     1      22.087   4.710   6.541  1.00  0.00     0.001 A 
ATOM      6  C   UNL     1      21.821   5.260   5.290  1.00  0.00     0.001 A 
ENDROOT
BRANCH   1   7
ATOM      7  C   UNL     1      20.583   7.245   8.887  1.00  0.00     0.072 C 
ATOM      8  O   UNL     1      19.700   6.681   9.584  1.00  0.00    -0.545 OA
ATOM      9  O   UNL     1      21.159   8.422   9.351  1.00  0.00    -0.545 OA
ENDBRANCH   1   7
BRANCH   2  10
ATOM     10  C   UNL     1      20.275   8.582   6.167  1.00  0.00     0.072 C 
ATOM     11  O   UNL     1      19.051   8.755   5.927  1.00  0.00    -0.545 OA
ATOM     12  O   UNL     1      21.095   9.693   6.332  1.00  0.00    -0.545 OA
ENDBRANCH   2  10
TORSDOF 2
ENDMDL
MODEL 8
REMARK VINA RESULT:    -0.310     21.580     22.467
REMARK INTER + INTRA:          -0.049
REMARK INTER:                   0.098
REMARK INTRA:                  -0.147
REMARK UNBOUND:                 0.298
REMARK SMILES O=C([O-])c1ccccc1C(=O)[O-]
REMARK SMILES IDX 4 1 9 2 5 3 8 4 6 5 7 6 2 7 1 8 3 9 10 10 11 11 12 12
REMARK H PARENT
REMARK Flexibility Score: inf
ROOT
ATOM      1  C   UNL     1      34.275  -1.976  23.847  1.00  0.00     0.006 A 
ATOM      2  C   UNL     1      34.439  -1.599  22.483  1.00  0.00     0.006 A 
ATOM      3  C   UNL     1      32.981  -2.006  24.397  1.00  0.00     0.010 A 
ATOM      4  C   UNL     1      33.309  -1.205  21.742  1.00  0.00     0.010 A 
ATOM      5  C   UNL     1      31.872  -1.632  23.637  1.00  0.00     0.001 A 
ATOM      6  C   UNL     1      32.038  -1.221  22.317  1.00  0.00     0.001 A 
ENDROOT
BRANCH   1   7
ATOM      7  C   UNL     1      35.416  -2.274  24.745  1.00  0.00     0.072 C 
ATOM      8  O   UNL     1      35.647  -3.452  25.124  1.00  0.00    -0.545 OA
ATOM      9  O   UNL     1      36.286  -1.260  25.124  1.00  0.00    -0.545 OA
ENDBRANCH   1   7
BRANCH   2  10
ATOM     10  C   UNL     1      35.740  -1.667  21.777  1.00  0.00     0.072 C 
ATOM     11  O   UNL     1      36.328  -0.617  21.408  1.00  0.00    -0.545 OA
ATOM     12  O   UNL     1      36.359  -2.895  21.575  1.00  0.00    -0.545 OA
ENDBRANCH   2  10
TORSDOF 2
ENDMDL
MODEL 9
REMARK VINA RESULT:    -0.294     21.585     22.587
REMARK INTER + INTRA:          -0.031
REMARK INTER:                   0.069
REMARK INTRA:                  -0.100
REMARK UNBOUND:                 0.298
REMARK SMILES O=C([O-])c1ccccc1C(=O)[O-]
REMARK SMILES IDX 4 1 9 2 5 3 8 4 6 5 7 6 2 7 1 8 3 9 10 10 11 11 12 12
REMARK H PARENT
REMARK Flexibility Score: inf
ROOT
ATOM      1  C   UNL     1      34.430  -1.580  22.499  1.00  0.00     0.006 A 
ATOM      2  C   UNL     1      34.279  -1.967  23.863  1.00  0.00     0.006 A 
ATOM      3  C   UNL     1      33.293  -1.186  21.771  1.00  0.00     0.010 A 
ATOM      4  C   UNL     1      32.988  -2.006  24.423  1.00  0.00     0.010 A 
ATOM      5  C   UNL     1      32.026  -1.211  22.355  1.00  0.00     0.001 A 
ATOM      6  C   UNL     1      31.873  -1.632  23.673  1.00  0.00     0.001 A 
ENDROOT
BRANCH   1   7
ATOM      7  C   UNL     1      35.725  -1.638  21.783  1.00  0.00     0.072 C 
ATOM      8  O   UNL     1      36.253  -0.595  21.317  1.00  0.00    -0.545 OA
ATOM      9  O   UNL     1      36.407  -2.845  21.675  1.00  0.00    -0.545 OA
ENDBRANCH   1   7
BRANCH   2  10
ATOM     10  C   UNL     1      35.427  -2.267  24.749  1.00  0.00     0.072 C 
ATOM     11  O   UNL     1      35.662  -3.446  25.123  1.00  0.00    -0.545 OA
ATOM     12  O   UNL     1      36.302  -1.253  25.123  1.00  0.00    -0.545 OA
ENDBRANCH   2  10
TORSDOF 2
ENDMDL
