MODEL 1
REMARK VINA RESULT:    -6.081      0.000      0.000
REMARK INTER + INTRA:          -9.483
REMARK INTER:                  -8.036
REMARK INTRA:                  -1.447
REMARK UNBOUND:                -1.447
REMARK SMILES CC(C)=CCC[C@H](C(=O)[O-])[C@H]1CC[C@]2(C)C3=C(CC[C@@]12C)[C@]1(C)CC[C@H](O)C(C)(C)[C@H]1CC3
REMARK SMILES IDX 6 1 7 2 8 3 9 4 10 5 11 6 12 7 20 8 13 9 14 10 19 11 21 12
REMARK SMILES IDX 15 13 16 14 18 15 17 16 33 17 22 18 32 19 31 20 24 21 23 22
REMARK SMILES IDX 28 23 25 24 26 25 29 26 30 27 27 28 5 30 4 31 2 32 1 33 3 34
REMARK H PARENT 27 29
REMARK Flexibility Score: inf
ROOT
ATOM      1  C   UNL     1     129.381 132.298 117.757  1.00  0.00     0.014 C 
ENDROOT
BRANCH   1   2
ATOM      2  C   UNL     1     129.831 131.248 116.700  1.00  0.00     0.039 C 
BRANCH   2   3
ATOM      3  C   UNL     1     128.605 130.749 115.971  1.00  0.00     0.045 C 
ATOM      4  O   UNL     1     127.499 130.690 116.568  1.00  0.00    -0.550 OA
ATOM      5  O   UNL     1     128.687 130.348 114.644  1.00  0.00    -0.550 OA
ENDBRANCH   2   3
BRANCH   2   6
ATOM      6  C   UNL     1     130.617 130.044 117.348  1.00  0.00     0.004 C 
ATOM      7  C   UNL     1     130.221 128.648 116.767  1.00  0.00     0.006 C 
ATOM      8  C   UNL     1     132.192 130.043 117.276  1.00  0.00    -0.020 C 
ATOM      9  C   UNL     1     131.512 127.920 116.371  1.00  0.00     0.012 C 
ATOM     10  C   UNL     1     132.521 129.046 116.125  1.00  0.00    -0.006 C 
ATOM     11  C   UNL     1     132.954 131.354 116.989  1.00  0.00     0.012 C 
ATOM     12  C   UNL     1     132.686 129.530 118.675  1.00  0.00     0.012 C 
ATOM     13  C   UNL     1     132.266 129.595 114.684  1.00  0.00     0.017 C 
ATOM     14  C   UNL     1     133.996 128.668 116.172  1.00  0.00    -0.064 C 
ATOM     15  C   UNL     1     134.465 131.108 116.713  1.00  0.00     0.032 C 
ATOM     16  C   UNL     1     134.918 129.671 116.358  1.00  0.00    -0.064 C 
ATOM     17  C   UNL     1     134.382 127.259 115.730  1.00  0.00     0.032 C 
ATOM     18  C   UNL     1     136.434 129.356 116.375  1.00  0.00    -0.008 C 
ATOM     19  C   UNL     1     135.878 126.937 115.794  1.00  0.00     0.009 C 
ATOM     20  C   UNL     1     136.710 128.168 115.383  1.00  0.00     0.007 C 
ATOM     21  C   UNL     1     137.250 130.593 115.899  1.00  0.00     0.014 C 
ATOM     22  C   UNL     1     136.782 129.046 117.857  1.00  0.00     0.016 C 
ATOM     23  C   UNL     1     138.220 127.860 115.015  1.00  0.00    -0.006 C 
ATOM     24  C   UNL     1     138.737 130.294 115.682  1.00  0.00     0.033 C 
ATOM     25  C   UNL     1     138.945 129.190 114.632  1.00  0.00     0.120 C 
ATOM     26  C   UNL     1     139.008 127.137 116.141  1.00  0.00     0.014 C 
ATOM     27  C   UNL     1     138.270 126.919 113.774  1.00  0.00     0.014 C 
BRANCH  25  28
ATOM     28  O   UNL     1     138.489 129.650 113.381  1.00  0.00    -0.393 OA
ATOM     29  H   UNL     1     138.664 128.930 112.725  1.00  0.00     0.210 HD
ENDBRANCH  25  28
ENDBRANCH   2   6
ENDBRANCH   1   2
BRANCH   1  30
ATOM     30  C   UNL     1     129.664 131.876 119.218  1.00  0.00     0.028 C 
BRANCH  30  31
ATOM     31  C   UNL     1     128.411 131.375 119.906  1.00  0.00    -0.028 C 
ATOM     32  C   UNL     1     128.291 130.175 120.516  1.00  0.00    -0.080 C 
ATOM     33  C   UNL     1     126.946 129.792 121.082  1.00  0.00     0.039 C 
ATOM     34  C   UNL     1     129.456 129.224 120.658  1.00  0.00     0.039 C 
ENDBRANCH  30  31
ENDBRANCH   1  30
TORSDOF 6
ENDMDL
MODEL 2
REMARK VINA RESULT:    -6.047      7.548     10.905
REMARK INTER + INTRA:          -9.438
REMARK INTER:                  -8.169
REMARK INTRA:                  -1.269
REMARK UNBOUND:                -1.447
REMARK SMILES CC(C)=CCC[C@H](C(=O)[O-])[C@H]1CC[C@]2(C)C3=C(CC[C@@]12C)[C@]1(C)CC[C@H](O)C(C)(C)[C@H]1CC3
REMARK SMILES IDX 6 1 7 2 8 3 9 4 10 5 11 6 12 7 20 8 13 9 14 10 19 11 21 12
REMARK SMILES IDX 15 13 16 14 18 15 17 16 33 17 22 18 32 19 31 20 24 21 23 22
REMARK SMILES IDX 28 23 25 24 26 25 29 26 30 27 27 28 5 30 4 31 2 32 1 33 3 34
REMARK H PARENT 27 29
REMARK Flexibility Score: inf
ROOT
ATOM      1  C   UNL     1     130.727 142.343 117.003  1.00  0.00     0.014 C 
ENDROOT
BRANCH   1   2
ATOM      2  C   UNL     1     129.360 141.940 116.378  1.00  0.00     0.039 C 
BRANCH   2   3
ATOM      3  C   UNL     1     128.472 143.162 116.339  1.00  0.00     0.045 C 
ATOM      4  O   UNL     1     128.393 143.913 117.345  1.00  0.00    -0.550 OA
ATOM      5  O   UNL     1     127.734 143.464 115.202  1.00  0.00    -0.550 OA
ENDBRANCH   2   3
BRANCH   2   6
ATOM      6  C   UNL     1     128.659 140.772 117.172  1.00  0.00     0.004 C 
ATOM      7  C   UNL     1     127.136 140.616 116.851  1.00  0.00     0.006 C 
ATOM      8  C   UNL     1     129.221 139.307 117.018  1.00  0.00    -0.020 C 
ATOM      9  C   UNL     1     126.875 139.143 116.513  1.00  0.00     0.012 C 
ATOM     10  C   UNL     1     128.232 138.619 116.031  1.00  0.00    -0.006 C 
ATOM     11  C   UNL     1     130.650 139.081 116.478  1.00  0.00     0.012 C 
ATOM     12  C   UNL     1     129.176 138.675 118.454  1.00  0.00     0.012 C 
ATOM     13  C   UNL     1     128.392 139.042 114.535  1.00  0.00     0.017 C 
ATOM     14  C   UNL     1     128.435 137.110 116.062  1.00  0.00    -0.064 C 
ATOM     15  C   UNL     1     130.931 137.582 116.168  1.00  0.00     0.032 C 
ATOM     16  C   UNL     1     129.722 136.626 116.031  1.00  0.00    -0.064 C 
ATOM     17  C   UNL     1     127.211 136.224 115.838  1.00  0.00     0.032 C 
ATOM     18  C   UNL     1     129.992 135.101 116.019  1.00  0.00    -0.008 C 
ATOM     19  C   UNL     1     127.476 134.717 115.875  1.00  0.00     0.009 C 
ATOM     20  C   UNL     1     128.835 134.394 115.224  1.00  0.00     0.007 C 
ATOM     21  C   UNL     1     131.339 134.795 115.303  1.00  0.00     0.014 C 
ATOM     22  C   UNL     1     130.091 134.681 117.511  1.00  0.00     0.016 C 
ATOM     23  C   UNL     1     129.042 132.873 114.831  1.00  0.00    -0.006 C 
ATOM     24  C   UNL     1     131.573 133.300 115.060  1.00  0.00     0.033 C 
ATOM     25  C   UNL     1     130.458 132.686 114.197  1.00  0.00     0.120 C 
ATOM     26  C   UNL     1     128.865 131.886 116.018  1.00  0.00     0.014 C 
ATOM     27  C   UNL     1     127.986 132.464 113.762  1.00  0.00     0.014 C 
BRANCH  25  28
ATOM     28  O   UNL     1     130.496 133.265 112.913  1.00  0.00    -0.393 OA
ATOM     29  H   UNL     1     131.315 132.935 112.469  1.00  0.00     0.210 HD
ENDBRANCH  25  28
ENDBRANCH   2   6
ENDBRANCH   1   2
BRANCH   1  30
ATOM     30  C   UNL     1     131.747 142.889 115.976  1.00  0.00     0.028 C 
BRANCH  30  31
ATOM     31  C   UNL     1     132.155 141.827 114.977  1.00  0.00    -0.028 C 
ATOM     32  C   UNL     1     131.625 141.682 113.742  1.00  0.00    -0.080 C 
ATOM     33  C   UNL     1     132.083 140.518 112.899  1.00  0.00     0.039 C 
ATOM     34  C   UNL     1     130.610 142.651 113.183  1.00  0.00     0.039 C 
ENDBRANCH  30  31
ENDBRANCH   1  30
TORSDOF 6
ENDMDL
MODEL 3
REMARK VINA RESULT:    -5.974      3.239      8.383
REMARK INTER + INTRA:          -9.342
REMARK INTER:                  -7.971
REMARK INTRA:                  -1.371
REMARK UNBOUND:                -1.447
REMARK SMILES CC(C)=CCC[C@H](C(=O)[O-])[C@H]1CC[C@]2(C)C3=C(CC[C@@]12C)[C@]1(C)CC[C@H](O)C(C)(C)[C@H]1CC3
REMARK SMILES IDX 6 1 7 2 8 3 9 4 10 5 11 6 12 7 20 8 13 9 14 10 19 11 21 12
REMARK SMILES IDX 15 13 16 14 18 15 17 16 33 17 22 18 32 19 31 20 24 21 23 22
REMARK SMILES IDX 28 23 25 24 26 25 29 26 30 27 27 28 5 30 4 31 2 32 1 33 3 34
REMARK H PARENT 27 29
REMARK Flexibility Score: inf
ROOT
ATOM      1  C   UNL     1     132.399 129.025 114.960  1.00  0.00     0.014 C 
ENDROOT
BRANCH   1   2
ATOM      2  C   UNL     1     132.851 128.893 116.444  1.00  0.00     0.039 C 
BRANCH   2   3
ATOM      3  C   UNL     1     134.212 128.237 116.472  1.00  0.00     0.045 C 
ATOM      4  O   UNL     1     135.100 128.664 117.254  1.00  0.00    -0.550 OA
ATOM      5  O   UNL     1     134.497 127.166 115.635  1.00  0.00    -0.550 OA
ENDBRANCH   2   3
BRANCH   2   6
ATOM      6  C   UNL     1     131.823 128.072 117.313  1.00  0.00     0.004 C 
ATOM      7  C   UNL     1     132.475 126.903 118.122  1.00  0.00     0.006 C 
ATOM      8  C   UNL     1     130.965 128.836 118.393  1.00  0.00    -0.020 C 
ATOM      9  C   UNL     1     132.018 127.028 119.581  1.00  0.00     0.012 C 
ATOM     10  C   UNL     1     131.671 128.513 119.743  1.00  0.00    -0.006 C 
ATOM     11  C   UNL     1     130.802 130.369 118.308  1.00  0.00     0.012 C 
ATOM     12  C   UNL     1     129.522 128.224 118.307  1.00  0.00     0.012 C 
ATOM     13  C   UNL     1     133.010 129.281 119.987  1.00  0.00     0.017 C 
ATOM     14  C   UNL     1     130.760 128.882 120.906  1.00  0.00    -0.064 C 
ATOM     15  C   UNL     1     130.137 130.961 119.583  1.00  0.00     0.032 C 
ATOM     16  C   UNL     1     130.109 130.092 120.863  1.00  0.00    -0.064 C 
ATOM     17  C   UNL     1     130.843 128.030 122.170  1.00  0.00     0.032 C 
ATOM     18  C   UNL     1     129.201 130.542 122.034  1.00  0.00    -0.008 C 
ATOM     19  C   UNL     1     129.908 128.450 123.308  1.00  0.00     0.009 C 
ATOM     20  C   UNL     1     129.802 129.986 123.376  1.00  0.00     0.007 C 
ATOM     21  C   UNL     1     129.159 132.095 122.121  1.00  0.00     0.014 C 
ATOM     22  C   UNL     1     127.784 130.003 121.697  1.00  0.00     0.016 C 
ATOM     23  C   UNL     1     129.212 130.555 124.732  1.00  0.00    -0.006 C 
ATOM     24  C   UNL     1     128.457 132.615 123.381  1.00  0.00     0.033 C 
ATOM     25  C   UNL     1     129.149 132.115 124.660  1.00  0.00     0.120 C 
ATOM     26  C   UNL     1     127.811 129.989 125.095  1.00  0.00     0.014 C 
ATOM     27  C   UNL     1     130.155 130.173 125.911  1.00  0.00     0.014 C 
BRANCH  25  28
ATOM     28  O   UNL     1     130.448 132.657 124.726  1.00  0.00    -0.393 OA
ATOM     29  H   UNL     1     130.481 133.410 124.085  1.00  0.00     0.210 HD
ENDBRANCH  25  28
ENDBRANCH   2   6
ENDBRANCH   1   2
BRANCH   1  30
ATOM     30  C   UNL     1     130.865 129.114 114.780  1.00  0.00     0.028 C 
BRANCH  30  31
ATOM     31  C   UNL     1     130.388 130.552 114.767  1.00  0.00    -0.028 C 
ATOM     32  C   UNL     1     129.094 130.935 114.717  1.00  0.00    -0.080 C 
ATOM     33  C   UNL     1     128.788 132.410 114.625  1.00  0.00     0.039 C 
ATOM     34  C   UNL     1     127.956 129.942 114.766  1.00  0.00     0.039 C 
ENDBRANCH  30  31
ENDBRANCH   1  30
TORSDOF 6
ENDMDL
MODEL 4
REMARK VINA RESULT:    -5.962      4.719     11.231
REMARK INTER + INTRA:          -9.325
REMARK INTER:                  -8.031
REMARK INTRA:                  -1.294
REMARK UNBOUND:                -1.447
REMARK SMILES CC(C)=CCC[C@H](C(=O)[O-])[C@H]1CC[C@]2(C)C3=C(CC[C@@]12C)[C@]1(C)CC[C@H](O)C(C)(C)[C@H]1CC3
REMARK SMILES IDX 6 1 7 2 8 3 9 4 10 5 11 6 12 7 20 8 13 9 14 10 19 11 21 12
REMARK SMILES IDX 15 13 16 14 18 15 17 16 33 17 22 18 32 19 31 20 24 21 23 22
REMARK SMILES IDX 28 23 25 24 26 25 29 26 30 27 27 28 5 30 4 31 2 32 1 33 3 34
REMARK H PARENT 27 29
REMARK Flexibility Score: inf
ROOT
ATOM      1  C   UNL     1     146.100 129.921 116.330  1.00  0.00     0.014 C 
ENDROOT
BRANCH   1   2
ATOM      2  C   UNL     1     144.928 128.935 116.609  1.00  0.00     0.039 C 
BRANCH   2   3
ATOM      3  C   UNL     1     145.503 127.551 116.800  1.00  0.00     0.045 C 
ATOM      4  O   UNL     1     145.198 126.878 117.818  1.00  0.00    -0.550 OA
ATOM      5  O   UNL     1     146.375 127.012 115.862  1.00  0.00    -0.550 OA
ENDBRANCH   2   3
BRANCH   2   6
ATOM      6  C   UNL     1     143.858 128.933 115.451  1.00  0.00     0.004 C 
ATOM      7  C   UNL     1     143.664 127.537 114.773  1.00  0.00     0.006 C 
ATOM      8  C   UNL     1     142.386 129.392 115.780  1.00  0.00    -0.020 C 
ATOM      9  C   UNL     1     142.161 127.230 114.750  1.00  0.00     0.012 C 
ATOM     10  C   UNL     1     141.588 128.061 115.903  1.00  0.00    -0.006 C 
ATOM     11  C   UNL     1     142.101 130.225 117.048  1.00  0.00     0.012 C 
ATOM     12  C   UNL     1     141.922 130.261 114.556  1.00  0.00     0.012 C 
ATOM     13  C   UNL     1     141.837 127.263 117.223  1.00  0.00     0.017 C 
ATOM     14  C   UNL     1     140.092 128.347 115.864  1.00  0.00    -0.064 C 
ATOM     15  C   UNL     1     140.577 130.368 117.328  1.00  0.00     0.032 C 
ATOM     16  C   UNL     1     139.610 129.389 116.621  1.00  0.00    -0.064 C 
ATOM     17  C   UNL     1     139.185 127.299 115.224  1.00  0.00     0.032 C 
ATOM     18  C   UNL     1     138.094 129.704 116.655  1.00  0.00    -0.008 C 
ATOM     19  C   UNL     1     137.692 127.638 115.217  1.00  0.00     0.009 C 
ATOM     20  C   UNL     1     137.298 128.355 116.524  1.00  0.00     0.007 C 
ATOM     21  C   UNL     1     137.710 130.372 118.008  1.00  0.00     0.014 C 
ATOM     22  C   UNL     1     137.848 130.707 115.495  1.00  0.00     0.016 C 
ATOM     23  C   UNL     1     135.743 128.392 116.823  1.00  0.00    -0.006 C 
ATOM     24  C   UNL     1     136.197 130.518 118.206  1.00  0.00     0.033 C 
ATOM     25  C   UNL     1     135.487 129.155 118.163  1.00  0.00     0.120 C 
ATOM     26  C   UNL     1     134.898 129.030 115.686  1.00  0.00     0.014 C 
ATOM     27  C   UNL     1     135.213 126.938 116.997  1.00  0.00     0.014 C 
BRANCH  25  28
ATOM     28  O   UNL     1     135.915 128.375 119.255  1.00  0.00    -0.393 OA
ATOM     29  H   UNL     1     136.688 128.842 119.660  1.00  0.00     0.210 HD
ENDBRANCH  25  28
ENDBRANCH   2   6
ENDBRANCH   1   2
BRANCH   1  30
ATOM     30  C   UNL     1     145.646 131.284 115.757  1.00  0.00     0.028 C 
BRANCH  30  31
ATOM     31  C   UNL     1     145.577 132.346 116.835  1.00  0.00    -0.028 C 
ATOM     32  C   UNL     1     144.670 133.347 116.876  1.00  0.00    -0.080 C 
ATOM     33  C   UNL     1     144.790 134.375 117.973  1.00  0.00     0.039 C 
ATOM     34  C   UNL     1     143.544 133.456 115.875  1.00  0.00     0.039 C 
ENDBRANCH  30  31
ENDBRANCH   1  30
TORSDOF 6
ENDMDL
MODEL 5
REMARK VINA RESULT:    -5.874      1.468      2.688
REMARK INTER + INTRA:          -9.209
REMARK INTER:                  -8.095
REMARK INTRA:                  -1.114
REMARK UNBOUND:                -1.447
REMARK SMILES CC(C)=CCC[C@H](C(=O)[O-])[C@H]1CC[C@]2(C)C3=C(CC[C@@]12C)[C@]1(C)CC[C@H](O)C(C)(C)[C@H]1CC3
REMARK SMILES IDX 6 1 7 2 8 3 9 4 10 5 11 6 12 7 20 8 13 9 14 10 19 11 21 12
REMARK SMILES IDX 15 13 16 14 18 15 17 16 33 17 22 18 32 19 31 20 24 21 23 22
REMARK SMILES IDX 28 23 25 24 26 25 29 26 30 27 27 28 5 30 4 31 2 32 1 33 3 34
REMARK H PARENT 27 29
REMARK Flexibility Score: inf
ROOT
ATOM      1  C   UNL     1     130.645 132.185 118.028  1.00  0.00     0.014 C 
ENDROOT
BRANCH   1   2
ATOM      2  C   UNL     1     130.439 130.817 117.314  1.00  0.00     0.039 C 
BRANCH   2   3
ATOM      3  C   UNL     1     128.992 130.410 117.468  1.00  0.00     0.045 C 
ATOM      4  O   UNL     1     128.512 130.218 118.615  1.00  0.00    -0.550 OA
ATOM      5  O   UNL     1     128.183 130.239 116.352  1.00  0.00    -0.550 OA
ENDBRANCH   2   3
BRANCH   2   6
ATOM      6  C   UNL     1     131.392 129.696 117.879  1.00  0.00     0.004 C 
ATOM      7  C   UNL     1     131.025 128.254 117.397  1.00  0.00     0.006 C 
ATOM      8  C   UNL     1     132.938 129.800 117.590  1.00  0.00    -0.020 C 
ATOM      9  C   UNL     1     132.300 127.603 116.847  1.00  0.00     0.012 C 
ATOM     10  C   UNL     1     133.181 128.787 116.433  1.00  0.00    -0.006 C 
ATOM     11  C   UNL     1     133.556 131.150 117.165  1.00  0.00     0.012 C 
ATOM     12  C   UNL     1     133.655 129.376 118.922  1.00  0.00     0.012 C 
ATOM     13  C   UNL     1     132.693 129.263 115.026  1.00  0.00     0.017 C 
ATOM     14  C   UNL     1     134.673 128.514 116.286  1.00  0.00    -0.064 C 
ATOM     15  C   UNL     1     135.030 130.999 116.690  1.00  0.00     0.032 C 
ATOM     16  C   UNL     1     135.535 129.585 116.316  1.00  0.00    -0.064 C 
ATOM     17  C   UNL     1     135.098 127.119 115.834  1.00  0.00     0.032 C 
ATOM     18  C   UNL     1     137.059 129.376 116.131  1.00  0.00    -0.008 C 
ATOM     19  C   UNL     1     136.608 126.904 115.700  1.00  0.00     0.009 C 
ATOM     20  C   UNL     1     137.284 128.174 115.144  1.00  0.00     0.007 C 
ATOM     21  C   UNL     1     137.708 130.648 115.513  1.00  0.00     0.014 C 
ATOM     22  C   UNL     1     137.626 129.146 117.559  1.00  0.00     0.016 C 
ATOM     23  C   UNL     1     138.748 127.957 114.579  1.00  0.00    -0.006 C 
ATOM     24  C   UNL     1     139.171 130.445 115.101  1.00  0.00     0.033 C 
ATOM     25  C   UNL     1     139.315 129.320 114.063  1.00  0.00     0.120 C 
ATOM     26  C   UNL     1     139.734 127.333 115.605  1.00  0.00     0.014 C 
ATOM     27  C   UNL     1     138.699 126.977 113.370  1.00  0.00     0.014 C 
BRANCH  25  28
ATOM     28  O   UNL     1     138.660 129.700 112.875  1.00  0.00    -0.393 OA
ATOM     29  H   UNL     1     138.798 128.970 112.222  1.00  0.00     0.210 HD
ENDBRANCH  25  28
ENDBRANCH   2   6
ENDBRANCH   1   2
BRANCH   1  30
ATOM     30  C   UNL     1     130.364 133.409 117.126  1.00  0.00     0.028 C 
BRANCH  30  31
ATOM     31  C   UNL     1     130.771 133.150 115.691  1.00  0.00    -0.028 C 
ATOM     32  C   UNL     1     129.912 133.012 114.657  1.00  0.00    -0.080 C 
ATOM     33  C   UNL     1     130.475 132.672 113.300  1.00  0.00     0.039 C 
ATOM     34  C   UNL     1     128.422 133.201 114.817  1.00  0.00     0.039 C 
ENDBRANCH  30  31
ENDBRANCH   1  30
TORSDOF 6
ENDMDL
MODEL 6
REMARK VINA RESULT:    -5.855      7.638     10.881
REMARK INTER + INTRA:          -9.185
REMARK INTER:                  -7.771
REMARK INTRA:                  -1.414
REMARK UNBOUND:                -1.447
REMARK SMILES CC(C)=CCC[C@H](C(=O)[O-])[C@H]1CC[C@]2(C)C3=C(CC[C@@]12C)[C@]1(C)CC[C@H](O)C(C)(C)[C@H]1CC3
REMARK SMILES IDX 6 1 7 2 8 3 9 4 10 5 11 6 12 7 20 8 13 9 14 10 19 11 21 12
REMARK SMILES IDX 15 13 16 14 18 15 17 16 33 17 22 18 32 19 31 20 24 21 23 22
REMARK SMILES IDX 28 23 25 24 26 25 29 26 30 27 27 28 5 30 4 31 2 32 1 33 3 34
REMARK H PARENT 27 29
REMARK Flexibility Score: inf
ROOT
ATOM      1  C   UNL     1     130.390 142.522 118.133  1.00  0.00     0.014 C 
ENDROOT
BRANCH   1   2
ATOM      2  C   UNL     1     129.582 141.857 116.980  1.00  0.00     0.039 C 
BRANCH   2   3
ATOM      3  C   UNL     1     128.861 142.942 116.215  1.00  0.00     0.045 C 
ATOM      4  O   UNL     1     128.721 142.847 114.969  1.00  0.00    -0.550 OA
ATOM      5  O   UNL     1     128.352 144.053 116.876  1.00  0.00    -0.550 OA
ENDBRANCH   2   3
BRANCH   2   6
ATOM      6  C   UNL     1     128.560 140.780 117.509  1.00  0.00     0.004 C 
ATOM      7  C   UNL     1     127.186 140.794 116.761  1.00  0.00     0.006 C 
ATOM      8  C   UNL     1     128.980 139.261 117.483  1.00  0.00    -0.020 C 
ATOM      9  C   UNL     1     126.875 139.357 116.322  1.00  0.00     0.012 C 
ATOM     10  C   UNL     1     128.248 138.682 116.236  1.00  0.00    -0.006 C 
ATOM     11  C   UNL     1     130.470 138.872 117.371  1.00  0.00     0.012 C 
ATOM     12  C   UNL     1     128.454 138.646 118.829  1.00  0.00     0.012 C 
ATOM     13  C   UNL     1     128.877 139.076 114.861  1.00  0.00     0.017 C 
ATOM     14  C   UNL     1     128.268 137.159 116.283  1.00  0.00    -0.064 C 
ATOM     15  C   UNL     1     130.664 137.350 117.114  1.00  0.00     0.032 C 
ATOM     16  C   UNL     1     129.449 136.535 116.610  1.00  0.00    -0.064 C 
ATOM     17  C   UNL     1     127.072 136.415 115.695  1.00  0.00     0.032 C 
ATOM     18  C   UNL     1     129.543 134.989 116.635  1.00  0.00    -0.008 C 
ATOM     19  C   UNL     1     127.149 134.888 115.766  1.00  0.00     0.009 C 
ATOM     20  C   UNL     1     128.595 134.411 115.523  1.00  0.00     0.007 C 
ATOM     21  C   UNL     1     130.998 134.530 116.327  1.00  0.00     0.014 C 
ATOM     22  C   UNL     1     129.162 134.569 118.081  1.00  0.00     0.016 C 
ATOM     23  C   UNL     1     128.740 132.874 115.166  1.00  0.00    -0.006 C 
ATOM     24  C   UNL     1     131.128 133.017 116.122  1.00  0.00     0.033 C 
ATOM     25  C   UNL     1     130.249 132.527 114.959  1.00  0.00     0.120 C 
ATOM     26  C   UNL     1     128.121 131.920 116.225  1.00  0.00     0.014 C 
ATOM     27  C   UNL     1     127.998 132.580 113.828  1.00  0.00     0.014 C 
BRANCH  25  28
ATOM     28  O   UNL     1     130.718 133.091 113.756  1.00  0.00    -0.393 OA
ATOM     29  H   UNL     1     131.258 133.883 113.998  1.00  0.00     0.210 HD
ENDBRANCH  25  28
ENDBRANCH   2   6
ENDBRANCH   1   2
BRANCH   1  30
ATOM     30  C   UNL     1     129.849 142.195 119.545  1.00  0.00     0.028 C 
BRANCH  30  31
ATOM     31  C   UNL     1     129.174 143.396 120.175  1.00  0.00    -0.028 C 
ATOM     32  C   UNL     1     127.844 143.514 120.381  1.00  0.00    -0.080 C 
ATOM     33  C   UNL     1     127.320 144.812 120.944  1.00  0.00     0.039 C 
ATOM     34  C   UNL     1     126.879 142.391 120.081  1.00  0.00     0.039 C 
ENDBRANCH  30  31
ENDBRANCH   1  30
TORSDOF 6
ENDMDL
MODEL 7
REMARK VINA RESULT:    -5.814      4.300     10.653
REMARK INTER + INTRA:          -9.131
REMARK INTER:                  -7.924
REMARK INTRA:                  -1.207
REMARK UNBOUND:                -1.447
REMARK SMILES CC(C)=CCC[C@H](C(=O)[O-])[C@H]1CC[C@]2(C)C3=C(CC[C@@]12C)[C@]1(C)CC[C@H](O)C(C)(C)[C@H]1CC3
REMARK SMILES IDX 6 1 7 2 8 3 9 4 10 5 11 6 12 7 20 8 13 9 14 10 19 11 21 12
REMARK SMILES IDX 15 13 16 14 18 15 17 16 33 17 22 18 32 19 31 20 24 21 23 22
REMARK SMILES IDX 28 23 25 24 26 25 29 26 30 27 27 28 5 30 4 31 2 32 1 33 3 34
REMARK H PARENT 27 29
REMARK Flexibility Score: inf
ROOT
ATOM      1  C   UNL     1     144.602 130.146 116.657  1.00  0.00     0.014 C 
ENDROOT
BRANCH   1   2
ATOM      2  C   UNL     1     144.046 128.711 116.427  1.00  0.00     0.039 C 
BRANCH   2   3
ATOM      3  C   UNL     1     145.194 127.812 116.030  1.00  0.00     0.045 C 
ATOM      4  O   UNL     1     145.551 126.875 116.789  1.00  0.00    -0.550 OA
ATOM      5  O   UNL     1     145.867 128.013 114.832  1.00  0.00    -0.550 OA
ENDBRANCH   2   3
BRANCH   2   6
ATOM      6  C   UNL     1     142.912 128.675 115.333  1.00  0.00     0.004 C 
ATOM      7  C   UNL     1     142.600 127.240 114.795  1.00  0.00     0.006 C 
ATOM      8  C   UNL     1     141.490 129.251 115.698  1.00  0.00    -0.020 C 
ATOM      9  C   UNL     1     141.083 127.025 114.880  1.00  0.00     0.012 C 
ATOM     10  C   UNL     1     140.626 127.986 115.983  1.00  0.00    -0.006 C 
ATOM     11  C   UNL     1     141.328 130.206 116.900  1.00  0.00     0.012 C 
ATOM     12  C   UNL     1     141.005 130.037 114.428  1.00  0.00     0.012 C 
ATOM     13  C   UNL     1     140.907 127.291 117.354  1.00  0.00     0.017 C 
ATOM     14  C   UNL     1     139.149 128.360 115.999  1.00  0.00    -0.064 C 
ATOM     15  C   UNL     1     139.834 130.466 117.247  1.00  0.00     0.032 C 
ATOM     16  C   UNL     1     138.773 129.491 116.684  1.00  0.00    -0.064 C 
ATOM     17  C   UNL     1     138.149 127.318 115.504  1.00  0.00     0.032 C 
ATOM     18  C   UNL     1     137.282 129.901 116.770  1.00  0.00    -0.008 C 
ATOM     19  C   UNL     1     136.679 127.747 115.547  1.00  0.00     0.009 C 
ATOM     20  C   UNL     1     136.405 128.597 116.804  1.00  0.00     0.007 C 
ATOM     21  C   UNL     1     137.016 130.705 118.076  1.00  0.00     0.014 C 
ATOM     22  C   UNL     1     137.025 130.813 115.540  1.00  0.00     0.016 C 
ATOM     23  C   UNL     1     134.874 128.755 117.181  1.00  0.00    -0.006 C 
ATOM     24  C   UNL     1     135.529 130.961 118.342  1.00  0.00     0.033 C 
ATOM     25  C   UNL     1     134.741 129.646 118.459  1.00  0.00     0.120 C 
ATOM     26  C   UNL     1     134.002 129.344 116.038  1.00  0.00     0.014 C 
ATOM     27  C   UNL     1     134.273 127.357 117.513  1.00  0.00     0.014 C 
BRANCH  25  28
ATOM     28  O   UNL     1     135.188 128.938 119.592  1.00  0.00    -0.393 OA
ATOM     29  H   UNL     1     135.781 128.216 119.268  1.00  0.00     0.210 HD
ENDBRANCH  25  28
ENDBRANCH   2   6
ENDBRANCH   1   2
BRANCH   1  30
ATOM     30  C   UNL     1     145.134 130.389 118.089  1.00  0.00     0.028 C 
BRANCH  30  31
ATOM     31  C   UNL     1     144.134 129.947 119.137  1.00  0.00    -0.028 C 
ATOM     32  C   UNL     1     144.326 128.933 120.010  1.00  0.00    -0.080 C 
ATOM     33  C   UNL     1     143.195 128.564 120.937  1.00  0.00     0.039 C 
ATOM     34  C   UNL     1     145.631 128.177 120.091  1.00  0.00     0.039 C 
ENDBRANCH  30  31
ENDBRANCH   1  30
TORSDOF 6
ENDMDL
MODEL 8
REMARK VINA RESULT:    -5.762      4.324      7.337
REMARK INTER + INTRA:          -9.062
REMARK INTER:                  -7.578
REMARK INTRA:                  -1.484
REMARK UNBOUND:                -1.447
REMARK SMILES CC(C)=CCC[C@H](C(=O)[O-])[C@H]1CC[C@]2(C)C3=C(CC[C@@]12C)[C@]1(C)CC[C@H](O)C(C)(C)[C@H]1CC3
REMARK SMILES IDX 6 1 7 2 8 3 9 4 10 5 11 6 12 7 20 8 13 9 14 10 19 11 21 12
REMARK SMILES IDX 15 13 16 14 18 15 17 16 33 17 22 18 32 19 31 20 24 21 23 22
REMARK SMILES IDX 28 23 25 24 26 25 29 26 30 27 27 28 5 30 4 31 2 32 1 33 3 34
REMARK H PARENT 27 29
REMARK Flexibility Score: inf
ROOT
ATOM      1  C   UNL     1     135.740 129.567 118.771  1.00  0.00     0.014 C 
ENDROOT
BRANCH   1   2
ATOM      2  C   UNL     1     136.173 129.419 117.283  1.00  0.00     0.039 C 
BRANCH   2   3
ATOM      3  C   UNL     1     134.929 129.359 116.428  1.00  0.00     0.045 C 
ATOM      4  O   UNL     1     134.761 130.194 115.502  1.00  0.00    -0.550 OA
ATOM      5  O   UNL     1     133.960 128.391 116.657  1.00  0.00    -0.550 OA
ENDBRANCH   2   3
BRANCH   2   6
ATOM      6  C   UNL     1     137.071 128.145 117.044  1.00  0.00     0.004 C 
ATOM      7  C   UNL     1     137.025 127.609 115.576  1.00  0.00     0.006 C 
ATOM      8  C   UNL     1     138.613 128.236 117.358  1.00  0.00    -0.020 C 
ATOM      9  C   UNL     1     138.471 127.435 115.094  1.00  0.00     0.012 C 
ATOM     10  C   UNL     1     139.279 128.408 115.960  1.00  0.00    -0.006 C 
ATOM     11  C   UNL     1     139.151 129.358 118.271  1.00  0.00     0.012 C 
ATOM     12  C   UNL     1     138.994 126.875 118.043  1.00  0.00     0.012 C 
ATOM     13  C   UNL     1     139.129 129.829 115.329  1.00  0.00     0.017 C 
ATOM     14  C   UNL     1     140.777 128.152 116.064  1.00  0.00    -0.064 C 
ATOM     15  C   UNL     1     140.705 129.430 118.262  1.00  0.00     0.032 C 
ATOM     16  C   UNL     1     141.462 128.722 117.112  1.00  0.00    -0.064 C 
ATOM     17  C   UNL     1     141.475 127.526 114.860  1.00  0.00     0.032 C 
ATOM     18  C   UNL     1     142.993 128.533 117.250  1.00  0.00    -0.008 C 
ATOM     19  C   UNL     1     142.981 127.296 115.020  1.00  0.00     0.009 C 
ATOM     20  C   UNL     1     143.620 128.456 115.810  1.00  0.00     0.007 C 
ATOM     21  C   UNL     1     143.623 129.745 117.996  1.00  0.00     0.014 C 
ATOM     22  C   UNL     1     143.182 127.246 118.099  1.00  0.00     0.016 C 
ATOM     23  C   UNL     1     145.196 128.554 115.694  1.00  0.00    -0.006 C 
ATOM     24  C   UNL     1     145.155 129.737 117.983  1.00  0.00     0.033 C 
ATOM     25  C   UNL     1     145.709 129.758 116.548  1.00  0.00     0.120 C 
ATOM     26  C   UNL     1     145.941 127.257 116.115  1.00  0.00     0.014 C 
ATOM     27  C   UNL     1     145.593 128.822 114.212  1.00  0.00     0.014 C 
BRANCH  25  28
ATOM     28  O   UNL     1     145.354 130.976 115.934  1.00  0.00    -0.393 OA
ATOM     29  H   UNL     1     144.385 130.932 115.742  1.00  0.00     0.210 HD
ENDBRANCH  25  28
ENDBRANCH   2   6
ENDBRANCH   1   2
BRANCH   1  30
ATOM     30  C   UNL     1     135.861 131.010 119.317  1.00  0.00     0.028 C 
BRANCH  30  31
ATOM     31  C   UNL     1     136.570 131.919 118.335  1.00  0.00    -0.028 C 
ATOM     32  C   UNL     1     137.669 132.653 118.616  1.00  0.00    -0.080 C 
ATOM     33  C   UNL     1     138.205 133.575 117.549  1.00  0.00     0.039 C 
ATOM     34  C   UNL     1     138.377 132.565 119.947  1.00  0.00     0.039 C 
ENDBRANCH  30  31
ENDBRANCH   1  30
TORSDOF 6
ENDMDL
MODEL 9
REMARK VINA RESULT:    -5.722      4.909      9.499
REMARK INTER + INTRA:          -9.008
REMARK INTER:                  -7.818
REMARK INTRA:                  -1.191
REMARK UNBOUND:                -1.447
REMARK SMILES CC(C)=CCC[C@H](C(=O)[O-])[C@H]1CC[C@]2(C)C3=C(CC[C@@]12C)[C@]1(C)CC[C@H](O)C(C)(C)[C@H]1CC3
REMARK SMILES IDX 6 1 7 2 8 3 9 4 10 5 11 6 12 7 20 8 13 9 14 10 19 11 21 12
REMARK SMILES IDX 15 13 16 14 18 15 17 16 33 17 22 18 32 19 31 20 24 21 23 22
REMARK SMILES IDX 28 23 25 24 26 25 29 26 30 27 27 28 5 30 4 31 2 32 1 33 3 34
REMARK H PARENT 27 29
REMARK Flexibility Score: inf
ROOT
ATOM      1  C   UNL     1     129.387 133.023 118.012  1.00  0.00     0.014 C 
ENDROOT
BRANCH   1   2
ATOM      2  C   UNL     1     130.459 132.193 118.777  1.00  0.00     0.039 C 
BRANCH   2   3
ATOM      3  C   UNL     1     131.692 132.091 117.910  1.00  0.00     0.045 C 
ATOM      4  O   UNL     1     132.826 132.330 118.400  1.00  0.00    -0.550 OA
ATOM      5  O   UNL     1     131.587 131.741 116.571  1.00  0.00    -0.550 OA
ENDBRANCH   2   3
BRANCH   2   6
ATOM      6  C   UNL     1     129.938 130.758 119.169  1.00  0.00     0.004 C 
ATOM      7  C   UNL     1     131.037 129.648 119.099  1.00  0.00     0.006 C 
ATOM      8  C   UNL     1     129.291 130.549 120.591  1.00  0.00    -0.020 C 
ATOM      9  C   UNL     1     131.015 128.879 120.427  1.00  0.00     0.012 C 
ATOM     10  C   UNL     1     130.416 129.873 121.429  1.00  0.00    -0.006 C 
ATOM     11  C   UNL     1     128.780 131.765 121.394  1.00  0.00     0.012 C 
ATOM     12  C   UNL     1     128.056 129.605 120.368  1.00  0.00     0.012 C 
ATOM     13  C   UNL     1     131.567 130.829 121.882  1.00  0.00     0.017 C 
ATOM     14  C   UNL     1     129.831 129.288 122.708  1.00  0.00    -0.064 C 
ATOM     15  C   UNL     1     128.408 131.390 122.857  1.00  0.00     0.032 C 
ATOM     16  C   UNL     1     128.948 130.057 123.429  1.00  0.00    -0.064 C 
ATOM     17  C   UNL     1     130.466 128.016 123.262  1.00  0.00     0.032 C 
ATOM     18  C   UNL     1     128.351 129.535 124.759  1.00  0.00    -0.008 C 
ATOM     19  C   UNL     1     129.840 127.477 124.551  1.00  0.00     0.009 C 
ATOM     20  C   UNL     1     129.427 128.640 125.475  1.00  0.00     0.007 C 
ATOM     21  C   UNL     1     127.998 130.725 125.699  1.00  0.00     0.014 C 
ATOM     22  C   UNL     1     127.051 128.781 124.367  1.00  0.00     0.016 C 
ATOM     23  C   UNL     1     129.153 128.232 126.981  1.00  0.00    -0.006 C 
ATOM     24  C   UNL     1     127.603 130.287 127.113  1.00  0.00     0.033 C 
ATOM     25  C   UNL     1     128.733 129.497 127.796  1.00  0.00     0.120 C 
ATOM     26  C   UNL     1     128.080 127.120 127.147  1.00  0.00     0.014 C 
ATOM     27  C   UNL     1     130.462 127.673 127.614  1.00  0.00     0.014 C 
BRANCH  25  28
ATOM     28  O   UNL     1     129.842 130.345 127.983  1.00  0.00    -0.393 OA
ATOM     29  H   UNL     1     130.493 130.134 127.269  1.00  0.00     0.210 HD
ENDBRANCH  25  28
ENDBRANCH   2   6
ENDBRANCH   1   2
BRANCH   1  30
ATOM     30  C   UNL     1     128.286 132.163 117.349  1.00  0.00     0.028 C 
BRANCH  30  31
ATOM     31  C   UNL     1     128.137 132.485 115.877  1.00  0.00    -0.028 C 
ATOM     32  C   UNL     1     128.372 131.617 114.868  1.00  0.00    -0.080 C 
ATOM     33  C   UNL     1     128.259 132.120 113.451  1.00  0.00     0.039 C 
ATOM     34  C   UNL     1     128.725 130.170 115.117  1.00  0.00     0.039 C 
ENDBRANCH  30  31
ENDBRANCH   1  30
TORSDOF 6
ENDMDL
