MODEL 1
REMARK VINA RESULT:    -4.210      0.000      0.000
REMARK INTER + INTRA:          -5.377
REMARK INTER:                  -5.933
REMARK INTRA:                   0.556
REMARK UNBOUND:                 0.556
REMARK SMILES CC1=CCC(=C(C)C)C(=O)CC(C)=CCC1
REMARK SMILES IDX 12 1 14 2 13 3 15 4 16 5 2 6 1 7 3 8 11 10 9 11 10 12 5 13
REMARK SMILES IDX 6 14 7 15 8 16 4 17
REMARK H PARENT
REMARK Flexibility Score: 60.00
ROOT
ATOM      1  C   UNL     1       7.458 -16.301  20.861  1.00  0.00    -0.070 C 
ATOM      2  C   UNL     1       7.135 -15.706  22.033  1.00  0.00    -0.027 C 
ATOM      3  C   UNL     1       6.831 -15.747  19.604  1.00  0.00     0.039 C 
ENDROOT
BRANCH   2   4
ATOM      4  C   UNL     1       7.719 -16.025  23.388  1.00  0.00     0.032 C 
BRANCH   4   5
ATOM      5  C   UNL     1       7.123 -17.304  24.004  1.00  0.00     0.034 C 
BRANCH   5   6
ATOM      6  C   UNL     1       8.175 -18.369  24.242  1.00  0.00    -0.077 C 
ATOM      7  C   UNL     1       9.257 -18.093  25.254  1.00  0.00     0.039 C 
ATOM      8  C   UNL     1       8.215 -19.546  23.577  1.00  0.00    -0.023 CG0
ATOM      9  G   UNL     1       7.245 -19.989  22.507  1.00  0.00     0.000 G0
ENDBRANCH   5   6
ENDBRANCH   4   5
ENDBRANCH   2   4
BRANCH   1  10
ATOM     10  C   UNL     1       8.457 -17.440  20.739  1.00  0.00     0.111 C 
BRANCH  10  11
ATOM     11  C   UNL     1       7.784 -18.726  20.328  1.00  0.00     0.163 C 
ATOM     12  O   UNL     1       7.063 -18.717  19.294  1.00  0.00    -0.294 OA
BRANCH  11  13
ATOM     13  C   UNL     1       7.910 -19.979  21.138  1.00  0.00    -0.002 C 
ATOM     14  C   UNL     1       8.658 -21.040  20.709  1.00  0.00    -0.069 C 
ATOM     15  C   UNL     1       8.749 -22.317  21.516  1.00  0.00     0.039 C 
ATOM     16  C   UNL     1       9.459 -20.979  19.428  1.00  0.00     0.039 C 
BRANCH  13  17
ATOM     17  C   UNL     1       7.230 -19.994  22.495  1.00  0.00     0.066 CG0
ATOM     18  G   UNL     1       8.199 -19.534  23.558  1.00  0.00     0.000 G0
ENDBRANCH  13  17
ENDBRANCH  11  13
ENDBRANCH  10  11
ENDBRANCH   1  10
TORSDOF 0
ENDMDL
MODEL 2
REMARK VINA RESULT:    -4.202      2.175      4.900
REMARK INTER + INTRA:          -5.366
REMARK INTER:                  -6.167
REMARK INTRA:                   0.801
REMARK UNBOUND:                 0.556
REMARK SMILES CC1=CCC(=C(C)C)C(=O)CC(C)=CCC1
REMARK SMILES IDX 12 1 14 2 13 3 15 4 16 5 2 6 1 7 3 8 11 10 9 11 10 12 5 13
REMARK SMILES IDX 6 14 7 15 8 16 4 17
REMARK H PARENT
REMARK Flexibility Score: 60.00
ROOT
ATOM      1  C   UNL     1       6.728 -19.689  24.797  1.00  0.00    -0.070 C 
ATOM      2  C   UNL     1       6.879 -20.786  24.018  1.00  0.00    -0.027 C 
ATOM      3  C   UNL     1       6.819 -19.881  26.292  1.00  0.00     0.039 C 
ENDROOT
BRANCH   2   4
ATOM      4  C   UNL     1       6.930 -20.810  22.509  1.00  0.00     0.032 C 
BRANCH   4   5
ATOM      5  C   UNL     1       8.243 -21.408  21.970  1.00  0.00     0.034 C 
BRANCH   5   6
ATOM      6  C   UNL     1       9.128 -20.359  21.327  1.00  0.00    -0.077 C 
ATOM      7  C   UNL     1       9.256 -20.354  19.824  1.00  0.00     0.039 C 
ATOM      8  C   UNL     1       9.833 -19.439  22.025  1.00  0.00    -0.023 CG0
ATOM      9  G   UNL     1       9.862 -19.307  23.529  1.00  0.00     0.000 G0
ENDBRANCH   5   6
ENDBRANCH   4   5
ENDBRANCH   2   4
BRANCH   1  10
ATOM     10  C   UNL     1       6.541 -18.284  24.250  1.00  0.00     0.111 C 
BRANCH  10  11
ATOM     11  C   UNL     1       7.750 -17.826  23.472  1.00  0.00     0.163 C 
ATOM     12  O   UNL     1       7.566 -17.297  22.343  1.00  0.00    -0.294 OA
BRANCH  11  13
ATOM     13  C   UNL     1       9.143 -18.033  23.980  1.00  0.00    -0.002 C 
ATOM     14  C   UNL     1       9.728 -17.157  24.852  1.00  0.00    -0.069 C 
ATOM     15  C   UNL     1      11.150 -17.354  25.331  1.00  0.00     0.039 C 
ATOM     16  C   UNL     1       8.974 -15.971  25.409  1.00  0.00     0.039 C 
BRANCH  13  17
ATOM     17  C   UNL     1       9.856 -19.301  23.543  1.00  0.00     0.066 CG0
ATOM     18  G   UNL     1       9.827 -19.410  22.036  1.00  0.00     0.000 G0
ENDBRANCH  13  17
ENDBRANCH  11  13
ENDBRANCH  10  11
ENDBRANCH   1  10
TORSDOF 0
ENDMDL
MODEL 3
REMARK VINA RESULT:    -4.118      2.065      4.031
REMARK INTER + INTRA:          -5.247
REMARK INTER:                  -5.749
REMARK INTRA:                   0.502
REMARK UNBOUND:                 0.556
REMARK SMILES CC1=CCC(=C(C)C)C(=O)CC(C)=CCC1
REMARK SMILES IDX 12 1 14 2 13 3 15 4 16 5 2 6 1 7 3 8 11 10 9 11 10 12 5 13
REMARK SMILES IDX 6 14 7 15 8 16 4 17
REMARK H PARENT
REMARK Flexibility Score: 60.00
ROOT
ATOM      1  C   UNL     1       7.605 -18.544  23.030  1.00  0.00    -0.070 C 
ATOM      2  C   UNL     1       6.916 -19.663  23.355  1.00  0.00    -0.027 C 
ATOM      3  C   UNL     1       7.152 -17.244  23.651  1.00  0.00     0.039 C 
ENDROOT
BRANCH   2   4
ATOM      4  C   UNL     1       7.256 -21.074  22.938  1.00  0.00     0.032 C 
BRANCH   4   5
ATOM      5  C   UNL     1       6.982 -21.333  21.445  1.00  0.00     0.034 C 
BRANCH   5   6
ATOM      6  C   UNL     1       8.160 -21.988  20.752  1.00  0.00    -0.077 C 
ATOM      7  C   UNL     1       8.702 -23.273  21.324  1.00  0.00     0.039 C 
ATOM      8  C   UNL     1       8.772 -21.473  19.662  1.00  0.00    -0.023 CG0
ATOM      9  G   UNL     1       8.399 -20.184  18.968  1.00  0.00     0.000 G0
ENDBRANCH   5   6
ENDBRANCH   4   5
ENDBRANCH   2   4
BRANCH   1  10
ATOM     10  C   UNL     1       8.836 -18.538  22.139  1.00  0.00     0.111 C 
BRANCH  10  11
ATOM     11  C   UNL     1       8.474 -18.285  20.696  1.00  0.00     0.163 C 
ATOM     12  O   UNL     1       7.552 -17.462  20.449  1.00  0.00    -0.294 OA
BRANCH  11  13
ATOM     13  C   UNL     1       9.139 -19.018  19.573  1.00  0.00    -0.002 C 
ATOM     14  C   UNL     1      10.402 -18.701  19.155  1.00  0.00    -0.069 C 
ATOM     15  C   UNL     1      11.052 -19.423  17.995  1.00  0.00     0.039 C 
ATOM     16  C   UNL     1      11.224 -17.641  19.852  1.00  0.00     0.039 C 
BRANCH  13  17
ATOM     17  C   UNL     1       8.379 -20.183  18.964  1.00  0.00     0.066 CG0
ATOM     18  G   UNL     1       8.773 -21.468  19.655  1.00  0.00     0.000 G0
ENDBRANCH  13  17
ENDBRANCH  11  13
ENDBRANCH  10  11
ENDBRANCH   1  10
TORSDOF 0
ENDMDL
MODEL 4
REMARK VINA RESULT:    -4.067      1.418      4.253
REMARK INTER + INTRA:          -5.175
REMARK INTER:                  -5.590
REMARK INTRA:                   0.414
REMARK UNBOUND:                 0.556
REMARK SMILES CC1=CCC(=C(C)C)C(=O)CC(C)=CCC1
REMARK SMILES IDX 12 1 14 2 13 3 15 4 16 5 2 6 1 7 3 8 11 10 9 11 10 12 5 13
REMARK SMILES IDX 6 14 7 15 8 16 4 17
REMARK H PARENT
REMARK Flexibility Score: 60.00
ROOT
ATOM      1  C   UNL     1       9.402 -19.876  19.088  1.00  0.00    -0.070 C 
ATOM      2  C   UNL     1       9.670 -20.991  19.808  1.00  0.00    -0.027 C 
ATOM      3  C   UNL     1      10.266 -19.605  17.880  1.00  0.00     0.039 C 
ENDROOT
BRANCH   2   4
ATOM      4  C   UNL     1       8.874 -21.509  20.982  1.00  0.00     0.032 C 
BRANCH   4   5
ATOM      5  C   UNL     1       9.208 -20.776  22.294  1.00  0.00     0.034 C 
BRANCH   5   6
ATOM      6  C   UNL     1       7.987 -20.123  22.911  1.00  0.00    -0.077 C 
ATOM      7  C   UNL     1       6.887 -21.012  23.433  1.00  0.00     0.039 C 
ATOM      8  C   UNL     1       7.814 -18.785  22.998  1.00  0.00    -0.023 CG0
ATOM      9  G   UNL     1       8.782 -17.736  22.503  1.00  0.00     0.000 G0
ENDBRANCH   5   6
ENDBRANCH   4   5
ENDBRANCH   2   4
BRANCH   1  10
ATOM     10  C   UNL     1       8.249 -18.933  19.388  1.00  0.00     0.111 C 
BRANCH  10  11
ATOM     11  C   UNL     1       8.739 -17.614  19.933  1.00  0.00     0.163 C 
ATOM     12  O   UNL     1       9.619 -16.991  19.280  1.00  0.00    -0.294 OA
BRANCH  11  13
ATOM     13  C   UNL     1       8.251 -17.066  21.237  1.00  0.00    -0.002 C 
ATOM     14  C   UNL     1       7.322 -16.063  21.292  1.00  0.00    -0.069 C 
ATOM     15  C   UNL     1       6.861 -15.488  22.614  1.00  0.00     0.039 C 
ATOM     16  C   UNL     1       6.684 -15.504  20.041  1.00  0.00     0.039 C 
BRANCH  13  17
ATOM     17  C   UNL     1       8.775 -17.722  22.502  1.00  0.00     0.066 CG0
ATOM     18  G   UNL     1       7.798 -18.772  22.976  1.00  0.00     0.000 G0
ENDBRANCH  13  17
ENDBRANCH  11  13
ENDBRANCH  10  11
ENDBRANCH   1  10
TORSDOF 0
ENDMDL
MODEL 5
REMARK VINA RESULT:    -4.018      1.792      4.318
REMARK INTER + INTRA:          -5.106
REMARK INTER:                  -5.504
REMARK INTRA:                   0.398
REMARK UNBOUND:                 0.556
REMARK SMILES CC1=CCC(=C(C)C)C(=O)CC(C)=CCC1
REMARK SMILES IDX 12 1 14 2 13 3 15 4 16 5 2 6 1 7 3 8 11 10 9 11 10 12 5 13
REMARK SMILES IDX 6 14 7 15 8 16 4 17
REMARK H PARENT
REMARK Flexibility Score: 60.00
ROOT
ATOM      1  C   UNL     1       8.285 -20.294  19.253  1.00  0.00    -0.070 C 
ATOM      2  C   UNL     1       8.314 -19.251  18.389  1.00  0.00    -0.027 C 
ATOM      3  C   UNL     1       9.096 -21.515  18.895  1.00  0.00     0.039 C 
ENDROOT
BRANCH   2   4
ATOM      4  C   UNL     1       7.668 -17.902  18.595  1.00  0.00     0.032 C 
BRANCH   4   5
ATOM      5  C   UNL     1       8.425 -17.032  19.616  1.00  0.00     0.034 C 
BRANCH   5   6
ATOM      6  C   UNL     1       7.497 -16.421  20.647  1.00  0.00    -0.077 C 
ATOM      7  C   UNL     1       6.422 -15.478  20.173  1.00  0.00     0.039 C 
ATOM      8  C   UNL     1       7.594 -16.653  21.976  1.00  0.00    -0.023 CG0
ATOM      9  G   UNL     1       8.622 -17.535  22.645  1.00  0.00     0.000 G0
ENDBRANCH   5   6
ENDBRANCH   4   5
ENDBRANCH   2   4
BRANCH   1  10
ATOM     10  C   UNL     1       7.542 -20.272  20.579  1.00  0.00     0.111 C 
BRANCH  10  11
ATOM     11  C   UNL     1       8.465 -19.941  21.726  1.00  0.00     0.163 C 
ATOM     12  O   UNL     1       9.563 -20.555  21.802  1.00  0.00    -0.294 OA
BRANCH  11  13
ATOM     13  C   UNL     1       8.087 -18.954  22.786  1.00  0.00    -0.002 C 
ATOM     14  C   UNL     1       7.338 -19.317  23.871  1.00  0.00    -0.069 C 
ATOM     15  C   UNL     1       6.928 -18.305  24.919  1.00  0.00     0.039 C 
ATOM     16  C   UNL     1       6.912 -20.750  24.097  1.00  0.00     0.039 C 
BRANCH  13  17
ATOM     17  C   UNL     1       8.634 -17.545  22.644  1.00  0.00     0.066 CG0
ATOM     18  G   UNL     1       7.604 -16.661  21.981  1.00  0.00     0.000 G0
ENDBRANCH  13  17
ENDBRANCH  11  13
ENDBRANCH  10  11
ENDBRANCH   1  10
TORSDOF 0
ENDMDL
MODEL 6
REMARK VINA RESULT:    -3.964      2.239      2.877
REMARK INTER + INTRA:          -5.031
REMARK INTER:                  -5.445
REMARK INTRA:                   0.414
REMARK UNBOUND:                 0.556
REMARK SMILES CC1=CCC(=C(C)C)C(=O)CC(C)=CCC1
REMARK SMILES IDX 12 1 14 2 13 3 15 4 16 5 2 6 1 7 3 8 11 10 9 11 10 12 5 13
REMARK SMILES IDX 6 14 7 15 8 16 4 17
REMARK H PARENT
REMARK Flexibility Score: 60.00
ROOT
ATOM      1  C   UNL     1       7.969 -16.425  23.338  1.00  0.00    -0.070 C 
ATOM      2  C   UNL     1       8.998 -15.699  23.836  1.00  0.00    -0.027 C 
ATOM      3  C   UNL     1       6.811 -15.666  22.736  1.00  0.00     0.039 C 
ENDROOT
BRANCH   2   4
ATOM      4  C   UNL     1      10.294 -16.246  24.385  1.00  0.00     0.032 C 
BRANCH   4   5
ATOM      5  C   UNL     1      11.189 -16.856  23.290  1.00  0.00     0.034 C 
BRANCH   5   6
ATOM      6  C   UNL     1      11.674 -18.245  23.656  1.00  0.00    -0.077 C 
ATOM      7  C   UNL     1      12.456 -18.417  24.934  1.00  0.00     0.039 C 
ATOM      8  C   UNL     1      11.468 -19.339  22.888  1.00  0.00    -0.023 CG0
ATOM      9  G   UNL     1      10.742 -19.364  21.564  1.00  0.00     0.000 G0
ENDBRANCH   5   6
ENDBRANCH   4   5
ENDBRANCH   2   4
BRANCH   1  10
ATOM     10  C   UNL     1       7.951 -17.944  23.291  1.00  0.00     0.111 C 
BRANCH  10  11
ATOM     11  C   UNL     1       8.358 -18.462  21.934  1.00  0.00     0.163 C 
ATOM     12  O   UNL     1       7.883 -17.893  20.914  1.00  0.00    -0.294 OA
BRANCH  11  13
ATOM     13  C   UNL     1       9.254 -19.650  21.776  1.00  0.00    -0.002 C 
ATOM     14  C   UNL     1       8.761 -20.926  21.761  1.00  0.00    -0.069 C 
ATOM     15  C   UNL     1       9.678 -22.123  21.639  1.00  0.00     0.039 C 
ATOM     16  C   UNL     1       7.276 -21.202  21.830  1.00  0.00     0.039 C 
BRANCH  13  17
ATOM     17  C   UNL     1      10.731 -19.376  21.558  1.00  0.00     0.066 CG0
ATOM     18  G   UNL     1      11.444 -19.324  22.889  1.00  0.00     0.000 G0
ENDBRANCH  13  17
ENDBRANCH  11  13
ENDBRANCH  10  11
ENDBRANCH   1  10
TORSDOF 0
ENDMDL
MODEL 7
REMARK VINA RESULT:    -3.961      1.984      3.488
REMARK INTER + INTRA:          -5.026
REMARK INTER:                  -5.890
REMARK INTRA:                   0.864
REMARK UNBOUND:                 0.556
REMARK SMILES CC1=CCC(=C(C)C)C(=O)CC(C)=CCC1
REMARK SMILES IDX 12 1 14 2 13 3 15 4 16 5 2 6 1 7 3 8 11 10 9 11 10 12 5 13
REMARK SMILES IDX 6 14 7 15 8 16 4 17
REMARK H PARENT
REMARK Flexibility Score: 60.00
ROOT
ATOM      1  C   UNL     1       7.516 -20.891  22.875  1.00  0.00    -0.070 C 
ATOM      2  C   UNL     1       6.709 -20.506  23.891  1.00  0.00    -0.027 C 
ATOM      3  C   UNL     1       6.858 -21.490  21.655  1.00  0.00     0.039 C 
ENDROOT
BRANCH   2   4
ATOM      4  C   UNL     1       7.138 -19.793  25.151  1.00  0.00     0.032 C 
BRANCH   4   5
ATOM      5  C   UNL     1       6.736 -18.306  25.156  1.00  0.00     0.034 C 
BRANCH   5   6
ATOM      6  C   UNL     1       7.892 -17.400  24.782  1.00  0.00    -0.077 C 
ATOM      7  C   UNL     1       8.702 -16.778  25.891  1.00  0.00     0.039 C 
ATOM      8  C   UNL     1       8.226 -17.096  23.507  1.00  0.00    -0.023 CG0
ATOM      9  G   UNL     1       7.517 -17.590  22.268  1.00  0.00     0.000 G0
ENDBRANCH   5   6
ENDBRANCH   4   5
ENDBRANCH   2   4
BRANCH   1  10
ATOM     10  C   UNL     1       9.022 -20.691  22.869  1.00  0.00     0.111 C 
BRANCH  10  11
ATOM     11  C   UNL     1       9.402 -19.356  22.279  1.00  0.00     0.163 C 
ATOM     12  O   UNL     1      10.561 -18.914  22.504  1.00  0.00    -0.294 OA
BRANCH  11  13
ATOM     13  C   UNL     1       8.432 -18.534  21.489  1.00  0.00    -0.002 C 
ATOM     14  C   UNL     1       8.324 -18.656  20.131  1.00  0.00    -0.069 C 
ATOM     15  C   UNL     1       7.366 -17.794  19.337  1.00  0.00     0.039 C 
ATOM     16  C   UNL     1       9.128 -19.679  19.361  1.00  0.00     0.039 C 
BRANCH  13  17
ATOM     17  C   UNL     1       7.515 -17.609  22.270  1.00  0.00     0.066 CG0
ATOM     18  G   UNL     1       8.234 -17.090  23.493  1.00  0.00     0.000 G0
ENDBRANCH  13  17
ENDBRANCH  11  13
ENDBRANCH  10  11
ENDBRANCH   1  10
TORSDOF 0
ENDMDL
MODEL 8
REMARK VINA RESULT:    -3.947      2.620      2.992
REMARK INTER + INTRA:          -5.006
REMARK INTER:                  -5.417
REMARK INTRA:                   0.411
REMARK UNBOUND:                 0.556
REMARK SMILES CC1=CCC(=C(C)C)C(=O)CC(C)=CCC1
REMARK SMILES IDX 12 1 14 2 13 3 15 4 16 5 2 6 1 7 3 8 11 10 9 11 10 12 5 13
REMARK SMILES IDX 6 14 7 15 8 16 4 17
REMARK H PARENT
REMARK Flexibility Score: 60.00
ROOT
ATOM      1  C   UNL     1      10.092 -17.906  23.968  1.00  0.00    -0.070 C 
ATOM      2  C   UNL     1       9.123 -17.377  24.751  1.00  0.00    -0.027 C 
ATOM      3  C   UNL     1      11.135 -16.962  23.420  1.00  0.00     0.039 C 
ENDROOT
BRANCH   2   4
ATOM      4  C   UNL     1       8.049 -18.144  25.484  1.00  0.00     0.032 C 
BRANCH   4   5
ATOM      5  C   UNL     1       6.964 -18.694  24.540  1.00  0.00     0.034 C 
BRANCH   5   6
ATOM      6  C   UNL     1       6.798 -20.195  24.670  1.00  0.00    -0.077 C 
ATOM      7  C   UNL     1       6.449 -20.762  26.023  1.00  0.00     0.039 C 
ATOM      8  C   UNL     1       6.972 -21.061  23.647  1.00  0.00    -0.023 CG0
ATOM      9  G   UNL     1       7.356 -20.692  22.234  1.00  0.00     0.000 G0
ENDBRANCH   5   6
ENDBRANCH   4   5
ENDBRANCH   2   4
BRANCH   1  10
ATOM     10  C   UNL     1      10.223 -19.390  23.671  1.00  0.00     0.111 C 
BRANCH  10  11
ATOM     11  C   UNL     1       9.732 -19.724  22.284  1.00  0.00     0.163 C 
ATOM     12  O   UNL     1      10.054 -18.955  21.338  1.00  0.00    -0.294 OA
BRANCH  11  13
ATOM     13  C   UNL     1       8.843 -20.898  22.020  1.00  0.00    -0.002 C 
ATOM     14  C   UNL     1       9.351 -22.122  21.677  1.00  0.00    -0.069 C 
ATOM     15  C   UNL     1       8.442 -23.295  21.375  1.00  0.00     0.039 C 
ATOM     16  C   UNL     1      10.840 -22.374  21.618  1.00  0.00     0.039 C 
BRANCH  13  17
ATOM     17  C   UNL     1       7.352 -20.695  22.221  1.00  0.00     0.066 CG0
ATOM     18  G   UNL     1       6.972 -21.066  23.635  1.00  0.00     0.000 G0
ENDBRANCH  13  17
ENDBRANCH  11  13
ENDBRANCH  10  11
ENDBRANCH   1  10
TORSDOF 0
ENDMDL
MODEL 9
REMARK VINA RESULT:    -3.934      2.356      4.501
REMARK INTER + INTRA:          -4.987
REMARK INTER:                  -5.410
REMARK INTRA:                   0.422
REMARK UNBOUND:                 0.556
REMARK SMILES CC1=CCC(=C(C)C)C(=O)CC(C)=CCC1
REMARK SMILES IDX 12 1 14 2 13 3 15 4 16 5 2 6 1 7 3 8 11 10 9 11 10 12 5 13
REMARK SMILES IDX 6 14 7 15 8 16 4 17
REMARK H PARENT
REMARK Flexibility Score: 60.00
ROOT
ATOM      1  C   UNL     1       9.218 -21.972  22.125  1.00  0.00    -0.070 C 
ATOM      2  C   UNL     1       7.909 -21.916  22.466  1.00  0.00    -0.027 C 
ATOM      3  C   UNL     1       9.612 -22.948  21.043  1.00  0.00     0.039 C 
ENDROOT
BRANCH   2   4
ATOM      4  C   UNL     1       7.280 -20.947  23.439  1.00  0.00     0.032 C 
BRANCH   4   5
ATOM      5  C   UNL     1       7.094 -19.541  22.838  1.00  0.00     0.034 C 
BRANCH   5   6
ATOM      6  C   UNL     1       7.515 -18.448  23.800  1.00  0.00    -0.077 C 
ATOM      7  C   UNL     1       6.750 -18.295  25.090  1.00  0.00     0.039 C 
ATOM      8  C   UNL     1       8.524 -17.581  23.556  1.00  0.00    -0.023 CG0
ATOM      9  G   UNL     1       9.380 -17.551  22.312  1.00  0.00     0.000 G0
ENDBRANCH   5   6
ENDBRANCH   4   5
ENDBRANCH   2   4
BRANCH   1  10
ATOM     10  C   UNL     1      10.285 -21.066  22.717  1.00  0.00     0.111 C 
BRANCH  10  11
ATOM     11  C   UNL     1      10.491 -19.829  21.878  1.00  0.00     0.163 C 
ATOM     12  O   UNL     1      10.628 -19.971  20.633  1.00  0.00    -0.294 OA
BRANCH  11  13
ATOM     13  C   UNL     1      10.587 -18.466  22.488  1.00  0.00    -0.002 C 
ATOM     14  C   UNL     1      11.722 -18.041  23.122  1.00  0.00    -0.069 C 
ATOM     15  C   UNL     1      11.797 -16.675  23.770  1.00  0.00     0.039 C 
ATOM     16  C   UNL     1      12.967 -18.896  23.177  1.00  0.00     0.039 C 
BRANCH  13  17
ATOM     17  C   UNL     1       9.394 -17.544  22.310  1.00  0.00     0.066 CG0
ATOM     18  G   UNL     1       8.529 -17.582  23.548  1.00  0.00     0.000 G0
ENDBRANCH  13  17
ENDBRANCH  11  13
ENDBRANCH  10  11
ENDBRANCH   1  10
TORSDOF 0
ENDMDL
