MODEL 1
REMARK VINA RESULT:    -3.787      0.000      0.000
REMARK INTER + INTRA:          -6.051
REMARK INTER:                  -5.558
REMARK INTRA:                  -0.493
REMARK UNBOUND:                -0.493
REMARK SMILES O=C([O-])CCCCCCCC(=O)[O-]
REMARK SMILES IDX 7 1 6 2 5 3 4 4 2 5 1 6 3 7 8 8 9 9 10 10 11 11 12 12 13 13
REMARK H PARENT
REMARK Flexibility Score: inf
ROOT
ATOM      1  C   UNL     1      98.638   2.896 -25.693  1.00  0.00     0.000 C 
ENDROOT
BRANCH   1   2
ATOM      2  C   UNL     1      99.377   1.919 -26.626  1.00  0.00     0.000 C 
BRANCH   2   3
ATOM      3  C   UNL     1      99.892   0.674 -25.885  1.00  0.00     0.006 C 
BRANCH   3   4
ATOM      4  C   UNL     1      98.975  -0.543 -26.064  1.00  0.00     0.053 C 
BRANCH   4   5
ATOM      5  C   UNL     1      98.450  -0.999 -24.740  1.00  0.00     0.041 C 
ATOM      6  O   UNL     1      97.665  -1.981 -24.673  1.00  0.00    -0.550 OA
ATOM      7  O   UNL     1      98.864  -0.370 -23.573  1.00  0.00    -0.550 OA
ENDBRANCH   4   5
ENDBRANCH   3   4
ENDBRANCH   2   3
ENDBRANCH   1   2
BRANCH   1   8
ATOM      8  C   UNL     1      98.082   4.119 -26.441  1.00  0.00     0.000 C 
BRANCH   8   9
ATOM      9  C   UNL     1      99.153   4.849 -27.265  1.00  0.00     0.006 C 
BRANCH   9  10
ATOM     10  C   UNL     1      98.606   5.252 -28.638  1.00  0.00     0.053 C 
BRANCH  10  11
ATOM     11  C   UNL     1      98.436   4.048 -29.509  1.00  0.00     0.041 C 
ATOM     12  O   UNL     1      97.287   3.691 -29.882  1.00  0.00    -0.550 OA
ATOM     13  O   UNL     1      99.552   3.347 -29.951  1.00  0.00    -0.550 OA
ENDBRANCH  10  11
ENDBRANCH   9  10
ENDBRANCH   8   9
ENDBRANCH   1   8
TORSDOF 8
ENDMDL
MODEL 2
REMARK VINA RESULT:    -3.710      2.168      4.770
REMARK INTER + INTRA:          -5.938
REMARK INTER:                  -5.347
REMARK INTRA:                  -0.591
REMARK UNBOUND:                -0.493
REMARK SMILES O=C([O-])CCCCCCCC(=O)[O-]
REMARK SMILES IDX 7 1 6 2 5 3 4 4 2 5 1 6 3 7 8 8 9 9 10 10 11 11 12 12 13 13
REMARK H PARENT
REMARK Flexibility Score: inf
ROOT
ATOM      1  C   UNL     1      99.266   4.904 -27.401  1.00  0.00     0.000 C 
ENDROOT
BRANCH   1   2
ATOM      2  C   UNL     1     100.124   4.279 -28.515  1.00  0.00     0.000 C 
BRANCH   2   3
ATOM      3  C   UNL     1      99.286   3.483 -29.528  1.00  0.00     0.006 C 
BRANCH   3   4
ATOM      4  C   UNL     1      99.960   2.172 -29.955  1.00  0.00     0.053 C 
BRANCH   4   5
ATOM      5  C   UNL     1      99.103   1.002 -29.589  1.00  0.00     0.041 C 
ATOM      6  O   UNL     1      98.872   0.739 -28.379  1.00  0.00    -0.550 OA
ATOM      7  O   UNL     1      98.518   0.229 -30.583  1.00  0.00    -0.550 OA
ENDBRANCH   4   5
ENDBRANCH   3   4
ENDBRANCH   2   3
ENDBRANCH   1   2
BRANCH   1   8
ATOM      8  C   UNL     1      98.208   3.932 -26.856  1.00  0.00     0.000 C 
BRANCH   8   9
ATOM      9  C   UNL     1      98.400   3.619 -25.364  1.00  0.00     0.006 C 
BRANCH   9  10
ATOM     10  C   UNL     1      98.885   2.180 -25.165  1.00  0.00     0.053 C 
BRANCH  10  11
ATOM     11  C   UNL     1      97.723   1.257 -24.972  1.00  0.00     0.041 C 
ATOM     12  O   UNL     1      97.875   0.012 -25.088  1.00  0.00    -0.550 OA
ATOM     13  O   UNL     1      96.482   1.768 -24.613  1.00  0.00    -0.550 OA
ENDBRANCH  10  11
ENDBRANCH   9  10
ENDBRANCH   8   9
ENDBRANCH   1   8
TORSDOF 8
ENDMDL
MODEL 3
REMARK VINA RESULT:    -3.706      0.887      6.036
REMARK INTER + INTRA:          -5.933
REMARK INTER:                  -5.428
REMARK INTRA:                  -0.505
REMARK UNBOUND:                -0.493
REMARK SMILES O=C([O-])CCCCCCCC(=O)[O-]
REMARK SMILES IDX 7 1 6 2 5 3 4 4 2 5 1 6 3 7 8 8 9 9 10 10 11 11 12 12 13 13
REMARK H PARENT
REMARK Flexibility Score: inf
ROOT
ATOM      1  C   UNL     1      98.637   2.763 -25.717  1.00  0.00     0.000 C 
ENDROOT
BRANCH   1   2
ATOM      2  C   UNL     1      98.255   4.133 -26.307  1.00  0.00     0.000 C 
BRANCH   2   3
ATOM      3  C   UNL     1      99.366   4.725 -27.188  1.00  0.00     0.006 C 
BRANCH   3   4
ATOM      4  C   UNL     1      98.841   5.245 -28.534  1.00  0.00     0.053 C 
BRANCH   4   5
ATOM      5  C   UNL     1      98.626   4.109 -29.483  1.00  0.00     0.041 C 
ATOM      6  O   UNL     1      97.462   3.805 -29.854  1.00  0.00    -0.550 OA
ATOM      7  O   UNL     1      99.714   3.416 -29.997  1.00  0.00    -0.550 OA
ENDBRANCH   4   5
ENDBRANCH   3   4
ENDBRANCH   2   3
ENDBRANCH   1   2
BRANCH   1   8
ATOM      8  C   UNL     1      98.600   1.639 -26.765  1.00  0.00     0.000 C 
BRANCH   8   9
ATOM      9  C   UNL     1      99.645   0.545 -26.501  1.00  0.00     0.006 C 
BRANCH   9  10
ATOM     10  C   UNL     1      99.011  -0.660 -25.801  1.00  0.00     0.053 C 
BRANCH  10  11
ATOM     11  C   UNL     1      99.673  -0.909 -24.482  1.00  0.00     0.041 C 
ATOM     12  O   UNL     1      99.881   0.044 -23.686  1.00  0.00    -0.550 OA
ATOM     13  O   UNL     1     100.016  -2.204 -24.111  1.00  0.00    -0.550 OA
ENDBRANCH  10  11
ENDBRANCH   9  10
ENDBRANCH   8   9
ENDBRANCH   1   8
TORSDOF 8
ENDMDL
MODEL 4
REMARK VINA RESULT:    -3.701      1.782      2.641
REMARK INTER + INTRA:          -5.926
REMARK INTER:                  -5.228
REMARK INTRA:                  -0.698
REMARK UNBOUND:                -0.493
REMARK SMILES O=C([O-])CCCCCCCC(=O)[O-]
REMARK SMILES IDX 7 1 6 2 5 3 4 4 2 5 1 6 3 7 8 8 9 9 10 10 11 11 12 12 13 13
REMARK H PARENT
REMARK Flexibility Score: inf
ROOT
ATOM      1  C   UNL     1      97.877   4.600 -27.535  1.00  0.00     0.000 C 
ENDROOT
BRANCH   1   2
ATOM      2  C   UNL     1      98.616   4.125 -26.271  1.00  0.00     0.000 C 
BRANCH   2   3
ATOM      3  C   UNL     1      97.957   2.894 -25.630  1.00  0.00     0.006 C 
BRANCH   3   4
ATOM      4  C   UNL     1      98.981   1.874 -25.113  1.00  0.00     0.053 C 
BRANCH   4   5
ATOM      5  C   UNL     1      98.426   0.488 -25.200  1.00  0.00     0.041 C 
ATOM      6  O   UNL     1      97.337   0.205 -24.635  1.00  0.00    -0.550 OA
ATOM      7  O   UNL     1      99.085  -0.481 -25.946  1.00  0.00    -0.550 OA
ENDBRANCH   4   5
ENDBRANCH   3   4
ENDBRANCH   2   3
ENDBRANCH   1   2
BRANCH   1   8
ATOM      8  C   UNL     1      98.834   5.139 -28.610  1.00  0.00     0.000 C 
BRANCH   8   9
ATOM      9  C   UNL     1      99.621   4.025 -29.317  1.00  0.00     0.006 C 
BRANCH   9  10
ATOM     10  C   UNL     1      98.693   2.880 -29.734  1.00  0.00     0.053 C 
BRANCH  10  11
ATOM     11  C   UNL     1      99.203   1.574 -29.210  1.00  0.00     0.041 C 
ATOM     12  O   UNL     1     100.125   1.551 -28.353  1.00  0.00    -0.550 OA
ATOM     13  O   UNL     1      98.626   0.383 -29.634  1.00  0.00    -0.550 OA
ENDBRANCH  10  11
ENDBRANCH   9  10
ENDBRANCH   8   9
ENDBRANCH   1   8
TORSDOF 8
ENDMDL
MODEL 5
REMARK VINA RESULT:    -3.653      1.161      5.627
REMARK INTER + INTRA:          -5.854
REMARK INTER:                  -5.333
REMARK INTRA:                  -0.521
REMARK UNBOUND:                -0.493
REMARK SMILES O=C([O-])CCCCCCCC(=O)[O-]
REMARK SMILES IDX 7 1 6 2 5 3 4 4 2 5 1 6 3 7 8 8 9 9 10 10 11 11 12 12 13 13
REMARK H PARENT
REMARK Flexibility Score: inf
ROOT
ATOM      1  C   UNL     1      98.025   4.018 -26.510  1.00  0.00     0.000 C 
ENDROOT
BRANCH   1   2
ATOM      2  C   UNL     1      99.100   4.827 -27.258  1.00  0.00     0.000 C 
BRANCH   2   3
ATOM      3  C   UNL     1      98.655   5.232 -28.672  1.00  0.00     0.006 C 
BRANCH   3   4
ATOM      4  C   UNL     1      97.986   4.081 -29.435  1.00  0.00     0.053 C 
BRANCH   4   5
ATOM      5  C   UNL     1      98.996   3.037 -29.793  1.00  0.00     0.041 C 
ATOM      6  O   UNL     1     100.125   3.373 -30.237  1.00  0.00    -0.550 OA
ATOM      7  O   UNL     1      98.709   1.693 -29.591  1.00  0.00    -0.550 OA
ENDBRANCH   4   5
ENDBRANCH   3   4
ENDBRANCH   2   3
ENDBRANCH   1   2
BRANCH   1   8
ATOM      8  C   UNL     1      98.627   2.922 -25.616  1.00  0.00     0.000 C 
BRANCH   8   9
ATOM      9  C   UNL     1      98.286   1.506 -26.102  1.00  0.00     0.006 C 
BRANCH   9  10
ATOM     10  C   UNL     1      99.540   0.626 -26.150  1.00  0.00     0.053 C 
BRANCH  10  11
ATOM     11  C   UNL     1      99.626  -0.231 -24.926  1.00  0.00     0.041 C 
ATOM     12  O   UNL     1      99.448  -1.475 -25.009  1.00  0.00    -0.550 OA
ATOM     13  O   UNL     1      99.951   0.338 -23.701  1.00  0.00    -0.550 OA
ENDBRANCH  10  11
ENDBRANCH   9  10
ENDBRANCH   8   9
ENDBRANCH   1   8
TORSDOF 8
ENDMDL
MODEL 6
REMARK VINA RESULT:    -3.642      3.090      5.220
REMARK INTER + INTRA:          -5.838
REMARK INTER:                  -5.250
REMARK INTRA:                  -0.588
REMARK UNBOUND:                -0.493
REMARK SMILES O=C([O-])CCCCCCCC(=O)[O-]
REMARK SMILES IDX 7 1 6 2 5 3 4 4 2 5 1 6 3 7 8 8 9 9 10 10 11 11 12 12 13 13
REMARK H PARENT
REMARK Flexibility Score: inf
ROOT
ATOM      1  C   UNL     1      98.618   4.546 -26.791  1.00  0.00     0.000 C 
ENDROOT
BRANCH   1   2
ATOM      2  C   UNL     1      99.890   4.525 -27.657  1.00  0.00     0.000 C 
BRANCH   2   3
ATOM      3  C   UNL     1      99.590   4.254 -29.140  1.00  0.00     0.006 C 
BRANCH   3   4
ATOM      4  C   UNL     1      98.099   4.391 -29.477  1.00  0.00     0.053 C 
BRANCH   4   5
ATOM      5  C   UNL     1      97.521   3.058 -29.834  1.00  0.00     0.041 C 
ATOM      6  O   UNL     1      96.427   2.987 -30.452  1.00  0.00    -0.550 OA
ATOM      7  O   UNL     1      98.214   1.895 -29.526  1.00  0.00    -0.550 OA
ENDBRANCH   4   5
ENDBRANCH   3   4
ENDBRANCH   2   3
ENDBRANCH   1   2
BRANCH   1   8
ATOM      8  C   UNL     1      98.555   3.367 -25.807  1.00  0.00     0.000 C 
BRANCH   8   9
ATOM      9  C   UNL     1      97.119   3.017 -25.390  1.00  0.00     0.006 C 
BRANCH   9  10
ATOM     10  C   UNL     1      96.103   3.621 -26.365  1.00  0.00     0.053 C 
BRANCH  10  11
ATOM     11  C   UNL     1      94.769   3.775 -25.705  1.00  0.00     0.041 C 
ATOM     12  O   UNL     1      94.511   3.151 -24.642  1.00  0.00    -0.550 OA
ATOM     13  O   UNL     1      93.827   4.647 -26.237  1.00  0.00    -0.550 OA
ENDBRANCH  10  11
ENDBRANCH   9  10
ENDBRANCH   8   9
ENDBRANCH   1   8
TORSDOF 8
ENDMDL
MODEL 7
REMARK VINA RESULT:    -3.613      3.078      3.800
REMARK INTER + INTRA:          -5.796
REMARK INTER:                  -5.236
REMARK INTRA:                  -0.560
REMARK UNBOUND:                -0.493
REMARK SMILES O=C([O-])CCCCCCCC(=O)[O-]
REMARK SMILES IDX 7 1 6 2 5 3 4 4 2 5 1 6 3 7 8 8 9 9 10 10 11 11 12 12 13 13
REMARK H PARENT
REMARK Flexibility Score: inf
ROOT
ATOM      1  C   UNL     1      97.999   4.531 -27.383  1.00  0.00     0.000 C 
ENDROOT
BRANCH   1   2
ATOM      2  C   UNL     1      98.346   3.746 -26.106  1.00  0.00     0.000 C 
BRANCH   2   3
ATOM      3  C   UNL     1      97.362   2.597 -25.835  1.00  0.00     0.006 C 
BRANCH   3   4
ATOM      4  C   UNL     1      96.304   2.958 -24.783  1.00  0.00     0.053 C 
BRANCH   4   5
ATOM      5  C   UNL     1      94.955   3.071 -25.419  1.00  0.00     0.041 C 
ATOM      6  O   UNL     1      94.078   2.193 -25.206  1.00  0.00    -0.550 OA
ATOM      7  O   UNL     1      94.648   4.172 -26.209  1.00  0.00    -0.550 OA
ENDBRANCH   4   5
ENDBRANCH   3   4
ENDBRANCH   2   3
ENDBRANCH   1   2
BRANCH   1   8
ATOM      8  C   UNL     1      99.220   5.242 -27.989  1.00  0.00     0.000 C 
BRANCH   8   9
ATOM      9  C   UNL     1     100.125   4.292 -28.787  1.00  0.00     0.006 C 
BRANCH   9  10
ATOM     10  C   UNL     1      99.292   3.336 -29.647  1.00  0.00     0.053 C 
BRANCH  10  11
ATOM     11  C   UNL     1      99.820   1.940 -29.542  1.00  0.00     0.041 C 
ATOM     12  O   UNL     1     100.037   1.264 -30.582  1.00  0.00    -0.550 OA
ATOM     13  O   UNL     1     100.119   1.402 -28.296  1.00  0.00    -0.550 OA
ENDBRANCH  10  11
ENDBRANCH   9  10
ENDBRANCH   8   9
ENDBRANCH   1   8
TORSDOF 8
ENDMDL
MODEL 8
REMARK VINA RESULT:    -3.585      3.432      5.523
REMARK INTER + INTRA:          -5.755
REMARK INTER:                  -5.340
REMARK INTRA:                  -0.415
REMARK UNBOUND:                -0.493
REMARK SMILES O=C([O-])CCCCCCCC(=O)[O-]
REMARK SMILES IDX 7 1 6 2 5 3 4 4 2 5 1 6 3 7 8 8 9 9 10 10 11 11 12 12 13 13
REMARK H PARENT
REMARK Flexibility Score: inf
ROOT
ATOM      1  C   UNL     1      98.152   3.660 -25.349  1.00  0.00     0.000 C 
ENDROOT
BRANCH   1   2
ATOM      2  C   UNL     1      98.958   3.526 -26.654  1.00  0.00     0.000 C 
BRANCH   2   3
ATOM      3  C   UNL     1      99.283   4.888 -27.288  1.00  0.00     0.006 C 
BRANCH   3   4
ATOM      4  C   UNL     1      99.980   4.757 -28.649  1.00  0.00     0.053 C 
BRANCH   4   5
ATOM      5  C   UNL     1      99.177   3.889 -29.564  1.00  0.00     0.041 C 
ATOM      6  O   UNL     1      99.691   2.859 -30.075  1.00  0.00    -0.550 OA
ATOM      7  O   UNL     1      97.844   4.188 -29.815  1.00  0.00    -0.550 OA
ENDBRANCH   4   5
ENDBRANCH   3   4
ENDBRANCH   2   3
ENDBRANCH   1   2
BRANCH   1   8
ATOM      8  C   UNL     1      96.757   3.021 -25.449  1.00  0.00     0.000 C 
BRANCH   8   9
ATOM      9  C   UNL     1      96.038   3.366 -26.761  1.00  0.00     0.006 C 
BRANCH   9  10
ATOM     10  C   UNL     1      94.525   3.175 -26.622  1.00  0.00     0.053 C 
BRANCH  10  11
ATOM     11  C   UNL     1      93.945   4.219 -25.720  1.00  0.00     0.041 C 
ATOM     12  O   UNL     1      93.787   5.398 -26.133  1.00  0.00    -0.550 OA
ATOM     13  O   UNL     1      93.534   3.878 -24.437  1.00  0.00    -0.550 OA
ENDBRANCH  10  11
ENDBRANCH   9  10
ENDBRANCH   8   9
ENDBRANCH   1   8
TORSDOF 8
ENDMDL
