MODEL 1
REMARK VINA RESULT:    -4.268      0.000      0.000
REMARK INTER + INTRA:         -13.293
REMARK INTER:                  -9.258
REMARK INTRA:                  -4.035
REMARK UNBOUND:                -4.035
REMARK SMILES CCCCCCCCCCCCCCCCCCCCCC(=O)[O-]
REMARK SMILES IDX 12 1 11 2 10 3 9 4 8 5 7 6 6 7 5 8 4 9 3 10 2 11 1 12 13 13
REMARK SMILES IDX 14 14 15 15 16 16 17 17 18 18 19 19 20 20 21 21 22 22 23 23
REMARK SMILES IDX 24 24
REMARK H PARENT
REMARK Flexibility Score: inf
ROOT
ATOM      1  C   UNL     1       7.511  -7.419 -35.986  1.00  0.00     0.000 C 
ENDROOT
BRANCH   1   2
ATOM      2  C   UNL     1       6.175  -8.177 -36.038  1.00  0.00     0.000 C 
BRANCH   2   3
ATOM      3  C   UNL     1       5.522  -8.326 -34.652  1.00  0.00     0.000 C 
BRANCH   3   4
ATOM      4  C   UNL     1       5.199  -6.967 -34.002  1.00  0.00    -0.000 C 
BRANCH   4   5
ATOM      5  C   UNL     1       5.111  -7.004 -32.465  1.00  0.00    -0.000 C 
BRANCH   5   6
ATOM      6  C   UNL     1       6.489  -7.162 -31.798  1.00  0.00    -0.000 C 
BRANCH   6   7
ATOM      7  C   UNL     1       7.311  -5.864 -31.830  1.00  0.00    -0.000 C 
BRANCH   7   8
ATOM      8  C   UNL     1       8.348  -5.847 -32.968  1.00  0.00    -0.000 C 
BRANCH   8   9
ATOM      9  C   UNL     1       8.343  -4.525 -33.754  1.00  0.00    -0.000 C 
BRANCH   9  10
ATOM     10  C   UNL     1       6.955  -3.862 -33.784  1.00  0.00    -0.000 C 
BRANCH  10  11
ATOM     11  C   UNL     1       6.926  -2.599 -34.660  1.00  0.00    -0.003 C 
ATOM     12  C   UNL     1       8.130  -2.500 -35.597  1.00  0.00     0.004 C 
ENDBRANCH  10  11
ENDBRANCH   9  10
ENDBRANCH   8   9
ENDBRANCH   7   8
ENDBRANCH   6   7
ENDBRANCH   5   6
ENDBRANCH   4   5
ENDBRANCH   3   4
ENDBRANCH   2   3
ENDBRANCH   1   2
BRANCH   1  13
ATOM     13  C   UNL     1       7.621  -6.334 -37.066  1.00  0.00     0.000 C 
BRANCH  13  14
ATOM     14  C   UNL     1       6.254  -6.057 -37.710  1.00  0.00     0.000 C 
BRANCH  14  15
ATOM     15  C   UNL     1       5.669  -4.688 -37.314  1.00  0.00     0.000 C 
BRANCH  15  16
ATOM     16  C   UNL     1       4.203  -4.719 -36.844  1.00  0.00     0.000 C 
BRANCH  16  17
ATOM     17  C   UNL     1       3.437  -5.953 -37.353  1.00  0.00     0.000 C 
BRANCH  17  18
ATOM     18  C   UNL     1       2.340  -6.407 -36.378  1.00  0.00     0.000 C 
BRANCH  18  19
ATOM     19  C   UNL     1       2.194  -7.936 -36.329  1.00  0.00     0.000 C 
BRANCH  19  20
ATOM     20  C   UNL     1       1.127  -8.354 -35.307  1.00  0.00     0.006 C 
BRANCH  20  21
ATOM     21  C   UNL     1       1.716  -8.565 -33.906  1.00  0.00     0.053 C 
BRANCH  21  22
ATOM     22  C   UNL     1       2.390  -9.896 -33.779  1.00  0.00     0.041 C 
ATOM     23  O   UNL     1       3.198 -10.110 -32.837  1.00  0.00    -0.550 OA
ATOM     24  O   UNL     1       2.150 -10.891 -34.720  1.00  0.00    -0.550 OA
ENDBRANCH  21  22
ENDBRANCH  20  21
ENDBRANCH  19  20
ENDBRANCH  18  19
ENDBRANCH  17  18
ENDBRANCH  16  17
ENDBRANCH  15  16
ENDBRANCH  14  15
ENDBRANCH  13  14
ENDBRANCH   1  13
TORSDOF 20
ENDMDL
MODEL 2
REMARK VINA RESULT:    -4.152      1.255      2.299
REMARK INTER + INTRA:         -13.041
REMARK INTER:                  -9.427
REMARK INTRA:                  -3.614
REMARK UNBOUND:                -4.035
REMARK SMILES CCCCCCCCCCCCCCCCCCCCCC(=O)[O-]
REMARK SMILES IDX 12 1 11 2 10 3 9 4 8 5 7 6 6 7 5 8 4 9 3 10 2 11 1 12 13 13
REMARK SMILES IDX 14 14 15 15 16 16 17 17 18 18 19 19 20 20 21 21 22 22 23 23
REMARK SMILES IDX 24 24
REMARK H PARENT
REMARK Flexibility Score: inf
ROOT
ATOM      1  C   UNL     1       5.755  -7.663 -35.420  1.00  0.00     0.000 C 
ENDROOT
BRANCH   1   2
ATOM      2  C   UNL     1       5.204  -8.803 -34.548  1.00  0.00     0.000 C 
BRANCH   2   3
ATOM      3  C   UNL     1       5.198  -8.453 -33.048  1.00  0.00     0.000 C 
BRANCH   3   4
ATOM      4  C   UNL     1       5.443  -6.955 -32.790  1.00  0.00    -0.000 C 
BRANCH   4   5
ATOM      5  C   UNL     1       6.197  -6.651 -31.482  1.00  0.00    -0.000 C 
BRANCH   5   6
ATOM      6  C   UNL     1       7.280  -5.572 -31.661  1.00  0.00    -0.000 C 
BRANCH   6   7
ATOM      7  C   UNL     1       8.237  -5.885 -32.823  1.00  0.00    -0.000 C 
BRANCH   7   8
ATOM      8  C   UNL     1       8.206  -4.808 -33.922  1.00  0.00    -0.000 C 
BRANCH   8   9
ATOM      9  C   UNL     1       7.618  -3.474 -33.430  1.00  0.00    -0.000 C 
BRANCH   9  10
ATOM     10  C   UNL     1       6.554  -2.911 -34.387  1.00  0.00    -0.000 C 
BRANCH  10  11
ATOM     11  C   UNL     1       5.621  -4.001 -34.937  1.00  0.00    -0.003 C 
ATOM     12  C   UNL     1       5.536  -3.993 -36.464  1.00  0.00     0.004 C 
ENDBRANCH  10  11
ENDBRANCH   9  10
ENDBRANCH   8   9
ENDBRANCH   7   8
ENDBRANCH   6   7
ENDBRANCH   5   6
ENDBRANCH   4   5
ENDBRANCH   3   4
ENDBRANCH   2   3
ENDBRANCH   1   2
BRANCH   1  13
ATOM     13  C   UNL     1       5.395  -7.824 -36.904  1.00  0.00     0.000 C 
BRANCH  13  14
ATOM     14  C   UNL     1       4.401  -8.977 -37.108  1.00  0.00     0.000 C 
BRANCH  14  15
ATOM     15  C   UNL     1       3.026  -8.502 -37.615  1.00  0.00     0.000 C 
BRANCH  15  16
ATOM     16  C   UNL     1       2.707  -7.022 -37.338  1.00  0.00     0.000 C 
BRANCH  16  17
ATOM     17  C   UNL     1       2.154  -6.783 -35.922  1.00  0.00     0.000 C 
BRANCH  17  18
ATOM     18  C   UNL     1       1.279  -7.945 -35.428  1.00  0.00     0.000 C 
BRANCH  18  19
ATOM     19  C   UNL     1       0.999  -7.871 -33.919  1.00  0.00     0.000 C 
BRANCH  19  20
ATOM     20  C   UNL     1       1.265  -9.223 -33.243  1.00  0.00     0.006 C 
BRANCH  20  21
ATOM     21  C   UNL     1       2.003 -10.201 -34.169  1.00  0.00     0.053 C 
BRANCH  21  22
ATOM     22  C   UNL     1       2.634 -11.323 -33.404  1.00  0.00     0.041 C 
ATOM     23  O   UNL     1       2.760 -12.458 -33.934  1.00  0.00    -0.550 OA
ATOM     24  O   UNL     1       3.055 -11.124 -32.094  1.00  0.00    -0.550 OA
ENDBRANCH  21  22
ENDBRANCH  20  21
ENDBRANCH  19  20
ENDBRANCH  18  19
ENDBRANCH  17  18
ENDBRANCH  16  17
ENDBRANCH  15  16
ENDBRANCH  14  15
ENDBRANCH  13  14
ENDBRANCH   1  13
TORSDOF 20
ENDMDL
MODEL 3
REMARK VINA RESULT:    -4.078      1.311      3.575
REMARK INTER + INTRA:         -12.881
REMARK INTER:                  -9.482
REMARK INTRA:                  -3.400
REMARK UNBOUND:                -4.035
REMARK SMILES CCCCCCCCCCCCCCCCCCCCCC(=O)[O-]
REMARK SMILES IDX 12 1 11 2 10 3 9 4 8 5 7 6 6 7 5 8 4 9 3 10 2 11 1 12 13 13
REMARK SMILES IDX 14 14 15 15 16 16 17 17 18 18 19 19 20 20 21 21 22 22 23 23
REMARK SMILES IDX 24 24
REMARK H PARENT
REMARK Flexibility Score: inf
ROOT
ATOM      1  C   UNL     1       6.092  -7.113 -35.499  1.00  0.00     0.000 C 
ENDROOT
BRANCH   1   2
ATOM      2  C   UNL     1       7.427  -7.216 -36.253  1.00  0.00     0.000 C 
BRANCH   2   3
ATOM      3  C   UNL     1       7.532  -6.211 -37.415  1.00  0.00     0.000 C 
BRANCH   3   4
ATOM      4  C   UNL     1       6.764  -4.905 -37.137  1.00  0.00    -0.000 C 
BRANCH   4   5
ATOM      5  C   UNL     1       7.657  -3.654 -37.035  1.00  0.00    -0.000 C 
BRANCH   5   6
ATOM      6  C   UNL     1       7.322  -2.788 -35.808  1.00  0.00    -0.000 C 
BRANCH   6   7
ATOM      7  C   UNL     1       6.316  -3.465 -34.864  1.00  0.00    -0.000 C 
BRANCH   7   8
ATOM      8  C   UNL     1       6.934  -3.832 -33.503  1.00  0.00    -0.000 C 
BRANCH   8   9
ATOM      9  C   UNL     1       8.240  -4.632 -33.640  1.00  0.00    -0.000 C 
BRANCH   9  10
ATOM     10  C   UNL     1       8.266  -5.877 -32.736  1.00  0.00    -0.000 C 
BRANCH  10  11
ATOM     11  C   UNL     1       7.323  -5.747 -31.530  1.00  0.00    -0.003 C 
ATOM     12  C   UNL     1       6.368  -6.934 -31.394  1.00  0.00     0.004 C 
ENDBRANCH  10  11
ENDBRANCH   9  10
ENDBRANCH   8   9
ENDBRANCH   7   8
ENDBRANCH   6   7
ENDBRANCH   5   6
ENDBRANCH   4   5
ENDBRANCH   3   4
ENDBRANCH   2   3
ENDBRANCH   1   2
BRANCH   1  13
ATOM     13  C   UNL     1       5.349  -8.454 -35.422  1.00  0.00     0.000 C 
BRANCH  13  14
ATOM     14  C   UNL     1       4.382  -8.617 -36.605  1.00  0.00     0.000 C 
BRANCH  14  15
ATOM     15  C   UNL     1       3.808  -7.277 -37.101  1.00  0.00     0.000 C 
BRANCH  15  16
ATOM     16  C   UNL     1       2.518  -6.820 -36.395  1.00  0.00     0.000 C 
BRANCH  16  17
ATOM     17  C   UNL     1       1.656  -7.997 -35.906  1.00  0.00     0.000 C 
BRANCH  17  18
ATOM     18  C   UNL     1       1.168  -7.810 -34.461  1.00  0.00     0.000 C 
BRANCH  18  19
ATOM     19  C   UNL     1       2.053  -8.544 -33.442  1.00  0.00     0.000 C 
BRANCH  19  20
ATOM     20  C   UNL     1       1.814 -10.059 -33.497  1.00  0.00     0.006 C 
BRANCH  20  21
ATOM     21  C   UNL     1       3.120 -10.848 -33.659  1.00  0.00     0.053 C 
BRANCH  21  22
ATOM     22  C   UNL     1       3.882 -10.934 -32.372  1.00  0.00     0.041 C 
ATOM     23  O   UNL     1       3.402 -11.563 -31.393  1.00  0.00    -0.550 OA
ATOM     24  O   UNL     1       5.109 -10.293 -32.245  1.00  0.00    -0.550 OA
ENDBRANCH  21  22
ENDBRANCH  20  21
ENDBRANCH  19  20
ENDBRANCH  18  19
ENDBRANCH  17  18
ENDBRANCH  16  17
ENDBRANCH  15  16
ENDBRANCH  14  15
ENDBRANCH  13  14
ENDBRANCH   1  13
TORSDOF 20
ENDMDL
MODEL 4
REMARK VINA RESULT:    -4.034      0.973      3.270
REMARK INTER + INTRA:         -12.786
REMARK INTER:                  -9.560
REMARK INTRA:                  -3.226
REMARK UNBOUND:                -4.035
REMARK SMILES CCCCCCCCCCCCCCCCCCCCCC(=O)[O-]
REMARK SMILES IDX 12 1 11 2 10 3 9 4 8 5 7 6 6 7 5 8 4 9 3 10 2 11 1 12 13 13
REMARK SMILES IDX 14 14 15 15 16 16 17 17 18 18 19 19 20 20 21 21 22 22 23 23
REMARK SMILES IDX 24 24
REMARK H PARENT
REMARK Flexibility Score: inf
ROOT
ATOM      1  C   UNL     1       5.609  -3.553 -35.943  1.00  0.00     0.000 C 
ENDROOT
BRANCH   1   2
ATOM      2  C   UNL     1       7.039  -2.997 -35.848  1.00  0.00     0.000 C 
BRANCH   2   3
ATOM      3  C   UNL     1       7.505  -2.803 -34.393  1.00  0.00     0.000 C 
BRANCH   3   4
ATOM      4  C   UNL     1       8.023  -4.107 -33.760  1.00  0.00    -0.000 C 
BRANCH   4   5
ATOM      5  C   UNL     1       7.262  -4.545 -32.495  1.00  0.00    -0.000 C 
BRANCH   5   6
ATOM      6  C   UNL     1       7.340  -6.063 -32.253  1.00  0.00    -0.000 C 
BRANCH   6   7
ATOM      7  C   UNL     1       5.981  -6.670 -31.872  1.00  0.00    -0.000 C 
BRANCH   7   8
ATOM      8  C   UNL     1       5.408  -7.581 -32.973  1.00  0.00    -0.000 C 
BRANCH   8   9
ATOM      9  C   UNL     1       5.416  -6.913 -34.358  1.00  0.00    -0.000 C 
BRANCH   9  10
ATOM     10  C   UNL     1       6.156  -7.753 -35.413  1.00  0.00    -0.000 C 
BRANCH  10  11
ATOM     11  C   UNL     1       7.525  -7.162 -35.782  1.00  0.00    -0.003 C 
ATOM     12  C   UNL     1       7.613  -6.742 -37.250  1.00  0.00     0.004 C 
ENDBRANCH  10  11
ENDBRANCH   9  10
ENDBRANCH   8   9
ENDBRANCH   7   8
ENDBRANCH   6   7
ENDBRANCH   5   6
ENDBRANCH   4   5
ENDBRANCH   3   4
ENDBRANCH   2   3
ENDBRANCH   1   2
BRANCH   1  13
ATOM     13  C   UNL     1       5.215  -3.937 -37.376  1.00  0.00     0.000 C 
BRANCH  13  14
ATOM     14  C   UNL     1       3.689  -3.926 -37.550  1.00  0.00     0.000 C 
BRANCH  14  15
ATOM     15  C   UNL     1       2.996  -5.115 -36.858  1.00  0.00     0.000 C 
BRANCH  15  16
ATOM     16  C   UNL     1       3.320  -6.495 -37.458  1.00  0.00     0.000 C 
BRANCH  16  17
ATOM     17  C   UNL     1       2.334  -7.589 -37.009  1.00  0.00     0.000 C 
BRANCH  17  18
ATOM     18  C   UNL     1       1.607  -7.226 -35.706  1.00  0.00     0.000 C 
BRANCH  18  19
ATOM     19  C   UNL     1       1.103  -8.465 -34.949  1.00  0.00     0.000 C 
BRANCH  19  20
ATOM     20  C   UNL     1       1.649  -8.494 -33.515  1.00  0.00     0.006 C 
BRANCH  20  21
ATOM     21  C   UNL     1       1.598  -9.900 -32.901  1.00  0.00     0.053 C 
BRANCH  21  22
ATOM     22  C   UNL     1       2.922 -10.593 -32.987  1.00  0.00     0.041 C 
ATOM     23  O   UNL     1       3.359 -11.249 -32.004  1.00  0.00    -0.550 OA
ATOM     24  O   UNL     1       3.690 -10.490 -34.141  1.00  0.00    -0.550 OA
ENDBRANCH  21  22
ENDBRANCH  20  21
ENDBRANCH  19  20
ENDBRANCH  18  19
ENDBRANCH  17  18
ENDBRANCH  16  17
ENDBRANCH  15  16
ENDBRANCH  14  15
ENDBRANCH  13  14
ENDBRANCH   1  13
TORSDOF 20
ENDMDL
MODEL 5
REMARK VINA RESULT:    -4.008      2.331      6.013
REMARK INTER + INTRA:         -12.730
REMARK INTER:                  -8.937
REMARK INTRA:                  -3.793
REMARK UNBOUND:                -4.035
REMARK SMILES CCCCCCCCCCCCCCCCCCCCCC(=O)[O-]
REMARK SMILES IDX 12 1 11 2 10 3 9 4 8 5 7 6 6 7 5 8 4 9 3 10 2 11 1 12 13 13
REMARK SMILES IDX 14 14 15 15 16 16 17 17 18 18 19 19 20 20 21 21 22 22 23 23
REMARK SMILES IDX 24 24
REMARK H PARENT
REMARK Flexibility Score: inf
ROOT
ATOM      1  C   UNL     1       6.056  -7.896 -35.766  1.00  0.00     0.000 C 
ENDROOT
BRANCH   1   2
ATOM      2  C   UNL     1       5.393  -8.472 -37.027  1.00  0.00     0.000 C 
BRANCH   2   3
ATOM      3  C   UNL     1       4.002  -7.868 -37.295  1.00  0.00     0.000 C 
BRANCH   3   4
ATOM      4  C   UNL     1       3.536  -6.933 -36.163  1.00  0.00    -0.000 C 
BRANCH   4   5
ATOM      5  C   UNL     1       2.011  -6.736 -36.090  1.00  0.00    -0.000 C 
BRANCH   5   6
ATOM      6  C   UNL     1       1.305  -7.866 -35.320  1.00  0.00    -0.000 C 
BRANCH   6   7
ATOM      7  C   UNL     1       1.777  -7.969 -33.861  1.00  0.00    -0.000 C 
BRANCH   7   8
ATOM      8  C   UNL     1       2.414  -9.333 -33.539  1.00  0.00    -0.000 C 
BRANCH   8   9
ATOM      9  C   UNL     1       2.019 -10.425 -34.548  1.00  0.00    -0.000 C 
BRANCH   9  10
ATOM     10  C   UNL     1       3.233 -11.001 -35.298  1.00  0.00    -0.000 C 
BRANCH  10  11
ATOM     11  C   UNL     1       2.912 -11.343 -36.761  1.00  0.00    -0.003 C 
ATOM     12  C   UNL     1       1.432 -11.160 -37.101  1.00  0.00     0.004 C 
ENDBRANCH  10  11
ENDBRANCH   9  10
ENDBRANCH   8   9
ENDBRANCH   7   8
ENDBRANCH   6   7
ENDBRANCH   5   6
ENDBRANCH   4   5
ENDBRANCH   3   4
ENDBRANCH   2   3
ENDBRANCH   1   2
BRANCH   1  13
ATOM     13  C   UNL     1       7.493  -7.415 -36.018  1.00  0.00     0.000 C 
BRANCH  13  14
ATOM     14  C   UNL     1       7.618  -6.752 -37.398  1.00  0.00     0.000 C 
BRANCH  14  15
ATOM     15  C   UNL     1       7.408  -5.227 -37.354  1.00  0.00     0.000 C 
BRANCH  15  16
ATOM     16  C   UNL     1       6.001  -4.752 -37.761  1.00  0.00     0.000 C 
BRANCH  16  17
ATOM     17  C   UNL     1       5.559  -3.482 -37.013  1.00  0.00     0.000 C 
BRANCH  17  18
ATOM     18  C   UNL     1       5.469  -3.695 -35.494  1.00  0.00     0.000 C 
BRANCH  18  19
ATOM     19  C   UNL     1       6.417  -2.772 -34.714  1.00  0.00     0.000 C 
BRANCH  19  20
ATOM     20  C   UNL     1       6.961  -3.474 -33.461  1.00  0.00     0.006 C 
BRANCH  20  21
ATOM     21  C   UNL     1       6.605  -4.967 -33.430  1.00  0.00     0.053 C 
BRANCH  21  22
ATOM     22  C   UNL     1       7.490  -5.731 -32.495  1.00  0.00     0.041 C 
ATOM     23  O   UNL     1       7.080  -6.041 -31.346  1.00  0.00    -0.550 OA
ATOM     24  O   UNL     1       8.781  -6.074 -32.881  1.00  0.00    -0.550 OA
ENDBRANCH  21  22
ENDBRANCH  20  21
ENDBRANCH  19  20
ENDBRANCH  18  19
ENDBRANCH  17  18
ENDBRANCH  16  17
ENDBRANCH  15  16
ENDBRANCH  14  15
ENDBRANCH  13  14
ENDBRANCH   1  13
TORSDOF 20
ENDMDL
MODEL 6
REMARK VINA RESULT:    -4.001      2.526      6.201
REMARK INTER + INTRA:         -12.713
REMARK INTER:                  -9.794
REMARK INTRA:                  -2.919
REMARK UNBOUND:                -4.035
REMARK SMILES CCCCCCCCCCCCCCCCCCCCCC(=O)[O-]
REMARK SMILES IDX 12 1 11 2 10 3 9 4 8 5 7 6 6 7 5 8 4 9 3 10 2 11 1 12 13 13
REMARK SMILES IDX 14 14 15 15 16 16 17 17 18 18 19 19 20 20 21 21 22 22 23 23
REMARK SMILES IDX 24 24
REMARK H PARENT
REMARK Flexibility Score: inf
ROOT
ATOM      1  C   UNL     1       5.284  -3.186 -35.616  1.00  0.00     0.000 C 
ENDROOT
BRANCH   1   2
ATOM      2  C   UNL     1       3.909  -2.749 -36.146  1.00  0.00     0.000 C 
BRANCH   2   3
ATOM      3  C   UNL     1       3.454  -3.572 -37.365  1.00  0.00     0.000 C 
BRANCH   3   4
ATOM      4  C   UNL     1       2.870  -4.941 -36.969  1.00  0.00    -0.000 C 
BRANCH   4   5
ATOM      5  C   UNL     1       3.590  -6.145 -37.603  1.00  0.00    -0.000 C 
BRANCH   5   6
ATOM      6  C   UNL     1       2.628  -7.297 -37.943  1.00  0.00    -0.000 C 
BRANCH   6   7
ATOM      7  C   UNL     1       3.035  -8.622 -37.278  1.00  0.00    -0.000 C 
BRANCH   7   8
ATOM      8  C   UNL     1       1.875  -9.283 -36.512  1.00  0.00    -0.000 C 
BRANCH   8   9
ATOM      9  C   UNL     1       1.138  -8.299 -35.587  1.00  0.00    -0.000 C 
BRANCH   9  10
ATOM     10  C   UNL     1       1.906  -8.030 -34.282  1.00  0.00    -0.000 C 
BRANCH  10  11
ATOM     11  C   UNL     1       1.270  -8.730 -33.071  1.00  0.00    -0.003 C 
ATOM     12  C   UNL     1       1.766 -10.166 -32.889  1.00  0.00     0.004 C 
ENDBRANCH  10  11
ENDBRANCH   9  10
ENDBRANCH   8   9
ENDBRANCH   7   8
ENDBRANCH   6   7
ENDBRANCH   5   6
ENDBRANCH   4   5
ENDBRANCH   3   4
ENDBRANCH   2   3
ENDBRANCH   1   2
BRANCH   1  13
ATOM     13  C   UNL     1       6.442  -2.712 -36.506  1.00  0.00     0.000 C 
BRANCH  13  14
ATOM     14  C   UNL     1       7.595  -3.727 -36.497  1.00  0.00     0.000 C 
BRANCH  14  15
ATOM     15  C   UNL     1       7.165  -5.130 -36.966  1.00  0.00     0.000 C 
BRANCH  15  16
ATOM     16  C   UNL     1       7.485  -6.271 -35.983  1.00  0.00     0.000 C 
BRANCH  16  17
ATOM     17  C   UNL     1       6.536  -7.473 -36.132  1.00  0.00     0.000 C 
BRANCH  17  18
ATOM     18  C   UNL     1       5.658  -7.689 -34.890  1.00  0.00     0.000 C 
BRANCH  18  19
ATOM     19  C   UNL     1       5.695  -6.490 -33.929  1.00  0.00     0.000 C 
BRANCH  19  20
ATOM     20  C   UNL     1       5.429  -6.936 -32.484  1.00  0.00     0.006 C 
BRANCH  20  21
ATOM     21  C   UNL     1       6.605  -6.617 -31.551  1.00  0.00     0.053 C 
BRANCH  21  22
ATOM     22  C   UNL     1       7.558  -5.641 -32.170  1.00  0.00     0.041 C 
ATOM     23  O   UNL     1       7.273  -4.416 -32.210  1.00  0.00    -0.550 OA
ATOM     24  O   UNL     1       8.748  -6.090 -32.731  1.00  0.00    -0.550 OA
ENDBRANCH  21  22
ENDBRANCH  20  21
ENDBRANCH  19  20
ENDBRANCH  18  19
ENDBRANCH  17  18
ENDBRANCH  16  17
ENDBRANCH  15  16
ENDBRANCH  14  15
ENDBRANCH  13  14
ENDBRANCH   1  13
TORSDOF 20
ENDMDL
MODEL 7
REMARK VINA RESULT:    -3.961      3.093      7.027
REMARK INTER + INTRA:         -12.626
REMARK INTER:                  -9.506
REMARK INTRA:                  -3.120
REMARK UNBOUND:                -4.035
REMARK SMILES CCCCCCCCCCCCCCCCCCCCCC(=O)[O-]
REMARK SMILES IDX 12 1 11 2 10 3 9 4 8 5 7 6 6 7 5 8 4 9 3 10 2 11 1 12 13 13
REMARK SMILES IDX 14 14 15 15 16 16 17 17 18 18 19 19 20 20 21 21 22 22 23 23
REMARK SMILES IDX 24 24
REMARK H PARENT
REMARK Flexibility Score: inf
ROOT
ATOM      1  C   UNL     1       6.101  -8.095 -36.018  1.00  0.00     0.000 C 
ENDROOT
BRANCH   1   2
ATOM      2  C   UNL     1       5.614  -6.864 -36.799  1.00  0.00     0.000 C 
BRANCH   2   3
ATOM      3  C   UNL     1       4.270  -7.106 -37.511  1.00  0.00     0.000 C 
BRANCH   3   4
ATOM      4  C   UNL     1       3.228  -6.019 -37.192  1.00  0.00    -0.000 C 
BRANCH   4   5
ATOM      5  C   UNL     1       2.031  -6.512 -36.358  1.00  0.00    -0.000 C 
BRANCH   5   6
ATOM      6  C   UNL     1       1.938  -8.048 -36.310  1.00  0.00    -0.000 C 
BRANCH   6   7
ATOM      7  C   UNL     1       0.905  -8.544 -35.286  1.00  0.00    -0.000 C 
BRANCH   7   8
ATOM      8  C   UNL     1       1.207  -8.058 -33.856  1.00  0.00    -0.000 C 
BRANCH   8   9
ATOM      9  C   UNL     1       1.360  -9.217 -32.856  1.00  0.00    -0.000 C 
BRANCH   9  10
ATOM     10  C   UNL     1       2.314 -10.311 -33.363  1.00  0.00    -0.000 C 
BRANCH  10  11
ATOM     11  C   UNL     1       2.770 -11.259 -32.243  1.00  0.00    -0.003 C 
ATOM     12  C   UNL     1       1.638 -12.142 -31.716  1.00  0.00     0.004 C 
ENDBRANCH  10  11
ENDBRANCH   9  10
ENDBRANCH   8   9
ENDBRANCH   7   8
ENDBRANCH   6   7
ENDBRANCH   5   6
ENDBRANCH   4   5
ENDBRANCH   3   4
ENDBRANCH   2   3
ENDBRANCH   1   2
BRANCH   1  13
ATOM     13  C   UNL     1       5.254  -8.380 -34.770  1.00  0.00     0.000 C 
BRANCH  13  14
ATOM     14  C   UNL     1       5.042  -7.102 -33.943  1.00  0.00     0.000 C 
BRANCH  14  15
ATOM     15  C   UNL     1       5.450  -7.266 -32.467  1.00  0.00     0.000 C 
BRANCH  15  16
ATOM     16  C   UNL     1       6.512  -6.268 -31.971  1.00  0.00     0.000 C 
BRANCH  16  17
ATOM     17  C   UNL     1       7.200  -5.507 -33.118  1.00  0.00     0.000 C 
BRANCH  17  18
ATOM     18  C   UNL     1       7.390  -4.015 -32.803  1.00  0.00     0.000 C 
BRANCH  18  19
ATOM     19  C   UNL     1       6.516  -3.112 -33.686  1.00  0.00     0.000 C 
BRANCH  19  20
ATOM     20  C   UNL     1       6.130  -3.824 -34.990  1.00  0.00     0.006 C 
BRANCH  20  21
ATOM     21  C   UNL     1       5.032  -3.076 -35.758  1.00  0.00     0.053 C 
BRANCH  21  22
ATOM     22  C   UNL     1       5.591  -2.288 -36.903  1.00  0.00     0.041 C 
ATOM     23  O   UNL     1       4.832  -1.578 -37.613  1.00  0.00    -0.550 OA
ATOM     24  O   UNL     1       6.946  -2.363 -37.204  1.00  0.00    -0.550 OA
ENDBRANCH  21  22
ENDBRANCH  20  21
ENDBRANCH  19  20
ENDBRANCH  18  19
ENDBRANCH  17  18
ENDBRANCH  16  17
ENDBRANCH  15  16
ENDBRANCH  14  15
ENDBRANCH  13  14
ENDBRANCH   1  13
TORSDOF 20
ENDMDL
MODEL 8
REMARK VINA RESULT:    -3.894      2.278      5.614
REMARK INTER + INTRA:         -12.481
REMARK INTER:                  -8.757
REMARK INTRA:                  -3.724
REMARK UNBOUND:                -4.035
REMARK SMILES CCCCCCCCCCCCCCCCCCCCCC(=O)[O-]
REMARK SMILES IDX 12 1 11 2 10 3 9 4 8 5 7 6 6 7 5 8 4 9 3 10 2 11 1 12 13 13
REMARK SMILES IDX 14 14 15 15 16 16 17 17 18 18 19 19 20 20 21 21 22 22 23 23
REMARK SMILES IDX 24 24
REMARK H PARENT
REMARK Flexibility Score: inf
ROOT
ATOM      1  C   UNL     1       6.167  -7.985 -36.505  1.00  0.00     0.000 C 
ENDROOT
BRANCH   1   2
ATOM      2  C   UNL     1       5.448  -8.085 -37.859  1.00  0.00     0.000 C 
BRANCH   2   3
ATOM      3  C   UNL     1       4.041  -7.457 -37.832  1.00  0.00     0.000 C 
BRANCH   3   4
ATOM      4  C   UNL     1       3.576  -7.113 -36.405  1.00  0.00    -0.000 C 
BRANCH   4   5
ATOM      5  C   UNL     1       2.062  -6.860 -36.276  1.00  0.00    -0.000 C 
BRANCH   5   6
ATOM      6  C   UNL     1       1.392  -7.794 -35.252  1.00  0.00    -0.000 C 
BRANCH   6   7
ATOM      7  C   UNL     1       1.437  -9.269 -35.683  1.00  0.00    -0.000 C 
BRANCH   7   8
ATOM      8  C   UNL     1       1.957 -10.196 -34.569  1.00  0.00    -0.000 C 
BRANCH   8   9
ATOM      9  C   UNL     1       3.490 -10.322 -34.571  1.00  0.00    -0.000 C 
BRANCH   9  10
ATOM     10  C   UNL     1       4.120  -9.872 -33.242  1.00  0.00    -0.000 C 
BRANCH  10  11
ATOM     11  C   UNL     1       5.177  -8.774 -33.434  1.00  0.00    -0.003 C 
ATOM     12  C   UNL     1       4.673  -7.388 -33.028  1.00  0.00     0.004 C 
ENDBRANCH  10  11
ENDBRANCH   9  10
ENDBRANCH   8   9
ENDBRANCH   7   8
ENDBRANCH   6   7
ENDBRANCH   5   6
ENDBRANCH   4   5
ENDBRANCH   3   4
ENDBRANCH   2   3
ENDBRANCH   1   2
BRANCH   1  13
ATOM     13  C   UNL     1       7.535  -7.296 -36.609  1.00  0.00     0.000 C 
BRANCH  13  14
ATOM     14  C   UNL     1       7.594  -6.368 -37.832  1.00  0.00     0.000 C 
BRANCH  14  15
ATOM     15  C   UNL     1       7.375  -4.886 -37.473  1.00  0.00     0.000 C 
BRANCH  15  16
ATOM     16  C   UNL     1       6.040  -4.290 -37.956  1.00  0.00     0.000 C 
BRANCH  16  17
ATOM     17  C   UNL     1       5.099  -3.915 -36.797  1.00  0.00     0.000 C 
BRANCH  17  18
ATOM     18  C   UNL     1       5.680  -4.282 -35.424  1.00  0.00     0.000 C 
BRANCH  18  19
ATOM     19  C   UNL     1       6.180  -3.054 -34.648  1.00  0.00     0.000 C 
BRANCH  19  20
ATOM     20  C   UNL     1       7.488  -3.365 -33.908  1.00  0.00     0.006 C 
BRANCH  20  21
ATOM     21  C   UNL     1       7.255  -4.203 -32.643  1.00  0.00     0.053 C 
BRANCH  21  22
ATOM     22  C   UNL     1       7.945  -5.531 -32.720  1.00  0.00     0.041 C 
ATOM     23  O   UNL     1       8.710  -5.792 -33.685  1.00  0.00    -0.550 OA
ATOM     24  O   UNL     1       7.717  -6.491 -31.741  1.00  0.00    -0.550 OA
ENDBRANCH  21  22
ENDBRANCH  20  21
ENDBRANCH  19  20
ENDBRANCH  18  19
ENDBRANCH  17  18
ENDBRANCH  16  17
ENDBRANCH  15  16
ENDBRANCH  14  15
ENDBRANCH  13  14
ENDBRANCH   1  13
TORSDOF 20
ENDMDL
MODEL 9
REMARK VINA RESULT:    -3.877      3.964      7.531
REMARK INTER + INTRA:         -12.446
REMARK INTER:                  -8.974
REMARK INTRA:                  -3.472
REMARK UNBOUND:                -4.035
REMARK SMILES CCCCCCCCCCCCCCCCCCCCCC(=O)[O-]
REMARK SMILES IDX 12 1 11 2 10 3 9 4 8 5 7 6 6 7 5 8 4 9 3 10 2 11 1 12 13 13
REMARK SMILES IDX 14 14 15 15 16 16 17 17 18 18 19 19 20 20 21 21 22 22 23 23
REMARK SMILES IDX 24 24
REMARK H PARENT
REMARK Flexibility Score: inf
ROOT
ATOM      1  C   UNL     1       7.343  -7.297 -36.251  1.00  0.00     0.000 C 
ENDROOT
BRANCH   1   2
ATOM      2  C   UNL     1       7.422  -6.394 -37.492  1.00  0.00     0.000 C 
BRANCH   2   3
ATOM      3  C   UNL     1       6.048  -5.833 -37.906  1.00  0.00     0.000 C 
BRANCH   3   4
ATOM      4  C   UNL     1       4.887  -6.490 -37.138  1.00  0.00    -0.000 C 
BRANCH   4   5
ATOM      5  C   UNL     1       3.757  -5.520 -36.744  1.00  0.00    -0.000 C 
BRANCH   5   6
ATOM      6  C   UNL     1       2.380  -6.204 -36.697  1.00  0.00    -0.000 C 
BRANCH   6   7
ATOM      7  C   UNL     1       2.458  -7.708 -37.003  1.00  0.00    -0.000 C 
BRANCH   7   8
ATOM      8  C   UNL     1       1.459  -8.535 -36.174  1.00  0.00    -0.000 C 
BRANCH   8   9
ATOM      9  C   UNL     1       2.129  -9.274 -35.003  1.00  0.00    -0.000 C 
BRANCH   9  10
ATOM     10  C   UNL     1       2.393  -8.353 -33.799  1.00  0.00    -0.000 C 
BRANCH  10  11
ATOM     11  C   UNL     1       3.885  -8.030 -33.622  1.00  0.00    -0.003 C 
ATOM     12  C   UNL     1       4.796  -9.034 -34.329  1.00  0.00     0.004 C 
ENDBRANCH  10  11
ENDBRANCH   9  10
ENDBRANCH   8   9
ENDBRANCH   7   8
ENDBRANCH   6   7
ENDBRANCH   5   6
ENDBRANCH   4   5
ENDBRANCH   3   4
ENDBRANCH   2   3
ENDBRANCH   1   2
BRANCH   1  13
ATOM     13  C   UNL     1       8.031  -6.680 -35.024  1.00  0.00     0.000 C 
BRANCH  13  14
ATOM     14  C   UNL     1       7.007  -5.998 -34.104  1.00  0.00     0.000 C 
BRANCH  14  15
ATOM     15  C   UNL     1       7.196  -4.471 -34.023  1.00  0.00     0.000 C 
BRANCH  15  16
ATOM     16  C   UNL     1       6.049  -3.641 -34.627  1.00  0.00     0.000 C 
BRANCH  16  17
ATOM     17  C   UNL     1       6.511  -2.733 -35.781  1.00  0.00     0.000 C 
BRANCH  17  18
ATOM     18  C   UNL     1       8.030  -2.793 -36.004  1.00  0.00     0.000 C 
BRANCH  18  19
ATOM     19  C   UNL     1       8.443  -2.260 -37.385  1.00  0.00     0.000 C 
BRANCH  19  20
ATOM     20  C   UNL     1       9.952  -1.986 -37.441  1.00  0.00     0.006 C 
BRANCH  20  21
ATOM     21  C   UNL     1      10.465  -1.297 -36.169  1.00  0.00     0.053 C 
BRANCH  21  22
ATOM     22  C   UNL     1      11.816  -1.803 -35.767  1.00  0.00     0.041 C 
ATOM     23  O   UNL     1      12.557  -2.371 -36.611  1.00  0.00    -0.550 OA
ATOM     24  O   UNL     1      12.244  -1.675 -34.450  1.00  0.00    -0.550 OA
ENDBRANCH  21  22
ENDBRANCH  20  21
ENDBRANCH  19  20
ENDBRANCH  18  19
ENDBRANCH  17  18
ENDBRANCH  16  17
ENDBRANCH  15  16
ENDBRANCH  14  15
ENDBRANCH  13  14
ENDBRANCH   1  13
TORSDOF 20
ENDMDL
