MODEL 1
REMARK VINA RESULT:    -3.305      0.000      0.000
REMARK INTER + INTRA:          -5.283
REMARK INTER:                  -4.851
REMARK INTRA:                  -0.432
REMARK UNBOUND:                -0.432
REMARK SMILES O=C([O-])CCCCCCCC(=O)[O-]
REMARK SMILES IDX 7 1 6 2 5 3 4 4 2 5 1 6 3 7 8 8 9 9 10 10 11 11 12 12 13 13
REMARK H PARENT
REMARK Flexibility Score: inf
ROOT
ATOM      1  C   UNL     1    -112.227  44.681  -0.679  1.00  0.00     0.000 C 
ENDROOT
BRANCH   1   2
ATOM      2  C   UNL     1    -110.764  45.125  -0.809  1.00  0.00     0.000 C 
BRANCH   2   3
ATOM      3  C   UNL     1    -109.929  44.060  -1.537  1.00  0.00     0.006 C 
BRANCH   3   4
ATOM      4  C   UNL     1    -109.588  42.869  -0.631  1.00  0.00     0.053 C 
BRANCH   4   5
ATOM      5  C   UNL     1    -108.169  42.922  -0.154  1.00  0.00     0.041 C 
ATOM      6  O   UNL     1    -107.326  42.091  -0.583  1.00  0.00    -0.550 OA
ATOM      7  O   UNL     1    -107.769  43.908   0.738  1.00  0.00    -0.550 OA
ENDBRANCH   4   5
ENDBRANCH   3   4
ENDBRANCH   2   3
ENDBRANCH   1   2
BRANCH   1   8
ATOM      8  C   UNL     1    -112.802  44.116  -1.990  1.00  0.00     0.000 C 
BRANCH   8   9
ATOM      9  C   UNL     1    -114.294  43.728  -1.937  1.00  0.00     0.006 C 
BRANCH   9  10
ATOM     10  C   UNL     1    -114.699  42.923  -0.693  1.00  0.00     0.053 C 
BRANCH  10  11
ATOM     11  C   UNL     1    -114.224  41.504  -0.764  1.00  0.00     0.041 C 
ATOM     12  O   UNL     1    -113.883  40.896   0.284  1.00  0.00    -0.550 OA
ATOM     13  O   UNL     1    -114.189  40.843  -1.985  1.00  0.00    -0.550 OA
ENDBRANCH  10  11
ENDBRANCH   9  10
ENDBRANCH   8   9
ENDBRANCH   1   8
TORSDOF 8
ENDMDL
MODEL 2
REMARK VINA RESULT:    -3.245      1.049      5.673
REMARK INTER + INTRA:          -5.195
REMARK INTER:                  -4.738
REMARK INTRA:                  -0.457
REMARK UNBOUND:                -0.432
REMARK SMILES O=C([O-])CCCCCCCC(=O)[O-]
REMARK SMILES IDX 7 1 6 2 5 3 4 4 2 5 1 6 3 7 8 8 9 9 10 10 11 11 12 12 13 13
REMARK H PARENT
REMARK Flexibility Score: inf
ROOT
ATOM      1  C   UNL     1    -112.389  43.956  -0.852  1.00  0.00     0.000 C 
ENDROOT
BRANCH   1   2
ATOM      2  C   UNL     1    -113.439  43.834  -1.965  1.00  0.00     0.000 C 
BRANCH   2   3
ATOM      3  C   UNL     1    -114.248  42.537  -1.817  1.00  0.00     0.006 C 
BRANCH   3   4
ATOM      4  C   UNL     1    -113.756  41.675  -0.647  1.00  0.00     0.053 C 
BRANCH   4   5
ATOM      5  C   UNL     1    -114.877  41.289   0.269  1.00  0.00     0.041 C 
ATOM      6  O   UNL     1    -116.055  41.659   0.020  1.00  0.00    -0.550 OA
ATOM      7  O   UNL     1    -114.628  40.492   1.379  1.00  0.00    -0.550 OA
ENDBRANCH   4   5
ENDBRANCH   3   4
ENDBRANCH   2   3
ENDBRANCH   1   2
BRANCH   1   8
ATOM      8  C   UNL     1    -111.221  44.887  -1.228  1.00  0.00     0.000 C 
BRANCH   8   9
ATOM      9  C   UNL     1    -109.911  44.169  -1.612  1.00  0.00     0.006 C 
BRANCH   9  10
ATOM     10  C   UNL     1    -109.593  42.926  -0.766  1.00  0.00     0.053 C 
BRANCH  10  11
ATOM     11  C   UNL     1    -108.196  42.958  -0.228  1.00  0.00     0.041 C 
ATOM     12  O   UNL     1    -107.856  43.839   0.604  1.00  0.00    -0.550 OA
ATOM     13  O   UNL     1    -107.276  41.995  -0.623  1.00  0.00    -0.550 OA
ENDBRANCH  10  11
ENDBRANCH   9  10
ENDBRANCH   8   9
ENDBRANCH   1   8
TORSDOF 8
ENDMDL
MODEL 3
REMARK VINA RESULT:    -3.091     11.437     13.828
REMARK INTER + INTRA:          -4.969
REMARK INTER:                  -4.305
REMARK INTRA:                  -0.664
REMARK UNBOUND:                -0.432
REMARK SMILES O=C([O-])CCCCCCCC(=O)[O-]
REMARK SMILES IDX 7 1 6 2 5 3 4 4 2 5 1 6 3 7 8 8 9 9 10 10 11 11 12 12 13 13
REMARK H PARENT
REMARK Flexibility Score: inf
ROOT
ATOM      1  C   UNL     1    -115.145  33.789  -8.880  1.00  0.00     0.000 C 
ENDROOT
BRANCH   1   2
ATOM      2  C   UNL     1    -116.571  33.489  -9.362  1.00  0.00     0.000 C 
BRANCH   2   3
ATOM      3  C   UNL     1    -116.648  33.508 -10.896  1.00  0.00     0.006 C 
BRANCH   3   4
ATOM      4  C   UNL     1    -115.318  33.919 -11.540  1.00  0.00     0.053 C 
BRANCH   4   5
ATOM      5  C   UNL     1    -115.133  33.286 -12.885  1.00  0.00     0.041 C 
ATOM      6  O   UNL     1    -114.524  33.904 -13.798  1.00  0.00    -0.550 OA
ATOM      7  O   UNL     1    -115.602  32.000 -13.122  1.00  0.00    -0.550 OA
ENDBRANCH   4   5
ENDBRANCH   3   4
ENDBRANCH   2   3
ENDBRANCH   1   2
BRANCH   1   8
ATOM      8  C   UNL     1    -115.103  34.806  -7.725  1.00  0.00     0.000 C 
BRANCH   8   9
ATOM      9  C   UNL     1    -116.431  35.544  -7.455  1.00  0.00     0.006 C 
BRANCH   9  10
ATOM     10  C   UNL     1    -116.366  37.066  -7.652  1.00  0.00     0.053 C 
BRANCH  10  11
ATOM     11  C   UNL     1    -115.725  37.435  -8.955  1.00  0.00     0.041 C 
ATOM     12  O   UNL     1    -116.247  37.074 -10.042  1.00  0.00    -0.550 OA
ATOM     13  O   UNL     1    -114.570  38.205  -8.969  1.00  0.00    -0.550 OA
ENDBRANCH  10  11
ENDBRANCH   9  10
ENDBRANCH   8   9
ENDBRANCH   1   8
TORSDOF 8
ENDMDL
MODEL 4
REMARK VINA RESULT:    -3.081     11.488     13.688
REMARK INTER + INTRA:          -4.955
REMARK INTER:                  -4.298
REMARK INTRA:                  -0.657
REMARK UNBOUND:                -0.432
REMARK SMILES O=C([O-])CCCCCCCC(=O)[O-]
REMARK SMILES IDX 7 1 6 2 5 3 4 4 2 5 1 6 3 7 8 8 9 9 10 10 11 11 12 12 13 13
REMARK H PARENT
REMARK Flexibility Score: inf
ROOT
ATOM      1  C   UNL     1    -115.098  33.814  -8.776  1.00  0.00     0.000 C 
ENDROOT
BRANCH   1   2
ATOM      2  C   UNL     1    -115.137  34.840  -7.636  1.00  0.00     0.000 C 
BRANCH   2   3
ATOM      3  C   UNL     1    -116.493  35.562  -7.593  1.00  0.00     0.006 C 
BRANCH   3   4
ATOM      4  C   UNL     1    -116.346  37.082  -7.741  1.00  0.00     0.053 C 
BRANCH   4   5
ATOM      5  C   UNL     1    -115.625  37.451  -9.002  1.00  0.00     0.041 C 
ATOM      6  O   UNL     1    -114.572  38.139  -8.951  1.00  0.00    -0.550 OA
ATOM      7  O   UNL     1    -116.098  37.008 -10.231  1.00  0.00    -0.550 OA
ENDBRANCH   4   5
ENDBRANCH   3   4
ENDBRANCH   2   3
ENDBRANCH   1   2
BRANCH   1   8
ATOM      8  C   UNL     1    -116.491  33.500  -9.351  1.00  0.00     0.000 C 
BRANCH   8   9
ATOM      9  C   UNL     1    -116.561  33.420 -10.889  1.00  0.00     0.006 C 
BRANCH   9  10
ATOM     10  C   UNL     1    -115.270  33.840 -11.609  1.00  0.00     0.053 C 
BRANCH  10  11
ATOM     11  C   UNL     1    -115.140  33.188 -12.951  1.00  0.00     0.041 C 
ATOM     12  O   UNL     1    -114.554  33.785 -13.892  1.00  0.00    -0.550 OA
ATOM     13  O   UNL     1    -115.636  31.907 -13.153  1.00  0.00    -0.550 OA
ENDBRANCH  10  11
ENDBRANCH   9  10
ENDBRANCH   8   9
ENDBRANCH   1   8
TORSDOF 8
ENDMDL
MODEL 5
REMARK VINA RESULT:    -3.043      9.973     12.042
REMARK INTER + INTRA:          -4.898
REMARK INTER:                  -4.307
REMARK INTRA:                  -0.591
REMARK UNBOUND:                -0.432
REMARK SMILES O=C([O-])CCCCCCCC(=O)[O-]
REMARK SMILES IDX 7 1 6 2 5 3 4 4 2 5 1 6 3 7 8 8 9 9 10 10 11 11 12 12 13 13
REMARK H PARENT
REMARK Flexibility Score: inf
ROOT
ATOM      1  C   UNL     1    -116.381  35.383  -7.376  1.00  0.00     0.000 C 
ENDROOT
BRANCH   1   2
ATOM      2  C   UNL     1    -116.436  36.889  -7.668  1.00  0.00     0.000 C 
BRANCH   2   3
ATOM      3  C   UNL     1    -115.279  37.313  -8.586  1.00  0.00     0.006 C 
BRANCH   3   4
ATOM      4  C   UNL     1    -115.629  38.546  -9.430  1.00  0.00     0.053 C 
BRANCH   4   5
ATOM      5  C   UNL     1    -114.712  39.695  -9.143  1.00  0.00     0.041 C 
ATOM      6  O   UNL     1    -114.060  40.233 -10.076  1.00  0.00    -0.550 OA
ATOM      7  O   UNL     1    -114.602  40.194  -7.851  1.00  0.00    -0.550 OA
ENDBRANCH   4   5
ENDBRANCH   3   4
ENDBRANCH   2   3
ENDBRANCH   1   2
BRANCH   1   8
ATOM      8  C   UNL     1    -115.003  34.764  -7.672  1.00  0.00     0.000 C 
BRANCH   8   9
ATOM      9  C   UNL     1    -114.993  33.693  -8.781  1.00  0.00     0.006 C 
BRANCH   9  10
ATOM     10  C   UNL     1    -116.149  33.804  -9.787  1.00  0.00     0.053 C 
BRANCH  10  11
ATOM     11  C   UNL     1    -115.690  34.331 -11.112  1.00  0.00     0.041 C 
ATOM     12  O   UNL     1    -115.893  35.534 -11.421  1.00  0.00    -0.550 OA
ATOM     13  O   UNL     1    -115.010  33.500 -11.992  1.00  0.00    -0.550 OA
ENDBRANCH  10  11
ENDBRANCH   9  10
ENDBRANCH   8   9
ENDBRANCH   1   8
TORSDOF 8
ENDMDL
MODEL 6
REMARK VINA RESULT:    -2.939     10.349     12.813
REMARK INTER + INTRA:          -4.746
REMARK INTER:                  -4.090
REMARK INTRA:                  -0.655
REMARK UNBOUND:                -0.432
REMARK SMILES O=C([O-])CCCCCCCC(=O)[O-]
REMARK SMILES IDX 7 1 6 2 5 3 4 4 2 5 1 6 3 7 8 8 9 9 10 10 11 11 12 12 13 13
REMARK H PARENT
REMARK Flexibility Score: inf
ROOT
ATOM      1  C   UNL     1    -115.123  35.023  -7.616  1.00  0.00     0.000 C 
ENDROOT
BRANCH   1   2
ATOM      2  C   UNL     1    -115.092  33.919  -8.683  1.00  0.00     0.000 C 
BRANCH   2   3
ATOM      3  C   UNL     1    -116.231  34.104  -9.697  1.00  0.00     0.006 C 
BRANCH   3   4
ATOM      4  C   UNL     1    -115.873  35.113 -10.796  1.00  0.00     0.053 C 
BRANCH   4   5
ATOM      5  C   UNL     1    -115.671  34.444 -12.121  1.00  0.00     0.041 C 
ATOM      6  O   UNL     1    -114.906  33.448 -12.218  1.00  0.00    -0.550 OA
ATOM      7  O   UNL     1    -116.353  34.898 -13.243  1.00  0.00    -0.550 OA
ENDBRANCH   4   5
ENDBRANCH   3   4
ENDBRANCH   2   3
ENDBRANCH   1   2
BRANCH   1   8
ATOM      8  C   UNL     1    -116.550  35.381  -7.164  1.00  0.00     0.000 C 
BRANCH   8   9
ATOM      9  C   UNL     1    -116.820  36.890  -6.987  1.00  0.00     0.006 C 
BRANCH   9  10
ATOM     10  C   UNL     1    -116.838  37.693  -8.297  1.00  0.00     0.053 C 
BRANCH  10  11
ATOM     11  C   UNL     1    -115.691  38.653  -8.380  1.00  0.00     0.041 C 
ATOM     12  O   UNL     1    -115.739  39.752  -7.767  1.00  0.00    -0.550 OA
ATOM     13  O   UNL     1    -114.557  38.321  -9.108  1.00  0.00    -0.550 OA
ENDBRANCH  10  11
ENDBRANCH   9  10
ENDBRANCH   8   9
ENDBRANCH   1   8
TORSDOF 8
ENDMDL
MODEL 7
REMARK VINA RESULT:    -2.933      1.626      6.421
REMARK INTER + INTRA:          -4.736
REMARK INTER:                  -4.491
REMARK INTRA:                  -0.246
REMARK UNBOUND:                -0.432
REMARK SMILES O=C([O-])CCCCCCCC(=O)[O-]
REMARK SMILES IDX 7 1 6 2 5 3 4 4 2 5 1 6 3 7 8 8 9 9 10 10 11 11 12 12 13 13
REMARK H PARENT
REMARK Flexibility Score: inf
ROOT
ATOM      1  C   UNL     1    -112.693  42.987  -1.120  1.00  0.00     0.000 C 
ENDROOT
BRANCH   1   2
ATOM      2  C   UNL     1    -114.210  42.858  -0.926  1.00  0.00     0.000 C 
BRANCH   2   3
ATOM      3  C   UNL     1    -114.642  41.384  -0.943  1.00  0.00     0.006 C 
BRANCH   3   4
ATOM      4  C   UNL     1    -114.790  40.837  -2.369  1.00  0.00     0.053 C 
BRANCH   4   5
ATOM      5  C   UNL     1    -116.063  40.065  -2.539  1.00  0.00     0.041 C 
ATOM      6  O   UNL     1    -117.058  40.315  -1.809  1.00  0.00    -0.550 OA
ATOM      7  O   UNL     1    -116.161  39.092  -3.526  1.00  0.00    -0.550 OA
ENDBRANCH   4   5
ENDBRANCH   3   4
ENDBRANCH   2   3
ENDBRANCH   1   2
BRANCH   1   8
ATOM      8  C   UNL     1    -112.165  44.397  -0.797  1.00  0.00     0.000 C 
BRANCH   8   9
ATOM      9  C   UNL     1    -110.629  44.516  -0.710  1.00  0.00     0.006 C 
BRANCH   9  10
ATOM     10  C   UNL     1    -109.870  43.220  -1.036  1.00  0.00     0.053 C 
BRANCH  10  11
ATOM     11  C   UNL     1    -108.561  43.141  -0.313  1.00  0.00     0.041 C 
ATOM     12  O   UNL     1    -108.069  44.170   0.222  1.00  0.00    -0.550 OA
ATOM     13  O   UNL     1    -107.899  41.926  -0.203  1.00  0.00    -0.550 OA
ENDBRANCH  10  11
ENDBRANCH   9  10
ENDBRANCH   8   9
ENDBRANCH   1   8
TORSDOF 8
ENDMDL
MODEL 8
REMARK VINA RESULT:    -2.913     11.949     14.384
REMARK INTER + INTRA:          -4.707
REMARK INTER:                  -4.137
REMARK INTRA:                  -0.570
REMARK UNBOUND:                -0.432
REMARK SMILES O=C([O-])CCCCCCCC(=O)[O-]
REMARK SMILES IDX 7 1 6 2 5 3 4 4 2 5 1 6 3 7 8 8 9 9 10 10 11 11 12 12 13 13
REMARK H PARENT
REMARK Flexibility Score: inf
ROOT
ATOM      1  C   UNL     1    -116.572  33.476  -9.260  1.00  0.00     0.000 C 
ENDROOT
BRANCH   1   2
ATOM      2  C   UNL     1    -116.759  33.459 -10.784  1.00  0.00     0.000 C 
BRANCH   2   3
ATOM      3  C   UNL     1    -115.618  34.208 -11.487  1.00  0.00     0.006 C 
BRANCH   3   4
ATOM      4  C   UNL     1    -114.851  33.312 -12.468  1.00  0.00     0.053 C 
BRANCH   4   5
ATOM      5  C   UNL     1    -115.773  32.615 -13.421  1.00  0.00     0.041 C 
ATOM      6  O   UNL     1    -116.441  33.280 -14.257  1.00  0.00    -0.550 OA
ATOM      7  O   UNL     1    -115.870  31.230 -13.411  1.00  0.00    -0.550 OA
ENDBRANCH   4   5
ENDBRANCH   3   4
ENDBRANCH   2   3
ENDBRANCH   1   2
BRANCH   1   8
ATOM      8  C   UNL     1    -115.131  33.814  -8.837  1.00  0.00     0.000 C 
BRANCH   8   9
ATOM      9  C   UNL     1    -115.009  34.849  -7.700  1.00  0.00     0.006 C 
BRANCH   9  10
ATOM     10  C   UNL     1    -116.335  35.518  -7.302  1.00  0.00     0.053 C 
BRANCH  10  11
ATOM     11  C   UNL     1    -116.460  36.896  -7.874  1.00  0.00     0.041 C 
ATOM     12  O   UNL     1    -116.516  37.063  -9.121  1.00  0.00    -0.550 OA
ATOM     13  O   UNL     1    -116.549  37.994  -7.029  1.00  0.00    -0.550 OA
ENDBRANCH  10  11
ENDBRANCH   9  10
ENDBRANCH   8   9
ENDBRANCH   1   8
TORSDOF 8
ENDMDL
MODEL 9
REMARK VINA RESULT:    -2.902     10.550     12.756
REMARK INTER + INTRA:          -4.691
REMARK INTER:                  -4.130
REMARK INTRA:                  -0.560
REMARK UNBOUND:                -0.432
REMARK SMILES O=C([O-])CCCCCCCC(=O)[O-]
REMARK SMILES IDX 7 1 6 2 5 3 4 4 2 5 1 6 3 7 8 8 9 9 10 10 11 11 12 12 13 13
REMARK H PARENT
REMARK Flexibility Score: inf
ROOT
ATOM      1  C   UNL     1    -114.956  35.087  -7.686  1.00  0.00     0.000 C 
ENDROOT
BRANCH   1   2
ATOM      2  C   UNL     1    -116.340  35.376  -7.090  1.00  0.00     0.000 C 
BRANCH   2   3
ATOM      3  C   UNL     1    -116.751  36.836  -7.335  1.00  0.00     0.006 C 
BRANCH   3   4
ATOM      4  C   UNL     1    -116.041  37.443  -8.552  1.00  0.00     0.053 C 
BRANCH   4   5
ATOM      5  C   UNL     1    -115.643  38.867  -8.311  1.00  0.00     0.041 C 
ATOM      6  O   UNL     1    -116.285  39.574  -7.489  1.00  0.00    -0.550 OA
ATOM      7  O   UNL     1    -114.544  39.406  -8.969  1.00  0.00    -0.550 OA
ENDBRANCH   4   5
ENDBRANCH   3   4
ENDBRANCH   2   3
ENDBRANCH   1   2
BRANCH   1   8
ATOM      8  C   UNL     1    -114.944  33.851  -8.603  1.00  0.00     0.000 C 
BRANCH   8   9
ATOM      9  C   UNL     1    -116.080  33.798  -9.645  1.00  0.00     0.006 C 
BRANCH   9  10
ATOM     10  C   UNL     1    -115.739  34.449 -10.994  1.00  0.00     0.053 C 
BRANCH  10  11
ATOM     11  C   UNL     1    -115.713  33.448 -12.108  1.00  0.00     0.041 C 
ATOM     12  O   UNL     1    -114.751  33.427 -12.920  1.00  0.00    -0.550 OA
ATOM     13  O   UNL     1    -116.737  32.518 -12.231  1.00  0.00    -0.550 OA
ENDBRANCH  10  11
ENDBRANCH   9  10
ENDBRANCH   8   9
ENDBRANCH   1   8
TORSDOF 8
ENDMDL
