MODEL 1
REMARK VINA RESULT:     3.248      0.000      0.000
REMARK INTER + INTRA:           5.698
REMARK INTER:                   6.286
REMARK INTRA:                  -0.588
REMARK UNBOUND:                -0.588
REMARK SMILES CCCCCCCCCCCCCCCCCC(=O)[O-]
REMARK SMILES IDX 10 1 11 2 12 3 13 4 14 5 15 6 16 7 17 8 18 9 19 10 20 11
REMARK SMILES IDX 9 12 8 13 7 14 6 15 5 16 4 17 3 18 2 19 1 20
REMARK H PARENT
REMARK Flexibility Score: inf
ROOT
ATOM      1  C   UNL     1      67.877  76.424  96.314  1.00  0.00     0.000 C 
ENDROOT
BRANCH   1   2
ATOM      2  C   UNL     1      67.929  77.542  95.265  1.00  0.00     0.000 C 
BRANCH   2   3
ATOM      3  C   UNL     1      67.876  76.965  93.843  1.00  0.00     0.000 C 
BRANCH   3   4
ATOM      4  C   UNL     1      69.267  76.901  93.179  1.00  0.00     0.000 C 
BRANCH   4   5
ATOM      5  C   UNL     1      69.220  76.891  91.639  1.00  0.00     0.000 C 
BRANCH   5   6
ATOM      6  C   UNL     1      67.933  76.303  91.030  1.00  0.00     0.000 C 
BRANCH   6   7
ATOM      7  C   UNL     1      67.928  74.771  90.875  1.00  0.00     0.006 C 
BRANCH   7   8
ATOM      8  C   UNL     1      68.647  74.052  92.024  1.00  0.00     0.053 C 
BRANCH   8   9
ATOM      9  C   UNL     1      69.570  73.003  91.490  1.00  0.00     0.041 C 
ATOM     10  O   UNL     1      70.711  73.321  91.062  1.00  0.00    -0.550 OA
ATOM     11  O   UNL     1      69.152  71.680  91.419  1.00  0.00    -0.550 OA
ENDBRANCH   8   9
ENDBRANCH   7   8
ENDBRANCH   6   7
ENDBRANCH   5   6
ENDBRANCH   4   5
ENDBRANCH   3   4
ENDBRANCH   2   3
ENDBRANCH   1   2
BRANCH   1  12
ATOM     12  C   UNL     1      68.064  76.984  97.728  1.00  0.00     0.000 C 
BRANCH  12  13
ATOM     13  C   UNL     1      67.971  78.515  97.730  1.00  0.00    -0.000 C 
BRANCH  13  14
ATOM     14  C   UNL     1      69.323  79.150  98.076  1.00  0.00    -0.000 C 
BRANCH  14  15
ATOM     15  C   UNL     1      69.186  80.122  99.257  1.00  0.00    -0.000 C 
BRANCH  15  16
ATOM     16  C   UNL     1      68.036  79.747 100.209  1.00  0.00    -0.000 C 
BRANCH  16  17
ATOM     17  C   UNL     1      68.287  80.078 101.694  1.00  0.00    -0.000 C 
BRANCH  17  18
ATOM     18  C   UNL     1      69.148  79.052 102.458  1.00  0.00    -0.000 C 
BRANCH  18  19
ATOM     19  C   UNL     1      68.588  77.620 102.472  1.00  0.00    -0.003 C 
ATOM     20  C   UNL     1      69.082  76.799 103.663  1.00  0.00     0.004 C 
ENDBRANCH  18  19
ENDBRANCH  17  18
ENDBRANCH  16  17
ENDBRANCH  15  16
ENDBRANCH  14  15
ENDBRANCH  13  14
ENDBRANCH  12  13
ENDBRANCH   1  12
TORSDOF 16
ENDMDL
