MODEL 1
REMARK VINA RESULT:    -4.006      0.000      0.000
REMARK INTER + INTRA:          -5.197
REMARK INTER:                  -4.943
REMARK INTRA:                  -0.254
REMARK UNBOUND:                -0.254
REMARK SMILES C=CCc1ccc(OC)c(OC)c1
REMARK SMILES IDX 7 1 10 2 13 3 4 4 5 5 6 6 8 7 9 8 11 9 12 10 3 11 2 12 1 13
REMARK H PARENT
REMARK Flexibility Score: inf
ROOT
ATOM      1  C   UNL     1     167.026 166.726 168.289  1.00  0.00     0.160 A 
ATOM      2  C   UNL     1     168.084 165.821 168.101  1.00  0.00     0.160 A 
ATOM      3  C   UNL     1     169.413 166.285 168.147  1.00  0.00     0.054 A 
ATOM      4  C   UNL     1     169.689 167.642 168.372  1.00  0.00    -0.040 A 
ATOM      5  C   UNL     1     168.628 168.536 168.569  1.00  0.00     0.008 A 
ATOM      6  C   UNL     1     167.307 168.085 168.523  1.00  0.00     0.051 A 
ENDROOT
BRANCH   1   7
ATOM      7  O   UNL     1     165.712 166.235 168.236  1.00  0.00    -0.493 OA
ATOM      8  C   UNL     1     164.615 166.787 168.957  1.00  0.00     0.278 C 
ENDBRANCH   1   7
BRANCH   2   9
ATOM      9  O   UNL     1     167.773 164.470 167.875  1.00  0.00    -0.493 OA
ATOM     10  C   UNL     1     168.400 163.376 168.537  1.00  0.00     0.278 C 
ENDBRANCH   2   9
BRANCH   4  11
ATOM     11  C   UNL     1     171.111 168.129 168.452  1.00  0.00     0.062 C 
BRANCH  11  12
ATOM     12  C   UNL     1     171.289 169.067 169.612  1.00  0.00    -0.030 C 
ATOM     13  C   UNL     1     172.494 169.519 169.972  1.00  0.00     0.004 C 
ENDBRANCH  11  12
ENDBRANCH   4  11
TORSDOF 4
ENDMDL
MODEL 2
REMARK VINA RESULT:    -3.951      2.465      5.931
REMARK INTER + INTRA:          -5.128
REMARK INTER:                  -4.881
REMARK INTRA:                  -0.247
REMARK UNBOUND:                -0.254
REMARK SMILES C=CCc1ccc(OC)c(OC)c1
REMARK SMILES IDX 7 1 10 2 13 3 4 4 5 5 6 6 8 7 9 8 11 9 12 10 3 11 2 12 1 13
REMARK H PARENT
REMARK Flexibility Score: inf
ROOT
ATOM      1  C   UNL     1     168.390 168.536 168.324  1.00  0.00     0.160 A 
ATOM      2  C   UNL     1     167.371 169.501 168.266  1.00  0.00     0.160 A 
ATOM      3  C   UNL     1     166.024 169.094 168.328  1.00  0.00     0.054 A 
ATOM      4  C   UNL     1     165.692 167.735 168.440  1.00  0.00    -0.040 A 
ATOM      5  C   UNL     1     166.716 166.781 168.507  1.00  0.00     0.008 A 
ATOM      6  C   UNL     1     168.054 167.175 168.445  1.00  0.00     0.051 A 
ENDROOT
BRANCH   1   7
ATOM      7  O   UNL     1     169.724 168.971 168.259  1.00  0.00    -0.493 OA
ATOM      8  C   UNL     1     170.814 168.331 168.914  1.00  0.00     0.278 C 
ENDBRANCH   1   7
BRANCH   2   9
ATOM      9  O   UNL     1     167.737 170.851 168.152  1.00  0.00    -0.493 OA
ATOM     10  C   UNL     1     166.953 171.943 168.621  1.00  0.00     0.278 C 
ENDBRANCH   2   9
BRANCH   4  11
ATOM     11  C   UNL     1     164.252 167.306 168.537  1.00  0.00     0.062 C 
BRANCH  11  12
ATOM     12  C   UNL     1     164.051 166.376 169.699  1.00  0.00    -0.030 C 
ATOM     13  C   UNL     1     162.869 165.800 169.942  1.00  0.00     0.004 C 
ENDBRANCH  11  12
ENDBRANCH   4  11
TORSDOF 4
ENDMDL
MODEL 3
REMARK VINA RESULT:    -3.941      2.221      4.184
REMARK INTER + INTRA:          -5.116
REMARK INTER:                  -4.838
REMARK INTRA:                  -0.278
REMARK UNBOUND:                -0.254
REMARK SMILES C=CCc1ccc(OC)c(OC)c1
REMARK SMILES IDX 7 1 10 2 13 3 4 4 5 5 6 6 8 7 9 8 11 9 12 10 3 11 2 12 1 13
REMARK H PARENT
REMARK Flexibility Score: inf
ROOT
ATOM      1  C   UNL     1     167.196 167.742 168.098  1.00  0.00     0.160 A 
ATOM      2  C   UNL     1     166.227 166.726 168.067  1.00  0.00     0.160 A 
ATOM      3  C   UNL     1     166.622 165.384 168.232  1.00  0.00     0.054 A 
ATOM      4  C   UNL     1     167.973 165.054 168.419  1.00  0.00    -0.040 A 
ATOM      5  C   UNL     1     168.931 166.076 168.458  1.00  0.00     0.008 A 
ATOM      6  C   UNL     1     168.549 167.409 168.295  1.00  0.00     0.051 A 
ENDROOT
BRANCH   1   7
ATOM      7  O   UNL     1     166.773 169.070 167.929  1.00  0.00    -0.493 OA
ATOM      8  C   UNL     1     166.958 170.104 168.892  1.00  0.00     0.278 C 
ENDBRANCH   1   7
BRANCH   2   9
ATOM      9  O   UNL     1     164.885 167.089 167.875  1.00  0.00    -0.493 OA
ATOM     10  C   UNL     1     163.853 166.907 168.840  1.00  0.00     0.278 C 
ENDBRANCH   2   9
BRANCH   4  11
ATOM     11  C   UNL     1     168.388 163.621 168.626  1.00  0.00     0.062 C 
BRANCH  11  12
ATOM     12  C   UNL     1     169.348 163.506 169.776  1.00  0.00    -0.030 C 
ATOM     13  C   UNL     1     169.797 162.320 170.200  1.00  0.00     0.004 C 
ENDBRANCH  11  12
ENDBRANCH   4  11
TORSDOF 4
ENDMDL
MODEL 4
REMARK VINA RESULT:    -3.930      1.883      4.073
REMARK INTER + INTRA:          -5.103
REMARK INTER:                  -4.811
REMARK INTRA:                  -0.292
REMARK UNBOUND:                -0.254
REMARK SMILES C=CCc1ccc(OC)c(OC)c1
REMARK SMILES IDX 7 1 10 2 13 3 4 4 5 5 6 6 8 7 9 8 11 9 12 10 3 11 2 12 1 13
REMARK H PARENT
REMARK Flexibility Score: inf
ROOT
ATOM      1  C   UNL     1     167.458 167.582 168.161  1.00  0.00     0.160 A 
ATOM      2  C   UNL     1     168.804 167.185 168.099  1.00  0.00     0.160 A 
ATOM      3  C   UNL     1     169.137 165.826 168.258  1.00  0.00     0.054 A 
ATOM      4  C   UNL     1     168.138 164.867 168.484  1.00  0.00    -0.040 A 
ATOM      5  C   UNL     1     166.797 165.270 168.534  1.00  0.00     0.008 A 
ATOM      6  C   UNL     1     166.459 166.616 168.379  1.00  0.00     0.051 A 
ENDROOT
BRANCH   1   7
ATOM      7  O   UNL     1     167.157 168.943 168.001  1.00  0.00    -0.493 OA
ATOM      8  C   UNL     1     166.532 169.753 168.992  1.00  0.00     0.278 C 
ENDBRANCH   1   7
BRANCH   2   9
ATOM      9  O   UNL     1     169.780 168.170 167.875  1.00  0.00    -0.493 OA
ATOM     10  C   UNL     1     171.148 168.051 168.249  1.00  0.00     0.278 C 
ENDBRANCH   2   9
BRANCH   4  11
ATOM     11  C   UNL     1     168.495 163.411 168.622  1.00  0.00     0.062 C 
BRANCH  11  12
ATOM     12  C   UNL     1     169.480 163.208 169.739  1.00  0.00    -0.030 C 
ATOM     13  C   UNL     1     169.155 163.444 171.014  1.00  0.00     0.004 C 
ENDBRANCH  11  12
ENDBRANCH   4  11
TORSDOF 4
ENDMDL
MODEL 5
REMARK VINA RESULT:    -3.864      2.265      4.026
REMARK INTER + INTRA:          -5.021
REMARK INTER:                  -4.762
REMARK INTRA:                  -0.259
REMARK UNBOUND:                -0.254
REMARK SMILES C=CCc1ccc(OC)c(OC)c1
REMARK SMILES IDX 7 1 10 2 13 3 4 4 5 5 6 6 8 7 9 8 11 9 12 10 3 11 2 12 1 13
REMARK H PARENT
REMARK Flexibility Score: inf
ROOT
ATOM      1  C   UNL     1     168.353 167.268 168.120  1.00  0.00     0.160 A 
ATOM      2  C   UNL     1     166.990 167.587 168.242  1.00  0.00     0.160 A 
ATOM      3  C   UNL     1     166.602 168.930 168.410  1.00  0.00     0.054 A 
ATOM      4  C   UNL     1     167.563 169.950 168.462  1.00  0.00    -0.040 A 
ATOM      5  C   UNL     1     168.920 169.625 168.329  1.00  0.00     0.008 A 
ATOM      6  C   UNL     1     169.313 168.296 168.165  1.00  0.00     0.051 A 
ENDROOT
BRANCH   1   7
ATOM      7  O   UNL     1     168.710 165.921 167.956  1.00  0.00    -0.493 OA
ATOM      8  C   UNL     1     169.098 165.054 169.017  1.00  0.00     0.278 C 
ENDBRANCH   1   7
BRANCH   2   9
ATOM      9  O   UNL     1     166.054 166.542 168.189  1.00  0.00    -0.493 OA
ATOM     10  C   UNL     1     165.137 166.224 169.231  1.00  0.00     0.278 C 
ENDBRANCH   2   9
BRANCH   4  11
ATOM     11  C   UNL     1     167.143 171.389 168.611  1.00  0.00     0.062 C 
BRANCH  11  12
ATOM     12  C   UNL     1     166.133 171.538 169.713  1.00  0.00    -0.030 C 
ATOM     13  C   UNL     1     165.742 172.739 170.150  1.00  0.00     0.004 C 
ENDBRANCH  11  12
ENDBRANCH   4  11
TORSDOF 4
ENDMDL
MODEL 6
REMARK VINA RESULT:    -3.821      1.609      4.949
REMARK INTER + INTRA:          -4.968
REMARK INTER:                  -4.722
REMARK INTRA:                  -0.245
REMARK UNBOUND:                -0.254
REMARK SMILES C=CCc1ccc(OC)c(OC)c1
REMARK SMILES IDX 7 1 10 2 13 3 4 4 5 5 6 6 8 7 9 8 11 9 12 10 3 11 2 12 1 13
REMARK H PARENT
REMARK Flexibility Score: inf
ROOT
ATOM      1  C   UNL     1     168.489 167.727 168.087  1.00  0.00     0.160 A 
ATOM      2  C   UNL     1     167.984 166.435 168.305  1.00  0.00     0.160 A 
ATOM      3  C   UNL     1     166.600 166.252 168.494  1.00  0.00     0.054 A 
ATOM      4  C   UNL     1     165.725 167.348 168.473  1.00  0.00    -0.040 A 
ATOM      5  C   UNL     1     166.236 168.632 168.244  1.00  0.00     0.008 A 
ATOM      6  C   UNL     1     167.607 168.823 168.057  1.00  0.00     0.051 A 
ENDROOT
BRANCH   1   7
ATOM      7  O   UNL     1     169.872 167.879 167.903  1.00  0.00    -0.493 OA
ATOM      8  C   UNL     1     170.765 168.396 168.885  1.00  0.00     0.278 C 
ENDBRANCH   1   7
BRANCH   2   9
ATOM      9  O   UNL     1     168.887 165.360 168.324  1.00  0.00    -0.493 OA
ATOM     10  C   UNL     1     168.824 164.268 169.235  1.00  0.00     0.278 C 
ENDBRANCH   2   9
BRANCH   4  11
ATOM     11  C   UNL     1     164.242 167.145 168.645  1.00  0.00     0.062 C 
BRANCH  11  12
ATOM     12  C   UNL     1     163.964 166.164 169.749  1.00  0.00    -0.030 C 
ATOM     13  C   UNL     1     162.723 165.749 170.023  1.00  0.00     0.004 C 
ENDBRANCH  11  12
ENDBRANCH   4  11
TORSDOF 4
ENDMDL
MODEL 7
REMARK VINA RESULT:    -3.674      2.031      4.002
REMARK INTER + INTRA:          -4.787
REMARK INTER:                  -4.555
REMARK INTRA:                  -0.232
REMARK UNBOUND:                -0.254
REMARK SMILES C=CCc1ccc(OC)c(OC)c1
REMARK SMILES IDX 7 1 10 2 13 3 4 4 5 5 6 6 8 7 9 8 11 9 12 10 3 11 2 12 1 13
REMARK H PARENT
REMARK Flexibility Score: inf
ROOT
ATOM      1  C   UNL     1     167.437 169.506 168.560  1.00  0.00     0.160 A 
ATOM      2  C   UNL     1     166.705 168.312 168.455  1.00  0.00     0.160 A 
ATOM      3  C   UNL     1     167.383 167.078 168.458  1.00  0.00     0.054 A 
ATOM      4  C   UNL     1     168.782 167.031 168.558  1.00  0.00    -0.040 A 
ATOM      5  C   UNL     1     169.503 168.227 168.673  1.00  0.00     0.008 A 
ATOM      6  C   UNL     1     168.839 169.455 168.669  1.00  0.00     0.051 A 
ENDROOT
BRANCH   1   7
ATOM      7  O   UNL     1     166.734 170.721 168.553  1.00  0.00    -0.493 OA
ATOM      8  C   UNL     1     166.369 171.449 169.721  1.00  0.00     0.278 C 
ENDBRANCH   1   7
BRANCH   2   9
ATOM      9  O   UNL     1     165.307 168.394 168.353  1.00  0.00    -0.493 OA
ATOM     10  C   UNL     1     164.427 167.275 168.401  1.00  0.00     0.278 C 
ENDBRANCH   2   9
BRANCH   4  11
ATOM     11  C   UNL     1     169.501 165.709 168.593  1.00  0.00     0.062 C 
BRANCH  11  12
ATOM     12  C   UNL     1     168.696 164.684 169.340  1.00  0.00    -0.030 C 
ATOM     13  C   UNL     1     169.218 163.507 169.701  1.00  0.00     0.004 C 
ENDBRANCH  11  12
ENDBRANCH   4  11
TORSDOF 4
ENDMDL
