MODEL 1
REMARK VINA RESULT:    -3.451      0.000      0.000
REMARK INTER + INTRA:          -4.186
REMARK INTER:                  -4.056
REMARK INTRA:                  -0.130
REMARK UNBOUND:                -0.130
REMARK SMILES CCCCC(=O)[O-]
REMARK SMILES IDX 4 1 5 2 6 3 7 4 3 5 2 6 1 7
REMARK H PARENT
REMARK Flexibility Score: inf
ROOT
ATOM      1  C   UNL     1       7.761   3.734  -4.043  1.00  0.00     0.053 C 
ENDROOT
BRANCH   1   2
ATOM      2  C   UNL     1       8.676   2.726  -4.667  1.00  0.00     0.041 C 
ATOM      3  O   UNL     1       9.363   3.034  -5.677  1.00  0.00    -0.550 OA
ATOM      4  O   UNL     1       8.797   1.459  -4.113  1.00  0.00    -0.550 OA
ENDBRANCH   1   2
BRANCH   1   5
ATOM      5  C   UNL     1       6.896   4.444  -5.092  1.00  0.00     0.006 C 
BRANCH   5   6
ATOM      6  C   UNL     1       5.829   3.515  -5.691  1.00  0.00    -0.003 C 
ATOM      7  C   UNL     1       5.970   3.422  -7.208  1.00  0.00     0.004 C 
ENDBRANCH   5   6
ENDBRANCH   1   5
TORSDOF 3
ENDMDL
MODEL 2
REMARK VINA RESULT:    -3.407      1.522      2.155
REMARK INTER + INTRA:          -4.134
REMARK INTER:                  -4.036
REMARK INTRA:                  -0.098
REMARK UNBOUND:                -0.130
REMARK SMILES CCCCC(=O)[O-]
REMARK SMILES IDX 4 1 5 2 6 3 7 4 3 5 2 6 1 7
REMARK H PARENT
REMARK Flexibility Score: inf
ROOT
ATOM      1  C   UNL     1       8.710   2.366  -5.250  1.00  0.00     0.053 C 
ENDROOT
BRANCH   1   2
ATOM      2  C   UNL     1       8.303   0.926  -5.196  1.00  0.00     0.041 C 
ATOM      3  O   UNL     1       9.074   0.068  -4.688  1.00  0.00    -0.550 OA
ATOM      4  O   UNL     1       7.060   0.536  -5.675  1.00  0.00    -0.550 OA
ENDBRANCH   1   2
BRANCH   1   5
ATOM      5  C   UNL     1       7.850   3.237  -4.325  1.00  0.00     0.006 C 
BRANCH   5   6
ATOM      6  C   UNL     1       7.045   4.289  -5.101  1.00  0.00    -0.003 C 
ATOM      7  C   UNL     1       5.679   3.744  -5.511  1.00  0.00     0.004 C 
ENDBRANCH   5   6
ENDBRANCH   1   5
TORSDOF 3
ENDMDL
MODEL 3
REMARK VINA RESULT:    -3.382      1.528      2.048
REMARK INTER + INTRA:          -4.105
REMARK INTER:                  -4.016
REMARK INTRA:                  -0.089
REMARK UNBOUND:                -0.130
REMARK SMILES CCCCC(=O)[O-]
REMARK SMILES IDX 4 1 5 2 6 3 7 4 3 5 2 6 1 7
REMARK H PARENT
REMARK Flexibility Score: inf
ROOT
ATOM      1  C   UNL     1       8.610   2.423  -5.346  1.00  0.00     0.053 C 
ENDROOT
BRANCH   1   2
ATOM      2  C   UNL     1       8.197   0.987  -5.238  1.00  0.00     0.041 C 
ATOM      3  O   UNL     1       7.080   0.614  -5.685  1.00  0.00    -0.550 OA
ATOM      4  O   UNL     1       9.060   0.055  -4.677  1.00  0.00    -0.550 OA
ENDBRANCH   1   2
BRANCH   1   5
ATOM      5  C   UNL     1       7.847   3.311  -4.355  1.00  0.00     0.006 C 
BRANCH   5   6
ATOM      6  C   UNL     1       6.982   4.364  -5.065  1.00  0.00    -0.003 C 
ATOM      7  C   UNL     1       5.654   3.766  -5.522  1.00  0.00     0.004 C 
ENDBRANCH   5   6
ENDBRANCH   1   5
TORSDOF 3
ENDMDL
MODEL 4
REMARK VINA RESULT:    -3.165      1.875      2.853
REMARK INTER + INTRA:          -3.850
REMARK INTER:                  -3.745
REMARK INTRA:                  -0.104
REMARK UNBOUND:                -0.130
REMARK SMILES CCCCC(=O)[O-]
REMARK SMILES IDX 4 1 5 2 6 3 7 4 3 5 2 6 1 7
REMARK H PARENT
REMARK Flexibility Score: inf
ROOT
ATOM      1  C   UNL     1       6.659   2.961  -7.127  1.00  0.00     0.053 C 
ENDROOT
BRANCH   1   2
ATOM      2  C   UNL     1       7.058   1.531  -6.922  1.00  0.00     0.041 C 
ATOM      3  O   UNL     1       7.692   0.916  -7.819  1.00  0.00    -0.550 OA
ATOM      4  O   UNL     1       6.759   0.890  -5.727  1.00  0.00    -0.550 OA
ENDBRANCH   1   2
BRANCH   1   5
ATOM      5  C   UNL     1       5.936   3.532  -5.901  1.00  0.00     0.006 C 
BRANCH   5   6
ATOM      6  C   UNL     1       6.795   4.557  -5.145  1.00  0.00    -0.003 C 
ATOM      7  C   UNL     1       7.626   3.881  -4.057  1.00  0.00     0.004 C 
ENDBRANCH   5   6
ENDBRANCH   1   5
TORSDOF 3
ENDMDL
MODEL 5
REMARK VINA RESULT:    -3.097     12.596     13.504
REMARK INTER + INTRA:          -3.770
REMARK INTER:                  -3.741
REMARK INTRA:                  -0.029
REMARK UNBOUND:                -0.130
REMARK SMILES CCCCC(=O)[O-]
REMARK SMILES IDX 4 1 5 2 6 3 7 4 3 5 2 6 1 7
REMARK H PARENT
REMARK Flexibility Score: inf
ROOT
ATOM      1  C   UNL     1      -2.841  11.718  -8.265  1.00  0.00     0.053 C 
ENDROOT
BRANCH   1   2
ATOM      2  C   UNL     1      -1.524  11.048  -8.517  1.00  0.00     0.041 C 
ATOM      3  O   UNL     1      -1.447   9.792  -8.538  1.00  0.00    -0.550 OA
ATOM      4  O   UNL     1      -0.391  11.812  -8.763  1.00  0.00    -0.550 OA
ENDBRANCH   1   2
BRANCH   1   5
ATOM      5  C   UNL     1      -2.856  12.457  -6.920  1.00  0.00     0.006 C 
BRANCH   5   6
ATOM      6  C   UNL     1      -3.817  11.809  -5.913  1.00  0.00    -0.003 C 
ATOM      7  C   UNL     1      -3.805  12.558  -4.582  1.00  0.00     0.004 C 
ENDBRANCH   5   6
ENDBRANCH   1   5
TORSDOF 3
ENDMDL
MODEL 6
REMARK VINA RESULT:    -2.938      1.627      2.123
REMARK INTER + INTRA:          -3.584
REMARK INTER:                  -3.490
REMARK INTRA:                  -0.094
REMARK UNBOUND:                -0.130
REMARK SMILES CCCCC(=O)[O-]
REMARK SMILES IDX 4 1 5 2 6 3 7 4 3 5 2 6 1 7
REMARK H PARENT
REMARK Flexibility Score: inf
ROOT
ATOM      1  C   UNL     1       5.866   3.234  -5.653  1.00  0.00     0.053 C 
ENDROOT
BRANCH   1   2
ATOM      2  C   UNL     1       6.812   2.157  -5.218  1.00  0.00     0.041 C 
ATOM      3  O   UNL     1       6.770   1.021  -5.762  1.00  0.00    -0.550 OA
ATOM      4  O   UNL     1       7.760   2.416  -4.239  1.00  0.00    -0.550 OA
ENDBRANCH   1   2
BRANCH   1   5
ATOM      5  C   UNL     1       6.567   4.594  -5.770  1.00  0.00     0.006 C 
BRANCH   5   6
ATOM      6  C   UNL     1       7.172   4.817  -7.165  1.00  0.00    -0.003 C 
ATOM      7  C   UNL     1       6.232   4.314  -8.258  1.00  0.00     0.004 C 
ENDBRANCH   5   6
ENDBRANCH   1   5
TORSDOF 3
ENDMDL
MODEL 7
REMARK VINA RESULT:    -2.899     14.984     15.717
REMARK INTER + INTRA:          -3.537
REMARK INTER:                  -3.512
REMARK INTRA:                  -0.025
REMARK UNBOUND:                -0.130
REMARK SMILES CCCCC(=O)[O-]
REMARK SMILES IDX 4 1 5 2 6 3 7 4 3 5 2 6 1 7
REMARK H PARENT
REMARK Flexibility Score: inf
ROOT
ATOM      1  C   UNL     1      -3.447  13.098  -4.070  1.00  0.00     0.053 C 
ENDROOT
BRANCH   1   2
ATOM      2  C   UNL     1      -3.488  12.544  -5.462  1.00  0.00     0.041 C 
ATOM      3  O   UNL     1      -4.218  11.553  -5.727  1.00  0.00    -0.550 OA
ATOM      4  O   UNL     1      -2.749  13.144  -6.471  1.00  0.00    -0.550 OA
ENDBRANCH   1   2
BRANCH   1   5
ATOM      5  C   UNL     1      -4.674  12.675  -3.252  1.00  0.00     0.006 C 
BRANCH   5   6
ATOM      6  C   UNL     1      -5.259  13.839  -2.438  1.00  0.00    -0.003 C 
ATOM      7  C   UNL     1      -6.783  13.855  -2.518  1.00  0.00     0.004 C 
ENDBRANCH   5   6
ENDBRANCH   1   5
TORSDOF 3
ENDMDL
MODEL 8
REMARK VINA RESULT:    -2.856     15.771     16.528
REMARK INTER + INTRA:          -3.486
REMARK INTER:                  -3.471
REMARK INTRA:                  -0.016
REMARK UNBOUND:                -0.130
REMARK SMILES CCCCC(=O)[O-]
REMARK SMILES IDX 4 1 5 2 6 3 7 4 3 5 2 6 1 7
REMARK H PARENT
REMARK Flexibility Score: inf
ROOT
ATOM      1  C   UNL     1      -7.519  11.135  -5.623  1.00  0.00     0.053 C 
ENDROOT
BRANCH   1   2
ATOM      2  C   UNL     1      -8.107   9.864  -5.092  1.00  0.00     0.041 C 
ATOM      3  O   UNL     1      -8.351   8.905  -5.871  1.00  0.00    -0.550 OA
ATOM      4  O   UNL     1      -8.353   9.726  -3.733  1.00  0.00    -0.550 OA
ENDBRANCH   1   2
BRANCH   1   5
ATOM      5  C   UNL     1      -6.102  11.375  -5.087  1.00  0.00     0.006 C 
BRANCH   5   6
ATOM      6  C   UNL     1      -5.204  12.081  -6.114  1.00  0.00    -0.003 C 
ATOM      7  C   UNL     1      -3.731  11.763  -5.866  1.00  0.00     0.004 C 
ENDBRANCH   5   6
ENDBRANCH   1   5
TORSDOF 3
ENDMDL
MODEL 9
REMARK VINA RESULT:    -2.838     16.277     16.903
REMARK INTER + INTRA:          -3.465
REMARK INTER:                  -3.396
REMARK INTRA:                  -0.069
REMARK UNBOUND:                -0.130
REMARK SMILES CCCCC(=O)[O-]
REMARK SMILES IDX 4 1 5 2 6 3 7 4 3 5 2 6 1 7
REMARK H PARENT
REMARK Flexibility Score: inf
ROOT
ATOM      1  C   UNL     1      -5.190  13.758  -2.550  1.00  0.00     0.053 C 
ENDROOT
BRANCH   1   2
ATOM      2  C   UNL     1      -6.672  13.754  -2.766  1.00  0.00     0.041 C 
ATOM      3  O   UNL     1      -7.146  13.449  -3.892  1.00  0.00    -0.550 OA
ATOM      4  O   UNL     1      -7.530  14.054  -1.717  1.00  0.00    -0.550 OA
ENDBRANCH   1   2
BRANCH   1   5
ATOM      5  C   UNL     1      -4.508  12.579  -3.256  1.00  0.00     0.006 C 
BRANCH   5   6
ATOM      6  C   UNL     1      -3.642  13.034  -4.441  1.00  0.00    -0.003 C 
ATOM      7  C   UNL     1      -3.768  12.068  -5.616  1.00  0.00     0.004 C 
ENDBRANCH   5   6
ENDBRANCH   1   5
TORSDOF 3
ENDMDL
