MODEL 1
REMARK VINA RESULT:     8.017      0.000      0.000
REMARK INTER + INTRA:          17.380
REMARK INTER:                  18.327
REMARK INTRA:                  -0.947
REMARK UNBOUND:                -0.947
REMARK SMILES CCCCCCCCCCCCCCCCCCCCCCCC(=O)[O-]
REMARK SMILES IDX 13 1 14 2 15 3 16 4 17 5 18 6 19 7 20 8 21 9 22 10 23 11
REMARK SMILES IDX 24 12 25 13 26 14 12 15 11 16 10 17 9 18 8 19 7 20 6 21 5 22
REMARK SMILES IDX 4 23 3 24 2 25 1 26
REMARK H PARENT
REMARK Flexibility Score: inf
ROOT
ATOM      1  C   UNL     1      32.213  23.609  35.739  1.00  0.00     0.000 C 
ENDROOT
BRANCH   1   2
ATOM      2  C   UNL     1      31.792  25.037  35.340  1.00  0.00     0.000 C 
BRANCH   2   3
ATOM      3  C   UNL     1      30.842  25.125  34.128  1.00  0.00     0.000 C 
BRANCH   3   4
ATOM      4  C   UNL     1      31.532  25.004  32.757  1.00  0.00     0.000 C 
BRANCH   4   5
ATOM      5  C   UNL     1      30.766  24.085  31.789  1.00  0.00     0.000 C 
BRANCH   5   6
ATOM      6  C   UNL     1      29.712  24.840  30.962  1.00  0.00     0.000 C 
BRANCH   6   7
ATOM      7  C   UNL     1      30.166  25.084  29.511  1.00  0.00     0.000 C 
BRANCH   7   8
ATOM      8  C   UNL     1      29.172  24.524  28.481  1.00  0.00     0.000 C 
BRANCH   8   9
ATOM      9  C   UNL     1      29.751  24.490  27.058  1.00  0.00     0.000 C 
BRANCH   9  10
ATOM     10  C   UNL     1      31.236  24.884  27.057  1.00  0.00     0.006 C 
BRANCH  10  11
ATOM     11  C   UNL     1      32.158  23.672  26.875  1.00  0.00     0.053 C 
BRANCH  11  12
ATOM     12  C   UNL     1      33.148  23.554  27.993  1.00  0.00     0.041 C 
ATOM     13  O   UNL     1      34.373  23.755  27.781  1.00  0.00    -0.550 OA
ATOM     14  O   UNL     1      32.721  23.188  29.263  1.00  0.00    -0.550 OA
ENDBRANCH  11  12
ENDBRANCH  10  11
ENDBRANCH   9  10
ENDBRANCH   8   9
ENDBRANCH   7   8
ENDBRANCH   6   7
ENDBRANCH   5   6
ENDBRANCH   4   5
ENDBRANCH   3   4
ENDBRANCH   2   3
ENDBRANCH   1   2
BRANCH   1  15
ATOM     15  C   UNL     1      31.430  23.007  36.919  1.00  0.00     0.000 C 
BRANCH  15  16
ATOM     16  C   UNL     1      31.926  21.607  37.312  1.00  0.00     0.000 C 
BRANCH  16  17
ATOM     17  C   UNL     1      30.800  20.789  37.962  1.00  0.00     0.000 C 
BRANCH  17  18
ATOM     18  C   UNL     1      30.722  19.352  37.423  1.00  0.00    -0.000 C 
BRANCH  18  19
ATOM     19  C   UNL     1      32.073  18.620  37.498  1.00  0.00    -0.000 C 
BRANCH  19  20
ATOM     20  C   UNL     1      32.533  18.376  38.945  1.00  0.00    -0.000 C 
BRANCH  20  21
ATOM     21  C   UNL     1      33.883  17.639  39.023  1.00  0.00    -0.000 C 
BRANCH  21  22
ATOM     22  C   UNL     1      34.021  16.786  40.293  1.00  0.00    -0.000 C 
BRANCH  22  23
ATOM     23  C   UNL     1      33.581  17.537  41.561  1.00  0.00    -0.000 C 
BRANCH  23  24
ATOM     24  C   UNL     1      34.660  17.528  42.656  1.00  0.00    -0.000 C 
BRANCH  24  25
ATOM     25  C   UNL     1      34.812  16.155  43.327  1.00  0.00    -0.003 C 
ATOM     26  C   UNL     1      36.238  15.630  43.189  1.00  0.00     0.004 C 
ENDBRANCH  24  25
ENDBRANCH  23  24
ENDBRANCH  22  23
ENDBRANCH  21  22
ENDBRANCH  20  21
ENDBRANCH  19  20
ENDBRANCH  18  19
ENDBRANCH  17  18
ENDBRANCH  16  17
ENDBRANCH  15  16
ENDBRANCH   1  15
TORSDOF 22
ENDMDL
MODEL 2
REMARK VINA RESULT:     8.371      4.693     12.954
REMARK INTER + INTRA:          18.190
REMARK INTER:                  18.940
REMARK INTRA:                  -0.750
REMARK UNBOUND:                -0.947
REMARK SMILES CCCCCCCCCCCCCCCCCCCCCCCC(=O)[O-]
REMARK SMILES IDX 13 1 14 2 15 3 16 4 17 5 18 6 19 7 20 8 21 9 22 10 23 11
REMARK SMILES IDX 24 12 25 13 26 14 12 15 11 16 10 17 9 18 8 19 7 20 6 21 5 22
REMARK SMILES IDX 4 23 3 24 2 25 1 26
REMARK H PARENT
REMARK Flexibility Score: inf
ROOT
ATOM      1  C   UNL     1      32.138  23.272  35.181  1.00  0.00     0.000 C 
ENDROOT
BRANCH   1   2
ATOM      2  C   UNL     1      31.407  23.098  36.528  1.00  0.00     0.000 C 
BRANCH   2   3
ATOM      3  C   UNL     1      31.932  21.950  37.414  1.00  0.00     0.000 C 
BRANCH   3   4
ATOM      4  C   UNL     1      31.478  20.543  36.985  1.00  0.00     0.000 C 
BRANCH   4   5
ATOM      5  C   UNL     1      31.467  19.542  38.153  1.00  0.00     0.000 C 
BRANCH   5   6
ATOM      6  C   UNL     1      32.410  18.350  37.922  1.00  0.00     0.000 C 
BRANCH   6   7
ATOM      7  C   UNL     1      33.614  18.356  38.881  1.00  0.00     0.000 C 
BRANCH   7   8
ATOM      8  C   UNL     1      33.441  17.375  40.051  1.00  0.00     0.000 C 
BRANCH   8   9
ATOM      9  C   UNL     1      34.397  17.669  41.218  1.00  0.00     0.000 C 
BRANCH   9  10
ATOM     10  C   UNL     1      34.065  16.795  42.437  1.00  0.00     0.006 C 
BRANCH  10  11
ATOM     11  C   UNL     1      35.323  16.348  43.192  1.00  0.00     0.053 C 
BRANCH  11  12
ATOM     12  C   UNL     1      35.652  14.912  42.922  1.00  0.00     0.041 C 
ATOM     13  O   UNL     1      34.935  14.232  42.141  1.00  0.00    -0.550 OA
ATOM     14  O   UNL     1      36.732  14.314  43.558  1.00  0.00    -0.550 OA
ENDBRANCH  11  12
ENDBRANCH  10  11
ENDBRANCH   9  10
ENDBRANCH   8   9
ENDBRANCH   7   8
ENDBRANCH   6   7
ENDBRANCH   5   6
ENDBRANCH   4   5
ENDBRANCH   3   4
ENDBRANCH   2   3
ENDBRANCH   1   2
BRANCH   1  15
ATOM     15  C   UNL     1      32.259  24.725  34.692  1.00  0.00     0.000 C 
BRANCH  15  16
ATOM     16  C   UNL     1      32.006  24.870  33.183  1.00  0.00     0.000 C 
BRANCH  16  17
ATOM     17  C   UNL     1      30.548  24.529  32.836  1.00  0.00     0.000 C 
BRANCH  17  18
ATOM     18  C   UNL     1      30.179  24.900  31.392  1.00  0.00    -0.000 C 
BRANCH  18  19
ATOM     19  C   UNL     1      30.861  23.990  30.356  1.00  0.00    -0.000 C 
BRANCH  19  20
ATOM     20  C   UNL     1      30.005  23.784  29.096  1.00  0.00    -0.000 C 
BRANCH  20  21
ATOM     21  C   UNL     1      29.803  25.085  28.297  1.00  0.00    -0.000 C 
BRANCH  21  22
ATOM     22  C   UNL     1      30.438  25.027  26.899  1.00  0.00    -0.000 C 
BRANCH  22  23
ATOM     23  C   UNL     1      31.973  25.125  26.942  1.00  0.00    -0.000 C 
BRANCH  23  24
ATOM     24  C   UNL     1      32.639  23.783  27.285  1.00  0.00    -0.000 C 
BRANCH  24  25
ATOM     25  C   UNL     1      34.165  23.817  27.111  1.00  0.00    -0.003 C 
ATOM     26  C   UNL     1      34.844  24.434  28.329  1.00  0.00     0.004 C 
ENDBRANCH  24  25
ENDBRANCH  23  24
ENDBRANCH  22  23
ENDBRANCH  21  22
ENDBRANCH  20  21
ENDBRANCH  19  20
ENDBRANCH  18  19
ENDBRANCH  17  18
ENDBRANCH  16  17
ENDBRANCH  15  16
ENDBRANCH   1  15
TORSDOF 22
ENDMDL
MODEL 3
REMARK VINA RESULT:     8.639      2.019      4.452
REMARK INTER + INTRA:          18.801
REMARK INTER:                  19.755
REMARK INTRA:                  -0.953
REMARK UNBOUND:                -0.947
REMARK SMILES CCCCCCCCCCCCCCCCCCCCCCCC(=O)[O-]
REMARK SMILES IDX 13 1 14 2 15 3 16 4 17 5 18 6 19 7 20 8 21 9 22 10 23 11
REMARK SMILES IDX 24 12 25 13 26 14 12 15 11 16 10 17 9 18 8 19 7 20 6 21 5 22
REMARK SMILES IDX 4 23 3 24 2 25 1 26
REMARK H PARENT
REMARK Flexibility Score: inf
ROOT
ATOM      1  C   UNL     1      30.884  19.783  37.310  1.00  0.00     0.000 C 
ENDROOT
BRANCH   1   2
ATOM      2  C   UNL     1      31.746  21.000  36.922  1.00  0.00     0.000 C 
BRANCH   2   3
ATOM      3  C   UNL     1      31.460  22.288  37.721  1.00  0.00     0.000 C 
BRANCH   3   4
ATOM      4  C   UNL     1      32.005  23.579  37.084  1.00  0.00     0.000 C 
BRANCH   4   5
ATOM      5  C   UNL     1      31.751  23.644  35.568  1.00  0.00     0.000 C 
BRANCH   5   6
ATOM      6  C   UNL     1      32.595  24.724  34.871  1.00  0.00     0.000 C 
BRANCH   6   7
ATOM      7  C   UNL     1      32.023  25.125  33.500  1.00  0.00     0.000 C 
BRANCH   7   8
ATOM      8  C   UNL     1      30.972  24.128  32.984  1.00  0.00     0.000 C 
BRANCH   8   9
ATOM      9  C   UNL     1      29.812  24.817  32.250  1.00  0.00     0.000 C 
BRANCH   9  10
ATOM     10  C   UNL     1      29.842  24.497  30.748  1.00  0.00     0.006 C 
BRANCH  10  11
ATOM     11  C   UNL     1      31.058  25.117  30.047  1.00  0.00     0.053 C 
BRANCH  11  12
ATOM     12  C   UNL     1      31.815  24.103  29.246  1.00  0.00     0.041 C 
ATOM     13  O   UNL     1      31.201  23.181  28.646  1.00  0.00    -0.550 OA
ATOM     14  O   UNL     1      33.202  24.154  29.190  1.00  0.00    -0.550 OA
ENDBRANCH  11  12
ENDBRANCH  10  11
ENDBRANCH   9  10
ENDBRANCH   8   9
ENDBRANCH   7   8
ENDBRANCH   6   7
ENDBRANCH   5   6
ENDBRANCH   4   5
ENDBRANCH   3   4
ENDBRANCH   2   3
ENDBRANCH   1   2
BRANCH   1  15
ATOM     15  C   UNL     1      31.676  18.523  37.698  1.00  0.00     0.000 C 
BRANCH  15  16
ATOM     16  C   UNL     1      32.857  18.825  38.633  1.00  0.00     0.000 C 
BRANCH  16  17
ATOM     17  C   UNL     1      33.365  17.542  39.308  1.00  0.00     0.000 C 
BRANCH  17  18
ATOM     18  C   UNL     1      33.841  17.778  40.750  1.00  0.00    -0.000 C 
BRANCH  18  19
ATOM     19  C   UNL     1      34.641  16.588  41.308  1.00  0.00    -0.000 C 
BRANCH  19  20
ATOM     20  C   UNL     1      34.380  16.352  42.805  1.00  0.00    -0.000 C 
BRANCH  20  21
ATOM     21  C   UNL     1      35.432  15.432  43.453  1.00  0.00    -0.000 C 
BRANCH  21  22
ATOM     22  C   UNL     1      35.861  14.280  42.531  1.00  0.00    -0.000 C 
BRANCH  22  23
ATOM     23  C   UNL     1      34.717  13.291  42.248  1.00  0.00    -0.000 C 
BRANCH  23  24
ATOM     24  C   UNL     1      35.099  12.232  41.201  1.00  0.00    -0.000 C 
BRANCH  24  25
ATOM     25  C   UNL     1      34.077  12.133  40.059  1.00  0.00    -0.003 C 
ATOM     26  C   UNL     1      33.288  10.830  40.139  1.00  0.00     0.004 C 
ENDBRANCH  24  25
ENDBRANCH  23  24
ENDBRANCH  22  23
ENDBRANCH  21  22
ENDBRANCH  20  21
ENDBRANCH  19  20
ENDBRANCH  18  19
ENDBRANCH  17  18
ENDBRANCH  16  17
ENDBRANCH  15  16
ENDBRANCH   1  15
TORSDOF 22
ENDMDL
MODEL 4
REMARK VINA RESULT:     9.182      2.556      5.731
REMARK INTER + INTRA:          20.044
REMARK INTER:                  21.205
REMARK INTRA:                  -1.161
REMARK UNBOUND:                -0.947
REMARK SMILES CCCCCCCCCCCCCCCCCCCCCCCC(=O)[O-]
REMARK SMILES IDX 13 1 14 2 15 3 16 4 17 5 18 6 19 7 20 8 21 9 22 10 23 11
REMARK SMILES IDX 24 12 25 13 26 14 12 15 11 16 10 17 9 18 8 19 7 20 6 21 5 22
REMARK SMILES IDX 4 23 3 24 2 25 1 26
REMARK H PARENT
REMARK Flexibility Score: inf
ROOT
ATOM      1  C   UNL     1      32.171  17.850  38.146  1.00  0.00     0.000 C 
ENDROOT
BRANCH   1   2
ATOM      2  C   UNL     1      31.787  19.052  37.260  1.00  0.00     0.000 C 
BRANCH   2   3
ATOM      3  C   UNL     1      31.104  20.219  38.001  1.00  0.00     0.000 C 
BRANCH   3   4
ATOM      4  C   UNL     1      31.804  21.582  37.845  1.00  0.00     0.000 C 
BRANCH   4   5
ATOM      5  C   UNL     1      31.539  22.230  36.475  1.00  0.00     0.000 C 
BRANCH   5   6
ATOM      6  C   UNL     1      32.086  23.664  36.381  1.00  0.00     0.000 C 
BRANCH   6   7
ATOM      7  C   UNL     1      31.562  24.414  35.143  1.00  0.00     0.000 C 
BRANCH   7   8
ATOM      8  C   UNL     1      32.682  25.121  34.364  1.00  0.00     0.000 C 
BRANCH   8   9
ATOM      9  C   UNL     1      32.789  24.636  32.910  1.00  0.00     0.000 C 
BRANCH   9  10
ATOM     10  C   UNL     1      31.403  24.306  32.335  1.00  0.00     0.006 C 
BRANCH  10  11
ATOM     11  C   UNL     1      31.098  25.105  31.061  1.00  0.00     0.053 C 
BRANCH  11  12
ATOM     12  C   UNL     1      30.962  24.214  29.865  1.00  0.00     0.041 C 
ATOM     13  O   UNL     1      31.986  23.729  29.315  1.00  0.00    -0.550 OA
ATOM     14  O   UNL     1      29.707  23.945  29.336  1.00  0.00    -0.550 OA
ENDBRANCH  11  12
ENDBRANCH  10  11
ENDBRANCH   9  10
ENDBRANCH   8   9
ENDBRANCH   7   8
ENDBRANCH   6   7
ENDBRANCH   5   6
ENDBRANCH   4   5
ENDBRANCH   3   4
ENDBRANCH   2   3
ENDBRANCH   1   2
BRANCH   1  15
ATOM     15  C   UNL     1      33.426  18.057  39.011  1.00  0.00     0.000 C 
BRANCH  15  16
ATOM     16  C   UNL     1      33.223  17.619  40.470  1.00  0.00     0.000 C 
BRANCH  16  17
ATOM     17  C   UNL     1      34.571  17.332  41.149  1.00  0.00     0.000 C 
BRANCH  17  18
ATOM     18  C   UNL     1      34.505  17.456  42.679  1.00  0.00    -0.000 C 
BRANCH  18  19
ATOM     19  C   UNL     1      35.459  16.483  43.392  1.00  0.00    -0.000 C 
BRANCH  19  20
ATOM     20  C   UNL     1      34.904  15.050  43.452  1.00  0.00    -0.000 C 
BRANCH  20  21
ATOM     21  C   UNL     1      35.651  14.084  42.514  1.00  0.00    -0.000 C 
BRANCH  21  22
ATOM     22  C   UNL     1      34.751  12.955  41.986  1.00  0.00    -0.000 C 
BRANCH  22  23
ATOM     23  C   UNL     1      34.434  13.103  40.488  1.00  0.00    -0.000 C 
BRANCH  23  24
ATOM     24  C   UNL     1      33.529  11.977  39.964  1.00  0.00    -0.000 C 
BRANCH  24  25
ATOM     25  C   UNL     1      33.980  10.586  40.434  1.00  0.00    -0.003 C 
ATOM     26  C   UNL     1      33.448   9.495  39.511  1.00  0.00     0.004 C 
ENDBRANCH  24  25
ENDBRANCH  23  24
ENDBRANCH  22  23
ENDBRANCH  21  22
ENDBRANCH  20  21
ENDBRANCH  19  20
ENDBRANCH  18  19
ENDBRANCH  17  18
ENDBRANCH  16  17
ENDBRANCH  15  16
ENDBRANCH   1  15
TORSDOF 22
ENDMDL
MODEL 5
REMARK VINA RESULT:     9.413      5.252     13.150
REMARK INTER + INTRA:          20.573
REMARK INTER:                  21.447
REMARK INTRA:                  -0.874
REMARK UNBOUND:                -0.947
REMARK SMILES CCCCCCCCCCCCCCCCCCCCCCCC(=O)[O-]
REMARK SMILES IDX 13 1 14 2 15 3 16 4 17 5 18 6 19 7 20 8 21 9 22 10 23 11
REMARK SMILES IDX 24 12 25 13 26 14 12 15 11 16 10 17 9 18 8 19 7 20 6 21 5 22
REMARK SMILES IDX 4 23 3 24 2 25 1 26
REMARK H PARENT
REMARK Flexibility Score: inf
ROOT
ATOM      1  C   UNL     1      31.492  21.011  36.921  1.00  0.00     0.000 C 
ENDROOT
BRANCH   1   2
ATOM      2  C   UNL     1      31.055  19.939  37.940  1.00  0.00     0.000 C 
BRANCH   2   3
ATOM      3  C   UNL     1      31.757  18.574  37.794  1.00  0.00     0.000 C 
BRANCH   3   4
ATOM      4  C   UNL     1      33.209  18.535  38.305  1.00  0.00     0.000 C 
BRANCH   4   5
ATOM      5  C   UNL     1      33.376  17.642  39.546  1.00  0.00     0.000 C 
BRANCH   5   6
ATOM      6  C   UNL     1      34.320  16.453  39.299  1.00  0.00     0.000 C 
BRANCH   6   7
ATOM      7  C   UNL     1      34.014  15.258  40.219  1.00  0.00     0.000 C 
BRANCH   7   8
ATOM      8  C   UNL     1      34.701  13.964  39.754  1.00  0.00     0.000 C 
BRANCH   8   9
ATOM      9  C   UNL     1      34.748  12.890  40.852  1.00  0.00     0.000 C 
BRANCH   9  10
ATOM     10  C   UNL     1      33.363  12.262  41.068  1.00  0.00     0.006 C 
BRANCH  10  11
ATOM     11  C   UNL     1      33.440  10.743  41.275  1.00  0.00     0.053 C 
BRANCH  11  12
ATOM     12  C   UNL     1      33.647  10.016  39.981  1.00  0.00     0.041 C 
ATOM     13  O   UNL     1      34.808   9.861  39.519  1.00  0.00    -0.550 OA
ATOM     14  O   UNL     1      32.555   9.540  39.268  1.00  0.00    -0.550 OA
ENDBRANCH  11  12
ENDBRANCH  10  11
ENDBRANCH   9  10
ENDBRANCH   8   9
ENDBRANCH   7   8
ENDBRANCH   6   7
ENDBRANCH   5   6
ENDBRANCH   4   5
ENDBRANCH   3   4
ENDBRANCH   2   3
ENDBRANCH   1   2
BRANCH   1  15
ATOM     15  C   UNL     1      31.989  22.329  37.540  1.00  0.00     0.000 C 
BRANCH  15  16
ATOM     16  C   UNL     1      31.543  23.567  36.746  1.00  0.00     0.000 C 
BRANCH  16  17
ATOM     17  C   UNL     1      32.148  23.560  35.334  1.00  0.00     0.000 C 
BRANCH  17  18
ATOM     18  C   UNL     1      32.102  24.942  34.662  1.00  0.00    -0.000 C 
BRANCH  18  19
ATOM     19  C   UNL     1      30.901  25.096  33.713  1.00  0.00    -0.000 C 
BRANCH  19  20
ATOM     20  C   UNL     1      31.315  25.105  32.232  1.00  0.00    -0.000 C 
BRANCH  20  21
ATOM     21  C   UNL     1      30.402  24.229  31.355  1.00  0.00    -0.000 C 
BRANCH  21  22
ATOM     22  C   UNL     1      30.272  24.761  29.919  1.00  0.00    -0.000 C 
BRANCH  22  23
ATOM     23  C   UNL     1      30.465  23.660  28.861  1.00  0.00    -0.000 C 
BRANCH  23  24
ATOM     24  C   UNL     1      31.759  22.859  29.074  1.00  0.00    -0.000 C 
BRANCH  24  25
ATOM     25  C   UNL     1      32.774  23.059  27.939  1.00  0.00    -0.003 C 
ATOM     26  C   UNL     1      33.890  24.010  28.360  1.00  0.00     0.004 C 
ENDBRANCH  24  25
ENDBRANCH  23  24
ENDBRANCH  22  23
ENDBRANCH  21  22
ENDBRANCH  20  21
ENDBRANCH  19  20
ENDBRANCH  18  19
ENDBRANCH  17  18
ENDBRANCH  16  17
ENDBRANCH  15  16
ENDBRANCH   1  15
TORSDOF 22
ENDMDL
MODEL 6
REMARK VINA RESULT:     9.529      5.124     13.320
REMARK INTER + INTRA:          20.838
REMARK INTER:                  22.105
REMARK INTRA:                  -1.267
REMARK UNBOUND:                -0.947
REMARK SMILES CCCCCCCCCCCCCCCCCCCCCCCC(=O)[O-]
REMARK SMILES IDX 13 1 14 2 15 3 16 4 17 5 18 6 19 7 20 8 21 9 22 10 23 11
REMARK SMILES IDX 24 12 25 13 26 14 12 15 11 16 10 17 9 18 8 19 7 20 6 21 5 22
REMARK SMILES IDX 4 23 3 24 2 25 1 26
REMARK H PARENT
REMARK Flexibility Score: inf
ROOT
ATOM      1  C   UNL     1      32.464  18.539  38.971  1.00  0.00     0.000 C 
ENDROOT
BRANCH   1   2
ATOM      2  C   UNL     1      33.859  17.910  38.788  1.00  0.00     0.000 C 
BRANCH   2   3
ATOM      3  C   UNL     1      34.290  16.937  39.904  1.00  0.00     0.000 C 
BRANCH   3   4
ATOM      4  C   UNL     1      33.860  17.349  41.323  1.00  0.00     0.000 C 
BRANCH   4   5
ATOM      5  C   UNL     1      35.037  17.378  42.314  1.00  0.00     0.000 C 
BRANCH   5   6
ATOM      6  C   UNL     1      34.835  16.423  43.502  1.00  0.00     0.000 C 
BRANCH   6   7
ATOM      7  C   UNL     1      34.543  14.979  43.054  1.00  0.00     0.000 C 
BRANCH   7   8
ATOM      8  C   UNL     1      35.801  14.249  42.557  1.00  0.00     0.000 C 
BRANCH   8   9
ATOM      9  C   UNL     1      35.522  12.792  42.159  1.00  0.00     0.000 C 
BRANCH   9  10
ATOM     10  C   UNL     1      34.571  12.722  40.954  1.00  0.00     0.006 C 
BRANCH  10  11
ATOM     11  C   UNL     1      33.446  11.699  41.160  1.00  0.00     0.053 C 
BRANCH  11  12
ATOM     12  C   UNL     1      33.598  10.516  40.254  1.00  0.00     0.041 C 
ATOM     13  O   UNL     1      34.721  10.235  39.759  1.00  0.00    -0.550 OA
ATOM     14  O   UNL     1      32.491   9.743  39.928  1.00  0.00    -0.550 OA
ENDBRANCH  11  12
ENDBRANCH  10  11
ENDBRANCH   9  10
ENDBRANCH   8   9
ENDBRANCH   7   8
ENDBRANCH   6   7
ENDBRANCH   5   6
ENDBRANCH   4   5
ENDBRANCH   3   4
ENDBRANCH   2   3
ENDBRANCH   1   2
BRANCH   1  15
ATOM     15  C   UNL     1      31.523  18.393  37.763  1.00  0.00     0.000 C 
BRANCH  15  16
ATOM     16  C   UNL     1      30.815  19.706  37.395  1.00  0.00     0.000 C 
BRANCH  16  17
ATOM     17  C   UNL     1      31.829  20.771  36.953  1.00  0.00     0.000 C 
BRANCH  17  18
ATOM     18  C   UNL     1      31.273  22.200  37.056  1.00  0.00    -0.000 C 
BRANCH  18  19
ATOM     19  C   UNL     1      32.361  23.233  37.396  1.00  0.00    -0.000 C 
BRANCH  19  20
ATOM     20  C   UNL     1      32.788  24.065  36.175  1.00  0.00    -0.000 C 
BRANCH  20  21
ATOM     21  C   UNL     1      31.600  24.763  35.488  1.00  0.00    -0.000 C 
BRANCH  21  22
ATOM     22  C   UNL     1      31.891  25.125  34.023  1.00  0.00    -0.000 C 
BRANCH  22  23
ATOM     23  C   UNL     1      30.636  25.061  33.136  1.00  0.00    -0.000 C 
BRANCH  23  24
ATOM     24  C   UNL     1      30.969  25.121  31.637  1.00  0.00    -0.000 C 
BRANCH  24  25
ATOM     25  C   UNL     1      30.502  23.871  30.876  1.00  0.00    -0.003 C 
ATOM     26  C   UNL     1      30.503  24.112  29.370  1.00  0.00     0.004 C 
ENDBRANCH  24  25
ENDBRANCH  23  24
ENDBRANCH  22  23
ENDBRANCH  21  22
ENDBRANCH  20  21
ENDBRANCH  19  20
ENDBRANCH  18  19
ENDBRANCH  17  18
ENDBRANCH  16  17
ENDBRANCH  15  16
ENDBRANCH   1  15
TORSDOF 22
ENDMDL
MODEL 7
REMARK VINA RESULT:    10.073      2.691      3.513
REMARK INTER + INTRA:          22.081
REMARK INTER:                  22.932
REMARK INTRA:                  -0.851
REMARK UNBOUND:                -0.947
REMARK SMILES CCCCCCCCCCCCCCCCCCCCCCCC(=O)[O-]
REMARK SMILES IDX 13 1 14 2 15 3 16 4 17 5 18 6 19 7 20 8 21 9 22 10 23 11
REMARK SMILES IDX 24 12 25 13 26 14 12 15 11 16 10 17 9 18 8 19 7 20 6 21 5 22
REMARK SMILES IDX 4 23 3 24 2 25 1 26
REMARK H PARENT
REMARK Flexibility Score: inf
ROOT
ATOM      1  C   UNL     1      31.851  21.641  36.477  1.00  0.00     0.000 C 
ENDROOT
BRANCH   1   2
ATOM      2  C   UNL     1      32.217  23.105  36.796  1.00  0.00     0.000 C 
BRANCH   2   3
ATOM      3  C   UNL     1      32.545  23.979  35.569  1.00  0.00     0.000 C 
BRANCH   3   4
ATOM      4  C   UNL     1      31.580  23.815  34.381  1.00  0.00     0.000 C 
BRANCH   4   5
ATOM      5  C   UNL     1      30.859  25.125  34.018  1.00  0.00     0.000 C 
BRANCH   5   6
ATOM      6  C   UNL     1      29.709  24.912  33.020  1.00  0.00     0.000 C 
BRANCH   6   7
ATOM      7  C   UNL     1      30.198  24.372  31.664  1.00  0.00     0.000 C 
BRANCH   7   8
ATOM      8  C   UNL     1      29.582  25.122  30.473  1.00  0.00     0.000 C 
BRANCH   8   9
ATOM      9  C   UNL     1      30.428  25.002  29.196  1.00  0.00     0.000 C 
BRANCH   9  10
ATOM     10  C   UNL     1      31.227  23.690  29.185  1.00  0.00     0.006 C 
BRANCH  10  11
ATOM     11  C   UNL     1      32.314  23.681  28.102  1.00  0.00     0.053 C 
BRANCH  11  12
ATOM     12  C   UNL     1      33.657  24.037  28.661  1.00  0.00     0.041 C 
ATOM     13  O   UNL     1      33.747  24.761  29.688  1.00  0.00    -0.550 OA
ATOM     14  O   UNL     1      34.813  23.599  28.027  1.00  0.00    -0.550 OA
ENDBRANCH  11  12
ENDBRANCH  10  11
ENDBRANCH   9  10
ENDBRANCH   8   9
ENDBRANCH   7   8
ENDBRANCH   6   7
ENDBRANCH   5   6
ENDBRANCH   4   5
ENDBRANCH   3   4
ENDBRANCH   2   3
ENDBRANCH   1   2
BRANCH   1  15
ATOM     15  C   UNL     1      31.224  20.861  37.645  1.00  0.00     0.000 C 
BRANCH  15  16
ATOM     16  C   UNL     1      31.489  19.350  37.563  1.00  0.00     0.000 C 
BRANCH  16  17
ATOM     17  C   UNL     1      32.882  19.007  38.112  1.00  0.00     0.000 C 
BRANCH  17  18
ATOM     18  C   UNL     1      32.836  17.975  39.250  1.00  0.00    -0.000 C 
BRANCH  18  19
ATOM     19  C   UNL     1      34.061  17.045  39.253  1.00  0.00    -0.000 C 
BRANCH  19  20
ATOM     20  C   UNL     1      33.814  15.745  40.035  1.00  0.00    -0.000 C 
BRANCH  20  21
ATOM     21  C   UNL     1      34.853  14.654  39.717  1.00  0.00    -0.000 C 
BRANCH  21  22
ATOM     22  C   UNL     1      34.225  13.259  39.576  1.00  0.00    -0.000 C 
BRANCH  22  23
ATOM     23  C   UNL     1      34.564  12.335  40.759  1.00  0.00    -0.000 C 
BRANCH  23  24
ATOM     24  C   UNL     1      33.466  11.293  41.026  1.00  0.00    -0.000 C 
BRANCH  24  25
ATOM     25  C   UNL     1      33.627  10.029  40.168  1.00  0.00    -0.003 C 
ATOM     26  C   UNL     1      32.357   9.736  39.376  1.00  0.00     0.004 C 
ENDBRANCH  24  25
ENDBRANCH  23  24
ENDBRANCH  22  23
ENDBRANCH  21  22
ENDBRANCH  20  21
ENDBRANCH  19  20
ENDBRANCH  18  19
ENDBRANCH  17  18
ENDBRANCH  16  17
ENDBRANCH  15  16
ENDBRANCH   1  15
TORSDOF 22
ENDMDL
