MODEL 1
REMARK VINA RESULT:    -2.435      0.000      0.000
REMARK INTER + INTRA:          -1.770
REMARK INTER:                  -3.574
REMARK INTRA:                   1.804
REMARK UNBOUND:                 1.804
REMARK SMILES Cc1cc2c(C(C)C)c(O)c(O)c(C=O)c2c(O)c1-c1c(C)cc2c(C(C)C)c(O)c(O)c(C=O)c2c1O
REMARK SMILES IDX 1 1 2 2 3 3 4 4 16 5 13 6 11 7 9 8 5 9 17 10 19 11 20 12
REMARK SMILES IDX 37 13 21 14 36 15 23 16 22 17 24 18 33 19 25 20 31 21 29 22
REMARK SMILES IDX 38 23 34 25 35 26 26 27 27 28 28 29 32 30 30 32 18 34 6 36
REMARK SMILES IDX 7 37 8 38 14 39 15 40 10 41 12 43
REMARK H PARENT 38 24 32 31 30 33 18 35 10 42 12 44
REMARK Flexibility Score: inf
ROOT
ATOM      1  C   UNL     1      -9.002  28.252  34.900  1.00  0.00     0.045 C 
ATOM      2  C   UNL     1      -8.142  27.790  36.052  1.00  0.00    -0.039 A 
ATOM      3  C   UNL     1      -7.871  26.428  36.197  1.00  0.00     0.013 A 
ATOM      4  C   UNL     1      -7.093  25.930  37.266  1.00  0.00    -0.006 A 
ATOM      5  C   UNL     1      -6.506  26.860  38.177  1.00  0.00     0.039 A 
ATOM      6  C   UNL     1      -5.722  26.364  39.260  1.00  0.00     0.072 A 
ATOM      7  C   UNL     1      -5.367  25.003  39.299  1.00  0.00     0.169 A 
ATOM      8  C   UNL     1      -5.857  24.113  38.328  1.00  0.00     0.162 A 
ATOM      9  C   UNL     1      -6.852  24.530  37.417  1.00  0.00     0.008 A 
ATOM     10  C   UNL     1      -6.685  28.257  37.951  1.00  0.00     0.132 A 
ATOM     11  C   UNL     1      -7.539  28.711  36.924  1.00  0.00     0.031 A 
ENDROOT
BRANCH  11  12
ATOM     12  C   UNL     1      -7.778  30.167  36.744  1.00  0.00     0.031 A 
ATOM     13  C   UNL     1      -7.381  30.814  35.555  1.00  0.00     0.132 A 
ATOM     14  C   UNL     1      -8.447  30.891  37.746  1.00  0.00    -0.039 A 
ATOM     15  C   UNL     1      -7.600  32.213  35.386  1.00  0.00     0.039 A 
ATOM     16  C   UNL     1      -8.753  32.235  37.534  1.00  0.00     0.013 A 
ATOM     17  C   UNL     1      -8.934  30.215  39.005  1.00  0.00     0.045 C 
ATOM     18  C   UNL     1      -8.327  32.930  36.385  1.00  0.00    -0.006 A 
ATOM     19  C   UNL     1      -7.167  32.906  34.220  1.00  0.00     0.072 A 
ATOM     20  C   UNL     1      -8.643  34.313  36.186  1.00  0.00     0.008 A 
ATOM     21  C   UNL     1      -7.662  34.189  33.952  1.00  0.00     0.169 A 
ATOM     22  C   UNL     1      -8.437  34.866  34.897  1.00  0.00     0.162 A 
BRANCH  13  23
ATOM     23  O   UNL     1      -6.819  30.060  34.518  1.00  0.00    -0.507 OA
ATOM     24  H   UNL     1      -5.903  29.631  34.563  1.00  0.00     0.293 HD
ENDBRANCH  13  23
BRANCH  19  25
ATOM     25  C   UNL     1      -6.167  32.365  33.276  1.00  0.00     0.264 C 
ATOM     26  O   UNL     1      -4.979  32.160  33.644  1.00  0.00    -0.298 OA
ENDBRANCH  19  25
BRANCH  20  27
ATOM     27  C   UNL     1      -9.125  35.252  37.310  1.00  0.00     0.017 C 
ATOM     28  C   UNL     1      -8.549  36.680  37.235  1.00  0.00     0.012 C 
ATOM     29  C   UNL     1      -8.994  34.625  38.705  1.00  0.00     0.012 C 
ENDBRANCH  20  27
BRANCH  21  30
ATOM     30  O   UNL     1      -7.355  34.799  32.730  1.00  0.00    -0.504 OA
ATOM     31  H   UNL     1      -6.524  34.569  32.198  1.00  0.00     0.293 HD
ENDBRANCH  21  30
BRANCH  22  32
ATOM     32  O   UNL     1      -8.985  36.098  34.523  1.00  0.00    -0.504 OA
ATOM     33  H   UNL     1      -9.571  36.661  35.126  1.00  0.00     0.293 HD
ENDBRANCH  22  32
ENDBRANCH  11  12
BRANCH  10  34
ATOM     34  O   UNL     1      -5.976  29.191  38.714  1.00  0.00    -0.507 OA
ATOM     35  H   UNL     1      -5.275  28.944  39.400  1.00  0.00     0.293 HD
ENDBRANCH  10  34
BRANCH   9  36
ATOM     36  C   UNL     1      -7.605  23.482  36.578  1.00  0.00     0.017 C 
ATOM     37  C   UNL     1      -9.118  23.596  36.786  1.00  0.00     0.012 C 
ATOM     38  C   UNL     1      -7.243  23.506  35.080  1.00  0.00     0.012 C 
ENDBRANCH   9  36
BRANCH   6  39
ATOM     39  C   UNL     1      -5.353  27.219  40.416  1.00  0.00     0.264 C 
ATOM     40  O   UNL     1      -6.223  27.858  41.063  1.00  0.00    -0.298 OA
ENDBRANCH   6  39
BRANCH   8  41
ATOM     41  O   UNL     1      -5.361  22.809  38.245  1.00  0.00    -0.504 OA
ATOM     42  H   UNL     1      -5.367  22.152  39.013  1.00  0.00     0.293 HD
ENDBRANCH   8  41
BRANCH   7  43
ATOM     43  O   UNL     1      -4.562  24.545  40.349  1.00  0.00    -0.504 OA
ATOM     44  H   UNL     1      -3.929  23.760  40.276  1.00  0.00     0.293 HD
ENDBRANCH   7  43
TORSDOF 11
ENDMDL
MODEL 2
REMARK VINA RESULT:     0.252      1.615      3.006
REMARK INTER + INTRA:           2.175
REMARK INTER:                  -2.660
REMARK INTRA:                   4.835
REMARK UNBOUND:                 1.804
REMARK SMILES Cc1cc2c(C(C)C)c(O)c(O)c(C=O)c2c(O)c1-c1c(C)cc2c(C(C)C)c(O)c(O)c(C=O)c2c1O
REMARK SMILES IDX 1 1 2 2 3 3 4 4 16 5 13 6 11 7 9 8 5 9 17 10 19 11 20 12
REMARK SMILES IDX 37 13 21 14 36 15 23 16 22 17 24 18 33 19 25 20 31 21 29 22
REMARK SMILES IDX 38 23 34 25 35 26 26 27 27 28 28 29 32 30 30 32 18 34 6 36
REMARK SMILES IDX 7 37 8 38 14 39 15 40 10 41 12 43
REMARK H PARENT 38 24 32 31 30 33 18 35 10 42 12 44
REMARK Flexibility Score: inf
ROOT
ATOM      1  C   UNL     1      -8.877  28.290  34.750  1.00  0.00     0.045 C 
ATOM      2  C   UNL     1      -8.084  28.048  36.013  1.00  0.00    -0.039 A 
ATOM      3  C   UNL     1      -7.833  26.736  36.417  1.00  0.00     0.013 A 
ATOM      4  C   UNL     1      -7.118  26.442  37.600  1.00  0.00    -0.006 A 
ATOM      5  C   UNL     1      -6.574  27.523  38.358  1.00  0.00     0.039 A 
ATOM      6  C   UNL     1      -5.854  27.234  39.554  1.00  0.00     0.072 A 
ATOM      7  C   UNL     1      -5.513  25.903  39.860  1.00  0.00     0.169 A 
ATOM      8  C   UNL     1      -5.957  24.850  39.041  1.00  0.00     0.162 A 
ATOM      9  C   UNL     1      -6.897  25.093  38.017  1.00  0.00     0.008 A 
ATOM     10  C   UNL     1      -6.729  28.855  37.872  1.00  0.00     0.132 A 
ATOM     11  C   UNL     1      -7.522  29.113  36.734  1.00  0.00     0.031 A 
ENDROOT
BRANCH  11  12
ATOM     12  C   UNL     1      -7.740  30.512  36.280  1.00  0.00     0.031 A 
ATOM     13  C   UNL     1      -8.035  31.527  37.214  1.00  0.00     0.132 A 
ATOM     14  C   UNL     1      -7.602  30.831  34.919  1.00  0.00    -0.039 A 
ATOM     15  C   UNL     1      -8.254  32.867  36.779  1.00  0.00     0.039 A 
ATOM     16  C   UNL     1      -7.713  32.159  34.509  1.00  0.00     0.013 A 
ATOM     17  C   UNL     1      -7.232  29.777  33.903  1.00  0.00     0.045 C 
ATOM     18  C   UNL     1      -8.060  33.193  35.401  1.00  0.00    -0.006 A 
ATOM     19  C   UNL     1      -8.603  33.905  37.688  1.00  0.00     0.072 A 
ATOM     20  C   UNL     1      -8.179  34.552  34.963  1.00  0.00     0.008 A 
ATOM     21  C   UNL     1      -8.509  35.243  37.283  1.00  0.00     0.169 A 
ATOM     22  C   UNL     1      -8.245  35.568  35.949  1.00  0.00     0.162 A 
BRANCH  13  23
ATOM     23  O   UNL     1      -8.057  31.219  38.579  1.00  0.00    -0.507 OA
ATOM     24  H   UNL     1      -7.310  30.736  39.062  1.00  0.00     0.293 HD
ENDBRANCH  13  23
BRANCH  19  25
ATOM     25  C   UNL     1      -9.118  33.654  39.051  1.00  0.00     0.264 C 
ATOM     26  O   UNL     1      -9.048  34.544  39.940  1.00  0.00    -0.298 OA
ENDBRANCH  19  25
BRANCH  20  27
ATOM     27  C   UNL     1      -8.312  34.966  33.485  1.00  0.00     0.017 C 
ATOM     28  C   UNL     1      -7.219  34.390  32.562  1.00  0.00     0.012 C 
ATOM     29  C   UNL     1      -8.511  36.478  33.307  1.00  0.00     0.012 C 
ENDBRANCH  20  27
BRANCH  21  30
ATOM     30  O   UNL     1      -8.702  36.259  38.226  1.00  0.00    -0.504 OA
ATOM     31  H   UNL     1      -9.534  36.321  38.801  1.00  0.00     0.293 HD
ENDBRANCH  21  30
BRANCH  22  32
ATOM     32  O   UNL     1      -8.061  36.919  35.636  1.00  0.00    -0.504 OA
ATOM     33  H   UNL     1      -8.243  37.316  34.723  1.00  0.00     0.293 HD
ENDBRANCH  22  32
ENDBRANCH  11  12
BRANCH  10  34
ATOM     34  O   UNL     1      -6.055  29.914  38.490  1.00  0.00    -0.507 OA
ATOM     35  H   UNL     1      -5.683  29.875  39.430  1.00  0.00     0.293 HD
ENDBRANCH  10  34
BRANCH   9  36
ATOM     36  C   UNL     1      -7.612  23.908  37.342  1.00  0.00     0.017 C 
ATOM     37  C   UNL     1      -9.125  24.143  37.280  1.00  0.00     0.012 C 
ATOM     38  C   UNL     1      -7.046  23.546  35.955  1.00  0.00     0.012 C 
ENDBRANCH   9  36
BRANCH   6  39
ATOM     39  C   UNL     1      -5.541  28.285  40.554  1.00  0.00     0.264 C 
ATOM     40  O   UNL     1      -4.439  28.895  40.541  1.00  0.00    -0.298 OA
ENDBRANCH   6  39
BRANCH   8  41
ATOM     41  O   UNL     1      -5.468  23.554  39.224  1.00  0.00    -0.504 OA
ATOM     42  H   UNL     1      -4.876  23.276  39.994  1.00  0.00     0.293 HD
ENDBRANCH   8  41
BRANCH   7  43
ATOM     43  O   UNL     1      -4.770  25.645  41.018  1.00  0.00    -0.504 OA
ATOM     44  H   UNL     1      -5.029  25.969  41.940  1.00  0.00     0.293 HD
ENDBRANCH   7  43
TORSDOF 11
ENDMDL
MODEL 3
REMARK VINA RESULT:     0.499      1.755      3.156
REMARK INTER + INTRA:           2.537
REMARK INTER:                   0.813
REMARK INTRA:                   1.724
REMARK UNBOUND:                 1.804
REMARK SMILES Cc1cc2c(C(C)C)c(O)c(O)c(C=O)c2c(O)c1-c1c(C)cc2c(C(C)C)c(O)c(O)c(C=O)c2c1O
REMARK SMILES IDX 1 1 2 2 3 3 4 4 16 5 13 6 11 7 9 8 5 9 17 10 19 11 20 12
REMARK SMILES IDX 37 13 21 14 36 15 23 16 22 17 24 18 33 19 25 20 31 21 29 22
REMARK SMILES IDX 38 23 34 25 35 26 26 27 27 28 28 29 32 30 30 32 18 34 6 36
REMARK SMILES IDX 7 37 8 38 14 39 15 40 10 41 12 43
REMARK H PARENT 38 24 32 31 30 33 18 35 10 42 12 44
REMARK Flexibility Score: inf
ROOT
ATOM      1  C   UNL     1      -5.833  28.879  40.123  1.00  0.00     0.045 C 
ATOM      2  C   UNL     1      -6.473  27.770  39.322  1.00  0.00    -0.039 A 
ATOM      3  C   UNL     1      -6.259  26.444  39.703  1.00  0.00     0.013 A 
ATOM      4  C   UNL     1      -6.809  25.361  38.983  1.00  0.00    -0.006 A 
ATOM      5  C   UNL     1      -7.672  25.640  37.879  1.00  0.00     0.039 A 
ATOM      6  C   UNL     1      -8.228  24.552  37.146  1.00  0.00     0.072 A 
ATOM      7  C   UNL     1      -8.095  23.239  37.635  1.00  0.00     0.169 A 
ATOM      8  C   UNL     1      -7.337  22.985  38.791  1.00  0.00     0.162 A 
ATOM      9  C   UNL     1      -6.554  24.009  39.367  1.00  0.00     0.008 A 
ATOM     10  C   UNL     1      -7.985  26.998  37.572  1.00  0.00     0.132 A 
ATOM     11  C   UNL     1      -7.347  28.051  38.261  1.00  0.00     0.031 A 
ENDROOT
BRANCH  11  12
ATOM     12  C   UNL     1      -7.624  29.462  37.882  1.00  0.00     0.031 A 
ATOM     13  C   UNL     1      -7.219  29.955  36.623  1.00  0.00     0.132 A 
ATOM     14  C   UNL     1      -8.333  30.293  38.765  1.00  0.00    -0.039 A 
ATOM     15  C   UNL     1      -7.474  31.311  36.263  1.00  0.00     0.039 A 
ATOM     16  C   UNL     1      -8.673  31.587  38.369  1.00  0.00     0.013 A 
ATOM     17  C   UNL     1      -8.827  29.778  40.096  1.00  0.00     0.045 C 
ATOM     18  C   UNL     1      -8.243  32.133  37.144  1.00  0.00    -0.006 A 
ATOM     19  C   UNL     1      -7.037  31.854  35.022  1.00  0.00     0.072 A 
ATOM     20  C   UNL     1      -8.593  33.467  36.755  1.00  0.00     0.008 A 
ATOM     21  C   UNL     1      -7.562  33.074  34.575  1.00  0.00     0.169 A 
ATOM     22  C   UNL     1      -8.376  33.848  35.407  1.00  0.00     0.162 A 
BRANCH  13  23
ATOM     23  O   UNL     1      -6.615  29.086  35.708  1.00  0.00    -0.507 OA
ATOM     24  H   UNL     1      -6.716  28.079  35.732  1.00  0.00     0.293 HD
ENDBRANCH  13  23
BRANCH  19  25
ATOM     25  C   UNL     1      -6.001  31.222  34.177  1.00  0.00     0.264 C 
ATOM     26  O   UNL     1      -5.001  31.880  33.784  1.00  0.00    -0.298 OA
ENDBRANCH  19  25
BRANCH  20  27
ATOM     27  C   UNL     1      -9.124  34.533  37.733  1.00  0.00     0.017 C 
ATOM     28  C   UNL     1      -8.793  35.984  37.333  1.00  0.00     0.012 C 
ATOM     29  C   UNL     1      -8.781  34.221  39.196  1.00  0.00     0.012 C 
ENDBRANCH  20  27
BRANCH  21  30
ATOM     30  O   UNL     1      -7.246  33.523  33.288  1.00  0.00    -0.504 OA
ATOM     31  H   UNL     1      -6.355  33.946  33.059  1.00  0.00     0.293 HD
ENDBRANCH  21  30
BRANCH  22  32
ATOM     32  O   UNL     1      -8.950  35.001  34.860  1.00  0.00    -0.504 OA
ATOM     33  H   UNL     1      -9.155  35.116  33.876  1.00  0.00     0.293 HD
ENDBRANCH  22  32
ENDBRANCH  11  12
BRANCH  10  34
ATOM     34  O   UNL     1      -8.965  27.297  36.619  1.00  0.00    -0.507 OA
ATOM     35  H   UNL     1      -9.947  27.409  36.835  1.00  0.00     0.293 HD
ENDBRANCH  10  34
BRANCH   9  36
ATOM     36  C   UNL     1      -5.494  23.653  40.426  1.00  0.00     0.017 C 
ATOM     37  C   UNL     1      -5.839  22.334  41.125  1.00  0.00     0.012 C 
ATOM     38  C   UNL     1      -4.051  23.637  39.883  1.00  0.00     0.012 C 
ENDBRANCH   9  36
BRANCH   6  39
ATOM     39  C   UNL     1      -8.859  24.744  35.815  1.00  0.00     0.264 C 
ATOM     40  O   UNL     1      -8.492  24.075  34.813  1.00  0.00    -0.298 OA
ENDBRANCH   6  39
BRANCH   8  41
ATOM     41  O   UNL     1      -7.356  21.723  39.390  1.00  0.00    -0.504 OA
ATOM     42  H   UNL     1      -7.403  20.854  38.876  1.00  0.00     0.293 HD
ENDBRANCH   8  41
BRANCH   7  43
ATOM     43  O   UNL     1      -8.684  22.189  36.920  1.00  0.00    -0.504 OA
ATOM     44  H   UNL     1      -9.465  22.303  36.288  1.00  0.00     0.293 HD
ENDBRANCH   7  43
TORSDOF 11
ENDMDL
