MODEL 1
REMARK VINA RESULT:    -4.210      0.000      0.000
REMARK INTER + INTRA:          -5.305
REMARK INTER:                  -5.195
REMARK INTRA:                  -0.111
REMARK UNBOUND:                -0.111
REMARK SMILES CCCCCC(=O)[O-]
REMARK SMILES IDX 4 1 5 2 6 3 7 4 8 5 3 6 2 7 1 8
REMARK H PARENT
REMARK Flexibility Score: inf
ROOT
ATOM      1  C   UNL     1      -3.580  -5.778  -5.683  1.00  0.00     0.006 C 
ENDROOT
BRANCH   1   2
ATOM      2  C   UNL     1      -5.052  -5.625  -6.079  1.00  0.00     0.053 C 
BRANCH   2   3
ATOM      3  C   UNL     1      -5.847  -6.802  -5.606  1.00  0.00     0.041 C 
ATOM      4  O   UNL     1      -5.583  -7.956  -6.033  1.00  0.00    -0.550 OA
ATOM      5  O   UNL     1      -6.911  -6.616  -4.733  1.00  0.00    -0.550 OA
ENDBRANCH   2   3
ENDBRANCH   1   2
BRANCH   1   6
ATOM      6  C   UNL     1      -2.891  -4.411  -5.590  1.00  0.00     0.000 C 
BRANCH   6   7
ATOM      7  C   UNL     1      -3.882  -3.276  -5.868  1.00  0.00    -0.003 C 
ATOM      8  C   UNL     1      -3.174  -1.925  -5.914  1.00  0.00     0.004 C 
ENDBRANCH   6   7
ENDBRANCH   1   6
TORSDOF 4
ENDMDL
MODEL 2
REMARK VINA RESULT:    -3.576      5.805      7.029
REMARK INTER + INTRA:          -4.523
REMARK INTER:                  -4.285
REMARK INTRA:                  -0.238
REMARK UNBOUND:                -0.111
REMARK SMILES CCCCCC(=O)[O-]
REMARK SMILES IDX 4 1 5 2 6 3 7 4 8 5 3 6 2 7 1 8
REMARK H PARENT
REMARK Flexibility Score: inf
ROOT
ATOM      1  C   UNL     1     -11.062  -4.089  -3.023  1.00  0.00     0.006 C 
ENDROOT
BRANCH   1   2
ATOM      2  C   UNL     1     -10.651  -3.250  -1.809  1.00  0.00     0.053 C 
BRANCH   2   3
ATOM      3  C   UNL     1      -9.160  -3.164  -1.711  1.00  0.00     0.041 C 
ATOM      4  O   UNL     1      -8.473  -4.209  -1.575  1.00  0.00    -0.550 OA
ATOM      5  O   UNL     1      -8.534  -1.924  -1.721  1.00  0.00    -0.550 OA
ENDBRANCH   2   3
ENDBRANCH   1   2
BRANCH   1   6
ATOM      6  C   UNL     1     -11.125  -3.228  -4.290  1.00  0.00     0.000 C 
BRANCH   6   7
ATOM      7  C   UNL     1      -9.972  -3.565  -5.241  1.00  0.00    -0.003 C 
ATOM      8  C   UNL     1      -9.506  -5.006  -5.054  1.00  0.00     0.004 C 
ENDBRANCH   6   7
ENDBRANCH   1   6
TORSDOF 4
ENDMDL
MODEL 3
REMARK VINA RESULT:    -3.556      5.631      6.947
REMARK INTER + INTRA:          -4.498
REMARK INTER:                  -4.232
REMARK INTRA:                  -0.266
REMARK UNBOUND:                -0.111
REMARK SMILES CCCCCC(=O)[O-]
REMARK SMILES IDX 4 1 5 2 6 3 7 4 8 5 3 6 2 7 1 8
REMARK H PARENT
REMARK Flexibility Score: inf
ROOT
ATOM      1  C   UNL     1     -11.123  -4.110  -2.870  1.00  0.00     0.006 C 
ENDROOT
BRANCH   1   2
ATOM      2  C   UNL     1     -10.692  -3.073  -1.829  1.00  0.00     0.053 C 
BRANCH   2   3
ATOM      3  C   UNL     1      -9.202  -3.057  -1.689  1.00  0.00     0.041 C 
ATOM      4  O   UNL     1      -8.568  -1.974  -1.790  1.00  0.00    -0.550 OA
ATOM      5  O   UNL     1      -8.509  -4.246  -1.500  1.00  0.00    -0.550 OA
ENDBRANCH   2   3
ENDBRANCH   1   2
BRANCH   1   6
ATOM      6  C   UNL     1     -10.654  -3.708  -4.273  1.00  0.00     0.000 C 
BRANCH   6   7
ATOM      7  C   UNL     1      -9.996  -4.891  -4.992  1.00  0.00    -0.003 C 
ATOM      8  C   UNL     1      -8.477  -4.745  -5.017  1.00  0.00     0.004 C 
ENDBRANCH   6   7
ENDBRANCH   1   6
TORSDOF 4
ENDMDL
MODEL 4
REMARK VINA RESULT:    -3.478     17.936     19.168
REMARK INTER + INTRA:          -4.402
REMARK INTER:                  -4.347
REMARK INTRA:                  -0.055
REMARK UNBOUND:                -0.111
REMARK SMILES CCCCCC(=O)[O-]
REMARK SMILES IDX 4 1 5 2 6 3 7 4 8 5 3 6 2 7 1 8
REMARK H PARENT
REMARK Flexibility Score: inf
ROOT
ATOM      1  C   UNL     1      -4.289   5.203  10.081  1.00  0.00     0.006 C 
ENDROOT
BRANCH   1   2
ATOM      2  C   UNL     1      -2.982   5.934   9.763  1.00  0.00     0.053 C 
BRANCH   2   3
ATOM      3  C   UNL     1      -3.231   7.399   9.583  1.00  0.00     0.041 C 
ATOM      4  O   UNL     1      -4.408   7.833   9.481  1.00  0.00    -0.550 OA
ATOM      5  O   UNL     1      -2.161   8.278   9.476  1.00  0.00    -0.550 OA
ENDBRANCH   2   3
ENDBRANCH   1   2
BRANCH   1   6
ATOM      6  C   UNL     1      -4.174   3.707   9.765  1.00  0.00     0.000 C 
BRANCH   6   7
ATOM      7  C   UNL     1      -5.494   3.158   9.215  1.00  0.00    -0.003 C 
ATOM      8  C   UNL     1      -5.304   1.771   8.607  1.00  0.00     0.004 C 
ENDBRANCH   6   7
ENDBRANCH   1   6
TORSDOF 4
ENDMDL
MODEL 5
REMARK VINA RESULT:    -3.362      1.399      2.108
REMARK INTER + INTRA:          -4.259
REMARK INTER:                  -4.175
REMARK INTRA:                  -0.084
REMARK UNBOUND:                -0.111
REMARK SMILES CCCCCC(=O)[O-]
REMARK SMILES IDX 4 1 5 2 6 3 7 4 8 5 3 6 2 7 1 8
REMARK H PARENT
REMARK Flexibility Score: inf
ROOT
ATOM      1  C   UNL     1      -5.214  -6.733  -6.244  1.00  0.00     0.006 C 
ENDROOT
BRANCH   1   2
ATOM      2  C   UNL     1      -6.312  -5.794  -6.753  1.00  0.00     0.053 C 
BRANCH   2   3
ATOM      3  C   UNL     1      -7.447  -5.738  -5.779  1.00  0.00     0.041 C 
ATOM      4  O   UNL     1      -8.296  -4.811  -5.849  1.00  0.00    -0.550 OA
ATOM      5  O   UNL     1      -7.539  -6.681  -4.764  1.00  0.00    -0.550 OA
ENDBRANCH   2   3
ENDBRANCH   1   2
BRANCH   1   6
ATOM      6  C   UNL     1      -3.967  -5.945  -5.826  1.00  0.00     0.000 C 
BRANCH   6   7
ATOM      7  C   UNL     1      -4.182  -4.439  -6.007  1.00  0.00    -0.003 C 
ATOM      8  C   UNL     1      -2.942  -3.651  -5.594  1.00  0.00     0.004 C 
ENDBRANCH   6   7
ENDBRANCH   1   6
TORSDOF 4
ENDMDL
MODEL 6
REMARK VINA RESULT:    -3.352      2.431      3.846
REMARK INTER + INTRA:          -4.247
REMARK INTER:                  -4.073
REMARK INTRA:                  -0.173
REMARK UNBOUND:                -0.111
REMARK SMILES CCCCCC(=O)[O-]
REMARK SMILES IDX 4 1 5 2 6 3 7 4 8 5 3 6 2 7 1 8
REMARK H PARENT
REMARK Flexibility Score: inf
ROOT
ATOM      1  C   UNL     1      -6.773  -5.682  -7.358  1.00  0.00     0.006 C 
ENDROOT
BRANCH   1   2
ATOM      2  C   UNL     1      -5.629  -5.456  -6.364  1.00  0.00     0.053 C 
BRANCH   2   3
ATOM      3  C   UNL     1      -4.950  -6.751  -6.044  1.00  0.00     0.041 C 
ATOM      4  O   UNL     1      -3.715  -6.775  -5.801  1.00  0.00    -0.550 OA
ATOM      5  O   UNL     1      -5.671  -7.938  -6.065  1.00  0.00    -0.550 OA
ENDBRANCH   2   3
ENDBRANCH   1   2
BRANCH   1   6
ATOM      6  C   UNL     1      -8.053  -4.979  -6.891  1.00  0.00     0.000 C 
BRANCH   6   7
ATOM      7  C   UNL     1      -8.377  -5.336  -5.437  1.00  0.00    -0.003 C 
ATOM      8  C   UNL     1      -9.017  -4.157  -4.709  1.00  0.00     0.004 C 
ENDBRANCH   6   7
ENDBRANCH   1   6
TORSDOF 4
ENDMDL
MODEL 7
REMARK VINA RESULT:    -3.336      5.115      6.156
REMARK INTER + INTRA:          -4.226
REMARK INTER:                  -4.181
REMARK INTRA:                  -0.045
REMARK UNBOUND:                -0.111
REMARK SMILES CCCCCC(=O)[O-]
REMARK SMILES IDX 4 1 5 2 6 3 7 4 8 5 3 6 2 7 1 8
REMARK H PARENT
REMARK Flexibility Score: inf
ROOT
ATOM      1  C   UNL     1      -9.267  -3.825  -3.812  1.00  0.00     0.006 C 
ENDROOT
BRANCH   1   2
ATOM      2  C   UNL     1      -9.566  -4.812  -4.944  1.00  0.00     0.053 C 
BRANCH   2   3
ATOM      3  C   UNL     1      -8.293  -5.326  -5.540  1.00  0.00     0.041 C 
ATOM      4  O   UNL     1      -7.900  -4.899  -6.657  1.00  0.00    -0.550 OA
ATOM      5  O   UNL     1      -7.569  -6.315  -4.886  1.00  0.00    -0.550 OA
ENDBRANCH   2   3
ENDBRANCH   1   2
BRANCH   1   6
ATOM      6  C   UNL     1     -10.450  -3.727  -2.841  1.00  0.00     0.000 C 
BRANCH   6   7
ATOM      7  C   UNL     1      -9.976  -3.340  -1.436  1.00  0.00    -0.003 C 
ATOM      8  C   UNL     1     -11.124  -3.401  -0.431  1.00  0.00     0.004 C 
ENDBRANCH   6   7
ENDBRANCH   1   6
TORSDOF 4
ENDMDL
MODEL 8
REMARK VINA RESULT:    -3.245      3.178      4.464
REMARK INTER + INTRA:          -4.115
REMARK INTER:                  -4.042
REMARK INTRA:                  -0.073
REMARK UNBOUND:                -0.111
REMARK SMILES CCCCCC(=O)[O-]
REMARK SMILES IDX 4 1 5 2 6 3 7 4 8 5 3 6 2 7 1 8
REMARK H PARENT
REMARK Flexibility Score: inf
ROOT
ATOM      1  C   UNL     1      -7.977  -5.099  -6.157  1.00  0.00     0.006 C 
ENDROOT
BRANCH   1   2
ATOM      2  C   UNL     1      -9.166  -5.273  -5.206  1.00  0.00     0.053 C 
BRANCH   2   3
ATOM      3  C   UNL     1      -9.227  -4.140  -4.230  1.00  0.00     0.041 C 
ATOM      4  O   UNL     1      -9.511  -2.979  -4.625  1.00  0.00    -0.550 OA
ATOM      5  O   UNL     1      -8.921  -4.357  -2.893  1.00  0.00    -0.550 OA
ENDBRANCH   2   3
ENDBRANCH   1   2
BRANCH   1   6
ATOM      6  C   UNL     1      -6.805  -5.996  -5.742  1.00  0.00     0.000 C 
BRANCH   6   7
ATOM      7  C   UNL     1      -5.482  -5.464  -6.302  1.00  0.00    -0.003 C 
ATOM      8  C   UNL     1      -4.316  -6.369  -5.915  1.00  0.00     0.004 C 
ENDBRANCH   6   7
ENDBRANCH   1   6
TORSDOF 4
ENDMDL
