MODEL 1
REMARK VINA RESULT:    -3.305      0.000      0.000
REMARK INTER + INTRA:          -3.843
REMARK INTER:                  -3.595
REMARK INTRA:                  -0.248
REMARK UNBOUND:                -0.248
REMARK SMILES C[C@@H]1[C@H](C)CC[C@@]2(C(=O)[O-])CC[C@@]3(C)C(=CC[C@@H]4[C@@]5(C)CC[C@H](O)C(C)(C)[C@@H]5CC[C@@]43C)[C@@H]12
REMARK SMILES IDX 7 1 6 2 11 3 33 4 5 5 12 6 15 7 2 8 3 9 13 10 16 11 1 12
REMARK SMILES IDX 4 13 14 14 31 15 17 16 18 17 30 18 32 19 19 20 29 21 28 22
REMARK SMILES IDX 21 23 20 24 25 25 22 26 23 27 26 28 27 29 8 30 9 31 10 32
REMARK SMILES IDX 24 33
REMARK H PARENT 24 34
REMARK Flexibility Score: inf
ROOT
ATOM      1  C   UNL     1     -15.953 -35.173  19.139  1.00  0.00     0.017 C 
ATOM      2  C   UNL     1     -17.125 -34.574  18.281  1.00  0.00     0.014 C 
ATOM      3  C   UNL     1     -15.189 -36.154  18.208  1.00  0.00     0.014 C 
ATOM      4  C   UNL     1     -15.033 -34.030  19.789  1.00  0.00     0.030 C 
ATOM      5  C   UNL     1     -16.716 -33.408  17.360  1.00  0.00     0.004 C 
ATOM      6  C   UNL     1     -13.784 -36.456  18.694  1.00  0.00     0.013 C 
ATOM      7  C   UNL     1     -13.522 -34.080  19.442  1.00  0.00    -0.063 C 
ATOM      8  C   UNL     1     -15.626 -32.589  19.565  1.00  0.00    -0.003 C 
ATOM      9  C   UNL     1     -15.865 -32.320  18.060  1.00  0.00    -0.011 C 
ATOM     10  C   UNL     1     -12.857 -35.208  18.629  1.00  0.00    -0.006 C 
ATOM     11  C   UNL     1     -12.711 -33.124  19.948  1.00  0.00    -0.027 C 
ATOM     12  C   UNL     1     -16.851 -32.282  20.466  1.00  0.00     0.008 C 
ATOM     13  C   UNL     1     -16.407 -30.906  17.789  1.00  0.00     0.008 C 
ATOM     14  C   UNL     1     -12.758 -34.740  17.143  1.00  0.00     0.017 C 
ATOM     15  C   UNL     1     -11.392 -35.552  19.233  1.00  0.00    -0.020 C 
ATOM     16  C   UNL     1     -11.335 -32.921  19.400  1.00  0.00     0.032 C 
ATOM     17  C   UNL     1     -10.518 -34.231  19.488  1.00  0.00     0.006 C 
ATOM     18  C   UNL     1     -10.642 -36.561  18.302  1.00  0.00     0.008 C 
ATOM     19  C   UNL     1     -11.541 -36.274  20.616  1.00  0.00     0.012 C 
ATOM     20  C   UNL     1      -9.080 -34.168  18.811  1.00  0.00    -0.025 C 
ATOM     21  C   UNL     1      -9.159 -36.794  18.640  1.00  0.00     0.005 C 
ATOM     22  C   UNL     1      -8.374 -35.537  19.126  1.00  0.00     0.003 C 
ATOM     23  C   UNL     1      -8.267 -33.019  19.500  1.00  0.00     0.010 C 
ATOM     24  C   UNL     1      -9.148 -33.856  17.284  1.00  0.00     0.012 C 
ATOM     25  C   UNL     1      -6.819 -35.599  18.849  1.00  0.00    -0.006 C 
ATOM     26  C   UNL     1      -6.760 -33.045  19.220  1.00  0.00     0.033 C 
ATOM     27  C   UNL     1      -6.130 -34.399  19.576  1.00  0.00     0.120 C 
ATOM     28  C   UNL     1      -6.439 -35.606  17.337  1.00  0.00     0.014 C 
ATOM     29  C   UNL     1      -6.260 -36.904  19.477  1.00  0.00     0.014 C 
ENDROOT
BRANCH   1  30
ATOM     30  C   UNL     1     -16.572 -36.019  20.258  1.00  0.00     0.048 C 
ATOM     31  O   UNL     1     -17.125 -37.125  19.998  1.00  0.00    -0.550 OA
ATOM     32  O   UNL     1     -16.427 -35.653  21.592  1.00  0.00    -0.550 OA
ENDBRANCH   1  30
BRANCH  27  33
ATOM     33  O   UNL     1      -4.758 -34.366  19.270  1.00  0.00    -0.393 OA
ATOM     34  H   UNL     1      -4.673 -34.621  18.311  1.00  0.00     0.210 HD
ENDBRANCH  27  33
TORSDOF 2
ENDMDL
MODEL 2
REMARK VINA RESULT:    -1.541     19.979     22.919
REMARK INTER + INTRA:          -1.924
REMARK INTER:                  -1.811
REMARK INTRA:                  -0.113
REMARK UNBOUND:                -0.248
REMARK SMILES C[C@@H]1[C@H](C)CC[C@@]2(C(=O)[O-])CC[C@@]3(C)C(=CC[C@@H]4[C@@]5(C)CC[C@H](O)C(C)(C)[C@@H]5CC[C@@]43C)[C@@H]12
REMARK SMILES IDX 7 1 6 2 11 3 33 4 5 5 12 6 15 7 2 8 3 9 13 10 16 11 1 12
REMARK SMILES IDX 4 13 14 14 31 15 17 16 18 17 30 18 32 19 19 20 29 21 28 22
REMARK SMILES IDX 21 23 20 24 25 25 22 26 23 27 26 28 27 29 8 30 9 31 10 32
REMARK SMILES IDX 24 33
REMARK H PARENT 24 34
REMARK Flexibility Score: inf
ROOT
ATOM      1  C   UNL     1      -2.501 -18.707  35.963  1.00  0.00     0.017 C 
ATOM      2  C   UNL     1      -2.641 -17.197  35.554  1.00  0.00     0.014 C 
ATOM      3  C   UNL     1      -3.638 -18.988  36.985  1.00  0.00     0.014 C 
ATOM      4  C   UNL     1      -2.504 -19.683  34.689  1.00  0.00     0.030 C 
ATOM      5  C   UNL     1      -3.704 -16.920  34.473  1.00  0.00     0.004 C 
ATOM      6  C   UNL     1      -3.954 -20.465  37.125  1.00  0.00     0.013 C 
ATOM      7  C   UNL     1      -3.596 -20.784  34.667  1.00  0.00    -0.063 C 
ATOM      8  C   UNL     1      -2.463 -18.888  33.331  1.00  0.00    -0.003 C 
ATOM      9  C   UNL     1      -3.625 -17.870  33.253  1.00  0.00    -0.011 C 
ATOM     10  C   UNL     1      -4.571 -21.062  35.828  1.00  0.00    -0.006 C 
ATOM     11  C   UNL     1      -3.652 -21.616  33.602  1.00  0.00    -0.027 C 
ATOM     12  C   UNL     1      -1.069 -18.286  33.015  1.00  0.00     0.008 C 
ATOM     13  C   UNL     1      -3.648 -17.097  31.922  1.00  0.00     0.008 C 
ATOM     14  C   UNL     1      -5.909 -20.314  35.526  1.00  0.00     0.017 C 
ATOM     15  C   UNL     1      -4.818 -22.656  35.992  1.00  0.00    -0.020 C 
ATOM     16  C   UNL     1      -4.856 -22.468  33.361  1.00  0.00     0.032 C 
ATOM     17  C   UNL     1      -5.140 -23.365  34.590  1.00  0.00     0.006 C 
ATOM     18  C   UNL     1      -5.944 -22.929  37.041  1.00  0.00     0.008 C 
ATOM     19  C   UNL     1      -3.526 -23.339  36.562  1.00  0.00     0.012 C 
ATOM     20  C   UNL     1      -6.478 -24.220  34.498  1.00  0.00    -0.025 C 
ATOM     21  C   UNL     1      -6.431 -24.386  37.125  1.00  0.00     0.005 C 
ATOM     22  C   UNL     1      -6.507 -25.148  35.766  1.00  0.00     0.003 C 
ATOM     23  C   UNL     1      -6.392 -25.124  33.221  1.00  0.00     0.010 C 
ATOM     24  C   UNL     1      -7.753 -23.329  34.367  1.00  0.00     0.012 C 
ATOM     25  C   UNL     1      -7.562 -26.325  35.744  1.00  0.00    -0.006 C 
ATOM     26  C   UNL     1      -7.426 -26.255  33.167  1.00  0.00     0.033 C 
ATOM     27  C   UNL     1      -7.381 -27.139  34.421  1.00  0.00     0.120 C 
ATOM     28  C   UNL     1      -9.043 -25.860  35.895  1.00  0.00     0.014 C 
ATOM     29  C   UNL     1      -7.252 -27.284  36.925  1.00  0.00     0.014 C 
ENDROOT
BRANCH   1  30
ATOM     30  C   UNL     1      -1.178 -18.871  36.721  1.00  0.00     0.048 C 
ATOM     31  O   UNL     1      -0.728 -20.020  36.989  1.00  0.00    -0.550 OA
ATOM     32  O   UNL     1      -0.383 -17.768  37.015  1.00  0.00    -0.550 OA
ENDBRANCH   1  30
BRANCH  27  33
ATOM     33  O   UNL     1      -8.369 -28.134  34.323  1.00  0.00    -0.393 OA
ATOM     34  H   UNL     1      -8.979 -28.011  35.100  1.00  0.00     0.210 HD
ENDBRANCH  27  33
TORSDOF 2
ENDMDL
MODEL 3
REMARK VINA RESULT:    -1.397     20.189     22.957
REMARK INTER + INTRA:          -1.768
REMARK INTER:                  -1.745
REMARK INTRA:                  -0.023
REMARK UNBOUND:                -0.248
REMARK SMILES C[C@@H]1[C@H](C)CC[C@@]2(C(=O)[O-])CC[C@@]3(C)C(=CC[C@@H]4[C@@]5(C)CC[C@H](O)C(C)(C)[C@@H]5CC[C@@]43C)[C@@H]12
REMARK SMILES IDX 7 1 6 2 11 3 33 4 5 5 12 6 15 7 2 8 3 9 13 10 16 11 1 12
REMARK SMILES IDX 4 13 14 14 31 15 17 16 18 17 30 18 32 19 19 20 29 21 28 22
REMARK SMILES IDX 21 23 20 24 25 25 22 26 23 27 26 28 27 29 8 30 9 31 10 32
REMARK SMILES IDX 24 33
REMARK H PARENT 24 34
REMARK Flexibility Score: inf
ROOT
ATOM      1  C   UNL     1      -3.981 -18.514  35.035  1.00  0.00     0.017 C 
ATOM      2  C   UNL     1      -2.773 -17.932  34.217  1.00  0.00     0.014 C 
ATOM      3  C   UNL     1      -5.002 -19.042  33.988  1.00  0.00     0.014 C 
ATOM      4  C   UNL     1      -3.514 -19.609  36.110  1.00  0.00     0.030 C 
ATOM      5  C   UNL     1      -1.758 -18.987  33.734  1.00  0.00     0.004 C 
ATOM      6  C   UNL     1      -5.982 -20.040  34.572  1.00  0.00     0.013 C 
ATOM      7  C   UNL     1      -4.162 -21.013  35.991  1.00  0.00    -0.063 C 
ATOM      8  C   UNL     1      -1.947 -19.708  36.217  1.00  0.00    -0.003 C 
ATOM      9  C   UNL     1      -1.318 -19.987  34.831  1.00  0.00    -0.011 C 
ATOM     10  C   UNL     1      -5.290 -21.366  35.001  1.00  0.00    -0.006 C 
ATOM     11  C   UNL     1      -3.783 -21.976  36.861  1.00  0.00    -0.027 C 
ATOM     12  C   UNL     1      -1.307 -18.516  36.976  1.00  0.00     0.008 C 
ATOM     13  C   UNL     1       0.214 -20.132  34.894  1.00  0.00     0.008 C 
ATOM     14  C   UNL     1      -4.640 -22.017  33.739  1.00  0.00     0.017 C 
ATOM     15  C   UNL     1      -6.358 -22.371  35.692  1.00  0.00    -0.020 C 
ATOM     16  C   UNL     1      -4.111 -23.411  36.604  1.00  0.00     0.032 C 
ATOM     17  C   UNL     1      -5.638 -23.596  36.438  1.00  0.00     0.006 C 
ATOM     18  C   UNL     1      -7.395 -22.875  34.637  1.00  0.00     0.008 C 
ATOM     19  C   UNL     1      -7.188 -21.603  36.777  1.00  0.00     0.012 C 
ATOM     20  C   UNL     1      -6.092 -25.065  36.027  1.00  0.00    -0.025 C 
ATOM     21  C   UNL     1      -8.323 -24.008  35.111  1.00  0.00     0.005 C 
ATOM     22  C   UNL     1      -7.664 -25.071  36.043  1.00  0.00     0.003 C 
ATOM     23  C   UNL     1      -5.579 -26.058  37.125  1.00  0.00     0.010 C 
ATOM     24  C   UNL     1      -5.496 -25.517  34.658  1.00  0.00     0.012 C 
ATOM     25  C   UNL     1      -8.356 -26.491  35.994  1.00  0.00    -0.006 C 
ATOM     26  C   UNL     1      -6.217 -27.451  37.075  1.00  0.00     0.033 C 
ATOM     27  C   UNL     1      -7.750 -27.386  37.124  1.00  0.00     0.120 C 
ATOM     28  C   UNL     1      -8.241 -27.210  34.615  1.00  0.00     0.014 C 
ATOM     29  C   UNL     1      -9.867 -26.312  36.303  1.00  0.00     0.014 C 
ENDROOT
BRANCH   1  30
ATOM     30  C   UNL     1      -4.662 -17.349  35.765  1.00  0.00     0.048 C 
ATOM     31  O   UNL     1      -5.754 -16.875  35.343  1.00  0.00    -0.550 OA
ATOM     32  O   UNL     1      -4.162 -16.875  36.973  1.00  0.00    -0.550 OA
ENDBRANCH   1  30
BRANCH  27  33
ATOM     33  O   UNL     1      -8.272 -28.689  37.046  1.00  0.00    -0.393 OA
ATOM     34  H   UNL     1      -7.916 -29.188  37.830  1.00  0.00     0.210 HD
ENDBRANCH  27  33
TORSDOF 2
ENDMDL
MODEL 4
REMARK VINA RESULT:    -0.939     19.544     22.257
REMARK INTER + INTRA:          -1.270
REMARK INTER:                  -1.283
REMARK INTRA:                   0.014
REMARK UNBOUND:                -0.248
REMARK SMILES C[C@@H]1[C@H](C)CC[C@@]2(C(=O)[O-])CC[C@@]3(C)C(=CC[C@@H]4[C@@]5(C)CC[C@H](O)C(C)(C)[C@@H]5CC[C@@]43C)[C@@H]12
REMARK SMILES IDX 7 1 6 2 11 3 33 4 5 5 12 6 15 7 2 8 3 9 13 10 16 11 1 12
REMARK SMILES IDX 4 13 14 14 31 15 17 16 18 17 30 18 32 19 19 20 29 21 28 22
REMARK SMILES IDX 21 23 20 24 25 25 22 26 23 27 26 28 27 29 8 30 9 31 10 32
REMARK SMILES IDX 24 33
REMARK H PARENT 24 34
REMARK Flexibility Score: inf
ROOT
ATOM      1  C   UNL     1      -3.297 -19.205  34.607  1.00  0.00     0.017 C 
ATOM      2  C   UNL     1      -2.973 -17.983  35.540  1.00  0.00     0.014 C 
ATOM      3  C   UNL     1      -2.602 -20.439  35.249  1.00  0.00     0.014 C 
ATOM      4  C   UNL     1      -4.874 -19.385  34.371  1.00  0.00     0.030 C 
ATOM      5  C   UNL     1      -3.876 -17.867  36.783  1.00  0.00     0.004 C 
ATOM      6  C   UNL     1      -3.181 -21.756  34.770  1.00  0.00     0.013 C 
ATOM      7  C   UNL     1      -5.478 -20.758  34.768  1.00  0.00    -0.063 C 
ATOM      8  C   UNL     1      -5.707 -18.195  34.978  1.00  0.00    -0.003 C 
ATOM      9  C   UNL     1      -5.388 -18.009  36.479  1.00  0.00    -0.011 C 
ATOM     10  C   UNL     1      -4.647 -21.964  35.247  1.00  0.00    -0.006 C 
ATOM     11  C   UNL     1      -6.807 -20.948  34.609  1.00  0.00    -0.027 C 
ATOM     12  C   UNL     1      -5.610 -16.891  34.142  1.00  0.00     0.008 C 
ATOM     13  C   UNL     1      -6.211 -16.880  37.125  1.00  0.00     0.008 C 
ATOM     14  C   UNL     1      -4.664 -21.974  36.809  1.00  0.00     0.017 C 
ATOM     15  C   UNL     1      -5.254 -23.343  34.648  1.00  0.00    -0.020 C 
ATOM     16  C   UNL     1      -7.498 -22.101  35.264  1.00  0.00     0.032 C 
ATOM     17  C   UNL     1      -6.844 -23.437  34.838  1.00  0.00     0.006 C 
ATOM     18  C   UNL     1      -4.530 -24.577  35.279  1.00  0.00     0.008 C 
ATOM     19  C   UNL     1      -4.973 -23.423  33.108  1.00  0.00     0.012 C 
ATOM     20  C   UNL     1      -7.413 -24.724  35.579  1.00  0.00    -0.025 C 
ATOM     21  C   UNL     1      -5.162 -25.945  34.967  1.00  0.00     0.005 C 
ATOM     22  C   UNL     1      -6.721 -25.969  34.914  1.00  0.00     0.003 C 
ATOM     23  C   UNL     1      -8.954 -24.805  35.302  1.00  0.00     0.010 C 
ATOM     24  C   UNL     1      -7.208 -24.669  37.125  1.00  0.00     0.012 C 
ATOM     25  C   UNL     1      -7.357 -27.378  35.242  1.00  0.00    -0.006 C 
ATOM     26  C   UNL     1      -9.595 -26.155  35.641  1.00  0.00     0.033 C 
ATOM     27  C   UNL     1      -8.889 -27.323  34.937  1.00  0.00     0.120 C 
ATOM     28  C   UNL     1      -7.113 -27.865  36.704  1.00  0.00     0.014 C 
ATOM     29  C   UNL     1      -6.732 -28.433  34.289  1.00  0.00     0.014 C 
ENDROOT
BRANCH   1  30
ATOM     30  C   UNL     1      -2.609 -18.964  33.258  1.00  0.00     0.048 C 
ATOM     31  O   UNL     1      -2.516 -19.894  32.408  1.00  0.00    -0.550 OA
ATOM     32  O   UNL     1      -2.189 -17.690  32.889  1.00  0.00    -0.550 OA
ENDBRANCH   1  30
BRANCH  27  33
ATOM     33  O   UNL     1      -9.505 -28.530  35.312  1.00  0.00    -0.393 OA
ATOM     34  H   UNL     1      -8.775 -29.189  35.464  1.00  0.00     0.210 HD
ENDBRANCH  27  33
TORSDOF 2
ENDMDL
