MODEL 1
REMARK VINA RESULT:    -1.365      0.000      0.000
REMARK INTER + INTRA:          -1.768
REMARK INTER:                  -2.003
REMARK INTRA:                   0.235
REMARK UNBOUND:                 0.235
REMARK SMILES C=C1CC=CC(C)(C)CC=C(C)CCC1
REMARK SMILES IDX 2 1 1 2 15 3 14 4 13 5 11 6 12 7 10 8 3 10 4 11 5 12 6 13
REMARK SMILES IDX 7 14 8 15 9 16
REMARK H PARENT
REMARK Flexibility Score: 60.00
ROOT
ATOM      1  C   UNL     1     167.496 170.641 138.224  1.00  0.00    -0.074 C 
ATOM      2  C   UNL     1     168.399 169.928 137.531  1.00  0.00     0.008 C 
ENDROOT
BRANCH   1   3
ATOM      3  C   UNL     1     167.118 170.202 139.627  1.00  0.00     0.031 C 
BRANCH   3   4
ATOM      4  C   UNL     1     168.324 169.803 140.512  1.00  0.00     0.009 C 
BRANCH   4   5
ATOM      5  C   UNL     1     169.022 170.948 141.289  1.00  0.00     0.030 C 
BRANCH   5   6
ATOM      6  C   UNL     1     169.975 171.788 140.459  1.00  0.00    -0.077 C 
ATOM      7  C   UNL     1     171.304 171.188 140.072  1.00  0.00     0.039 C 
ATOM      8  C   UNL     1     169.740 173.073 140.102  1.00  0.00    -0.027 CG0
ATOM      9  G   UNL     1     168.442 173.834 140.266  1.00  0.00     0.000 G0
ENDBRANCH   5   6
ENDBRANCH   4   5
ENDBRANCH   3   4
ENDBRANCH   1   3
BRANCH   1  10
ATOM     10  C   UNL     1     166.879 171.883 137.606  1.00  0.00     0.057 C 
BRANCH  10  11
ATOM     11  C   UNL     1     167.958 172.847 137.161  1.00  0.00    -0.026 C 
ATOM     12  C   UNL     1     168.303 174.040 137.707  1.00  0.00    -0.024 C 
BRANCH  12  13
ATOM     13  C   UNL     1     167.889 174.646 139.054  1.00  0.00    -0.014 C 
ATOM     14  C   UNL     1     168.356 176.120 139.111  1.00  0.00     0.016 C 
ATOM     15  C   UNL     1     166.342 174.668 139.121  1.00  0.00     0.016 C 
BRANCH  13  16
ATOM     16  C   UNL     1     168.445 173.868 140.289  1.00  0.00     0.038 CG0
ATOM     17  G   UNL     1     169.719 173.078 140.081  1.00  0.00     0.000 G0
ENDBRANCH  13  16
ENDBRANCH  12  13
ENDBRANCH  10  11
ENDBRANCH   1  10
TORSDOF 0
ENDMDL
MODEL 2
REMARK VINA RESULT:    -1.219      1.574      2.874
REMARK INTER + INTRA:          -1.554
REMARK INTER:                  -1.786
REMARK INTRA:                   0.232
REMARK UNBOUND:                 0.235
REMARK SMILES C=C1CC=CC(C)(C)CC=C(C)CCC1
REMARK SMILES IDX 2 1 1 2 15 3 14 4 13 5 11 6 12 7 10 8 3 10 4 11 5 12 6 13
REMARK SMILES IDX 7 14 8 15 9 16
REMARK H PARENT
REMARK Flexibility Score: 60.00
ROOT
ATOM      1  C   UNL     1     167.843 171.228 141.588  1.00  0.00    -0.074 C 
ATOM      2  C   UNL     1     168.921 171.275 142.386  1.00  0.00     0.008 C 
ENDROOT
BRANCH   1   3
ATOM      3  C   UNL     1     167.761 170.165 140.508  1.00  0.00     0.031 C 
BRANCH   3   4
ATOM      4  C   UNL     1     169.065 169.988 139.692  1.00  0.00     0.009 C 
BRANCH   4   5
ATOM      5  C   UNL     1     169.124 170.703 138.318  1.00  0.00     0.030 C 
BRANCH   5   6
ATOM      6  C   UNL     1     169.705 172.105 138.358  1.00  0.00    -0.077 C 
ATOM      7  C   UNL     1     171.205 172.258 138.298  1.00  0.00     0.039 C 
ATOM      8  C   UNL     1     168.966 173.228 138.517  1.00  0.00    -0.027 CG0
ATOM      9  G   UNL     1     167.457 173.332 138.474  1.00  0.00     0.000 G0
ENDBRANCH   5   6
ENDBRANCH   4   5
ENDBRANCH   3   4
ENDBRANCH   1   3
BRANCH   1  10
ATOM     10  C   UNL     1     166.714 172.224 141.785  1.00  0.00     0.057 C 
BRANCH  10  11
ATOM     11  C   UNL     1     167.250 173.639 141.806  1.00  0.00    -0.026 C 
ATOM     12  C   UNL     1     167.370 174.514 140.776  1.00  0.00    -0.024 C 
BRANCH  12  13
ATOM     13  C   UNL     1     166.783 174.431 139.362  1.00  0.00    -0.014 C 
ATOM     14  C   UNL     1     165.261 174.172 139.460  1.00  0.00     0.016 C 
ATOM     15  C   UNL     1     166.955 175.813 138.684  1.00  0.00     0.016 C 
BRANCH  13  16
ATOM     16  C   UNL     1     167.448 173.335 138.470  1.00  0.00     0.038 CG0
ATOM     17  G   UNL     1     168.957 173.229 138.529  1.00  0.00     0.000 G0
ENDBRANCH  13  16
ENDBRANCH  12  13
ENDBRANCH  10  11
ENDBRANCH   1  10
TORSDOF 0
ENDMDL
MODEL 3
REMARK VINA RESULT:    -1.146     12.276     14.496
REMARK INTER + INTRA:          -1.447
REMARK INTER:                  -1.893
REMARK INTRA:                   0.447
REMARK UNBOUND:                 0.235
REMARK SMILES C=C1CC=CC(C)(C)CC=C(C)CCC1
REMARK SMILES IDX 2 1 1 2 15 3 14 4 13 5 11 6 12 7 10 8 3 10 4 11 5 12 6 13
REMARK SMILES IDX 7 14 8 15 9 16
REMARK H PARENT
REMARK Flexibility Score: 60.00
ROOT
ATOM      1  C   UNL     1     165.171 157.478 139.322  1.00  0.00    -0.074 C 
ATOM      2  C   UNL     1     165.890 156.363 139.121  1.00  0.00     0.008 C 
ENDROOT
BRANCH   1   3
ATOM      3  C   UNL     1     164.864 158.389 138.148  1.00  0.00     0.031 C 
BRANCH   3   4
ATOM      4  C   UNL     1     163.389 158.347 137.682  1.00  0.00     0.009 C 
BRANCH   4   5
ATOM      5  C   UNL     1     162.519 159.584 138.022  1.00  0.00     0.030 C 
BRANCH   5   6
ATOM      6  C   UNL     1     161.696 159.449 139.290  1.00  0.00    -0.077 C 
ATOM      7  C   UNL     1     160.484 158.550 139.263  1.00  0.00     0.039 C 
ATOM      8  C   UNL     1     161.936 160.142 140.429  1.00  0.00    -0.027 CG0
ATOM      9  G   UNL     1     163.150 160.995 140.729  1.00  0.00     0.000 G0
ENDBRANCH   5   6
ENDBRANCH   4   5
ENDBRANCH   3   4
ENDBRANCH   1   3
BRANCH   1  10
ATOM     10  C   UNL     1     164.656 157.804 140.713  1.00  0.00     0.057 C 
BRANCH  10  11
ATOM     11  C   UNL     1     165.575 158.788 141.403  1.00  0.00    -0.026 C 
ATOM     12  C   UNL     1     165.287 160.027 141.873  1.00  0.00    -0.024 C 
BRANCH  12  13
ATOM     13  C   UNL     1     163.921 160.695 142.072  1.00  0.00    -0.014 C 
ATOM     14  C   UNL     1     163.043 159.792 142.972  1.00  0.00     0.016 C 
ATOM     15  C   UNL     1     164.136 162.018 142.847  1.00  0.00     0.016 C 
BRANCH  13  16
ATOM     16  C   UNL     1     163.170 160.998 140.736  1.00  0.00     0.038 CG0
ATOM     17  G   UNL     1     161.948 160.158 140.435  1.00  0.00     0.000 G0
ENDBRANCH  13  16
ENDBRANCH  12  13
ENDBRANCH  10  11
ENDBRANCH   1  10
TORSDOF 0
ENDMDL
MODEL 4
REMARK VINA RESULT:    -1.122     12.092     14.721
REMARK INTER + INTRA:          -1.412
REMARK INTER:                  -1.782
REMARK INTRA:                   0.370
REMARK UNBOUND:                 0.235
REMARK SMILES C=C1CC=CC(C)(C)CC=C(C)CCC1
REMARK SMILES IDX 2 1 1 2 15 3 14 4 13 5 11 6 12 7 10 8 3 10 4 11 5 12 6 13
REMARK SMILES IDX 7 14 8 15 9 16
REMARK H PARENT
REMARK Flexibility Score: 60.00
ROOT
ATOM      1  C   UNL     1     165.659 161.049 138.399  1.00  0.00    -0.074 C 
ATOM      2  C   UNL     1     164.974 162.143 138.766  1.00  0.00     0.008 C 
ENDROOT
BRANCH   1   3
ATOM      3  C   UNL     1     165.196 160.248 137.195  1.00  0.00     0.031 C 
BRANCH   3   4
ATOM      4  C   UNL     1     163.660 160.217 137.009  1.00  0.00     0.009 C 
BRANCH   4   5
ATOM      5  C   UNL     1     162.953 158.870 137.308  1.00  0.00     0.030 C 
BRANCH   5   6
ATOM      6  C   UNL     1     162.688 158.608 138.780  1.00  0.00    -0.077 C 
ATOM      7  C   UNL     1     161.352 159.018 139.349  1.00  0.00     0.039 C 
ATOM      8  C   UNL     1     163.602 158.094 139.636  1.00  0.00    -0.027 CG0
ATOM      9  G   UNL     1     164.947 157.500 139.274  1.00  0.00     0.000 G0
ENDBRANCH   5   6
ENDBRANCH   4   5
ENDBRANCH   3   4
ENDBRANCH   1   3
BRANCH   1  10
ATOM     10  C   UNL     1     166.897 160.636 139.177  1.00  0.00     0.057 C 
BRANCH  10  11
ATOM     11  C   UNL     1     166.527 160.226 140.586  1.00  0.00    -0.026 C 
ATOM     12  C   UNL     1     166.106 159.016 141.031  1.00  0.00    -0.024 C 
BRANCH  12  13
ATOM     13  C   UNL     1     166.114 157.662 140.311  1.00  0.00    -0.014 C 
ATOM     14  C   UNL     1     167.479 157.472 139.607  1.00  0.00     0.016 C 
ATOM     15  C   UNL     1     166.007 156.545 141.379  1.00  0.00     0.016 C 
BRANCH  13  16
ATOM     16  C   UNL     1     164.958 157.495 139.274  1.00  0.00     0.038 CG0
ATOM     17  G   UNL     1     163.623 158.111 139.635  1.00  0.00     0.000 G0
ENDBRANCH  13  16
ENDBRANCH  12  13
ENDBRANCH  10  11
ENDBRANCH   1  10
TORSDOF 0
ENDMDL
MODEL 5
REMARK VINA RESULT:    -1.115     13.164     14.952
REMARK INTER + INTRA:          -1.401
REMARK INTER:                  -1.678
REMARK INTRA:                   0.276
REMARK UNBOUND:                 0.235
REMARK SMILES C=C1CC=CC(C)(C)CC=C(C)CCC1
REMARK SMILES IDX 2 1 1 2 15 3 14 4 13 5 11 6 12 7 10 8 3 10 4 11 5 12 6 13
REMARK SMILES IDX 7 14 8 15 9 16
REMARK H PARENT
REMARK Flexibility Score: 60.00
ROOT
ATOM      1  C   UNL     1     161.893 160.863 141.980  1.00  0.00    -0.074 C 
ATOM      2  C   UNL     1     160.973 160.842 142.958  1.00  0.00     0.008 C 
ENDROOT
BRANCH   1   3
ATOM      3  C   UNL     1     161.482 161.271 140.578  1.00  0.00     0.031 C 
BRANCH   3   4
ATOM      4  C   UNL     1     160.176 160.605 140.082  1.00  0.00     0.009 C 
BRANCH   4   5
ATOM      5  C   UNL     1     160.329 159.273 139.305  1.00  0.00     0.030 C 
BRANCH   5   6
ATOM      6  C   UNL     1     161.433 159.272 138.263  1.00  0.00    -0.077 C 
ATOM      7  C   UNL     1     161.159 159.925 136.931  1.00  0.00     0.039 C 
ATOM      8  C   UNL     1     162.628 158.656 138.424  1.00  0.00    -0.027 CG0
ATOM      9  G   UNL     1     163.170 158.053 139.702  1.00  0.00     0.000 G0
ENDBRANCH   5   6
ENDBRANCH   4   5
ENDBRANCH   3   4
ENDBRANCH   1   3
BRANCH   1  10
ATOM     10  C   UNL     1     163.334 160.497 142.292  1.00  0.00     0.057 C 
BRANCH  10  11
ATOM     11  C   UNL     1     164.230 160.814 141.114  1.00  0.00    -0.026 C 
ATOM     12  C   UNL     1     164.853 159.953 140.271  1.00  0.00    -0.024 C 
BRANCH  12  13
ATOM     13  C   UNL     1     164.648 158.443 140.100  1.00  0.00    -0.014 C 
ATOM     14  C   UNL     1     165.648 157.913 139.044  1.00  0.00     0.016 C 
ATOM     15  C   UNL     1     165.008 157.751 141.438  1.00  0.00     0.016 C 
BRANCH  13  16
ATOM     16  C   UNL     1     163.192 158.050 139.692  1.00  0.00     0.038 CG0
ATOM     17  G   UNL     1     162.652 158.661 138.418  1.00  0.00     0.000 G0
ENDBRANCH  13  16
ENDBRANCH  12  13
ENDBRANCH  10  11
ENDBRANCH   1  10
TORSDOF 0
ENDMDL
MODEL 6
REMARK VINA RESULT:    -1.060     13.688     15.056
REMARK INTER + INTRA:          -1.321
REMARK INTER:                  -1.649
REMARK INTRA:                   0.329
REMARK UNBOUND:                 0.235
REMARK SMILES C=C1CC=CC(C)(C)CC=C(C)CCC1
REMARK SMILES IDX 2 1 1 2 15 3 14 4 13 5 11 6 12 7 10 8 3 10 4 11 5 12 6 13
REMARK SMILES IDX 7 14 8 15 9 16
REMARK H PARENT
REMARK Flexibility Score: 60.00
ROOT
ATOM      1  C   UNL     1     167.068 157.014 140.257  1.00  0.00    -0.074 C 
ATOM      2  C   UNL     1     167.545 155.902 139.675  1.00  0.00     0.008 C 
ENDROOT
BRANCH   1   3
ATOM      3  C   UNL     1     166.428 158.089 139.398  1.00  0.00     0.031 C 
BRANCH   3   4
ATOM      4  C   UNL     1     165.004 157.739 138.902  1.00  0.00     0.009 C 
BRANCH   4   5
ATOM      5  C   UNL     1     163.922 157.534 139.992  1.00  0.00     0.030 C 
BRANCH   5   6
ATOM      6  C   UNL     1     163.367 158.817 140.584  1.00  0.00    -0.077 C 
ATOM      7  C   UNL     1     162.528 159.706 139.699  1.00  0.00     0.039 C 
ATOM      8  C   UNL     1     163.635 159.253 141.837  1.00  0.00    -0.027 CG0
ATOM      9  G   UNL     1     164.338 158.481 142.933  1.00  0.00     0.000 G0
ENDBRANCH   5   6
ENDBRANCH   4   5
ENDBRANCH   3   4
ENDBRANCH   1   3
BRANCH   1  10
ATOM     10  C   UNL     1     167.156 157.174 141.764  1.00  0.00     0.057 C 
BRANCH  10  11
ATOM     11  C   UNL     1     167.489 158.605 142.128  1.00  0.00    -0.026 C 
ATOM     12  C   UNL     1     166.750 159.489 142.845  1.00  0.00    -0.024 C 
BRANCH  12  13
ATOM     13  C   UNL     1     165.499 159.241 143.696  1.00  0.00    -0.014 C 
ATOM     14  C   UNL     1     165.898 158.444 144.961  1.00  0.00     0.016 C 
ATOM     15  C   UNL     1     164.965 160.610 144.184  1.00  0.00     0.016 C 
BRANCH  13  16
ATOM     16  C   UNL     1     164.362 158.487 142.935  1.00  0.00     0.038 CG0
ATOM     17  G   UNL     1     163.650 159.251 141.840  1.00  0.00     0.000 G0
ENDBRANCH  13  16
ENDBRANCH  12  13
ENDBRANCH  10  11
ENDBRANCH   1  10
TORSDOF 0
ENDMDL
MODEL 7
REMARK VINA RESULT:    -1.043     11.319     13.910
REMARK INTER + INTRA:          -1.296
REMARK INTER:                  -1.496
REMARK INTRA:                   0.200
REMARK UNBOUND:                 0.235
REMARK SMILES C=C1CC=CC(C)(C)CC=C(C)CCC1
REMARK SMILES IDX 2 1 1 2 15 3 14 4 13 5 11 6 12 7 10 8 3 10 4 11 5 12 6 13
REMARK SMILES IDX 7 14 8 15 9 16
REMARK H PARENT
REMARK Flexibility Score: 60.00
ROOT
ATOM      1  C   UNL     1     166.613 159.773 139.983  1.00  0.00    -0.074 C 
ATOM      2  C   UNL     1     166.690 160.888 140.725  1.00  0.00     0.008 C 
ENDROOT
BRANCH   1   3
ATOM      3  C   UNL     1     167.218 159.761 138.590  1.00  0.00     0.031 C 
BRANCH   3   4
ATOM      4  C   UNL     1     166.919 161.032 137.760  1.00  0.00     0.009 C 
BRANCH   4   5
ATOM      5  C   UNL     1     165.561 161.069 137.014  1.00  0.00     0.030 C 
BRANCH   5   6
ATOM      6  C   UNL     1     164.405 161.615 137.832  1.00  0.00    -0.077 C 
ATOM      7  C   UNL     1     164.292 163.110 138.000  1.00  0.00     0.039 C 
ATOM      8  C   UNL     1     163.504 160.842 138.484  1.00  0.00    -0.027 CG0
ATOM      9  G   UNL     1     163.343 159.343 138.362  1.00  0.00     0.000 G0
ENDBRANCH   5   6
ENDBRANCH   4   5
ENDBRANCH   3   4
ENDBRANCH   1   3
BRANCH   1  10
ATOM     10  C   UNL     1     165.941 158.534 140.548  1.00  0.00     0.057 C 
BRANCH  10  11
ATOM     11  C   UNL     1     164.722 158.913 141.361  1.00  0.00    -0.026 C 
ATOM     12  C   UNL     1     163.434 159.026 140.950  1.00  0.00    -0.024 C 
BRANCH  12  13
ATOM     13  C   UNL     1     162.793 158.574 139.633  1.00  0.00    -0.014 C 
ATOM     14  C   UNL     1     163.011 157.051 139.461  1.00  0.00     0.016 C 
ATOM     15  C   UNL     1     161.264 158.794 139.737  1.00  0.00     0.016 C 
BRANCH  13  16
ATOM     16  C   UNL     1     163.338 159.329 138.378  1.00  0.00     0.038 CG0
ATOM     17  G   UNL     1     163.505 160.828 138.503  1.00  0.00     0.000 G0
ENDBRANCH  13  16
ENDBRANCH  12  13
ENDBRANCH  10  11
ENDBRANCH   1  10
TORSDOF 0
ENDMDL
MODEL 8
REMARK VINA RESULT:    -1.001      1.837      4.033
REMARK INTER + INTRA:          -1.235
REMARK INTER:                  -1.640
REMARK INTRA:                   0.405
REMARK UNBOUND:                 0.235
REMARK SMILES C=C1CC=CC(C)(C)CC=C(C)CCC1
REMARK SMILES IDX 2 1 1 2 15 3 14 4 13 5 11 6 12 7 10 8 3 10 4 11 5 12 6 13
REMARK SMILES IDX 7 14 8 15 9 16
REMARK H PARENT
REMARK Flexibility Score: 60.00
ROOT
ATOM      1  C   UNL     1     166.420 171.322 141.242  1.00  0.00    -0.074 C 
ATOM      2  C   UNL     1     166.576 171.555 142.555  1.00  0.00     0.008 C 
ENDROOT
BRANCH   1   3
ATOM      3  C   UNL     1     165.076 171.597 140.591  1.00  0.00     0.031 C 
BRANCH   3   4
ATOM      4  C   UNL     1     164.913 173.042 140.062  1.00  0.00     0.009 C 
BRANCH   4   5
ATOM      5  C   UNL     1     165.720 173.410 138.791  1.00  0.00     0.030 C 
BRANCH   5   6
ATOM      6  C   UNL     1     166.918 174.308 139.040  1.00  0.00    -0.077 C 
ATOM      7  C   UNL     1     166.737 175.508 139.937  1.00  0.00     0.039 C 
ATOM      8  C   UNL     1     168.126 174.144 138.450  1.00  0.00    -0.027 CG0
ATOM      9  G   UNL     1     168.574 172.958 137.623  1.00  0.00     0.000 G0
ENDBRANCH   5   6
ENDBRANCH   4   5
ENDBRANCH   3   4
ENDBRANCH   1   3
BRANCH   1  10
ATOM     10  C   UNL     1     167.589 170.807 140.421  1.00  0.00     0.057 C 
BRANCH  10  11
ATOM     11  C   UNL     1     168.823 171.648 140.666  1.00  0.00    -0.026 C 
ATOM     12  C   UNL     1     169.750 172.070 139.771  1.00  0.00    -0.024 C 
BRANCH  12  13
ATOM     13  C   UNL     1     169.702 172.038 138.238  1.00  0.00    -0.014 C 
ATOM     14  C   UNL     1     171.081 172.465 137.680  1.00  0.00     0.016 C 
ATOM     15  C   UNL     1     169.477 170.573 137.790  1.00  0.00     0.016 C 
BRANCH  13  16
ATOM     16  C   UNL     1     168.584 172.941 137.626  1.00  0.00     0.038 CG0
ATOM     17  G   UNL     1     168.136 174.127 138.453  1.00  0.00     0.000 G0
ENDBRANCH  13  16
ENDBRANCH  12  13
ENDBRANCH  10  11
ENDBRANCH   1  10
TORSDOF 0
ENDMDL
MODEL 9
REMARK VINA RESULT:    -0.915      1.789      2.817
REMARK INTER + INTRA:          -1.108
REMARK INTER:                  -1.628
REMARK INTRA:                   0.520
REMARK UNBOUND:                 0.235
REMARK SMILES C=C1CC=CC(C)(C)CC=C(C)CCC1
REMARK SMILES IDX 2 1 1 2 15 3 14 4 13 5 11 6 12 7 10 8 3 10 4 11 5 12 6 13
REMARK SMILES IDX 7 14 8 15 9 16
REMARK H PARENT
REMARK Flexibility Score: 60.00
ROOT
ATOM      1  C   UNL     1     168.909 172.860 138.207  1.00  0.00    -0.074 C 
ATOM      2  C   UNL     1     168.589 172.740 136.909  1.00  0.00     0.008 C 
ENDROOT
BRANCH   1   3
ATOM      3  C   UNL     1     169.614 171.713 138.910  1.00  0.00     0.031 C 
BRANCH   3   4
ATOM      4  C   UNL     1     168.895 170.349 138.772  1.00  0.00     0.009 C 
BRANCH   4   5
ATOM      5  C   UNL     1     167.946 169.946 139.929  1.00  0.00     0.030 C 
BRANCH   5   6
ATOM      6  C   UNL     1     168.029 170.837 141.155  1.00  0.00    -0.077 C 
ATOM      7  C   UNL     1     169.161 170.612 142.126  1.00  0.00     0.039 C 
ATOM      8  C   UNL     1     167.108 171.777 141.474  1.00  0.00    -0.027 CG0
ATOM      9  G   UNL     1     165.970 172.261 140.601  1.00  0.00     0.000 G0
ENDBRANCH   5   6
ENDBRANCH   4   5
ENDBRANCH   3   4
ENDBRANCH   1   3
BRANCH   1  10
ATOM     10  C   UNL     1     168.583 174.143 138.951  1.00  0.00     0.057 C 
BRANCH  10  11
ATOM     11  C   UNL     1     167.216 174.655 138.553  1.00  0.00    -0.026 C 
ATOM     12  C   UNL     1     166.021 174.430 139.155  1.00  0.00    -0.024 C 
BRANCH  12  13
ATOM     13  C   UNL     1     165.728 173.813 140.528  1.00  0.00    -0.014 C 
ATOM     14  C   UNL     1     166.596 174.521 141.596  1.00  0.00     0.016 C 
ATOM     15  C   UNL     1     164.252 174.109 140.889  1.00  0.00     0.016 C 
BRANCH  13  16
ATOM     16  C   UNL     1     165.973 172.271 140.588  1.00  0.00     0.038 CG0
ATOM     17  G   UNL     1     167.102 171.793 141.477  1.00  0.00     0.000 G0
ENDBRANCH  13  16
ENDBRANCH  12  13
ENDBRANCH  10  11
ENDBRANCH   1  10
TORSDOF 0
ENDMDL
