MODEL 1
REMARK VINA RESULT:    -3.965      0.000      0.000
REMARK INTER + INTRA:          -7.682
REMARK INTER:                  -6.051
REMARK INTRA:                  -1.631
REMARK UNBOUND:                -1.631
REMARK SMILES OC[C@@H]1O[C@@](CO)(O[C@@H]2O[C@H](CO)[C@H](O)[C@@H](O)[C@H]2O)[C@H](O)[C@@H]1O
REMARK SMILES IDX 8 1 9 2 11 3 14 4 10 5 16 6 18 7 12 8 13 9 15 11 17 13 19 15
REMARK SMILES IDX 5 17 20 18 4 19 22 20 3 21 6 22 7 23 21 25 23 27 2 29 1 30
REMARK H PARENT 13 10 15 12 17 14 19 16 7 24 21 26 23 28 1 31
REMARK Flexibility Score: inf
ROOT
ATOM      1  O   UNL     1     -16.087   2.983 -33.920  1.00  0.00    -0.313 OA
ENDROOT
BRANCH   1   2
ATOM      2  C   UNL     1     -16.822   1.903 -34.479  1.00  0.00     0.285 C 
ATOM      3  C   UNL     1     -17.426   2.378 -36.761  1.00  0.00     0.178 C 
ATOM      4  C   UNL     1     -18.057   3.688 -36.228  1.00  0.00     0.177 C 
ATOM      5  O   UNL     1     -16.491   1.790 -35.862  1.00  0.00    -0.341 OA
ATOM      6  C   UNL     1     -18.822   3.412 -34.905  1.00  0.00     0.179 C 
ATOM      7  C   UNL     1     -18.326   2.128 -34.193  1.00  0.00     0.202 C 
BRANCH   3   8
ATOM      8  C   UNL     1     -16.748   2.588 -38.125  1.00  0.00     0.191 C 
BRANCH   8   9
ATOM      9  O   UNL     1     -15.383   2.880 -37.979  1.00  0.00    -0.394 OA
ATOM     10  H   UNL     1     -15.201   2.920 -37.005  1.00  0.00     0.210 HD
ENDBRANCH   8   9
ENDBRANCH   3   8
BRANCH   4  11
ATOM     11  O   UNL     1     -17.050   4.645 -36.012  1.00  0.00    -0.387 OA
ATOM     12  H   UNL     1     -16.610   4.802 -36.889  1.00  0.00     0.211 HD
ENDBRANCH   4  11
BRANCH   6  13
ATOM     13  O   UNL     1     -20.214   3.369 -35.113  1.00  0.00    -0.387 OA
ATOM     14  H   UNL     1     -20.496   2.417 -35.090  1.00  0.00     0.211 HD
ENDBRANCH   6  13
BRANCH   7  15
ATOM     15  O   UNL     1     -19.065   1.007 -34.612  1.00  0.00    -0.385 OA
ATOM     16  H   UNL     1     -18.601   0.636 -35.408  1.00  0.00     0.211 HD
ENDBRANCH   7  15
ENDBRANCH   1   2
BRANCH   1  17
ATOM     17  C   UNL     1     -14.844   2.605 -33.334  1.00  0.00     0.224 C 
ATOM     18  C   UNL     1     -14.324   3.815 -32.549  1.00  0.00     0.208 C 
ATOM     19  O   UNL     1     -15.038   1.568 -32.389  1.00  0.00    -0.337 OA
ATOM     20  C   UNL     1     -15.094   3.683 -31.257  1.00  0.00     0.180 C 
ATOM     21  C   UNL     1     -15.291   2.164 -31.131  1.00  0.00     0.179 C 
BRANCH  17  22
ATOM     22  C   UNL     1     -13.841   2.150 -34.424  1.00  0.00     0.225 C 
BRANCH  22  23
ATOM     23  O   UNL     1     -13.674   3.148 -35.396  1.00  0.00    -0.391 OA
ATOM     24  H   UNL     1     -14.344   2.972 -36.107  1.00  0.00     0.210 HD
ENDBRANCH  22  23
ENDBRANCH  17  22
BRANCH  18  25
ATOM     25  O   UNL     1     -12.942   3.709 -32.305  1.00  0.00    -0.385 OA
ATOM     26  H   UNL     1     -12.643   2.856 -32.716  1.00  0.00     0.211 HD
ENDBRANCH  18  25
BRANCH  20  27
ATOM     27  O   UNL     1     -14.412   4.246 -30.165  1.00  0.00    -0.387 OA
ATOM     28  H   UNL     1     -14.790   3.824 -29.349  1.00  0.00     0.211 HD
ENDBRANCH  20  27
BRANCH  21  29
ATOM     29  C   UNL     1     -14.384   1.509 -30.075  1.00  0.00     0.191 C 
BRANCH  29  30
ATOM     30  O   UNL     1     -13.069   1.415 -30.553  1.00  0.00    -0.394 OA
ATOM     31  H   UNL     1     -12.499   1.170 -29.779  1.00  0.00     0.210 HD
ENDBRANCH  29  30
ENDBRANCH  21  29
ENDBRANCH   1  17
TORSDOF 13
ENDMDL
MODEL 2
REMARK VINA RESULT:    -3.603      1.278      2.341
REMARK INTER + INTRA:          -7.130
REMARK INTER:                  -5.782
REMARK INTRA:                  -1.348
REMARK UNBOUND:                -1.631
REMARK SMILES OC[C@@H]1O[C@@](CO)(O[C@@H]2O[C@H](CO)[C@H](O)[C@@H](O)[C@H]2O)[C@H](O)[C@@H]1O
REMARK SMILES IDX 8 1 9 2 11 3 14 4 10 5 16 6 18 7 12 8 13 9 15 11 17 13 19 15
REMARK SMILES IDX 5 17 20 18 4 19 22 20 3 21 6 22 7 23 21 25 23 27 2 29 1 30
REMARK H PARENT 13 10 15 12 17 14 19 16 7 24 21 26 23 28 1 31
REMARK Flexibility Score: inf
ROOT
ATOM      1  O   UNL     1     -17.171   3.028 -33.545  1.00  0.00    -0.313 OA
ENDROOT
BRANCH   1   2
ATOM      2  C   UNL     1     -17.780   2.005 -34.321  1.00  0.00     0.285 C 
ATOM      3  C   UNL     1     -17.404   2.382 -36.669  1.00  0.00     0.178 C 
ATOM      4  C   UNL     1     -18.003   3.793 -36.448  1.00  0.00     0.177 C 
ATOM      5  O   UNL     1     -16.968   1.754 -35.467  1.00  0.00    -0.341 OA
ATOM      6  C   UNL     1     -19.243   3.705 -35.516  1.00  0.00     0.179 C 
ATOM      7  C   UNL     1     -19.234   2.427 -34.641  1.00  0.00     0.202 C 
BRANCH   3   8
ATOM      8  C   UNL     1     -16.237   2.411 -37.671  1.00  0.00     0.191 C 
BRANCH   8   9
ATOM      9  O   UNL     1     -15.033   2.766 -37.046  1.00  0.00    -0.394 OA
ATOM     10  H   UNL     1     -14.356   2.870 -37.764  1.00  0.00     0.210 HD
ENDBRANCH   8   9
ENDBRANCH   3   8
BRANCH   4  11
ATOM     11  O   UNL     1     -17.032   4.637 -35.881  1.00  0.00    -0.387 OA
ATOM     12  H   UNL     1     -17.235   5.558 -36.192  1.00  0.00     0.211 HD
ENDBRANCH   4  11
BRANCH   6  13
ATOM     13  O   UNL     1     -20.443   3.812 -36.243  1.00  0.00    -0.387 OA
ATOM     14  H   UNL     1     -20.225   3.714 -37.207  1.00  0.00     0.211 HD
ENDBRANCH   6  13
BRANCH   7  15
ATOM     15  O   UNL     1     -19.905   1.374 -35.288  1.00  0.00    -0.385 OA
ATOM     16  H   UNL     1     -19.589   1.365 -36.230  1.00  0.00     0.211 HD
ENDBRANCH   7  15
ENDBRANCH   1   2
BRANCH   1  17
ATOM     17  C   UNL     1     -16.310   2.549 -32.515  1.00  0.00     0.224 C 
ATOM     18  C   UNL     1     -15.097   1.905 -33.199  1.00  0.00     0.208 C 
ATOM     19  O   UNL     1     -15.810   3.628 -31.747  1.00  0.00    -0.337 OA
ATOM     20  C   UNL     1     -14.246   3.117 -33.494  1.00  0.00     0.180 C 
ATOM     21  C   UNL     1     -14.611   4.077 -32.350  1.00  0.00     0.179 C 
BRANCH  17  22
ATOM     22  C   UNL     1     -17.056   1.545 -31.600  1.00  0.00     0.225 C 
BRANCH  22  23
ATOM     23  O   UNL     1     -16.621   1.663 -30.272  1.00  0.00    -0.391 OA
ATOM     24  H   UNL     1     -16.600   0.745 -29.894  1.00  0.00     0.210 HD
ENDBRANCH  22  23
ENDBRANCH  17  22
BRANCH  18  25
ATOM     25  O   UNL     1     -14.420   1.036 -32.323  1.00  0.00    -0.385 OA
ATOM     26  H   UNL     1     -14.035   1.598 -31.602  1.00  0.00     0.211 HD
ENDBRANCH  18  25
BRANCH  20  27
ATOM     27  O   UNL     1     -12.875   2.811 -33.545  1.00  0.00    -0.387 OA
ATOM     28  H   UNL     1     -12.514   2.987 -32.636  1.00  0.00     0.211 HD
ENDBRANCH  20  27
BRANCH  21  29
ATOM     29  C   UNL     1     -13.521   4.194 -31.271  1.00  0.00     0.191 C 
BRANCH  29  30
ATOM     30  O   UNL     1     -13.326   2.957 -30.640  1.00  0.00    -0.394 OA
ATOM     31  H   UNL     1     -14.183   2.460 -30.711  1.00  0.00     0.210 HD
ENDBRANCH  29  30
ENDBRANCH  21  29
ENDBRANCH   1  17
TORSDOF 13
ENDMDL
MODEL 3
REMARK VINA RESULT:    -3.260      2.877      5.532
REMARK INTER + INTRA:          -6.607
REMARK INTER:                  -4.852
REMARK INTRA:                  -1.755
REMARK UNBOUND:                -1.631
REMARK SMILES OC[C@@H]1O[C@@](CO)(O[C@@H]2O[C@H](CO)[C@H](O)[C@@H](O)[C@H]2O)[C@H](O)[C@@H]1O
REMARK SMILES IDX 8 1 9 2 11 3 14 4 10 5 16 6 18 7 12 8 13 9 15 11 17 13 19 15
REMARK SMILES IDX 5 17 20 18 4 19 22 20 3 21 6 22 7 23 21 25 23 27 2 29 1 30
REMARK H PARENT 13 10 15 12 17 14 19 16 7 24 21 26 23 28 1 31
REMARK Flexibility Score: inf
ROOT
ATOM      1  O   UNL     1     -19.627   2.906 -33.666  1.00  0.00    -0.313 OA
ENDROOT
BRANCH   1   2
ATOM      2  C   UNL     1     -19.909   1.715 -32.944  1.00  0.00     0.285 C 
ATOM      3  C   UNL     1     -22.286   1.381 -32.749  1.00  0.00     0.178 C 
ATOM      4  C   UNL     1     -22.347   2.808 -32.150  1.00  0.00     0.177 C 
ATOM      5  O   UNL     1     -21.091   1.123 -33.480  1.00  0.00    -0.341 OA
ATOM      6  C   UNL     1     -21.165   3.024 -31.165  1.00  0.00     0.179 C 
ATOM      7  C   UNL     1     -19.986   2.057 -31.437  1.00  0.00     0.202 C 
BRANCH   3   8
ATOM      8  C   UNL     1     -23.498   1.091 -33.650  1.00  0.00     0.191 C 
BRANCH   8   9
ATOM      9  O   UNL     1     -23.307   1.596 -34.945  1.00  0.00    -0.394 OA
ATOM     10  H   UNL     1     -23.294   2.585 -34.868  1.00  0.00     0.210 HD
ENDBRANCH   8   9
ENDBRANCH   3   8
BRANCH   4  11
ATOM     11  O   UNL     1     -22.293   3.759 -33.184  1.00  0.00    -0.387 OA
ATOM     12  H   UNL     1     -22.666   3.323 -33.995  1.00  0.00     0.211 HD
ENDBRANCH   4  11
BRANCH   6  13
ATOM     13  O   UNL     1     -21.589   2.941 -29.825  1.00  0.00    -0.387 OA
ATOM     14  H   UNL     1     -20.780   2.897 -29.252  1.00  0.00     0.211 HD
ENDBRANCH   6  13
BRANCH   7  15
ATOM     15  O   UNL     1     -20.125   0.876 -30.686  1.00  0.00    -0.385 OA
ATOM     16  H   UNL     1     -21.066   0.576 -30.791  1.00  0.00     0.211 HD
ENDBRANCH   7  15
ENDBRANCH   1   2
BRANCH   1  17
ATOM     17  C   UNL     1     -18.990   2.693 -34.923  1.00  0.00     0.224 C 
ATOM     18  C   UNL     1     -17.999   3.844 -35.132  1.00  0.00     0.208 C 
ATOM     19  O   UNL     1     -18.222   1.504 -34.892  1.00  0.00    -0.337 OA
ATOM     20  C   UNL     1     -16.814   3.363 -34.330  1.00  0.00     0.180 C 
ATOM     21  C   UNL     1     -16.921   1.835 -34.445  1.00  0.00     0.179 C 
BRANCH  17  22
ATOM     22  C   UNL     1     -20.038   2.620 -36.062  1.00  0.00     0.225 C 
BRANCH  22  23
ATOM     23  O   UNL     1     -21.199   3.327 -35.719  1.00  0.00    -0.391 OA
ATOM     24  H   UNL     1     -21.815   2.678 -35.290  1.00  0.00     0.210 HD
ENDBRANCH  22  23
ENDBRANCH  17  22
BRANCH  18  25
ATOM     25  O   UNL     1     -17.648   3.975 -36.489  1.00  0.00    -0.385 OA
ATOM     26  H   UNL     1     -18.247   4.666 -36.875  1.00  0.00     0.211 HD
ENDBRANCH  18  25
BRANCH  20  27
ATOM     27  O   UNL     1     -15.596   3.873 -34.813  1.00  0.00    -0.387 OA
ATOM     28  H   UNL     1     -14.964   3.864 -34.047  1.00  0.00     0.211 HD
ENDBRANCH  20  27
BRANCH  21  29
ATOM     29  C   UNL     1     -15.889   1.215 -35.404  1.00  0.00     0.191 C 
BRANCH  29  30
ATOM     30  O   UNL     1     -16.072   1.710 -36.703  1.00  0.00    -0.394 OA
ATOM     31  H   UNL     1     -15.433   2.462 -36.816  1.00  0.00     0.210 HD
ENDBRANCH  29  30
ENDBRANCH  21  29
ENDBRANCH   1  17
TORSDOF 13
ENDMDL
MODEL 4
REMARK VINA RESULT:    -3.187      1.525      5.763
REMARK INTER + INTRA:          -6.494
REMARK INTER:                  -5.349
REMARK INTRA:                  -1.145
REMARK UNBOUND:                -1.631
REMARK SMILES OC[C@@H]1O[C@@](CO)(O[C@@H]2O[C@H](CO)[C@H](O)[C@@H](O)[C@H]2O)[C@H](O)[C@@H]1O
REMARK SMILES IDX 8 1 9 2 11 3 14 4 10 5 16 6 18 7 12 8 13 9 15 11 17 13 19 15
REMARK SMILES IDX 5 17 20 18 4 19 22 20 3 21 6 22 7 23 21 25 23 27 2 29 1 30
REMARK H PARENT 13 10 15 12 17 14 19 16 7 24 21 26 23 28 1 31
REMARK Flexibility Score: inf
ROOT
ATOM      1  O   UNL     1     -16.772   2.424 -34.053  1.00  0.00    -0.313 OA
ENDROOT
BRANCH   1   2
ATOM      2  C   UNL     1     -15.975   3.592 -33.903  1.00  0.00     0.285 C 
ATOM      3  C   UNL     1     -13.692   3.149 -34.524  1.00  0.00     0.178 C 
ATOM      4  C   UNL     1     -13.737   1.978 -33.511  1.00  0.00     0.177 C 
ATOM      5  O   UNL     1     -14.980   3.603 -34.925  1.00  0.00    -0.341 OA
ATOM      6  C   UNL     1     -14.476   2.419 -32.219  1.00  0.00     0.179 C 
ATOM      7  C   UNL     1     -15.417   3.626 -32.460  1.00  0.00     0.202 C 
BRANCH   3   8
ATOM      8  C   UNL     1     -12.876   2.786 -35.777  1.00  0.00     0.191 C 
BRANCH   8   9
ATOM      9  O   UNL     1     -13.547   1.844 -36.571  1.00  0.00    -0.394 OA
ATOM     10  H   UNL     1     -14.258   2.336 -37.060  1.00  0.00     0.210 HD
ENDBRANCH   8   9
ENDBRANCH   3   8
BRANCH   4  11
ATOM     11  O   UNL     1     -14.391   0.876 -34.090  1.00  0.00    -0.387 OA
ATOM     12  H   UNL     1     -14.104   0.838 -35.040  1.00  0.00     0.211 HD
ENDBRANCH   4  11
BRANCH   6  13
ATOM     13  O   UNL     1     -13.573   2.683 -31.172  1.00  0.00    -0.387 OA
ATOM     14  H   UNL     1     -13.428   3.665 -31.136  1.00  0.00     0.211 HD
ENDBRANCH   6  13
BRANCH   7  15
ATOM     15  O   UNL     1     -14.740   4.839 -32.239  1.00  0.00    -0.385 OA
ATOM     16  H   UNL     1     -14.742   4.997 -31.259  1.00  0.00     0.211 HD
ENDBRANCH   7  15
ENDBRANCH   1   2
BRANCH   1  17
ATOM     17  C   UNL     1     -18.082   2.670 -34.558  1.00  0.00     0.224 C 
ATOM     18  C   UNL     1     -17.969   3.799 -35.589  1.00  0.00     0.208 C 
ATOM     19  O   UNL     1     -18.562   1.536 -35.258  1.00  0.00    -0.337 OA
ATOM     20  C   UNL     1     -17.523   3.037 -36.815  1.00  0.00     0.180 C 
ATOM     21  C   UNL     1     -18.168   1.656 -36.611  1.00  0.00     0.179 C 
BRANCH  17  22
ATOM     22  C   UNL     1     -19.053   3.035 -33.407  1.00  0.00     0.225 C 
BRANCH  22  23
ATOM     23  O   UNL     1     -20.387   2.874 -33.810  1.00  0.00    -0.391 OA
ATOM     24  H   UNL     1     -20.418   2.067 -34.386  1.00  0.00     0.210 HD
ENDBRANCH  22  23
ENDBRANCH  17  22
BRANCH  18  25
ATOM     25  O   UNL     1     -19.217   4.406 -35.820  1.00  0.00    -0.385 OA
ATOM     26  H   UNL     1     -19.183   4.794 -36.733  1.00  0.00     0.211 HD
ENDBRANCH  18  25
BRANCH  20  27
ATOM     27  O   UNL     1     -17.919   3.663 -38.010  1.00  0.00    -0.387 OA
ATOM     28  H   UNL     1     -17.095   4.041 -38.415  1.00  0.00     0.211 HD
ENDBRANCH  20  27
BRANCH  21  29
ATOM     29  C   UNL     1     -19.389   1.407 -37.512  1.00  0.00     0.191 C 
BRANCH  29  30
ATOM     30  O   UNL     1     -20.491   2.143 -37.056  1.00  0.00    -0.394 OA
ATOM     31  H   UNL     1     -20.764   2.742 -37.799  1.00  0.00     0.210 HD
ENDBRANCH  29  30
ENDBRANCH  21  29
ENDBRANCH   1  17
TORSDOF 13
ENDMDL
MODEL 5
REMARK VINA RESULT:    -3.148      9.227     12.625
REMARK INTER + INTRA:          -6.435
REMARK INTER:                  -4.979
REMARK INTRA:                  -1.456
REMARK UNBOUND:                -1.631
REMARK SMILES OC[C@@H]1O[C@@](CO)(O[C@@H]2O[C@H](CO)[C@H](O)[C@@H](O)[C@H]2O)[C@H](O)[C@@H]1O
REMARK SMILES IDX 8 1 9 2 11 3 14 4 10 5 16 6 18 7 12 8 13 9 15 11 17 13 19 15
REMARK SMILES IDX 5 17 20 18 4 19 22 20 3 21 6 22 7 23 21 25 23 27 2 29 1 30
REMARK H PARENT 13 10 15 12 17 14 19 16 7 24 21 26 23 28 1 31
REMARK Flexibility Score: inf
ROOT
ATOM      1  O   UNL     1     -27.889   3.123 -33.508  1.00  0.00    -0.313 OA
ENDROOT
BRANCH   1   2
ATOM      2  C   UNL     1     -28.830   2.194 -32.987  1.00  0.00     0.285 C 
ATOM      3  C   UNL     1     -31.005   2.555 -33.956  1.00  0.00     0.178 C 
ATOM      4  C   UNL     1     -30.870   4.026 -33.490  1.00  0.00     0.177 C 
ATOM      5  O   UNL     1     -29.763   1.861 -34.014  1.00  0.00    -0.341 OA
ATOM      6  C   UNL     1     -30.261   4.079 -32.062  1.00  0.00     0.179 C 
ATOM      7  C   UNL     1     -29.465   2.798 -31.712  1.00  0.00     0.202 C 
BRANCH   3   8
ATOM      8  C   UNL     1     -31.702   2.453 -35.323  1.00  0.00     0.191 C 
BRANCH   8   9
ATOM      9  O   UNL     1     -32.523   3.565 -35.564  1.00  0.00    -0.394 OA
ATOM     10  H   UNL     1     -32.611   4.049 -34.702  1.00  0.00     0.210 HD
ENDBRANCH   8   9
ENDBRANCH   3   8
BRANCH   4  11
ATOM     11  O   UNL     1     -30.055   4.735 -34.389  1.00  0.00    -0.387 OA
ATOM     12  H   UNL     1     -29.114   4.546 -34.133  1.00  0.00     0.211 HD
ENDBRANCH   4  11
BRANCH   6  13
ATOM     13  O   UNL     1     -31.245   4.345 -31.091  1.00  0.00    -0.387 OA
ATOM     14  H   UNL     1     -31.030   3.807 -30.284  1.00  0.00     0.211 HD
ENDBRANCH   6  13
BRANCH   7  15
ATOM     15  O   UNL     1     -30.297   1.845 -31.096  1.00  0.00    -0.385 OA
ATOM     16  H   UNL     1     -30.017   1.789 -30.145  1.00  0.00     0.211 HD
ENDBRANCH   7  15
ENDBRANCH   1   2
BRANCH   1  17
ATOM     17  C   UNL     1     -26.564   2.611 -33.625  1.00  0.00     0.224 C 
ATOM     18  C   UNL     1     -26.510   1.777 -34.911  1.00  0.00     0.208 C 
ATOM     19  O   UNL     1     -25.639   3.670 -33.795  1.00  0.00    -0.337 OA
ATOM     20  C   UNL     1     -26.301   2.852 -35.951  1.00  0.00     0.180 C 
ATOM     21  C   UNL     1     -25.515   3.925 -35.181  1.00  0.00     0.179 C 
BRANCH  17  22
ATOM     22  C   UNL     1     -26.188   1.772 -32.377  1.00  0.00     0.225 C 
BRANCH  22  23
ATOM     23  O   UNL     1     -24.838   1.950 -32.045  1.00  0.00    -0.391 OA
ATOM     24  H   UNL     1     -24.310   1.729 -32.856  1.00  0.00     0.210 HD
ENDBRANCH  22  23
ENDBRANCH  17  22
BRANCH  18  25
ATOM     25  O   UNL     1     -25.415   0.892 -34.899  1.00  0.00    -0.385 OA
ATOM     26  H   UNL     1     -24.748   1.270 -34.269  1.00  0.00     0.211 HD
ENDBRANCH  18  25
BRANCH  20  27
ATOM     27  O   UNL     1     -25.623   2.375 -37.087  1.00  0.00    -0.387 OA
ATOM     28  H   UNL     1     -25.295   1.466 -36.858  1.00  0.00     0.211 HD
ENDBRANCH  20  27
BRANCH  21  29
ATOM     29  C   UNL     1     -24.022   3.978 -35.549  1.00  0.00     0.191 C 
BRANCH  29  30
ATOM     30  O   UNL     1     -23.345   2.880 -35.001  1.00  0.00    -0.394 OA
ATOM     31  H   UNL     1     -23.230   3.068 -34.032  1.00  0.00     0.210 HD
ENDBRANCH  29  30
ENDBRANCH  21  29
ENDBRANCH   1  17
TORSDOF 13
ENDMDL
MODEL 6
REMARK VINA RESULT:    -3.070      9.802     13.351
REMARK INTER + INTRA:          -6.316
REMARK INTER:                  -4.964
REMARK INTRA:                  -1.353
REMARK UNBOUND:                -1.631
REMARK SMILES OC[C@@H]1O[C@@](CO)(O[C@@H]2O[C@H](CO)[C@H](O)[C@@H](O)[C@H]2O)[C@H](O)[C@@H]1O
REMARK SMILES IDX 8 1 9 2 11 3 14 4 10 5 16 6 18 7 12 8 13 9 15 11 17 13 19 15
REMARK SMILES IDX 5 17 20 18 4 19 22 20 3 21 6 22 7 23 21 25 23 27 2 29 1 30
REMARK H PARENT 13 10 15 12 17 14 19 16 7 24 21 26 23 28 1 31
REMARK Flexibility Score: inf
ROOT
ATOM      1  O   UNL     1     -28.706   2.177 -33.907  1.00  0.00    -0.313 OA
ENDROOT
BRANCH   1   2
ATOM      2  C   UNL     1     -29.357   3.141 -33.092  1.00  0.00     0.285 C 
ATOM      3  C   UNL     1     -31.557   2.383 -32.472  1.00  0.00     0.178 C 
ATOM      4  C   UNL     1     -31.820   2.190 -33.987  1.00  0.00     0.177 C 
ATOM      5  O   UNL     1     -30.174   2.461 -32.141  1.00  0.00    -0.341 OA
ATOM      6  C   UNL     1     -31.235   3.387 -34.786  1.00  0.00     0.179 C 
ATOM      7  C   UNL     1     -30.119   4.128 -34.007  1.00  0.00     0.202 C 
BRANCH   3   8
ATOM      8  C   UNL     1     -32.213   1.272 -31.636  1.00  0.00     0.191 C 
BRANCH   8   9
ATOM      9  O   UNL     1     -31.440   0.955 -30.509  1.00  0.00    -0.394 OA
ATOM     10  H   UNL     1     -31.560  -0.017 -30.343  1.00  0.00     0.210 HD
ENDBRANCH   8   9
ENDBRANCH   3   8
BRANCH   4  11
ATOM     11  O   UNL     1     -31.234   0.988 -34.419  1.00  0.00    -0.387 OA
ATOM     12  H   UNL     1     -30.652   0.669 -33.680  1.00  0.00     0.211 HD
ENDBRANCH   4  11
BRANCH   6  13
ATOM     13  O   UNL     1     -32.246   4.278 -35.193  1.00  0.00    -0.387 OA
ATOM     14  H   UNL     1     -31.817   5.148 -35.405  1.00  0.00     0.211 HD
ENDBRANCH   6  13
BRANCH   7  15
ATOM     15  O   UNL     1     -30.659   5.174 -33.237  1.00  0.00    -0.385 OA
ATOM     16  H   UNL     1     -31.630   5.212 -33.440  1.00  0.00     0.211 HD
ENDBRANCH   7  15
ENDBRANCH   1   2
BRANCH   1  17
ATOM     17  C   UNL     1     -27.285   2.176 -33.793  1.00  0.00     0.224 C 
ATOM     18  C   UNL     1     -26.737   1.309 -34.933  1.00  0.00     0.208 C 
ATOM     19  O   UNL     1     -26.772   3.480 -33.999  1.00  0.00    -0.337 OA
ATOM     20  C   UNL     1     -26.751   2.289 -36.082  1.00  0.00     0.180 C 
ATOM     21  C   UNL     1     -26.523   3.638 -35.383  1.00  0.00     0.179 C 
BRANCH  17  22
ATOM     22  C   UNL     1     -26.847   1.646 -32.404  1.00  0.00     0.225 C 
BRANCH  22  23
ATOM     23  O   UNL     1     -25.553   2.082 -32.089  1.00  0.00    -0.391 OA
ATOM     24  H   UNL     1     -25.591   2.457 -31.170  1.00  0.00     0.210 HD
ENDBRANCH  22  23
ENDBRANCH  17  22
BRANCH  18  25
ATOM     25  O   UNL     1     -25.420   0.889 -34.667  1.00  0.00    -0.385 OA
ATOM     26  H   UNL     1     -25.430  -0.104 -34.669  1.00  0.00     0.211 HD
ENDBRANCH  18  25
BRANCH  20  27
ATOM     27  O   UNL     1     -25.776   1.994 -37.051  1.00  0.00    -0.387 OA
ATOM     28  H   UNL     1     -25.011   2.604 -36.875  1.00  0.00     0.211 HD
ENDBRANCH  20  27
BRANCH  21  29
ATOM     29  C   UNL     1     -25.103   4.200 -35.574  1.00  0.00     0.191 C 
BRANCH  29  30
ATOM     30  O   UNL     1     -24.263   3.764 -34.541  1.00  0.00    -0.394 OA
ATOM     31  H   UNL     1     -23.469   3.351 -34.971  1.00  0.00     0.210 HD
ENDBRANCH  29  30
ENDBRANCH  21  29
ENDBRANCH   1  17
TORSDOF 13
ENDMDL
MODEL 7
REMARK VINA RESULT:    -3.041      7.810     11.625
REMARK INTER + INTRA:          -6.272
REMARK INTER:                  -4.824
REMARK INTRA:                  -1.448
REMARK UNBOUND:                -1.631
REMARK SMILES OC[C@@H]1O[C@@](CO)(O[C@@H]2O[C@H](CO)[C@H](O)[C@@H](O)[C@H]2O)[C@H](O)[C@@H]1O
REMARK SMILES IDX 8 1 9 2 11 3 14 4 10 5 16 6 18 7 12 8 13 9 15 11 17 13 19 15
REMARK SMILES IDX 5 17 20 18 4 19 22 20 3 21 6 22 7 23 21 25 23 27 2 29 1 30
REMARK H PARENT 13 10 15 12 17 14 19 16 7 24 21 26 23 28 1 31
REMARK Flexibility Score: inf
ROOT
ATOM      1  O   UNL     1     -26.483   3.051 -33.459  1.00  0.00    -0.313 OA
ENDROOT
BRANCH   1   2
ATOM      2  C   UNL     1     -25.943   2.913 -34.767  1.00  0.00     0.285 C 
ATOM      3  C   UNL     1     -23.554   2.627 -34.673  1.00  0.00     0.178 C 
ATOM      4  C   UNL     1     -23.520   3.933 -33.841  1.00  0.00     0.177 C 
ATOM      5  O   UNL     1     -24.838   2.012 -34.713  1.00  0.00    -0.341 OA
ATOM      6  C   UNL     1     -24.497   4.978 -34.448  1.00  0.00     0.179 C 
ATOM      7  C   UNL     1     -25.602   4.320 -35.311  1.00  0.00     0.202 C 
BRANCH   3   8
ATOM      8  C   UNL     1     -22.523   1.604 -34.167  1.00  0.00     0.191 C 
BRANCH   8   9
ATOM      9  O   UNL     1     -22.847   1.141 -32.883  1.00  0.00    -0.394 OA
ATOM     10  H   UNL     1     -22.003   0.819 -32.472  1.00  0.00     0.210 HD
ENDBRANCH   8   9
ENDBRANCH   3   8
BRANCH   4  11
ATOM     11  O   UNL     1     -23.876   3.656 -32.509  1.00  0.00    -0.387 OA
ATOM     12  H   UNL     1     -24.455   2.849 -32.529  1.00  0.00     0.211 HD
ENDBRANCH   4  11
BRANCH   6  13
ATOM     13  O   UNL     1     -23.808   5.967 -35.175  1.00  0.00    -0.387 OA
ATOM     14  H   UNL     1     -24.269   6.080 -36.047  1.00  0.00     0.211 HD
ENDBRANCH   6  13
BRANCH   7  15
ATOM     15  O   UNL     1     -25.196   4.226 -36.655  1.00  0.00    -0.385 OA
ATOM     16  H   UNL     1     -24.235   3.976 -36.650  1.00  0.00     0.211 HD
ENDBRANCH   7  15
ENDBRANCH   1   2
BRANCH   1  17
ATOM     17  C   UNL     1     -27.256   1.936 -33.023  1.00  0.00     0.224 C 
ATOM     18  C   UNL     1     -28.327   2.471 -32.064  1.00  0.00     0.208 C 
ATOM     19  O   UNL     1     -27.949   1.357 -34.114  1.00  0.00    -0.337 OA
ATOM     20  C   UNL     1     -29.377   2.955 -33.035  1.00  0.00     0.180 C 
ATOM     21  C   UNL     1     -29.202   2.004 -34.230  1.00  0.00     0.179 C 
BRANCH  17  22
ATOM     22  C   UNL     1     -26.352   0.875 -32.345  1.00  0.00     0.225 C 
BRANCH  22  23
ATOM     23  O   UNL     1     -25.261   1.483 -31.707  1.00  0.00    -0.391 OA
ATOM     24  H   UNL     1     -25.207   1.094 -30.796  1.00  0.00     0.210 HD
ENDBRANCH  22  23
ENDBRANCH  17  22
BRANCH  18  25
ATOM     25  O   UNL     1     -28.847   1.442 -31.256  1.00  0.00    -0.385 OA
ATOM     26  H   UNL     1     -29.288   1.881 -30.483  1.00  0.00     0.211 HD
ENDBRANCH  18  25
BRANCH  20  27
ATOM     27  O   UNL     1     -30.671   2.923 -32.486  1.00  0.00    -0.387 OA
ATOM     28  H   UNL     1     -30.573   3.146 -31.522  1.00  0.00     0.211 HD
ENDBRANCH  20  27
BRANCH  21  29
ATOM     29  C   UNL     1     -30.307   0.939 -34.339  1.00  0.00     0.191 C 
BRANCH  29  30
ATOM     30  O   UNL     1     -31.526   1.536 -34.688  1.00  0.00    -0.394 OA
ATOM     31  H   UNL     1     -31.337   2.496 -34.859  1.00  0.00     0.210 HD
ENDBRANCH  29  30
ENDBRANCH  21  29
ENDBRANCH   1  17
TORSDOF 13
ENDMDL
MODEL 8
REMARK VINA RESULT:    -2.744      9.473     13.232
REMARK INTER + INTRA:          -5.818
REMARK INTER:                  -4.367
REMARK INTRA:                  -1.452
REMARK UNBOUND:                -1.631
REMARK SMILES OC[C@@H]1O[C@@](CO)(O[C@@H]2O[C@H](CO)[C@H](O)[C@@H](O)[C@H]2O)[C@H](O)[C@@H]1O
REMARK SMILES IDX 8 1 9 2 11 3 14 4 10 5 16 6 18 7 12 8 13 9 15 11 17 13 19 15
REMARK SMILES IDX 5 17 20 18 4 19 22 20 3 21 6 22 7 23 21 25 23 27 2 29 1 30
REMARK H PARENT 13 10 15 12 17 14 19 16 7 24 21 26 23 28 1 31
REMARK Flexibility Score: inf
ROOT
ATOM      1  O   UNL     1     -28.204   3.072 -33.817  1.00  0.00    -0.313 OA
ENDROOT
BRANCH   1   2
ATOM      2  C   UNL     1     -26.965   2.379 -33.896  1.00  0.00     0.285 C 
ATOM      3  C   UNL     1     -25.244   3.815 -34.776  1.00  0.00     0.178 C 
ATOM      4  C   UNL     1     -26.190   4.065 -35.976  1.00  0.00     0.177 C 
ATOM      5  O   UNL     1     -25.908   3.299 -33.627  1.00  0.00    -0.341 OA
ATOM      6  C   UNL     1     -26.864   2.734 -36.410  1.00  0.00     0.179 C 
ATOM      7  C   UNL     1     -26.877   1.681 -35.274  1.00  0.00     0.202 C 
BRANCH   3   8
ATOM      8  C   UNL     1     -24.477   5.089 -34.382  1.00  0.00     0.191 C 
BRANCH   8   9
ATOM      9  O   UNL     1     -24.318   5.950 -35.478  1.00  0.00    -0.394 OA
ATOM     10  H   UNL     1     -23.683   5.509 -36.100  1.00  0.00     0.210 HD
ENDBRANCH   8   9
ENDBRANCH   3   8
BRANCH   4  11
ATOM     11  O   UNL     1     -27.170   5.008 -35.619  1.00  0.00    -0.387 OA
ATOM     12  H   UNL     1     -26.793   5.904 -35.821  1.00  0.00     0.211 HD
ENDBRANCH   4  11
BRANCH   6  13
ATOM     13  O   UNL     1     -26.272   2.213 -37.576  1.00  0.00    -0.387 OA
ATOM     14  H   UNL     1     -25.297   2.124 -37.409  1.00  0.00     0.211 HD
ENDBRANCH   6  13
BRANCH   7  15
ATOM     15  O   UNL     1     -25.725   0.875 -35.327  1.00  0.00    -0.385 OA
ATOM     16  H   UNL     1     -25.825   0.182 -34.623  1.00  0.00     0.211 HD
ENDBRANCH   7  15
ENDBRANCH   1   2
BRANCH   1  17
ATOM     17  C   UNL     1     -29.196   2.411 -33.036  1.00  0.00     0.224 C 
ATOM     18  C   UNL     1     -30.137   3.490 -32.487  1.00  0.00     0.208 C 
ATOM     19  O   UNL     1     -29.988   1.567 -33.854  1.00  0.00    -0.337 OA
ATOM     20  C   UNL     1     -31.056   3.707 -33.665  1.00  0.00     0.180 C 
ATOM     21  C   UNL     1     -31.076   2.328 -34.342  1.00  0.00     0.179 C 
BRANCH  17  22
ATOM     22  C   UNL     1     -28.540   1.586 -31.900  1.00  0.00     0.225 C 
BRANCH  22  23
ATOM     23  O   UNL     1     -28.318   2.384 -30.768  1.00  0.00    -0.391 OA
ATOM     24  H   UNL     1     -28.004   3.267 -31.096  1.00  0.00     0.210 HD
ENDBRANCH  22  23
ENDBRANCH  17  22
BRANCH  18  25
ATOM     25  O   UNL     1     -30.867   3.016 -31.381  1.00  0.00    -0.385 OA
ATOM     26  H   UNL     1     -30.206   2.804 -30.671  1.00  0.00     0.211 HD
ENDBRANCH  18  25
BRANCH  20  27
ATOM     27  O   UNL     1     -32.332   4.153 -33.276  1.00  0.00    -0.387 OA
ATOM     28  H   UNL     1     -32.408   5.094 -33.586  1.00  0.00     0.211 HD
ENDBRANCH  20  27
BRANCH  21  29
ATOM     29  C   UNL     1     -32.379   1.544 -34.108  1.00  0.00     0.191 C 
BRANCH  29  30
ATOM     30  O   UNL     1     -32.526   1.238 -32.748  1.00  0.00    -0.394 OA
ATOM     31  H   UNL     1     -33.493   1.075 -32.593  1.00  0.00     0.210 HD
ENDBRANCH  29  30
ENDBRANCH  21  29
ENDBRANCH   1  17
TORSDOF 13
ENDMDL
