MODEL 1
REMARK VINA RESULT:    -3.427      0.000      0.000
REMARK INTER + INTRA:          -3.837
REMARK INTER:                  -3.827
REMARK INTRA:                  -0.010
REMARK UNBOUND:                -0.010
REMARK SMILES CCCC(=O)[O-]
REMARK SMILES IDX 3 1 4 2 5 3 6 4 2 5 1 6
REMARK H PARENT
REMARK Flexibility Score: inf
ROOT
ATOM      1  C   UNL     1       9.353   6.827  79.038  1.00  0.00     0.052 C 
ENDROOT
BRANCH   1   2
ATOM      2  C   UNL     1       8.756   5.566  79.585  1.00  0.00     0.041 C 
ATOM      3  O   UNL     1       7.514   5.482  79.769  1.00  0.00    -0.550 OA
ATOM      4  O   UNL     1       9.577   4.498  79.922  1.00  0.00    -0.550 OA
ENDBRANCH   1   2
BRANCH   1   5
ATOM      5  C   UNL     1       8.709   8.075  79.653  1.00  0.00     0.003 C 
ATOM      6  C   UNL     1       9.744   9.111  80.084  1.00  0.00     0.004 C 
ENDBRANCH   1   5
TORSDOF 2
ENDMDL
MODEL 2
REMARK VINA RESULT:    -3.361      1.987      2.259
REMARK INTER + INTRA:          -3.763
REMARK INTER:                  -3.757
REMARK INTRA:                  -0.006
REMARK UNBOUND:                -0.010
REMARK SMILES CCCC(=O)[O-]
REMARK SMILES IDX 3 1 4 2 5 3 6 4 2 5 1 6
REMARK H PARENT
REMARK Flexibility Score: inf
ROOT
ATOM      1  C   UNL     1       7.175   6.849  79.988  1.00  0.00     0.052 C 
ENDROOT
BRANCH   1   2
ATOM      2  C   UNL     1       8.445   6.162  79.587  1.00  0.00     0.041 C 
ATOM      3  O   UNL     1       8.660   4.972  79.936  1.00  0.00    -0.550 OA
ATOM      4  O   UNL     1       9.406   6.850  78.856  1.00  0.00    -0.550 OA
ENDBRANCH   1   2
BRANCH   1   5
ATOM      5  C   UNL     1       7.441   8.247  80.558  1.00  0.00     0.003 C 
ATOM      6  C   UNL     1       6.354   8.694  81.534  1.00  0.00     0.004 C 
ENDBRANCH   1   5
TORSDOF 2
ENDMDL
MODEL 3
REMARK VINA RESULT:    -3.345      1.978      2.220
REMARK INTER + INTRA:          -3.746
REMARK INTER:                  -3.739
REMARK INTRA:                  -0.007
REMARK UNBOUND:                -0.010
REMARK SMILES CCCC(=O)[O-]
REMARK SMILES IDX 3 1 4 2 5 3 6 4 2 5 1 6
REMARK H PARENT
REMARK Flexibility Score: inf
ROOT
ATOM      1  C   UNL     1       7.205   6.854  80.001  1.00  0.00     0.052 C 
ENDROOT
BRANCH   1   2
ATOM      2  C   UNL     1       8.501   6.236  79.572  1.00  0.00     0.041 C 
ATOM      3  O   UNL     1       9.321   6.897  78.884  1.00  0.00    -0.550 OA
ATOM      4  O   UNL     1       8.785   4.917  79.904  1.00  0.00    -0.550 OA
ENDBRANCH   1   2
BRANCH   1   5
ATOM      5  C   UNL     1       7.408   8.266  80.564  1.00  0.00     0.003 C 
ATOM      6  C   UNL     1       6.327   8.650  81.572  1.00  0.00     0.004 C 
ENDBRANCH   1   5
TORSDOF 2
ENDMDL
MODEL 4
REMARK VINA RESULT:    -3.130      2.258      3.448
REMARK INTER + INTRA:          -3.505
REMARK INTER:                  -3.492
REMARK INTRA:                  -0.014
REMARK UNBOUND:                -0.010
REMARK SMILES CCCC(=O)[O-]
REMARK SMILES IDX 3 1 4 2 5 3 6 4 2 5 1 6
REMARK H PARENT
REMARK Flexibility Score: inf
ROOT
ATOM      1  C   UNL     1       9.527   7.053  79.063  1.00  0.00     0.052 C 
ENDROOT
BRANCH   1   2
ATOM      2  C   UNL     1       9.088   8.300  79.768  1.00  0.00     0.041 C 
ATOM      3  O   UNL     1       9.903   9.238  79.964  1.00  0.00    -0.550 OA
ATOM      4  O   UNL     1       7.785   8.409  80.238  1.00  0.00    -0.550 OA
ENDBRANCH   1   2
BRANCH   1   5
ATOM      5  C   UNL     1       8.656   5.849  79.441  1.00  0.00     0.003 C 
ATOM      6  C   UNL     1       9.489   4.634  79.846  1.00  0.00     0.004 C 
ENDBRANCH   1   5
TORSDOF 2
ENDMDL
MODEL 5
REMARK VINA RESULT:    -3.129      3.055      3.698
REMARK INTER + INTRA:          -3.505
REMARK INTER:                  -3.499
REMARK INTRA:                  -0.006
REMARK UNBOUND:                -0.010
REMARK SMILES CCCC(=O)[O-]
REMARK SMILES IDX 3 1 4 2 5 3 6 4 2 5 1 6
REMARK H PARENT
REMARK Flexibility Score: inf
ROOT
ATOM      1  C   UNL     1       7.098   7.099  80.109  1.00  0.00     0.052 C 
ENDROOT
BRANCH   1   2
ATOM      2  C   UNL     1       7.085   8.499  80.641  1.00  0.00     0.041 C 
ATOM      3  O   UNL     1       6.673   8.731  81.807  1.00  0.00    -0.550 OA
ATOM      4  O   UNL     1       7.496   9.553  79.833  1.00  0.00    -0.550 OA
ENDBRANCH   1   2
BRANCH   1   5
ATOM      5  C   UNL     1       8.466   6.726  79.524  1.00  0.00     0.003 C 
ATOM      6  C   UNL     1       8.790   5.244  79.703  1.00  0.00     0.004 C 
ENDBRANCH   1   5
TORSDOF 2
ENDMDL
MODEL 6
REMARK VINA RESULT:    -3.091      2.090      3.005
REMARK INTER + INTRA:          -3.462
REMARK INTER:                  -3.438
REMARK INTRA:                  -0.023
REMARK UNBOUND:                -0.010
REMARK SMILES CCCC(=O)[O-]
REMARK SMILES IDX 3 1 4 2 5 3 6 4 2 5 1 6
REMARK H PARENT
REMARK Flexibility Score: inf
ROOT
ATOM      1  C   UNL     1       8.406   8.438  80.003  1.00  0.00     0.052 C 
ENDROOT
BRANCH   1   2
ATOM      2  C   UNL     1       7.121   8.003  80.639  1.00  0.00     0.041 C 
ATOM      3  O   UNL     1       6.513   6.989  80.209  1.00  0.00    -0.550 OA
ATOM      4  O   UNL     1       6.579   8.740  81.685  1.00  0.00    -0.550 OA
ENDBRANCH   1   2
BRANCH   1   5
ATOM      5  C   UNL     1       8.893   7.429  78.957  1.00  0.00     0.003 C 
ATOM      6  C   UNL     1      10.355   7.036  79.164  1.00  0.00     0.004 C 
ENDBRANCH   1   5
TORSDOF 2
ENDMDL
MODEL 7
REMARK VINA RESULT:    -3.080      2.666      3.108
REMARK INTER + INTRA:          -3.450
REMARK INTER:                  -3.413
REMARK INTRA:                  -0.037
REMARK UNBOUND:                -0.010
REMARK SMILES CCCC(=O)[O-]
REMARK SMILES IDX 3 1 4 2 5 3 6 4 2 5 1 6
REMARK H PARENT
REMARK Flexibility Score: inf
ROOT
ATOM      1  C   UNL     1       7.519   8.274  79.519  1.00  0.00     0.052 C 
ENDROOT
BRANCH   1   2
ATOM      2  C   UNL     1       9.011   8.181  79.624  1.00  0.00     0.041 C 
ATOM      3  O   UNL     1       9.654   9.038  80.284  1.00  0.00    -0.550 OA
ATOM      4  O   UNL     1       9.692   7.166  78.964  1.00  0.00    -0.550 OA
ENDBRANCH   1   2
BRANCH   1   5
ATOM      5  C   UNL     1       6.824   7.677  80.749  1.00  0.00     0.003 C 
ATOM      6  C   UNL     1       6.235   8.750  81.662  1.00  0.00     0.004 C 
ENDBRANCH   1   5
TORSDOF 2
ENDMDL
MODEL 8
REMARK VINA RESULT:    -2.924      3.706      4.648
REMARK INTER + INTRA:          -3.276
REMARK INTER:                  -3.269
REMARK INTRA:                  -0.007
REMARK UNBOUND:                -0.010
REMARK SMILES CCCC(=O)[O-]
REMARK SMILES IDX 3 1 4 2 5 3 6 4 2 5 1 6
REMARK H PARENT
REMARK Flexibility Score: inf
ROOT
ATOM      1  C   UNL     1       6.936   8.716  81.324  1.00  0.00     0.052 C 
ENDROOT
BRANCH   1   2
ATOM      2  C   UNL     1       5.597   9.123  81.860  1.00  0.00     0.041 C 
ATOM      3  O   UNL     1       5.307  10.341  81.985  1.00  0.00    -0.550 OA
ATOM      4  O   UNL     1       4.683   8.153  82.255  1.00  0.00    -0.550 OA
ENDBRANCH   1   2
BRANCH   1   5
ATOM      5  C   UNL     1       6.842   7.452  80.461  1.00  0.00     0.003 C 
ATOM      6  C   UNL     1       8.140   7.165  79.708  1.00  0.00     0.004 C 
ENDBRANCH   1   5
TORSDOF 2
ENDMDL
MODEL 9
REMARK VINA RESULT:    -2.802      9.653     10.141
REMARK INTER + INTRA:          -3.139
REMARK INTER:                  -3.126
REMARK INTRA:                  -0.013
REMARK UNBOUND:                -0.010
REMARK SMILES CCCC(=O)[O-]
REMARK SMILES IDX 3 1 4 2 5 3 6 4 2 5 1 6
REMARK H PARENT
REMARK Flexibility Score: inf
ROOT
ATOM      1  C   UNL     1       2.924   3.892  86.391  1.00  0.00     0.052 C 
ENDROOT
BRANCH   1   2
ATOM      2  C   UNL     1       2.296   3.120  87.510  1.00  0.00     0.041 C 
ATOM      3  O   UNL     1       1.371   3.633  88.192  1.00  0.00    -0.550 OA
ATOM      4  O   UNL     1       2.757   1.847  87.821  1.00  0.00    -0.550 OA
ENDBRANCH   1   2
BRANCH   1   5
ATOM      5  C   UNL     1       2.135   5.166  86.065  1.00  0.00     0.003 C 
ATOM      6  C   UNL     1       2.979   6.198  85.319  1.00  0.00     0.004 C 
ENDBRANCH   1   5
TORSDOF 2
ENDMDL
