MODEL 1
REMARK VINA RESULT:    10.158      0.000      0.000
REMARK INTER + INTRA:          11.668
REMARK INTER:                  11.048
REMARK INTRA:                   0.620
REMARK UNBOUND:                 0.620
REMARK SMILES CC1=C[C@H]2[C@@H](C(C)C)CC[C@@](C)(O)[C@@H]2CC1
REMARK SMILES IDX 1 1 2 2 3 3 4 4 5 5 9 6 10 7 11 8 14 9 15 10 16 11 12 12
REMARK SMILES IDX 6 13 7 14 8 15 13 16
REMARK H PARENT 13 17
REMARK Flexibility Score: inf
ROOT
ATOM      1  C   UNL     1     -32.702  34.908 -11.614  1.00  0.00     0.039 C 
ATOM      2  C   UNL     1     -34.152  34.976 -11.225  1.00  0.00    -0.077 C 
ATOM      3  C   UNL     1     -35.055  34.271 -11.938  1.00  0.00    -0.024 C 
ATOM      4  C   UNL     1     -36.544  34.315 -11.655  1.00  0.00     0.021 C 
ATOM      5  C   UNL     1     -37.270  32.994 -12.047  1.00  0.00    -0.001 C 
ATOM      6  C   UNL     1     -38.787  33.086 -11.745  1.00  0.00     0.007 C 
ATOM      7  C   UNL     1     -39.125  33.631 -10.343  1.00  0.00     0.035 C 
ATOM      8  C   UNL     1     -38.403  34.949  -9.974  1.00  0.00     0.065 C 
ATOM      9  C   UNL     1     -36.863  34.780 -10.214  1.00  0.00     0.028 C 
ATOM     10  C   UNL     1     -36.041  36.049  -9.907  1.00  0.00     0.011 C 
ATOM     11  C   UNL     1     -34.541  35.735  -9.973  1.00  0.00     0.031 C 
ATOM     12  C   UNL     1     -39.028  36.122 -10.779  1.00  0.00     0.042 C 
ENDROOT
BRANCH   5  13
ATOM     13  C   UNL     1     -36.578  31.648 -11.594  1.00  0.00    -0.014 C 
ATOM     14  C   UNL     1     -35.150  31.417 -12.114  1.00  0.00     0.007 C 
ATOM     15  C   UNL     1     -36.574  31.530 -10.060  1.00  0.00     0.007 C 
ENDBRANCH   5  13
BRANCH   8  16
ATOM     16  O   UNL     1     -38.637  35.155  -8.598  1.00  0.00    -0.390 OA
ATOM     17  H   UNL     1     -39.613  35.138  -8.428  1.00  0.00     0.211 HD
ENDBRANCH   8  16
TORSDOF 2
ENDMDL
MODEL 2
REMARK VINA RESULT:    11.822      1.699      2.451
REMARK INTER + INTRA:          13.479
REMARK INTER:                  13.673
REMARK INTRA:                  -0.194
REMARK UNBOUND:                 0.620
REMARK SMILES CC1=C[C@H]2[C@@H](C(C)C)CC[C@@](C)(O)[C@@H]2CC1
REMARK SMILES IDX 1 1 2 2 3 3 4 4 5 5 9 6 10 7 11 8 14 9 15 10 16 11 12 12
REMARK SMILES IDX 6 13 7 14 8 15 13 16
REMARK H PARENT 13 17
REMARK Flexibility Score: inf
ROOT
ATOM      1  C   UNL     1     -32.662  34.942 -11.783  1.00  0.00     0.039 C 
ATOM      2  C   UNL     1     -34.152  34.905 -11.593  1.00  0.00    -0.077 C 
ATOM      3  C   UNL     1     -34.706  33.850 -10.959  1.00  0.00    -0.024 C 
ATOM      4  C   UNL     1     -36.202  33.697 -10.763  1.00  0.00     0.021 C 
ATOM      5  C   UNL     1     -36.562  32.887  -9.483  1.00  0.00    -0.001 C 
ATOM      6  C   UNL     1     -38.098  32.753  -9.329  1.00  0.00     0.007 C 
ATOM      7  C   UNL     1     -38.874  34.073  -9.511  1.00  0.00     0.035 C 
ATOM      8  C   UNL     1     -38.511  34.860 -10.793  1.00  0.00     0.065 C 
ATOM      9  C   UNL     1     -36.956  35.045 -10.862  1.00  0.00     0.028 C 
ATOM     10  C   UNL     1     -36.473  35.794 -12.122  1.00  0.00     0.011 C 
ATOM     11  C   UNL     1     -34.975  36.106 -12.009  1.00  0.00     0.031 C 
ATOM     12  C   UNL     1     -39.102  34.130 -12.031  1.00  0.00     0.042 C 
ENDROOT
BRANCH   5  13
ATOM     13  C   UNL     1     -35.787  33.273  -8.163  1.00  0.00    -0.014 C 
ATOM     14  C   UNL     1     -36.236  34.572  -7.475  1.00  0.00     0.007 C 
ATOM     15  C   UNL     1     -35.848  32.123  -7.142  1.00  0.00     0.007 C 
ENDBRANCH   5  13
BRANCH   8  16
ATOM     16  O   UNL     1     -39.122  36.125 -10.665  1.00  0.00    -0.390 OA
ATOM     17  H   UNL     1     -39.895  36.177 -11.284  1.00  0.00     0.211 HD
ENDBRANCH   8  16
TORSDOF 2
ENDMDL
