MODEL 1
REMARK VINA RESULT:    -5.812      0.000      0.000
REMARK INTER + INTRA:         -13.767
REMARK INTER:                 -10.909
REMARK INTRA:                  -2.858
REMARK UNBOUND:                -2.858
REMARK SMILES CCCCCCCCC=CCCCCCCCC(=O)[O-]
REMARK SMILES IDX 10 1 9 2 11 3 12 4 13 5 14 6 15 7 16 8 17 9 18 10 19 11
REMARK SMILES IDX 20 12 8 13 7 14 6 15 5 16 4 17 3 18 2 19 1 20
REMARK H PARENT
REMARK Flexibility Score: inf
ROOT
ATOM      1  C   UNL     1      23.185 -22.782 -11.679  1.00  0.00    -0.031 C 
ATOM      2  C   UNL     1      22.412 -23.871 -11.815  1.00  0.00    -0.031 C 
ENDROOT
BRANCH   1   3
ATOM      3  C   UNL     1      24.688 -22.873 -11.715  1.00  0.00     0.027 C 
BRANCH   3   4
ATOM      4  C   UNL     1      25.361 -21.704 -10.978  1.00  0.00     0.004 C 
BRANCH   4   5
ATOM      5  C   UNL     1      24.382 -20.963 -10.052  1.00  0.00     0.000 C 
BRANCH   5   6
ATOM      6  C   UNL     1      24.324 -21.566  -8.636  1.00  0.00     0.000 C 
BRANCH   6   7
ATOM      7  C   UNL     1      22.922 -21.599  -8.001  1.00  0.00     0.000 C 
BRANCH   7   8
ATOM      8  C   UNL     1      21.800 -21.332  -9.014  1.00  0.00     0.006 C 
BRANCH   8   9
ATOM      9  C   UNL     1      20.437 -21.725  -8.437  1.00  0.00     0.053 C 
BRANCH   9  10
ATOM     10  C   UNL     1      19.902 -20.636  -7.563  1.00  0.00     0.041 C 
ATOM     11  O   UNL     1      20.161 -20.631  -6.331  1.00  0.00    -0.550 OA
ATOM     12  O   UNL     1      19.156 -19.602  -8.114  1.00  0.00    -0.550 OA
ENDBRANCH   9  10
ENDBRANCH   8   9
ENDBRANCH   7   8
ENDBRANCH   6   7
ENDBRANCH   5   6
ENDBRANCH   4   5
ENDBRANCH   3   4
ENDBRANCH   1   3
BRANCH   2  13
ATOM     13  C   UNL     1      20.912 -23.777 -11.809  1.00  0.00     0.027 C 
BRANCH  13  14
ATOM     14  C   UNL     1      20.303 -24.623 -10.684  1.00  0.00     0.004 C 
BRANCH  14  15
ATOM     15  C   UNL     1      21.380 -25.477  -9.997  1.00  0.00     0.000 C 
BRANCH  15  16
ATOM     16  C   UNL     1      21.436 -25.261  -8.474  1.00  0.00     0.000 C 
BRANCH  16  17
ATOM     17  C   UNL     1      22.854 -25.192  -7.881  1.00  0.00    -0.000 C 
BRANCH  17  18
ATOM     18  C   UNL     1      23.955 -25.298  -8.951  1.00  0.00    -0.000 C 
BRANCH  18  19
ATOM     19  C   UNL     1      25.362 -25.084  -8.371  1.00  0.00    -0.003 C 
ATOM     20  C   UNL     1      25.767 -26.182  -7.387  1.00  0.00     0.004 C 
ENDBRANCH  18  19
ENDBRANCH  17  18
ENDBRANCH  16  17
ENDBRANCH  15  16
ENDBRANCH  14  15
ENDBRANCH  13  14
ENDBRANCH   2  13
TORSDOF 15
ENDMDL
MODEL 2
REMARK VINA RESULT:    -5.642      2.733      5.606
REMARK INTER + INTRA:         -13.448
REMARK INTER:                 -10.858
REMARK INTRA:                  -2.590
REMARK UNBOUND:                -2.858
REMARK SMILES CCCCCCCCC=CCCCCCCCC(=O)[O-]
REMARK SMILES IDX 10 1 9 2 11 3 12 4 13 5 14 6 15 7 16 8 17 9 18 10 19 11
REMARK SMILES IDX 20 12 8 13 7 14 6 15 5 16 4 17 3 18 2 19 1 20
REMARK H PARENT
REMARK Flexibility Score: inf
ROOT
ATOM      1  C   UNL     1      21.742 -22.913 -11.724  1.00  0.00    -0.031 C 
ATOM      2  C   UNL     1      23.030 -23.275 -11.618  1.00  0.00    -0.031 C 
ENDROOT
BRANCH   1   3
ATOM      3  C   UNL     1      20.632 -23.785 -11.203  1.00  0.00     0.027 C 
BRANCH   3   4
ATOM      4  C   UNL     1      20.946 -25.283 -11.351  1.00  0.00     0.004 C 
BRANCH   4   5
ATOM      5  C   UNL     1      21.114 -25.975  -9.988  1.00  0.00     0.000 C 
BRANCH   5   6
ATOM      6  C   UNL     1      21.375 -24.983  -8.840  1.00  0.00     0.000 C 
BRANCH   6   7
ATOM      7  C   UNL     1      22.677 -25.225  -8.055  1.00  0.00     0.000 C 
BRANCH   7   8
ATOM      8  C   UNL     1      23.885 -25.484  -8.967  1.00  0.00     0.006 C 
BRANCH   8   9
ATOM      9  C   UNL     1      25.173 -24.952  -8.333  1.00  0.00     0.053 C 
BRANCH   9  10
ATOM     10  C   UNL     1      25.737 -25.949  -7.371  1.00  0.00     0.041 C 
ATOM     11  O   UNL     1      25.590 -25.785  -6.132  1.00  0.00    -0.550 OA
ATOM     12  O   UNL     1      26.385 -27.083  -7.843  1.00  0.00    -0.550 OA
ENDBRANCH   9  10
ENDBRANCH   8   9
ENDBRANCH   7   8
ENDBRANCH   6   7
ENDBRANCH   5   6
ENDBRANCH   4   5
ENDBRANCH   3   4
ENDBRANCH   1   3
BRANCH   2  13
ATOM     13  C   UNL     1      24.140 -22.391 -12.113  1.00  0.00     0.027 C 
BRANCH  13  14
ATOM     14  C   UNL     1      24.265 -21.121 -11.262  1.00  0.00     0.004 C 
BRANCH  14  15
ATOM     15  C   UNL     1      25.238 -21.338 -10.094  1.00  0.00     0.000 C 
BRANCH  15  16
ATOM     16  C   UNL     1      24.523 -21.663  -8.770  1.00  0.00     0.000 C 
BRANCH  16  17
ATOM     17  C   UNL     1      23.037 -21.264  -8.720  1.00  0.00    -0.000 C 
BRANCH  17  18
ATOM     18  C   UNL     1      22.362 -21.636  -7.389  1.00  0.00    -0.000 C 
BRANCH  18  19
ATOM     19  C   UNL     1      20.970 -21.004  -7.238  1.00  0.00    -0.003 C 
ATOM     20  C   UNL     1      20.092 -21.209  -8.472  1.00  0.00     0.004 C 
ENDBRANCH  18  19
ENDBRANCH  17  18
ENDBRANCH  16  17
ENDBRANCH  15  16
ENDBRANCH  14  15
ENDBRANCH  13  14
ENDBRANCH   2  13
TORSDOF 15
ENDMDL
MODEL 3
REMARK VINA RESULT:    -5.431      2.444      4.385
REMARK INTER + INTRA:         -13.052
REMARK INTER:                 -10.249
REMARK INTRA:                  -2.803
REMARK UNBOUND:                -2.858
REMARK SMILES CCCCCCCCC=CCCCCCCCC(=O)[O-]
REMARK SMILES IDX 10 1 9 2 11 3 12 4 13 5 14 6 15 7 16 8 17 9 18 10 19 11
REMARK SMILES IDX 20 12 8 13 7 14 6 15 5 16 4 17 3 18 2 19 1 20
REMARK H PARENT
REMARK Flexibility Score: inf
ROOT
ATOM      1  C   UNL     1      21.122 -22.000 -10.726  1.00  0.00    -0.031 C 
ATOM      2  C   UNL     1      21.312 -22.248  -9.421  1.00  0.00    -0.031 C 
ENDROOT
BRANCH   1   3
ATOM      3  C   UNL     1      20.807 -23.104 -11.700  1.00  0.00     0.027 C 
BRANCH   3   4
ATOM      4  C   UNL     1      20.512 -24.438 -10.998  1.00  0.00     0.004 C 
BRANCH   4   5
ATOM      5  C   UNL     1      21.626 -25.473 -11.232  1.00  0.00     0.000 C 
BRANCH   5   6
ATOM      6  C   UNL     1      22.652 -25.518 -10.085  1.00  0.00     0.000 C 
BRANCH   6   7
ATOM      7  C   UNL     1      24.115 -25.303 -10.514  1.00  0.00     0.000 C 
BRANCH   7   8
ATOM      8  C   UNL     1      24.360 -23.920 -11.133  1.00  0.00     0.006 C 
BRANCH   8   9
ATOM      9  C   UNL     1      24.892 -22.938 -10.085  1.00  0.00     0.053 C 
BRANCH   9  10
ATOM     10  C   UNL     1      24.864 -21.539 -10.613  1.00  0.00     0.041 C 
ATOM     11  O   UNL     1      24.447 -21.312 -11.780  1.00  0.00    -0.550 OA
ATOM     12  O   UNL     1      25.254 -20.480  -9.804  1.00  0.00    -0.550 OA
ENDBRANCH   9  10
ENDBRANCH   8   9
ENDBRANCH   7   8
ENDBRANCH   6   7
ENDBRANCH   5   6
ENDBRANCH   4   5
ENDBRANCH   3   4
ENDBRANCH   1   3
BRANCH   2  13
ATOM     13  C   UNL     1      21.597 -21.142  -8.443  1.00  0.00     0.027 C 
BRANCH  13  14
ATOM     14  C   UNL     1      22.626 -21.577  -7.392  1.00  0.00     0.004 C 
BRANCH  14  15
ATOM     15  C   UNL     1      22.647 -23.106  -7.246  1.00  0.00     0.000 C 
BRANCH  15  16
ATOM     16  C   UNL     1      22.819 -23.567  -5.787  1.00  0.00     0.000 C 
BRANCH  16  17
ATOM     17  C   UNL     1      23.686 -24.825  -5.604  1.00  0.00    -0.000 C 
BRANCH  17  18
ATOM     18  C   UNL     1      24.332 -25.303  -6.916  1.00  0.00    -0.000 C 
BRANCH  18  19
ATOM     19  C   UNL     1      25.673 -26.016  -6.686  1.00  0.00    -0.003 C 
ATOM     20  C   UNL     1      26.206 -26.692  -7.949  1.00  0.00     0.004 C 
ENDBRANCH  18  19
ENDBRANCH  17  18
ENDBRANCH  16  17
ENDBRANCH  15  16
ENDBRANCH  14  15
ENDBRANCH  13  14
ENDBRANCH   2  13
TORSDOF 15
ENDMDL
MODEL 4
REMARK VINA RESULT:    -5.397      2.759      4.007
REMARK INTER + INTRA:         -12.988
REMARK INTER:                 -10.482
REMARK INTRA:                  -2.506
REMARK UNBOUND:                -2.858
REMARK SMILES CCCCCCCCC=CCCCCCCCC(=O)[O-]
REMARK SMILES IDX 10 1 9 2 11 3 12 4 13 5 14 6 15 7 16 8 17 9 18 10 19 11
REMARK SMILES IDX 20 12 8 13 7 14 6 15 5 16 4 17 3 18 2 19 1 20
REMARK H PARENT
REMARK Flexibility Score: inf
ROOT
ATOM      1  C   UNL     1      20.645 -21.596  -8.845  1.00  0.00    -0.031 C 
ATOM      2  C   UNL     1      20.931 -22.882  -9.103  1.00  0.00    -0.031 C 
ENDROOT
BRANCH   1   3
ATOM      3  C   UNL     1      21.277 -20.865  -7.690  1.00  0.00     0.027 C 
BRANCH   3   4
ATOM      4  C   UNL     1      22.321 -21.722  -6.956  1.00  0.00     0.004 C 
BRANCH   4   5
ATOM      5  C   UNL     1      23.759 -21.274  -7.269  1.00  0.00     0.000 C 
BRANCH   5   6
ATOM      6  C   UNL     1      24.254 -21.764  -8.642  1.00  0.00     0.000 C 
BRANCH   6   7
ATOM      7  C   UNL     1      24.858 -20.672  -9.542  1.00  0.00     0.000 C 
BRANCH   7   8
ATOM      8  C   UNL     1      24.409 -20.786 -11.006  1.00  0.00     0.006 C 
BRANCH   8   9
ATOM      9  C   UNL     1      23.553 -22.038 -11.220  1.00  0.00     0.053 C 
BRANCH   9  10
ATOM     10  C   UNL     1      24.095 -22.859 -12.346  1.00  0.00     0.041 C 
ATOM     11  O   UNL     1      25.182 -23.479 -12.210  1.00  0.00    -0.550 OA
ATOM     12  O   UNL     1      23.379 -22.978 -13.530  1.00  0.00    -0.550 OA
ENDBRANCH   9  10
ENDBRANCH   8   9
ENDBRANCH   7   8
ENDBRANCH   6   7
ENDBRANCH   5   6
ENDBRANCH   4   5
ENDBRANCH   3   4
ENDBRANCH   1   3
BRANCH   2  13
ATOM     13  C   UNL     1      20.322 -23.603 -10.273  1.00  0.00     0.027 C 
BRANCH  13  14
ATOM     14  C   UNL     1      20.321 -25.122 -10.054  1.00  0.00     0.004 C 
BRANCH  14  15
ATOM     15  C   UNL     1      21.072 -25.838 -11.186  1.00  0.00     0.000 C 
BRANCH  15  16
ATOM     16  C   UNL     1      22.592 -25.903 -10.951  1.00  0.00     0.000 C 
BRANCH  16  17
ATOM     17  C   UNL     1      23.038 -25.606  -9.508  1.00  0.00    -0.000 C 
BRANCH  17  18
ATOM     18  C   UNL     1      24.552 -25.361  -9.387  1.00  0.00    -0.000 C 
BRANCH  18  19
ATOM     19  C   UNL     1      25.015 -25.239  -7.928  1.00  0.00    -0.003 C 
ATOM     20  C   UNL     1      23.849 -25.108  -6.948  1.00  0.00     0.004 C 
ENDBRANCH  18  19
ENDBRANCH  17  18
ENDBRANCH  16  17
ENDBRANCH  15  16
ENDBRANCH  14  15
ENDBRANCH  13  14
ENDBRANCH   2  13
TORSDOF 15
ENDMDL
MODEL 5
REMARK VINA RESULT:    -5.343      3.544      5.549
REMARK INTER + INTRA:         -12.887
REMARK INTER:                 -10.519
REMARK INTRA:                  -2.368
REMARK UNBOUND:                -2.858
REMARK SMILES CCCCCCCCC=CCCCCCCCC(=O)[O-]
REMARK SMILES IDX 10 1 9 2 11 3 12 4 13 5 14 6 15 7 16 8 17 9 18 10 19 11
REMARK SMILES IDX 20 12 8 13 7 14 6 15 5 16 4 17 3 18 2 19 1 20
REMARK H PARENT
REMARK Flexibility Score: inf
ROOT
ATOM      1  C   UNL     1      24.632 -23.831  -9.258  1.00  0.00    -0.031 C 
ATOM      2  C   UNL     1      24.566 -23.504 -10.558  1.00  0.00    -0.031 C 
ENDROOT
BRANCH   1   3
ATOM      3  C   UNL     1      25.054 -25.206  -8.811  1.00  0.00     0.027 C 
BRANCH   3   4
ATOM      4  C   UNL     1      24.430 -25.600  -7.464  1.00  0.00     0.004 C 
BRANCH   4   5
ATOM      5  C   UNL     1      22.984 -25.094  -7.326  1.00  0.00     0.000 C 
BRANCH   5   6
ATOM      6  C   UNL     1      22.785 -24.173  -6.109  1.00  0.00     0.000 C 
BRANCH   6   7
ATOM      7  C   UNL     1      23.562 -24.588  -4.846  1.00  0.00     0.000 C 
BRANCH   7   8
ATOM      8  C   UNL     1      22.734 -24.448  -3.561  1.00  0.00     0.006 C 
BRANCH   8   9
ATOM      9  C   UNL     1      22.671 -25.777  -2.802  1.00  0.00     0.053 C 
BRANCH   9  10
ATOM     10  C   UNL     1      23.990 -26.079  -2.163  1.00  0.00     0.041 C 
ATOM     11  O   UNL     1      24.627 -27.115  -2.489  1.00  0.00    -0.550 OA
ATOM     12  O   UNL     1      24.536 -25.196  -1.241  1.00  0.00    -0.550 OA
ENDBRANCH   9  10
ENDBRANCH   8   9
ENDBRANCH   7   8
ENDBRANCH   6   7
ENDBRANCH   5   6
ENDBRANCH   4   5
ENDBRANCH   3   4
ENDBRANCH   1   3
BRANCH   2  13
ATOM     13  C   UNL     1      24.172 -22.124 -11.003  1.00  0.00     0.027 C 
BRANCH  13  14
ATOM     14  C   UNL     1      23.288 -21.431  -9.959  1.00  0.00     0.004 C 
BRANCH  14  15
ATOM     15  C   UNL     1      21.800 -21.621 -10.288  1.00  0.00     0.000 C 
BRANCH  15  16
ATOM     16  C   UNL     1      21.047 -22.430  -9.216  1.00  0.00     0.000 C 
BRANCH  16  17
ATOM     17  C   UNL     1      20.538 -23.806  -9.680  1.00  0.00    -0.000 C 
BRANCH  17  18
ATOM     18  C   UNL     1      20.552 -23.963 -11.211  1.00  0.00    -0.000 C 
BRANCH  18  19
ATOM     19  C   UNL     1      20.878 -25.398 -11.652  1.00  0.00    -0.003 C 
ATOM     20  C   UNL     1      21.947 -26.055 -10.779  1.00  0.00     0.004 C 
ENDBRANCH  18  19
ENDBRANCH  17  18
ENDBRANCH  16  17
ENDBRANCH  15  16
ENDBRANCH  14  15
ENDBRANCH  13  14
ENDBRANCH   2  13
TORSDOF 15
ENDMDL
MODEL 6
REMARK VINA RESULT:    -5.333      2.322      4.418
REMARK INTER + INTRA:         -12.869
REMARK INTER:                 -10.226
REMARK INTRA:                  -2.643
REMARK UNBOUND:                -2.858
REMARK SMILES CCCCCCCCC=CCCCCCCCC(=O)[O-]
REMARK SMILES IDX 10 1 9 2 11 3 12 4 13 5 14 6 15 7 16 8 17 9 18 10 19 11
REMARK SMILES IDX 20 12 8 13 7 14 6 15 5 16 4 17 3 18 2 19 1 20
REMARK H PARENT
REMARK Flexibility Score: inf
ROOT
ATOM      1  C   UNL     1      24.411 -24.141 -10.640  1.00  0.00    -0.031 C 
ATOM      2  C   UNL     1      24.889 -22.968 -10.196  1.00  0.00    -0.031 C 
ENDROOT
BRANCH   1   3
ATOM      3  C   UNL     1      24.437 -25.378  -9.782  1.00  0.00     0.027 C 
BRANCH   3   4
ATOM      4  C   UNL     1      24.979 -25.101  -8.372  1.00  0.00     0.004 C 
BRANCH   4   5
ATOM      5  C   UNL     1      24.021 -25.598  -7.276  1.00  0.00     0.000 C 
BRANCH   5   6
ATOM      6  C   UNL     1      22.860 -24.623  -7.009  1.00  0.00     0.000 C 
BRANCH   6   7
ATOM      7  C   UNL     1      23.285 -23.184  -6.666  1.00  0.00     0.000 C 
BRANCH   7   8
ATOM      8  C   UNL     1      22.272 -22.458  -5.771  1.00  0.00     0.006 C 
BRANCH   8   9
ATOM      9  C   UNL     1      22.407 -22.909  -4.313  1.00  0.00     0.053 C 
BRANCH   9  10
ATOM     10  C   UNL     1      22.823 -21.764  -3.445  1.00  0.00     0.041 C 
ATOM     11  O   UNL     1      21.955 -21.086  -2.835  1.00  0.00    -0.550 OA
ATOM     12  O   UNL     1      24.169 -21.474  -3.272  1.00  0.00    -0.550 OA
ENDBRANCH   9  10
ENDBRANCH   8   9
ENDBRANCH   7   8
ENDBRANCH   6   7
ENDBRANCH   5   6
ENDBRANCH   4   5
ENDBRANCH   3   4
ENDBRANCH   1   3
BRANCH   2  13
ATOM     13  C   UNL     1      24.838 -21.726 -11.042  1.00  0.00     0.027 C 
BRANCH  13  14
ATOM     14  C   UNL     1      23.764 -20.753 -10.540  1.00  0.00     0.004 C 
BRANCH  14  15
ATOM     15  C   UNL     1      22.359 -21.344 -10.727  1.00  0.00     0.000 C 
BRANCH  15  16
ATOM     16  C   UNL     1      21.550 -21.396  -9.418  1.00  0.00     0.000 C 
BRANCH  16  17
ATOM     17  C   UNL     1      20.725 -22.679  -9.217  1.00  0.00    -0.000 C 
BRANCH  17  18
ATOM     18  C   UNL     1      20.732 -23.595 -10.453  1.00  0.00    -0.000 C 
BRANCH  18  19
ATOM     19  C   UNL     1      20.719 -25.085 -10.082  1.00  0.00    -0.003 C 
ATOM     20  C   UNL     1      21.089 -25.990 -11.257  1.00  0.00     0.004 C 
ENDBRANCH  18  19
ENDBRANCH  17  18
ENDBRANCH  16  17
ENDBRANCH  15  16
ENDBRANCH  14  15
ENDBRANCH  13  14
ENDBRANCH   2  13
TORSDOF 15
ENDMDL
MODEL 7
REMARK VINA RESULT:    -5.262      3.378      4.992
REMARK INTER + INTRA:         -12.735
REMARK INTER:                 -10.396
REMARK INTRA:                  -2.339
REMARK UNBOUND:                -2.858
REMARK SMILES CCCCCCCCC=CCCCCCCCC(=O)[O-]
REMARK SMILES IDX 10 1 9 2 11 3 12 4 13 5 14 6 15 7 16 8 17 9 18 10 19 11
REMARK SMILES IDX 20 12 8 13 7 14 6 15 5 16 4 17 3 18 2 19 1 20
REMARK H PARENT
REMARK Flexibility Score: inf
ROOT
ATOM      1  C   UNL     1      21.134 -21.779  -9.450  1.00  0.00    -0.031 C 
ATOM      2  C   UNL     1      20.826 -23.083  -9.520  1.00  0.00    -0.031 C 
ENDROOT
BRANCH   1   3
ATOM      3  C   UNL     1      21.450 -21.113  -8.137  1.00  0.00     0.027 C 
BRANCH   3   4
ATOM      4  C   UNL     1      22.802 -21.565  -7.563  1.00  0.00     0.004 C 
BRANCH   4   5
ATOM      5  C   UNL     1      22.636 -22.393  -6.277  1.00  0.00     0.000 C 
BRANCH   5   6
ATOM      6  C   UNL     1      22.902 -23.894  -6.494  1.00  0.00     0.000 C 
BRANCH   6   7
ATOM      7  C   UNL     1      23.114 -24.709  -5.205  1.00  0.00     0.000 C 
BRANCH   7   8
ATOM      8  C   UNL     1      22.687 -23.950  -3.941  1.00  0.00     0.006 C 
BRANCH   8   9
ATOM      9  C   UNL     1      23.877 -23.739  -3.000  1.00  0.00     0.053 C 
BRANCH   9  10
ATOM     10  C   UNL     1      23.782 -24.652  -1.819  1.00  0.00     0.041 C 
ATOM     11  O   UNL     1      24.548 -24.491  -0.833  1.00  0.00    -0.550 OA
ATOM     12  O   UNL     1      22.818 -25.651  -1.786  1.00  0.00    -0.550 OA
ENDBRANCH   9  10
ENDBRANCH   8   9
ENDBRANCH   7   8
ENDBRANCH   6   7
ENDBRANCH   5   6
ENDBRANCH   4   5
ENDBRANCH   3   4
ENDBRANCH   1   3
BRANCH   2  13
ATOM     13  C   UNL     1      20.538 -23.754 -10.834  1.00  0.00     0.027 C 
BRANCH  13  14
ATOM     14  C   UNL     1      21.192 -25.139 -10.909  1.00  0.00     0.004 C 
BRANCH  14  15
ATOM     15  C   UNL     1      22.202 -25.330  -9.768  1.00  0.00     0.000 C 
BRANCH  15  16
ATOM     16  C   UNL     1      23.664 -25.315 -10.252  1.00  0.00     0.000 C 
BRANCH  16  17
ATOM     17  C   UNL     1      24.497 -24.120  -9.757  1.00  0.00    -0.000 C 
BRANCH  17  18
ATOM     18  C   UNL     1      24.489 -22.937 -10.740  1.00  0.00    -0.000 C 
BRANCH  18  19
ATOM     19  C   UNL     1      25.207 -21.700 -10.179  1.00  0.00    -0.003 C 
ATOM     20  C   UNL     1      24.854 -20.419 -10.935  1.00  0.00     0.004 C 
ENDBRANCH  18  19
ENDBRANCH  17  18
ENDBRANCH  16  17
ENDBRANCH  15  16
ENDBRANCH  14  15
ENDBRANCH  13  14
ENDBRANCH   2  13
TORSDOF 15
ENDMDL
MODEL 8
REMARK VINA RESULT:    -5.231      2.079      4.938
REMARK INTER + INTRA:         -12.676
REMARK INTER:                 -10.192
REMARK INTRA:                  -2.484
REMARK UNBOUND:                -2.858
REMARK SMILES CCCCCCCCC=CCCCCCCCC(=O)[O-]
REMARK SMILES IDX 10 1 9 2 11 3 12 4 13 5 14 6 15 7 16 8 17 9 18 10 19 11
REMARK SMILES IDX 20 12 8 13 7 14 6 15 5 16 4 17 3 18 2 19 1 20
REMARK H PARENT
REMARK Flexibility Score: inf
ROOT
ATOM      1  C   UNL     1      21.128 -23.196  -9.921  1.00  0.00    -0.031 C 
ATOM      2  C   UNL     1      20.787 -22.388  -8.906  1.00  0.00    -0.031 C 
ENDROOT
BRANCH   1   3
ATOM      3  C   UNL     1      20.307 -24.408 -10.275  1.00  0.00     0.027 C 
BRANCH   3   4
ATOM      4  C   UNL     1      21.072 -25.390 -11.176  1.00  0.00     0.004 C 
BRANCH   4   5
ATOM      5  C   UNL     1      22.488 -25.677 -10.647  1.00  0.00     0.000 C 
BRANCH   5   6
ATOM      6  C   UNL     1      22.575 -25.628  -9.111  1.00  0.00     0.000 C 
BRANCH   6   7
ATOM      7  C   UNL     1      23.995 -25.447  -8.546  1.00  0.00     0.000 C 
BRANCH   7   8
ATOM      8  C   UNL     1      24.003 -24.988  -7.082  1.00  0.00     0.006 C 
BRANCH   8   9
ATOM      9  C   UNL     1      22.587 -24.996  -6.498  1.00  0.00     0.053 C 
BRANCH   9  10
ATOM     10  C   UNL     1      22.609 -24.585  -5.060  1.00  0.00     0.041 C 
ATOM     11  O   UNL     1      23.031 -23.444  -4.735  1.00  0.00    -0.550 OA
ATOM     12  O   UNL     1      22.122 -25.443  -4.082  1.00  0.00    -0.550 OA
ENDBRANCH   9  10
ENDBRANCH   8   9
ENDBRANCH   7   8
ENDBRANCH   6   7
ENDBRANCH   5   6
ENDBRANCH   4   5
ENDBRANCH   3   4
ENDBRANCH   1   3
BRANCH   2  13
ATOM     13  C   UNL     1      21.591 -21.163  -8.571  1.00  0.00     0.027 C 
BRANCH  13  14
ATOM     14  C   UNL     1      22.773 -21.503  -7.656  1.00  0.00     0.004 C 
BRANCH  14  15
ATOM     15  C   UNL     1      24.091 -21.513  -8.444  1.00  0.00     0.000 C 
BRANCH  15  16
ATOM     16  C   UNL     1      24.044 -20.630  -9.704  1.00  0.00     0.000 C 
BRANCH  16  17
ATOM     17  C   UNL     1      24.872 -21.152 -10.892  1.00  0.00    -0.000 C 
BRANCH  17  18
ATOM     18  C   UNL     1      25.170 -22.659 -10.797  1.00  0.00    -0.000 C 
BRANCH  18  19
ATOM     19  C   UNL     1      24.821 -23.410 -12.090  1.00  0.00    -0.003 C 
ATOM     20  C   UNL     1      23.562 -22.868 -12.767  1.00  0.00     0.004 C 
ENDBRANCH  18  19
ENDBRANCH  17  18
ENDBRANCH  16  17
ENDBRANCH  15  16
ENDBRANCH  14  15
ENDBRANCH  13  14
ENDBRANCH   2  13
TORSDOF 15
ENDMDL
MODEL 9
REMARK VINA RESULT:    -5.123      3.275      5.418
REMARK INTER + INTRA:         -12.473
REMARK INTER:                 -10.419
REMARK INTRA:                  -2.054
REMARK UNBOUND:                -2.858
REMARK SMILES CCCCCCCCC=CCCCCCCCC(=O)[O-]
REMARK SMILES IDX 10 1 9 2 11 3 12 4 13 5 14 6 15 7 16 8 17 9 18 10 19 11
REMARK SMILES IDX 20 12 8 13 7 14 6 15 5 16 4 17 3 18 2 19 1 20
REMARK H PARENT
REMARK Flexibility Score: inf
ROOT
ATOM      1  C   UNL     1      24.215 -24.974  -8.827  1.00  0.00    -0.031 C 
ATOM      2  C   UNL     1      24.601 -23.748  -9.213  1.00  0.00    -0.031 C 
ENDROOT
BRANCH   1   3
ATOM      3  C   UNL     1      24.119 -25.348  -7.371  1.00  0.00     0.027 C 
BRANCH   3   4
ATOM      4  C   UNL     1      22.886 -24.736  -6.689  1.00  0.00     0.004 C 
BRANCH   4   5
ATOM      5  C   UNL     1      23.140 -24.427  -5.204  1.00  0.00     0.000 C 
BRANCH   5   6
ATOM      6  C   UNL     1      22.219 -25.221  -4.260  1.00  0.00     0.000 C 
BRANCH   6   7
ATOM      7  C   UNL     1      22.704 -25.310  -2.802  1.00  0.00     0.000 C 
BRANCH   7   8
ATOM      8  C   UNL     1      23.767 -24.256  -2.460  1.00  0.00     0.006 C 
BRANCH   8   9
ATOM      9  C   UNL     1      23.187 -23.170  -1.549  1.00  0.00     0.053 C 
BRANCH   9  10
ATOM     10  C   UNL     1      22.763 -21.981  -2.353  1.00  0.00     0.041 C 
ATOM     11  O   UNL     1      21.644 -21.443  -2.143  1.00  0.00    -0.550 OA
ATOM     12  O   UNL     1      23.619 -21.441  -3.303  1.00  0.00    -0.550 OA
ENDBRANCH   9  10
ENDBRANCH   8   9
ENDBRANCH   7   8
ENDBRANCH   6   7
ENDBRANCH   5   6
ENDBRANCH   4   5
ENDBRANCH   3   4
ENDBRANCH   1   3
BRANCH   2  13
ATOM     13  C   UNL     1      24.668 -23.365 -10.665  1.00  0.00     0.027 C 
BRANCH  13  14
ATOM     14  C   UNL     1      24.225 -21.913 -10.881  1.00  0.00     0.004 C 
BRANCH  14  15
ATOM     15  C   UNL     1      23.265 -21.462  -9.770  1.00  0.00     0.000 C 
BRANCH  15  16
ATOM     16  C   UNL     1      21.784 -21.561 -10.178  1.00  0.00     0.000 C 
BRANCH  16  17
ATOM     17  C   UNL     1      20.883 -22.301  -9.174  1.00  0.00    -0.000 C 
BRANCH  17  18
ATOM     18  C   UNL     1      20.759 -23.805  -9.476  1.00  0.00    -0.000 C 
BRANCH  18  19
ATOM     19  C   UNL     1      20.699 -24.099 -10.983  1.00  0.00    -0.003 C 
ATOM     20  C   UNL     1      20.796 -25.592 -11.297  1.00  0.00     0.004 C 
ENDBRANCH  18  19
ENDBRANCH  17  18
ENDBRANCH  16  17
ENDBRANCH  15  16
ENDBRANCH  14  15
ENDBRANCH  13  14
ENDBRANCH   2  13
TORSDOF 15
ENDMDL
