MODEL 1
REMARK VINA RESULT:    -4.749      0.000      0.000
REMARK INTER + INTRA:          -6.425
REMARK INTER:                  -6.692
REMARK INTRA:                   0.267
REMARK UNBOUND:                 0.267
REMARK SMILES CC1=CCC(=C(C)C)C(=O)CC(C)=CCC1
REMARK SMILES IDX 12 1 14 2 13 3 15 4 16 5 2 6 1 7 3 8 11 10 9 11 10 12 5 13
REMARK SMILES IDX 6 14 7 15 8 16 4 17
REMARK H PARENT
REMARK Flexibility Score: 60.00
ROOT
ATOM      1  C   UNL     1      10.117 -18.531 -30.208  1.00  0.00    -0.070 C 
ATOM      2  C   UNL     1      11.007 -19.511 -30.488  1.00  0.00    -0.027 C 
ATOM      3  C   UNL     1       9.098 -18.170 -31.259  1.00  0.00     0.039 C 
ENDROOT
BRANCH   2   4
ATOM      4  C   UNL     1      12.169 -19.917 -29.614  1.00  0.00     0.032 C 
BRANCH   4   5
ATOM      5  C   UNL     1      13.515 -19.270 -29.969  1.00  0.00     0.034 C 
BRANCH   5   6
ATOM      6  C   UNL     1      13.418 -18.183 -31.023  1.00  0.00    -0.077 C 
ATOM      7  C   UNL     1      13.456 -18.603 -32.472  1.00  0.00     0.039 C 
ATOM      8  C   UNL     1      13.229 -16.865 -30.759  1.00  0.00    -0.023 CG0
ATOM      9  G   UNL     1      13.291 -16.153 -29.422  1.00  0.00     0.000 G0
ENDBRANCH   5   6
ENDBRANCH   4   5
ENDBRANCH   2   4
BRANCH   1  10
ATOM     10  C   UNL     1      10.035 -17.839 -28.863  1.00  0.00     0.111 C 
BRANCH  10  11
ATOM     11  C   UNL     1      10.823 -16.554 -28.865  1.00  0.00     0.163 C 
ATOM     12  O   UNL     1      10.266 -15.500 -29.275  1.00  0.00    -0.294 OA
BRANCH  11  13
ATOM     13  C   UNL     1      12.230 -16.486 -28.391  1.00  0.00    -0.002 C 
ATOM     14  C   UNL     1      12.549 -16.883 -27.128  1.00  0.00    -0.069 C 
ATOM     15  C   UNL     1      11.467 -17.248 -26.139  1.00  0.00     0.039 C 
ATOM     16  C   UNL     1      13.984 -16.950 -26.660  1.00  0.00     0.039 C 
BRANCH  13  17
ATOM     17  C   UNL     1      13.286 -16.131 -29.421  1.00  0.00     0.066 CG0
ATOM     18  G   UNL     1      13.231 -16.860 -30.750  1.00  0.00     0.000 G0
ENDBRANCH  13  17
ENDBRANCH  11  13
ENDBRANCH  10  11
ENDBRANCH   1  10
TORSDOF 0
ENDMDL
MODEL 2
REMARK VINA RESULT:    -4.732      1.846      3.483
REMARK INTER + INTRA:          -6.401
REMARK INTER:                  -6.785
REMARK INTRA:                   0.383
REMARK UNBOUND:                 0.267
REMARK SMILES CC1=CCC(=C(C)C)C(=O)CC(C)=CCC1
REMARK SMILES IDX 12 1 14 2 13 3 15 4 16 5 2 6 1 7 3 8 11 10 9 11 10 12 5 13
REMARK SMILES IDX 6 14 7 15 8 16 4 17
REMARK H PARENT
REMARK Flexibility Score: 60.00
ROOT
ATOM      1  C   UNL     1      12.974 -17.562 -32.107  1.00  0.00    -0.070 C 
ATOM      2  C   UNL     1      11.764 -17.691 -32.700  1.00  0.00    -0.027 C 
ATOM      3  C   UNL     1      14.029 -16.743 -32.807  1.00  0.00     0.039 C 
ENDROOT
BRANCH   2   4
ATOM      4  C   UNL     1      10.636 -18.567 -32.213  1.00  0.00     0.032 C 
BRANCH   4   5
ATOM      5  C   UNL     1       9.349 -17.826 -31.825  1.00  0.00     0.034 C 
BRANCH   5   6
ATOM      6  C   UNL     1       9.588 -16.502 -31.123  1.00  0.00    -0.077 C 
ATOM      7  C   UNL     1       9.208 -15.239 -31.856  1.00  0.00     0.039 C 
ATOM      8  C   UNL     1      10.053 -16.373 -29.854  1.00  0.00    -0.023 CG0
ATOM      9  G   UNL     1      10.634 -17.441 -28.949  1.00  0.00     0.000 G0
ENDBRANCH   5   6
ENDBRANCH   4   5
ENDBRANCH   2   4
BRANCH   1  10
ATOM     10  C   UNL     1      13.294 -18.125 -30.738  1.00  0.00     0.111 C 
BRANCH  10  11
ATOM     11  C   UNL     1      13.077 -17.092 -29.662  1.00  0.00     0.163 C 
ATOM     12  O   UNL     1      13.736 -16.019 -29.707  1.00  0.00    -0.294 OA
BRANCH  11  13
ATOM     13  C   UNL     1      12.105 -17.292 -28.555  1.00  0.00    -0.002 C 
ATOM     14  C   UNL     1      12.507 -17.179 -27.259  1.00  0.00    -0.069 C 
ATOM     15  C   UNL     1      13.968 -17.007 -26.918  1.00  0.00     0.039 C 
ATOM     16  C   UNL     1      11.519 -17.247 -26.117  1.00  0.00     0.039 C 
BRANCH  13  17
ATOM     17  C   UNL     1      10.645 -17.446 -28.942  1.00  0.00     0.066 CG0
ATOM     18  G   UNL     1      10.054 -16.387 -29.852  1.00  0.00     0.000 G0
ENDBRANCH  13  17
ENDBRANCH  11  13
ENDBRANCH  10  11
ENDBRANCH   1  10
TORSDOF 0
ENDMDL
MODEL 3
REMARK VINA RESULT:    -4.728      1.852      3.692
REMARK INTER + INTRA:          -6.395
REMARK INTER:                  -6.940
REMARK INTRA:                   0.544
REMARK UNBOUND:                 0.267
REMARK SMILES CC1=CCC(=C(C)C)C(=O)CC(C)=CCC1
REMARK SMILES IDX 12 1 14 2 13 3 15 4 16 5 2 6 1 7 3 8 11 10 9 11 10 12 5 13
REMARK SMILES IDX 6 14 7 15 8 16 4 17
REMARK H PARENT
REMARK Flexibility Score: 60.00
ROOT
ATOM      1  C   UNL     1      11.816 -17.146 -32.611  1.00  0.00    -0.070 C 
ATOM      2  C   UNL     1      13.148 -16.940 -32.489  1.00  0.00    -0.027 C 
ATOM      3  C   UNL     1      11.294 -17.693 -33.917  1.00  0.00     0.039 C 
ENDROOT
BRANCH   2   4
ATOM      4  C   UNL     1      13.831 -16.286 -31.313  1.00  0.00     0.032 C 
BRANCH   4   5
ATOM      5  C   UNL     1      13.836 -17.110 -30.017  1.00  0.00     0.034 C 
BRANCH   5   6
ATOM      6  C   UNL     1      13.170 -16.417 -28.842  1.00  0.00    -0.077 C 
ATOM      7  C   UNL     1      13.750 -15.103 -28.380  1.00  0.00     0.039 C 
ATOM      8  C   UNL     1      12.047 -16.859 -28.221  1.00  0.00    -0.023 CG0
ATOM      9  G   UNL     1      11.342 -18.192 -28.380  1.00  0.00     0.000 G0
ENDBRANCH   5   6
ENDBRANCH   4   5
ENDBRANCH   2   4
BRANCH   1  10
ATOM     10  C   UNL     1      10.834 -16.938 -31.478  1.00  0.00     0.111 C 
BRANCH  10  11
ATOM     11  C   UNL     1      10.498 -18.245 -30.805  1.00  0.00     0.163 C 
ATOM     12  O   UNL     1       9.449 -18.854 -31.148  1.00  0.00    -0.294 OA
BRANCH  11  13
ATOM     13  C   UNL     1      11.366 -18.842 -29.757  1.00  0.00    -0.002 C 
ATOM     14  C   UNL     1      12.254 -19.824 -30.077  1.00  0.00    -0.069 C 
ATOM     15  C   UNL     1      12.263 -20.432 -31.461  1.00  0.00     0.039 C 
ATOM     16  C   UNL     1      13.240 -20.359 -29.065  1.00  0.00     0.039 C 
BRANCH  13  17
ATOM     17  C   UNL     1      11.337 -18.191 -28.386  1.00  0.00     0.066 CG0
ATOM     18  G   UNL     1      12.038 -16.855 -28.239  1.00  0.00     0.000 G0
ENDBRANCH  13  17
ENDBRANCH  11  13
ENDBRANCH  10  11
ENDBRANCH   1  10
TORSDOF 0
ENDMDL
MODEL 4
REMARK VINA RESULT:    -4.691      1.851      4.012
REMARK INTER + INTRA:          -6.343
REMARK INTER:                  -6.798
REMARK INTRA:                   0.456
REMARK UNBOUND:                 0.267
REMARK SMILES CC1=CCC(=C(C)C)C(=O)CC(C)=CCC1
REMARK SMILES IDX 12 1 14 2 13 3 15 4 16 5 2 6 1 7 3 8 11 10 9 11 10 12 5 13
REMARK SMILES IDX 6 14 7 15 8 16 4 17
REMARK H PARENT
REMARK Flexibility Score: 60.00
ROOT
ATOM      1  C   UNL     1      11.790 -16.977 -28.229  1.00  0.00    -0.070 C 
ATOM      2  C   UNL     1      13.053 -16.997 -28.718  1.00  0.00    -0.027 C 
ATOM      3  C   UNL     1      11.535 -17.614 -26.886  1.00  0.00     0.039 C 
ENDROOT
BRANCH   2   4
ATOM      4  C   UNL     1      13.470 -16.524 -30.089  1.00  0.00     0.032 C 
BRANCH   4   5
ATOM      5  C   UNL     1      13.519 -17.612 -31.171  1.00  0.00     0.034 C 
BRANCH   5   6
ATOM      6  C   UNL     1      12.938 -18.944 -30.734  1.00  0.00    -0.077 C 
ATOM      7  C   UNL     1      13.839 -19.891 -29.979  1.00  0.00     0.039 C 
ATOM      8  C   UNL     1      11.644 -19.318 -30.910  1.00  0.00    -0.023 CG0
ATOM      9  G   UNL     1      10.571 -18.640 -31.739  1.00  0.00     0.000 G0
ENDBRANCH   5   6
ENDBRANCH   4   5
ENDBRANCH   2   4
BRANCH   1  10
ATOM     10  C   UNL     1      10.641 -16.274 -28.919  1.00  0.00     0.111 C 
BRANCH  10  11
ATOM     11  C   UNL     1       9.826 -17.243 -29.739  1.00  0.00     0.163 C 
ATOM     12  O   UNL     1       8.977 -17.969 -29.156  1.00  0.00    -0.294 OA
BRANCH  11  13
ATOM     13  C   UNL     1       9.984 -17.363 -31.212  1.00  0.00    -0.002 C 
ATOM     14  C   UNL     1       9.752 -16.291 -32.018  1.00  0.00    -0.069 C 
ATOM     15  C   UNL     1       9.179 -15.012 -31.452  1.00  0.00     0.039 C 
ATOM     16  C   UNL     1      10.030 -16.343 -33.502  1.00  0.00     0.039 C 
BRANCH  13  17
ATOM     17  C   UNL     1      10.577 -18.658 -31.736  1.00  0.00     0.066 CG0
ATOM     18  G   UNL     1      11.661 -19.312 -30.901  1.00  0.00     0.000 G0
ENDBRANCH  13  17
ENDBRANCH  11  13
ENDBRANCH  10  11
ENDBRANCH   1  10
TORSDOF 0
ENDMDL
MODEL 5
REMARK VINA RESULT:    -4.609      2.083      4.029
REMARK INTER + INTRA:          -6.227
REMARK INTER:                  -6.556
REMARK INTRA:                   0.329
REMARK UNBOUND:                 0.267
REMARK SMILES CC1=CCC(=C(C)C)C(=O)CC(C)=CCC1
REMARK SMILES IDX 12 1 14 2 13 3 15 4 16 5 2 6 1 7 3 8 11 10 9 11 10 12 5 13
REMARK SMILES IDX 6 14 7 15 8 16 4 17
REMARK H PARENT
REMARK Flexibility Score: 60.00
ROOT
ATOM      1  C   UNL     1      10.217 -16.825 -29.493  1.00  0.00    -0.070 C 
ATOM      2  C   UNL     1      11.373 -16.274 -29.054  1.00  0.00    -0.027 C 
ATOM      3  C   UNL     1       9.028 -15.921 -29.699  1.00  0.00     0.039 C 
ENDROOT
BRANCH   2   4
ATOM      4  C   UNL     1      12.619 -17.035 -28.674  1.00  0.00     0.032 C 
BRANCH   4   5
ATOM      5  C   UNL     1      13.409 -17.630 -29.849  1.00  0.00     0.034 C 
BRANCH   5   6
ATOM      6  C   UNL     1      13.367 -19.145 -29.917  1.00  0.00    -0.077 C 
ATOM      7  C   UNL     1      13.943 -19.917 -28.755  1.00  0.00     0.039 C 
ATOM      8  C   UNL     1      12.785 -19.858 -30.915  1.00  0.00    -0.023 CG0
ATOM      9  G   UNL     1      12.262 -19.361 -32.248  1.00  0.00     0.000 G0
ENDBRANCH   5   6
ENDBRANCH   4   5
ENDBRANCH   2   4
BRANCH   1  10
ATOM     10  C   UNL     1      10.081 -18.285 -29.869  1.00  0.00     0.111 C 
BRANCH  10  11
ATOM     11  C   UNL     1      10.028 -18.458 -31.366  1.00  0.00     0.163 C 
ATOM     12  O   UNL     1       8.934 -18.779 -31.903  1.00  0.00    -0.294 OA
BRANCH  11  13
ATOM     13  C   UNL     1      11.220 -18.252 -32.230  1.00  0.00    -0.002 C 
ATOM     14  C   UNL     1      11.423 -17.056 -32.848  1.00  0.00    -0.069 C 
ATOM     15  C   UNL     1      10.369 -15.975 -32.797  1.00  0.00     0.039 C 
ATOM     16  C   UNL     1      12.687 -16.772 -33.625  1.00  0.00     0.039 C 
BRANCH  13  17
ATOM     17  C   UNL     1      12.260 -19.357 -32.239  1.00  0.00     0.066 CG0
ATOM     18  G   UNL     1      12.757 -19.852 -30.895  1.00  0.00     0.000 G0
ENDBRANCH  13  17
ENDBRANCH  11  13
ENDBRANCH  10  11
ENDBRANCH   1  10
TORSDOF 0
ENDMDL
MODEL 6
REMARK VINA RESULT:    -4.581      2.171      4.733
REMARK INTER + INTRA:          -6.189
REMARK INTER:                  -6.784
REMARK INTRA:                   0.595
REMARK UNBOUND:                 0.267
REMARK SMILES CC1=CCC(=C(C)C)C(=O)CC(C)=CCC1
REMARK SMILES IDX 12 1 14 2 13 3 15 4 16 5 2 6 1 7 3 8 11 10 9 11 10 12 5 13
REMARK SMILES IDX 6 14 7 15 8 16 4 17
REMARK H PARENT
REMARK Flexibility Score: 60.00
ROOT
ATOM      1  C   UNL     1      13.758 -19.065 -29.382  1.00  0.00    -0.070 C 
ATOM      2  C   UNL     1      13.707 -18.101 -28.433  1.00  0.00    -0.027 C 
ATOM      3  C   UNL     1      14.155 -20.459 -28.964  1.00  0.00     0.039 C 
ENDROOT
BRANCH   2   4
ATOM      4  C   UNL     1      13.454 -16.634 -28.685  1.00  0.00     0.032 C 
BRANCH   4   5
ATOM      5  C   UNL     1      11.991 -16.188 -28.550  1.00  0.00     0.034 C 
BRANCH   5   6
ATOM      6  C   UNL     1      11.061 -17.269 -28.030  1.00  0.00    -0.077 C 
ATOM      7  C   UNL     1      11.202 -17.683 -26.586  1.00  0.00     0.039 C 
ATOM      8  C   UNL     1      10.064 -17.842 -28.751  1.00  0.00    -0.023 CG0
ATOM      9  G   UNL     1       9.784 -17.724 -30.236  1.00  0.00     0.000 G0
ENDBRANCH   5   6
ENDBRANCH   4   5
ENDBRANCH   2   4
BRANCH   1  10
ATOM     10  C   UNL     1      13.354 -18.837 -30.823  1.00  0.00     0.111 C 
BRANCH  10  11
ATOM     11  C   UNL     1      11.867 -19.008 -31.004  1.00  0.00     0.163 C 
ATOM     12  O   UNL     1      11.382 -20.171 -30.984  1.00  0.00    -0.294 OA
BRANCH  11  13
ATOM     13  C   UNL     1      10.954 -17.851 -31.196  1.00  0.00    -0.002 C 
ATOM     14  C   UNL     1      11.090 -17.041 -32.282  1.00  0.00    -0.069 C 
ATOM     15  C   UNL     1      12.260 -17.205 -33.223  1.00  0.00     0.039 C 
ATOM     16  C   UNL     1      10.099 -15.938 -32.574  1.00  0.00     0.039 C 
BRANCH  13  17
ATOM     17  C   UNL     1       9.783 -17.734 -30.238  1.00  0.00     0.066 CG0
ATOM     18  G   UNL     1      10.084 -17.858 -28.757  1.00  0.00     0.000 G0
ENDBRANCH  13  17
ENDBRANCH  11  13
ENDBRANCH  10  11
ENDBRANCH   1  10
TORSDOF 0
ENDMDL
MODEL 7
REMARK VINA RESULT:    -4.550      1.969      4.239
REMARK INTER + INTRA:          -6.145
REMARK INTER:                  -6.213
REMARK INTRA:                   0.068
REMARK UNBOUND:                 0.267
REMARK SMILES CC1=CCC(=C(C)C)C(=O)CC(C)=CCC1
REMARK SMILES IDX 12 1 14 2 13 3 15 4 16 5 2 6 1 7 3 8 11 10 9 11 10 12 5 13
REMARK SMILES IDX 6 14 7 15 8 16 4 17
REMARK H PARENT
REMARK Flexibility Score: 60.00
ROOT
ATOM      1  C   UNL     1      13.113 -18.087 -31.484  1.00  0.00    -0.070 C 
ATOM      2  C   UNL     1      13.687 -18.178 -30.261  1.00  0.00    -0.027 C 
ATOM      3  C   UNL     1      13.735 -17.160 -32.498  1.00  0.00     0.039 C 
ENDROOT
BRANCH   2   4
ATOM      4  C   UNL     1      13.136 -18.951 -29.088  1.00  0.00     0.032 C 
BRANCH   4   5
ATOM      5  C   UNL     1      12.404 -18.109 -28.033  1.00  0.00     0.034 C 
BRANCH   5   6
ATOM      6  C   UNL     1      12.410 -16.619 -28.320  1.00  0.00    -0.077 C 
ATOM      7  C   UNL     1      13.553 -15.801 -27.769  1.00  0.00     0.039 C 
ATOM      8  C   UNL     1      11.499 -15.977 -29.096  1.00  0.00    -0.023 CG0
ATOM      9  G   UNL     1      10.194 -16.510 -29.654  1.00  0.00     0.000 G0
ENDBRANCH   5   6
ENDBRANCH   4   5
ENDBRANCH   2   4
BRANCH   1  10
ATOM     10  C   UNL     1      11.931 -18.930 -31.914  1.00  0.00     0.111 C 
BRANCH  10  11
ATOM     11  C   UNL     1      10.678 -18.521 -31.184  1.00  0.00     0.163 C 
ATOM     12  O   UNL     1       9.967 -19.413 -30.648  1.00  0.00    -0.294 OA
BRANCH  11  13
ATOM     13  C   UNL     1      10.256 -17.100 -31.068  1.00  0.00    -0.002 C 
ATOM     14  C   UNL     1       9.796 -16.429 -32.159  1.00  0.00    -0.069 C 
ATOM     15  C   UNL     1       9.852 -17.058 -33.532  1.00  0.00     0.039 C 
ATOM     16  C   UNL     1       9.238 -15.029 -32.048  1.00  0.00     0.039 C 
BRANCH  13  17
ATOM     17  C   UNL     1      10.199 -16.513 -29.670  1.00  0.00     0.066 CG0
ATOM     18  G   UNL     1      11.491 -15.969 -29.093  1.00  0.00     0.000 G0
ENDBRANCH  13  17
ENDBRANCH  11  13
ENDBRANCH  10  11
ENDBRANCH   1  10
TORSDOF 0
ENDMDL
MODEL 8
REMARK VINA RESULT:    -4.410      2.000      2.926
REMARK INTER + INTRA:          -5.948
REMARK INTER:                  -6.016
REMARK INTRA:                   0.068
REMARK UNBOUND:                 0.267
REMARK SMILES CC1=CCC(=C(C)C)C(=O)CC(C)=CCC1
REMARK SMILES IDX 12 1 14 2 13 3 15 4 16 5 2 6 1 7 3 8 11 10 9 11 10 12 5 13
REMARK SMILES IDX 6 14 7 15 8 16 4 17
REMARK H PARENT
REMARK Flexibility Score: 60.00
ROOT
ATOM      1  C   UNL     1       9.637 -16.880 -30.685  1.00  0.00    -0.070 C 
ATOM      2  C   UNL     1       9.309 -17.052 -31.987  1.00  0.00    -0.027 C 
ATOM      3  C   UNL     1       9.539 -15.493 -30.101  1.00  0.00     0.039 C 
ENDROOT
BRANCH   2   4
ATOM      4  C   UNL     1       9.465 -18.333 -32.769  1.00  0.00     0.032 C 
BRANCH   4   5
ATOM      5  C   UNL     1      10.882 -18.618 -33.287  1.00  0.00     0.034 C 
BRANCH   5   6
ATOM      6  C   UNL     1      11.702 -17.370 -33.559  1.00  0.00    -0.077 C 
ATOM      7  C   UNL     1      11.375 -16.571 -34.797  1.00  0.00     0.039 C 
ATOM      8  C   UNL     1      12.661 -16.880 -32.734  1.00  0.00    -0.023 CG0
ATOM      9  G   UNL     1      13.282 -17.535 -31.516  1.00  0.00     0.000 G0
ENDBRANCH   5   6
ENDBRANCH   4   5
ENDBRANCH   2   4
BRANCH   1  10
ATOM     10  C   UNL     1      10.013 -18.021 -29.763  1.00  0.00     0.111 C 
BRANCH  10  11
ATOM     11  C   UNL     1      11.452 -18.424 -29.957  1.00  0.00     0.163 C 
ATOM     12  O   UNL     1      11.752 -19.648 -29.919  1.00  0.00    -0.294 OA
BRANCH  11  13
ATOM     13  C   UNL     1      12.528 -17.428 -30.200  1.00  0.00    -0.002 C 
ATOM     14  C   UNL     1      12.913 -16.576 -29.211  1.00  0.00    -0.069 C 
ATOM     15  C   UNL     1      12.152 -16.517 -27.906  1.00  0.00     0.039 C 
ATOM     16  C   UNL     1      14.089 -15.643 -29.384  1.00  0.00     0.039 C 
BRANCH  13  17
ATOM     17  C   UNL     1      13.276 -17.533 -31.517  1.00  0.00     0.066 CG0
ATOM     18  G   UNL     1      12.649 -16.866 -32.725  1.00  0.00     0.000 G0
ENDBRANCH  13  17
ENDBRANCH  11  13
ENDBRANCH  10  11
ENDBRANCH   1  10
TORSDOF 0
ENDMDL
MODEL 9
REMARK VINA RESULT:    -4.270      2.525      4.308
REMARK INTER + INTRA:          -5.750
REMARK INTER:                  -6.074
REMARK INTRA:                   0.324
REMARK UNBOUND:                 0.267
REMARK SMILES CC1=CCC(=C(C)C)C(=O)CC(C)=CCC1
REMARK SMILES IDX 12 1 14 2 13 3 15 4 16 5 2 6 1 7 3 8 11 10 9 11 10 12 5 13
REMARK SMILES IDX 6 14 7 15 8 16 4 17
REMARK H PARENT
REMARK Flexibility Score: 60.00
ROOT
ATOM      1  C   UNL     1      12.416 -17.577 -32.639  1.00  0.00    -0.070 C 
ATOM      2  C   UNL     1      11.722 -16.492 -33.057  1.00  0.00    -0.027 C 
ATOM      3  C   UNL     1      13.861 -17.392 -32.245  1.00  0.00     0.039 C 
ENDROOT
BRANCH   2   4
ATOM      4  C   UNL     1      10.316 -16.508 -33.606  1.00  0.00     0.032 C 
BRANCH   4   5
ATOM      5  C   UNL     1       9.250 -17.079 -32.660  1.00  0.00     0.034 C 
BRANCH   5   6
ATOM      6  C   UNL     1       9.222 -16.421 -31.293  1.00  0.00    -0.077 C 
ATOM      7  C   UNL     1       8.875 -14.954 -31.226  1.00  0.00     0.039 C 
ATOM      8  C   UNL     1       9.415 -17.072 -30.117  1.00  0.00    -0.023 CG0
ATOM      9  G   UNL     1       9.906 -18.490 -29.894  1.00  0.00     0.000 G0
ENDBRANCH   5   6
ENDBRANCH   4   5
ENDBRANCH   2   4
BRANCH   1  10
ATOM     10  C   UNL     1      11.795 -18.946 -32.463  1.00  0.00     0.111 C 
BRANCH  10  11
ATOM     11  C   UNL     1      11.980 -19.449 -31.054  1.00  0.00     0.163 C 
ATOM     12  O   UNL     1      12.647 -20.502 -30.866  1.00  0.00    -0.294 OA
BRANCH  11  13
ATOM     13  C   UNL     1      11.411 -18.740 -29.878  1.00  0.00    -0.002 C 
ATOM     14  C   UNL     1      12.233 -18.201 -28.936  1.00  0.00    -0.069 C 
ATOM     15  C   UNL     1      13.723 -18.447 -28.983  1.00  0.00     0.039 C 
ATOM     16  C   UNL     1      11.692 -17.363 -27.801  1.00  0.00     0.039 C 
BRANCH  13  17
ATOM     17  C   UNL     1       9.912 -18.500 -29.879  1.00  0.00     0.066 CG0
ATOM     18  G   UNL     1       9.438 -17.079 -30.117  1.00  0.00     0.000 G0
ENDBRANCH  13  17
ENDBRANCH  11  13
ENDBRANCH  10  11
ENDBRANCH   1  10
TORSDOF 0
ENDMDL
