MODEL 1
REMARK VINA RESULT:    -8.093      0.000      0.000
REMARK INTER + INTRA:          -8.330
REMARK INTER:                  -8.330
REMARK INTRA:                   0.000
REMARK UNBOUND:                 0.000
REMARK SMILES C[C@H]1CC[C@@]2(OC1)O[C@H]1C[C@H]3[C@@H]4CC=C5C[C@H](O)CC[C@@]5(C)[C@H]4CC[C@@]3(C)[C@@H]1[C@@H]2C
REMARK SMILES IDX 1 1 2 2 3 3 4 4 5 5 29 6 28 7 9 8 8 9 10 10 11 11 26 12
REMARK SMILES IDX 25 13 24 14 23 15 12 16 13 17 14 18 15 19 21 20 20 21 19 22
REMARK SMILES IDX 17 23 16 24 22 25 27 26 30 27 6 28 7 29 18 30
REMARK H PARENT 18 31
REMARK Flexibility Score: inf
ROOT
ATOM      1  C   UNL     1      22.626 -10.597 -12.625  1.00  0.00     0.010 C 
ATOM      2  C   UNL     1      21.958  -9.873 -11.451  1.00  0.00     0.012 C 
ATOM      3  C   UNL     1      21.153 -10.841 -10.576  1.00  0.00     0.011 C 
ATOM      4  C   UNL     1      20.493 -10.105  -9.395  1.00  0.00     0.066 C 
ATOM      5  C   UNL     1      21.334  -8.881  -8.933  1.00  0.00     0.171 C 
ATOM      6  C   UNL     1      21.121  -8.582  -7.391  1.00  0.00     0.052 C 
ATOM      7  C   UNL     1      20.560  -7.161  -7.449  1.00  0.00     0.033 C 
ATOM      8  C   UNL     1      21.133  -6.684  -8.729  1.00  0.00     0.126 C 
ATOM      9  O   UNL     1      20.908  -7.717  -9.645  1.00  0.00    -0.346 OA
ATOM     10  C   UNL     1      20.418  -5.376  -8.955  1.00  0.00     0.037 C 
ATOM     11  C   UNL     1      20.423  -4.743  -7.533  1.00  0.00     0.002 C 
ATOM     12  C   UNL     1      20.659  -5.921  -6.509  1.00  0.00    -0.024 C 
ATOM     13  C   UNL     1      19.555  -5.967  -5.418  1.00  0.00     0.008 C 
ATOM     14  C   UNL     1      19.329  -4.596  -4.757  1.00  0.00     0.005 C 
ATOM     15  C   UNL     1      19.089  -3.431  -5.787  1.00  0.00     0.003 C 
ATOM     16  C   UNL     1      19.140  -3.909  -7.262  1.00  0.00     0.000 C 
ATOM     17  C   UNL     1      19.142  -2.681  -8.181  1.00  0.00     0.031 C 
ATOM     18  C   UNL     1      17.937  -1.842  -7.947  1.00  0.00    -0.027 C 
ATOM     19  C   UNL     1      17.367  -1.704  -6.739  1.00  0.00    -0.065 C 
ATOM     20  C   UNL     1      17.847  -2.466  -5.480  1.00  0.00    -0.008 C 
ATOM     21  C   UNL     1      16.606  -3.238  -4.897  1.00  0.00     0.014 C 
ATOM     22  C   UNL     1      15.299  -2.420  -4.823  1.00  0.00     0.033 C 
ATOM     23  C   UNL     1      14.947  -1.776  -6.181  1.00  0.00     0.118 C 
ATOM     24  C   UNL     1      16.100  -0.878  -6.639  1.00  0.00     0.063 C 
ATOM     25  C   UNL     1      18.326  -1.425  -4.432  1.00  0.00     0.016 C 
ATOM     26  C   UNL     1      22.044  -5.745  -5.834  1.00  0.00     0.012 C 
ATOM     27  C   UNL     1      22.383  -8.778  -6.539  1.00  0.00     0.014 C 
ATOM     28  O   UNL     1      22.713  -9.135  -9.196  1.00  0.00    -0.349 OA
ATOM     29  C   UNL     1      23.004  -9.120 -10.588  1.00  0.00     0.167 C 
ENDROOT
BRANCH  23  30
ATOM     30  O   UNL     1      13.785  -0.997  -6.060  1.00  0.00    -0.393 OA
ATOM     31  H   UNL     1      13.131  -1.540  -5.537  1.00  0.00     0.210 HD
ENDBRANCH  23  30
TORSDOF 1
ENDMDL
MODEL 2
REMARK VINA RESULT:    -7.536      1.854      8.623
REMARK INTER + INTRA:          -7.756
REMARK INTER:                  -7.756
REMARK INTRA:                   0.000
REMARK UNBOUND:                 0.000
REMARK SMILES C[C@H]1CC[C@@]2(OC1)O[C@H]1C[C@H]3[C@@H]4CC=C5C[C@H](O)CC[C@@]5(C)[C@H]4CC[C@@]3(C)[C@@H]1[C@@H]2C
REMARK SMILES IDX 1 1 2 2 3 3 4 4 5 5 29 6 28 7 9 8 8 9 10 10 11 11 26 12
REMARK SMILES IDX 25 13 24 14 23 15 12 16 13 17 14 18 15 19 21 20 20 21 19 22
REMARK SMILES IDX 17 23 16 24 22 25 27 26 30 27 6 28 7 29 18 30
REMARK H PARENT 18 31
REMARK Flexibility Score: inf
ROOT
ATOM      1  C   UNL     1      14.499  -0.921  -5.123  1.00  0.00     0.010 C 
ATOM      2  C   UNL     1      15.707  -1.628  -5.746  1.00  0.00     0.012 C 
ATOM      3  C   UNL     1      16.231  -0.875  -6.974  1.00  0.00     0.011 C 
ATOM      4  C   UNL     1      17.450  -1.590  -7.587  1.00  0.00     0.066 C 
ATOM      5  C   UNL     1      18.279  -2.346  -6.509  1.00  0.00     0.171 C 
ATOM      6  C   UNL     1      19.807  -2.442  -6.918  1.00  0.00     0.052 C 
ATOM      7  C   UNL     1      19.994  -3.958  -6.974  1.00  0.00     0.033 C 
ATOM      8  C   UNL     1      18.940  -4.407  -6.037  1.00  0.00     0.126 C 
ATOM      9  O   UNL     1      17.795  -3.686  -6.392  1.00  0.00    -0.346 OA
ATOM     10  C   UNL     1      18.919  -5.902  -6.239  1.00  0.00     0.037 C 
ATOM     11  C   UNL     1      20.435  -6.248  -6.315  1.00  0.00     0.002 C 
ATOM     12  C   UNL     1      21.192  -4.910  -6.674  1.00  0.00    -0.024 C 
ATOM     13  C   UNL     1      22.092  -5.076  -7.929  1.00  0.00     0.008 C 
ATOM     14  C   UNL     1      23.007  -6.309  -7.834  1.00  0.00     0.005 C 
ATOM     15  C   UNL     1      22.241  -7.638  -7.481  1.00  0.00     0.003 C 
ATOM     16  C   UNL     1      20.716  -7.423  -7.293  1.00  0.00     0.000 C 
ATOM     17  C   UNL     1      20.101  -8.706  -6.718  1.00  0.00     0.031 C 
ATOM     18  C   UNL     1      20.357  -9.864  -7.614  1.00  0.00    -0.027 C 
ATOM     19  C   UNL     1      21.481  -9.992  -8.339  1.00  0.00    -0.065 C 
ATOM     20  C   UNL     1      22.590  -8.913  -8.386  1.00  0.00    -0.008 C 
ATOM     21  C   UNL     1      22.819  -8.542  -9.899  1.00  0.00     0.014 C 
ATOM     22  C   UNL     1      22.902  -9.743 -10.864  1.00  0.00     0.033 C 
ATOM     23  C   UNL     1      21.689 -10.685 -10.716  1.00  0.00     0.118 C 
ATOM     24  C   UNL     1      21.596 -11.182  -9.270  1.00  0.00     0.063 C 
ATOM     25  C   UNL     1      23.897  -9.531  -7.820  1.00  0.00     0.016 C 
ATOM     26  C   UNL     1      22.065  -4.474  -5.468  1.00  0.00     0.012 C 
ATOM     27  C   UNL     1      20.751  -1.676  -5.979  1.00  0.00     0.014 C 
ATOM     28  O   UNL     1      18.148  -1.671  -5.259  1.00  0.00    -0.349 OA
ATOM     29  C   UNL     1      16.844  -1.812  -4.708  1.00  0.00     0.167 C 
ENDROOT
BRANCH  23  30
ATOM     30  O   UNL     1      21.827 -11.791 -11.569  1.00  0.00    -0.393 OA
ATOM     31  H   UNL     1      21.726 -12.605 -11.000  1.00  0.00     0.210 HD
ENDBRANCH  23  30
TORSDOF 1
ENDMDL
MODEL 3
REMARK VINA RESULT:    -7.405      4.649      7.144
REMARK INTER + INTRA:          -7.622
REMARK INTER:                  -7.622
REMARK INTRA:                   0.000
REMARK UNBOUND:                 0.000
REMARK SMILES C[C@H]1CC[C@@]2(OC1)O[C@H]1C[C@H]3[C@@H]4CC=C5C[C@H](O)CC[C@@]5(C)[C@H]4CC[C@@]3(C)[C@@H]1[C@@H]2C
REMARK SMILES IDX 1 1 2 2 3 3 4 4 5 5 29 6 28 7 9 8 8 9 10 10 11 11 26 12
REMARK SMILES IDX 25 13 24 14 23 15 12 16 13 17 14 18 15 19 21 20 20 21 19 22
REMARK SMILES IDX 17 23 16 24 22 25 27 26 30 27 6 28 7 29 18 30
REMARK H PARENT 18 31
REMARK Flexibility Score: inf
ROOT
ATOM      1  C   UNL     1      18.297 -15.120  -2.978  1.00  0.00     0.010 C 
ATOM      2  C   UNL     1      19.199 -14.183  -3.787  1.00  0.00     0.012 C 
ATOM      3  C   UNL     1      20.541 -14.844  -4.125  1.00  0.00     0.011 C 
ATOM      4  C   UNL     1      21.436 -13.897  -4.946  1.00  0.00     0.066 C 
ATOM      5  C   UNL     1      20.598 -12.936  -5.838  1.00  0.00     0.171 C 
ATOM      6  C   UNL     1      21.394 -12.516  -7.142  1.00  0.00     0.052 C 
ATOM      7  C   UNL     1      21.460 -10.999  -6.961  1.00  0.00     0.033 C 
ATOM      8  C   UNL     1      20.266 -10.764  -6.117  1.00  0.00     0.126 C 
ATOM      9  O   UNL     1      20.323 -11.735  -5.112  1.00  0.00    -0.346 OA
ATOM     10  C   UNL     1      20.417  -9.320  -5.708  1.00  0.00     0.037 C 
ATOM     11  C   UNL     1      20.884  -8.646  -7.032  1.00  0.00     0.002 C 
ATOM     12  C   UNL     1      21.464  -9.793  -7.949  1.00  0.00    -0.024 C 
ATOM     13  C   UNL     1      22.908  -9.476  -8.425  1.00  0.00     0.008 C 
ATOM     14  C   UNL     1      23.027  -8.066  -9.031  1.00  0.00     0.005 C 
ATOM     15  C   UNL     1      22.450  -6.931  -8.106  1.00  0.00     0.003 C 
ATOM     16  C   UNL     1      21.871  -7.475  -6.773  1.00  0.00     0.000 C 
ATOM     17  C   UNL     1      21.121  -6.342  -6.060  1.00  0.00     0.031 C 
ATOM     18  C   UNL     1      22.024  -5.189  -5.803  1.00  0.00    -0.027 C 
ATOM     19  C   UNL     1      23.018  -4.839  -6.637  1.00  0.00    -0.065 C 
ATOM     20  C   UNL     1      23.383  -5.644  -7.908  1.00  0.00    -0.008 C 
ATOM     21  C   UNL     1      24.911  -6.008  -7.807  1.00  0.00     0.014 C 
ATOM     22  C   UNL     1      25.834  -4.854  -7.360  1.00  0.00     0.033 C 
ATOM     23  C   UNL     1      25.346  -4.203  -6.049  1.00  0.00     0.118 C 
ATOM     24  C   UNL     1      23.915  -3.687  -6.232  1.00  0.00     0.063 C 
ATOM     25  C   UNL     1      23.168  -4.728  -9.144  1.00  0.00     0.016 C 
ATOM     26  C   UNL     1      20.543  -9.979  -9.184  1.00  0.00     0.012 C 
ATOM     27  C   UNL     1      20.758 -13.016  -8.447  1.00  0.00     0.014 C 
ATOM     28  O   UNL     1      19.375 -13.578  -6.196  1.00  0.00    -0.349 OA
ATOM     29  C   UNL     1      18.495 -13.712  -5.087  1.00  0.00     0.167 C 
ENDROOT
BRANCH  23  30
ATOM     30  O   UNL     1      26.177  -3.126  -5.705  1.00  0.00    -0.393 OA
ATOM     31  H   UNL     1      27.037  -3.261  -6.194  1.00  0.00     0.210 HD
ENDBRANCH  23  30
TORSDOF 1
ENDMDL
MODEL 4
REMARK VINA RESULT:    -7.242      1.092      1.206
REMARK INTER + INTRA:          -7.454
REMARK INTER:                  -7.454
REMARK INTRA:                   0.000
REMARK UNBOUND:                 0.000
REMARK SMILES C[C@H]1CC[C@@]2(OC1)O[C@H]1C[C@H]3[C@@H]4CC=C5C[C@H](O)CC[C@@]5(C)[C@H]4CC[C@@]3(C)[C@@H]1[C@@H]2C
REMARK SMILES IDX 1 1 2 2 3 3 4 4 5 5 29 6 28 7 9 8 8 9 10 10 11 11 26 12
REMARK SMILES IDX 25 13 24 14 23 15 12 16 13 17 14 18 15 19 21 20 20 21 19 22
REMARK SMILES IDX 17 23 16 24 22 25 27 26 30 27 6 28 7 29 18 30
REMARK H PARENT 18 31
REMARK Flexibility Score: inf
ROOT
ATOM      1  C   UNL     1      21.964 -11.579 -12.184  1.00  0.00     0.010 C 
ATOM      2  C   UNL     1      21.694 -10.618 -11.021  1.00  0.00     0.012 C 
ATOM      3  C   UNL     1      21.453 -11.373  -9.709  1.00  0.00     0.011 C 
ATOM      4  C   UNL     1      21.192 -10.398  -8.545  1.00  0.00     0.066 C 
ATOM      5  C   UNL     1      21.941  -9.048  -8.742  1.00  0.00     0.171 C 
ATOM      6  C   UNL     1      22.294  -8.376  -7.352  1.00  0.00     0.052 C 
ATOM      7  C   UNL     1      21.536  -7.053  -7.472  1.00  0.00     0.033 C 
ATOM      8  C   UNL     1      21.488  -6.890  -8.943  1.00  0.00     0.126 C 
ATOM      9  O   UNL     1      21.094  -8.135  -9.444  1.00  0.00    -0.346 OA
ATOM     10  C   UNL     1      20.543  -5.728  -9.125  1.00  0.00     0.037 C 
ATOM     11  C   UNL     1      20.996  -4.751  -8.001  1.00  0.00     0.002 C 
ATOM     12  C   UNL     1      21.793  -5.610  -6.943  1.00  0.00    -0.024 C 
ATOM     13  C   UNL     1      21.217  -5.438  -5.510  1.00  0.00     0.008 C 
ATOM     14  C   UNL     1      21.050  -3.958  -5.121  1.00  0.00     0.005 C 
ATOM     15  C   UNL     1      20.249  -3.114  -6.181  1.00  0.00     0.003 C 
ATOM     16  C   UNL     1      19.802  -3.953  -7.408  1.00  0.00     0.000 C 
ATOM     17  C   UNL     1      19.255  -3.005  -8.483  1.00  0.00     0.031 C 
ATOM     18  C   UNL     1      18.117  -2.207  -7.956  1.00  0.00    -0.027 C 
ATOM     19  C   UNL     1      18.043  -1.796  -6.679  1.00  0.00    -0.065 C 
ATOM     20  C   UNL     1      19.086  -2.178  -5.601  1.00  0.00    -0.008 C 
ATOM     21  C   UNL     1      18.305  -2.845  -4.409  1.00  0.00     0.014 C 
ATOM     22  C   UNL     1      17.016  -2.114  -3.977  1.00  0.00     0.033 C 
ATOM     23  C   UNL     1      16.070  -1.863  -5.170  1.00  0.00     0.118 C 
ATOM     24  C   UNL     1      16.799  -1.048  -6.242  1.00  0.00     0.063 C 
ATOM     25  C   UNL     1      19.760  -0.875  -5.090  1.00  0.00     0.016 C 
ATOM     26  C   UNL     1      23.284  -5.183  -6.954  1.00  0.00     0.012 C 
ATOM     27  C   UNL     1      23.801  -8.271  -7.077  1.00  0.00     0.014 C 
ATOM     28  O   UNL     1      23.133  -9.280  -9.492  1.00  0.00    -0.349 OA
ATOM     29  C   UNL     1      22.858  -9.607 -10.848  1.00  0.00     0.167 C 
ENDROOT
BRANCH  23  30
ATOM     30  O   UNL     1      14.937  -1.150  -4.749  1.00  0.00    -0.393 OA
ATOM     31  H   UNL     1      14.171  -1.481  -5.297  1.00  0.00     0.210 HD
ENDBRANCH  23  30
TORSDOF 1
ENDMDL
MODEL 5
REMARK VINA RESULT:    -7.037      6.174      9.786
REMARK INTER + INTRA:          -7.243
REMARK INTER:                  -7.243
REMARK INTRA:                   0.000
REMARK UNBOUND:                 0.000
REMARK SMILES C[C@H]1CC[C@@]2(OC1)O[C@H]1C[C@H]3[C@@H]4CC=C5C[C@H](O)CC[C@@]5(C)[C@H]4CC[C@@]3(C)[C@@H]1[C@@H]2C
REMARK SMILES IDX 1 1 2 2 3 3 4 4 5 5 29 6 28 7 9 8 8 9 10 10 11 11 26 12
REMARK SMILES IDX 25 13 24 14 23 15 12 16 13 17 14 18 15 19 21 20 20 21 19 22
REMARK SMILES IDX 17 23 16 24 22 25 27 26 30 27 6 28 7 29 18 30
REMARK H PARENT 18 31
REMARK Flexibility Score: inf
ROOT
ATOM      1  C   UNL     1      14.647 -19.229  -4.872  1.00  0.00     0.010 C 
ATOM      2  C   UNL     1      15.328 -17.874  -5.094  1.00  0.00     0.012 C 
ATOM      3  C   UNL     1      14.453 -16.716  -4.599  1.00  0.00     0.011 C 
ATOM      4  C   UNL     1      15.151 -15.360  -4.819  1.00  0.00     0.066 C 
ATOM      5  C   UNL     1      16.699 -15.486  -4.736  1.00  0.00     0.171 C 
ATOM      6  C   UNL     1      17.363 -14.137  -4.235  1.00  0.00     0.052 C 
ATOM      7  C   UNL     1      18.255 -13.796  -5.429  1.00  0.00     0.033 C 
ATOM      8  C   UNL     1      18.483 -15.141  -6.003  1.00  0.00     0.126 C 
ATOM      9  O   UNL     1      17.224 -15.749  -6.040  1.00  0.00    -0.346 OA
ATOM     10  C   UNL     1      19.156 -14.839  -7.319  1.00  0.00     0.037 C 
ATOM     11  C   UNL     1      20.155 -13.710  -6.930  1.00  0.00     0.002 C 
ATOM     12  C   UNL     1      19.636 -13.086  -5.577  1.00  0.00    -0.024 C 
ATOM     13  C   UNL     1      19.455 -11.547  -5.682  1.00  0.00     0.008 C 
ATOM     14  C   UNL     1      20.702 -10.851  -6.258  1.00  0.00     0.005 C 
ATOM     15  C   UNL     1      21.206 -11.478  -7.610  1.00  0.00     0.003 C 
ATOM     16  C   UNL     1      20.343 -12.679  -8.078  1.00  0.00     0.000 C 
ATOM     17  C   UNL     1      21.048 -13.367  -9.254  1.00  0.00     0.031 C 
ATOM     18  C   UNL     1      21.263 -12.414 -10.374  1.00  0.00    -0.027 C 
ATOM     19  C   UNL     1      21.519 -11.109 -10.183  1.00  0.00    -0.065 C 
ATOM     20  C   UNL     1      21.533 -10.441  -8.787  1.00  0.00    -0.008 C 
ATOM     21  C   UNL     1      20.522  -9.235  -8.834  1.00  0.00     0.014 C 
ATOM     22  C   UNL     1      20.621  -8.344 -10.091  1.00  0.00     0.033 C 
ATOM     23  C   UNL     1      20.536  -9.173 -11.390  1.00  0.00     0.118 C 
ATOM     24  C   UNL     1      21.651 -10.223 -11.405  1.00  0.00     0.063 C 
ATOM     25  C   UNL     1      22.960  -9.887  -8.525  1.00  0.00     0.016 C 
ATOM     26  C   UNL     1      20.643 -13.410  -4.442  1.00  0.00     0.012 C 
ATOM     27  C   UNL     1      18.065 -14.257  -2.875  1.00  0.00     0.014 C 
ATOM     28  O   UNL     1      17.035 -16.555  -3.853  1.00  0.00    -0.349 OA
ATOM     29  C   UNL     1      16.717 -17.826  -4.404  1.00  0.00     0.167 C 
ENDROOT
BRANCH  23  30
ATOM     30  O   UNL     1      20.683  -8.337 -12.508  1.00  0.00    -0.393 OA
ATOM     31  H   UNL     1      20.482  -8.895 -13.311  1.00  0.00     0.210 HD
ENDBRANCH  23  30
TORSDOF 1
ENDMDL
MODEL 6
REMARK VINA RESULT:    -6.365      9.468     11.115
REMARK INTER + INTRA:          -6.552
REMARK INTER:                  -6.552
REMARK INTRA:                   0.000
REMARK UNBOUND:                 0.000
REMARK SMILES C[C@H]1CC[C@@]2(OC1)O[C@H]1C[C@H]3[C@@H]4CC=C5C[C@H](O)CC[C@@]5(C)[C@H]4CC[C@@]3(C)[C@@H]1[C@@H]2C
REMARK SMILES IDX 1 1 2 2 3 3 4 4 5 5 29 6 28 7 9 8 8 9 10 10 11 11 26 12
REMARK SMILES IDX 25 13 24 14 23 15 12 16 13 17 14 18 15 19 21 20 20 21 19 22
REMARK SMILES IDX 17 23 16 24 22 25 27 26 30 27 6 28 7 29 18 30
REMARK H PARENT 18 31
REMARK Flexibility Score: inf
ROOT
ATOM      1  C   UNL     1      22.053 -13.822  -4.204  1.00  0.00     0.010 C 
ATOM      2  C   UNL     1      20.584 -14.000  -4.603  1.00  0.00     0.012 C 
ATOM      3  C   UNL     1      20.441 -14.330  -6.094  1.00  0.00     0.011 C 
ATOM      4  C   UNL     1      18.962 -14.515  -6.482  1.00  0.00     0.066 C 
ATOM      5  C   UNL     1      18.117 -15.070  -5.300  1.00  0.00     0.171 C 
ATOM      6  C   UNL     1      16.885 -15.921  -5.819  1.00  0.00     0.052 C 
ATOM      7  C   UNL     1      15.720 -15.127  -5.229  1.00  0.00     0.033 C 
ATOM      8  C   UNL     1      16.374 -14.491  -4.062  1.00  0.00     0.126 C 
ATOM      9  O   UNL     1      17.583 -13.980  -4.546  1.00  0.00    -0.346 OA
ATOM     10  C   UNL     1      15.336 -13.508  -3.584  1.00  0.00     0.037 C 
ATOM     11  C   UNL     1      14.020 -14.332  -3.696  1.00  0.00     0.002 C 
ATOM     12  C   UNL     1      14.306 -15.516  -4.699  1.00  0.00    -0.024 C 
ATOM     13  C   UNL     1      13.274 -15.551  -5.859  1.00  0.00     0.008 C 
ATOM     14  C   UNL     1      11.822 -15.494  -5.352  1.00  0.00     0.005 C 
ATOM     15  C   UNL     1      11.548 -14.306  -4.357  1.00  0.00     0.003 C 
ATOM     16  C   UNL     1      12.807 -13.442  -4.087  1.00  0.00     0.000 C 
ATOM     17  C   UNL     1      12.507 -12.475  -2.934  1.00  0.00     0.031 C 
ATOM     18  C   UNL     1      11.342 -11.611  -3.257  1.00  0.00    -0.027 C 
ATOM     19  C   UNL     1      10.299 -12.034  -3.991  1.00  0.00    -0.065 C 
ATOM     20  C   UNL     1      10.236 -13.434  -4.649  1.00  0.00    -0.008 C 
ATOM     21  C   UNL     1       9.977 -13.218  -6.186  1.00  0.00     0.014 C 
ATOM     22  C   UNL     1       8.888 -12.179  -6.529  1.00  0.00     0.033 C 
ATOM     23  C   UNL     1       9.141 -10.828  -5.828  1.00  0.00     0.118 C 
ATOM     24  C   UNL     1       9.203 -11.038  -4.312  1.00  0.00     0.063 C 
ATOM     25  C   UNL     1       9.031 -14.204  -4.042  1.00  0.00     0.016 C 
ATOM     26  C   UNL     1      14.263 -16.862  -3.930  1.00  0.00     0.012 C 
ATOM     27  C   UNL     1      16.953 -17.408  -5.441  1.00  0.00     0.014 C 
ATOM     28  O   UNL     1      18.952 -15.875  -4.467  1.00  0.00    -0.349 OA
ATOM     29  C   UNL     1      19.899 -15.096  -3.746  1.00  0.00     0.167 C 
ENDROOT
BRANCH  23  30
ATOM     30  O   UNL     1       8.104  -9.929  -6.120  1.00  0.00    -0.393 OA
ATOM     31  H   UNL     1       8.486  -9.241  -6.734  1.00  0.00     0.210 HD
ENDBRANCH  23  30
TORSDOF 1
ENDMDL
MODEL 7
REMARK VINA RESULT:    -6.200      9.729     13.026
REMARK INTER + INTRA:          -6.381
REMARK INTER:                  -6.381
REMARK INTRA:                   0.000
REMARK UNBOUND:                 0.000
REMARK SMILES C[C@H]1CC[C@@]2(OC1)O[C@H]1C[C@H]3[C@@H]4CC=C5C[C@H](O)CC[C@@]5(C)[C@H]4CC[C@@]3(C)[C@@H]1[C@@H]2C
REMARK SMILES IDX 1 1 2 2 3 3 4 4 5 5 29 6 28 7 9 8 8 9 10 10 11 11 26 12
REMARK SMILES IDX 25 13 24 14 23 15 12 16 13 17 14 18 15 19 21 20 20 21 19 22
REMARK SMILES IDX 17 23 16 24 22 25 27 26 30 27 6 28 7 29 18 30
REMARK H PARENT 18 31
REMARK Flexibility Score: inf
ROOT
ATOM      1  C   UNL     1      20.748  -9.862  -6.244  1.00  0.00     0.010 C 
ATOM      2  C   UNL     1      20.135 -11.266  -6.201  1.00  0.00     0.012 C 
ATOM      3  C   UNL     1      20.826 -12.214  -7.188  1.00  0.00     0.011 C 
ATOM      4  C   UNL     1      20.208 -13.624  -7.129  1.00  0.00     0.066 C 
ATOM      5  C   UNL     1      19.663 -13.959  -5.711  1.00  0.00     0.171 C 
ATOM      6  C   UNL     1      19.714 -15.517  -5.425  1.00  0.00     0.052 C 
ATOM      7  C   UNL     1      18.233 -15.814  -5.189  1.00  0.00     0.033 C 
ATOM      8  C   UNL     1      17.751 -14.492  -4.727  1.00  0.00     0.126 C 
ATOM      9  O   UNL     1      18.292 -13.565  -5.624  1.00  0.00    -0.346 OA
ATOM     10  C   UNL     1      16.253 -14.663  -4.711  1.00  0.00     0.037 C 
ATOM     11  C   UNL     1      16.087 -16.084  -4.098  1.00  0.00     0.002 C 
ATOM     12  C   UNL     1      17.466 -16.828  -4.288  1.00  0.00    -0.024 C 
ATOM     13  C   UNL     1      17.291 -18.189  -5.015  1.00  0.00     0.008 C 
ATOM     14  C   UNL     1      16.192 -19.057  -4.377  1.00  0.00     0.005 C 
ATOM     15  C   UNL     1      14.820 -18.306  -4.198  1.00  0.00     0.003 C 
ATOM     16  C   UNL     1      14.866 -16.838  -4.697  1.00  0.00     0.000 C 
ATOM     17  C   UNL     1      13.580 -16.125  -4.261  1.00  0.00     0.031 C 
ATOM     18  C   UNL     1      12.381 -16.820  -4.800  1.00  0.00    -0.027 C 
ATOM     19  C   UNL     1      12.321 -18.152  -4.963  1.00  0.00    -0.065 C 
ATOM     20  C   UNL     1      13.516 -19.097  -4.689  1.00  0.00    -0.008 C 
ATOM     21  C   UNL     1      13.767 -19.928  -6.002  1.00  0.00     0.014 C 
ATOM     22  C   UNL     1      12.498 -20.500  -6.669  1.00  0.00     0.033 C 
ATOM     23  C   UNL     1      11.435 -19.409  -6.914  1.00  0.00     0.118 C 
ATOM     24  C   UNL     1      11.070 -18.738  -5.587  1.00  0.00     0.063 C 
ATOM     25  C   UNL     1      13.117 -20.073  -3.549  1.00  0.00     0.016 C 
ATOM     26  C   UNL     1      18.116 -17.066  -2.900  1.00  0.00     0.012 C 
ATOM     27  C   UNL     1      20.674 -15.911  -4.293  1.00  0.00     0.014 C 
ATOM     28  O   UNL     1      20.434 -13.257  -4.737  1.00  0.00    -0.349 OA
ATOM     29  C   UNL     1      20.189 -11.856  -4.767  1.00  0.00     0.167 C 
ENDROOT
BRANCH  23  30
ATOM     30  O   UNL     1      10.278 -19.976  -7.470  1.00  0.00    -0.393 OA
ATOM     31  H   UNL     1       9.700 -19.216  -7.763  1.00  0.00     0.210 HD
ENDBRANCH  23  30
TORSDOF 1
ENDMDL
MODEL 8
REMARK VINA RESULT:    -6.039      4.273      8.844
REMARK INTER + INTRA:          -6.216
REMARK INTER:                  -6.216
REMARK INTRA:                   0.000
REMARK UNBOUND:                 0.000
REMARK SMILES C[C@H]1CC[C@@]2(OC1)O[C@H]1C[C@H]3[C@@H]4CC=C5C[C@H](O)CC[C@@]5(C)[C@H]4CC[C@@]3(C)[C@@H]1[C@@H]2C
REMARK SMILES IDX 1 1 2 2 3 3 4 4 5 5 29 6 28 7 9 8 8 9 10 10 11 11 26 12
REMARK SMILES IDX 25 13 24 14 23 15 12 16 13 17 14 18 15 19 21 20 20 21 19 22
REMARK SMILES IDX 17 23 16 24 22 25 27 26 30 27 6 28 7 29 18 30
REMARK H PARENT 18 31
REMARK Flexibility Score: inf
ROOT
ATOM      1  C   UNL     1      20.137  -2.282  -7.046  1.00  0.00     0.010 C 
ATOM      2  C   UNL     1      20.114  -3.793  -7.304  1.00  0.00     0.012 C 
ATOM      3  C   UNL     1      19.679  -4.114  -8.738  1.00  0.00     0.011 C 
ATOM      4  C   UNL     1      19.668  -5.634  -8.989  1.00  0.00     0.066 C 
ATOM      5  C   UNL     1      20.738  -6.370  -8.132  1.00  0.00     0.171 C 
ATOM      6  C   UNL     1      21.242  -7.691  -8.847  1.00  0.00     0.052 C 
ATOM      7  C   UNL     1      20.848  -8.745  -7.812  1.00  0.00     0.033 C 
ATOM      8  C   UNL     1      20.854  -7.937  -6.571  1.00  0.00     0.126 C 
ATOM      9  O   UNL     1      20.158  -6.765  -6.887  1.00  0.00    -0.346 OA
ATOM     10  C   UNL     1      20.238  -8.868  -5.557  1.00  0.00     0.037 C 
ATOM     11  C   UNL     1      20.918 -10.227  -5.896  1.00  0.00     0.002 C 
ATOM     12  C   UNL     1      21.462 -10.109  -7.373  1.00  0.00    -0.024 C 
ATOM     13  C   UNL     1      20.940 -11.263  -8.273  1.00  0.00     0.008 C 
ATOM     14  C   UNL     1      21.153 -12.646  -7.633  1.00  0.00     0.005 C 
ATOM     15  C   UNL     1      20.602 -12.752  -6.163  1.00  0.00     0.003 C 
ATOM     16  C   UNL     1      19.964 -11.431  -5.660  1.00  0.00     0.000 C 
ATOM     17  C   UNL     1      19.684 -11.555  -4.157  1.00  0.00     0.031 C 
ATOM     18  C   UNL     1      18.785 -12.706  -3.879  1.00  0.00    -0.027 C 
ATOM     19  C   UNL     1      18.809 -13.842  -4.597  1.00  0.00    -0.065 C 
ATOM     20  C   UNL     1      19.713 -14.044  -5.837  1.00  0.00    -0.008 C 
ATOM     21  C   UNL     1      18.779 -14.459  -7.034  1.00  0.00     0.014 C 
ATOM     22  C   UNL     1      17.717 -15.528  -6.699  1.00  0.00     0.033 C 
ATOM     23  C   UNL     1      16.875 -15.134  -5.467  1.00  0.00     0.118 C 
ATOM     24  C   UNL     1      17.795 -14.917  -4.262  1.00  0.00     0.063 C 
ATOM     25  C   UNL     1      20.694 -15.212  -5.541  1.00  0.00     0.016 C 
ATOM     26  C   UNL     1      23.012 -10.133  -7.354  1.00  0.00     0.012 C 
ATOM     27  C   UNL     1      22.724  -7.654  -9.248  1.00  0.00     0.014 C 
ATOM     28  O   UNL     1      21.836  -5.489  -7.899  1.00  0.00    -0.349 OA
ATOM     29  C   UNL     1      21.496  -4.432  -7.009  1.00  0.00     0.167 C 
ENDROOT
BRANCH  23  30
ATOM     30  O   UNL     1      15.959 -16.153  -5.162  1.00  0.00    -0.393 OA
ATOM     31  H   UNL     1      16.496 -16.943  -4.873  1.00  0.00     0.210 HD
ENDBRANCH  23  30
TORSDOF 1
ENDMDL
MODEL 9
REMARK VINA RESULT:    -5.770      9.975     13.233
REMARK INTER + INTRA:          -5.939
REMARK INTER:                  -5.939
REMARK INTRA:                   0.000
REMARK UNBOUND:                 0.000
REMARK SMILES C[C@H]1CC[C@@]2(OC1)O[C@H]1C[C@H]3[C@@H]4CC=C5C[C@H](O)CC[C@@]5(C)[C@H]4CC[C@@]3(C)[C@@H]1[C@@H]2C
REMARK SMILES IDX 1 1 2 2 3 3 4 4 5 5 29 6 28 7 9 8 8 9 10 10 11 11 26 12
REMARK SMILES IDX 25 13 24 14 23 15 12 16 13 17 14 18 15 19 21 20 20 21 19 22
REMARK SMILES IDX 17 23 16 24 22 25 27 26 30 27 6 28 7 29 18 30
REMARK H PARENT 18 31
REMARK Flexibility Score: inf
ROOT
ATOM      1  C   UNL     1       7.543 -12.854  -8.500  1.00  0.00     0.010 C 
ATOM      2  C   UNL     1       8.749 -13.078  -7.582  1.00  0.00     0.012 C 
ATOM      3  C   UNL     1       8.688 -12.180  -6.341  1.00  0.00     0.011 C 
ATOM      4  C   UNL     1       9.900 -12.420  -5.421  1.00  0.00     0.066 C 
ATOM      5  C   UNL     1      10.413 -13.886  -5.509  1.00  0.00     0.171 C 
ATOM      6  C   UNL     1      11.093 -14.344  -4.153  1.00  0.00     0.052 C 
ATOM      7  C   UNL     1      12.507 -14.666  -4.636  1.00  0.00     0.033 C 
ATOM      8  C   UNL     1      12.252 -14.993  -6.057  1.00  0.00     0.126 C 
ATOM      9  O   UNL     1      11.412 -13.978  -6.528  1.00  0.00    -0.346 OA
ATOM     10  C   UNL     1      13.640 -15.083  -6.640  1.00  0.00     0.037 C 
ATOM     11  C   UNL     1      14.415 -15.858  -5.535  1.00  0.00     0.002 C 
ATOM     12  C   UNL     1      13.586 -15.703  -4.201  1.00  0.00    -0.024 C 
ATOM     13  C   UNL     1      14.456 -15.141  -3.043  1.00  0.00     0.008 C 
ATOM     14  C   UNL     1      15.777 -15.913  -2.876  1.00  0.00     0.005 C 
ATOM     15  C   UNL     1      16.597 -16.056  -4.212  1.00  0.00     0.003 C 
ATOM     16  C   UNL     1      15.894 -15.393  -5.426  1.00  0.00     0.000 C 
ATOM     17  C   UNL     1      16.637 -15.793  -6.708  1.00  0.00     0.031 C 
ATOM     18  C   UNL     1      18.063 -15.380  -6.644  1.00  0.00    -0.027 C 
ATOM     19  C   UNL     1      18.771 -15.371  -5.501  1.00  0.00    -0.065 C 
ATOM     20  C   UNL     1      18.158 -15.705  -4.120  1.00  0.00    -0.008 C 
ATOM     21  C   UNL     1      18.453 -14.486  -3.169  1.00  0.00     0.014 C 
ATOM     22  C   UNL     1      19.893 -13.935  -3.235  1.00  0.00     0.033 C 
ATOM     23  C   UNL     1      20.317 -13.608  -4.683  1.00  0.00     0.118 C 
ATOM     24  C   UNL     1      20.198 -14.863  -5.551  1.00  0.00     0.063 C 
ATOM     25  C   UNL     1      18.876 -16.963  -3.558  1.00  0.00     0.016 C 
ATOM     26  C   UNL     1      13.012 -17.084  -3.789  1.00  0.00     0.012 C 
ATOM     27  C   UNL     1      10.346 -15.477  -3.435  1.00  0.00     0.014 C 
ATOM     28  O   UNL     1       9.318 -14.746  -5.823  1.00  0.00    -0.349 OA
ATOM     29  C   UNL     1       8.861 -14.567  -7.158  1.00  0.00     0.167 C 
ENDROOT
BRANCH  23  30
ATOM     30  O   UNL     1      21.647 -13.162  -4.708  1.00  0.00    -0.393 OA
ATOM     31  H   UNL     1      22.058 -13.437  -3.841  1.00  0.00     0.210 HD
ENDBRANCH  23  30
TORSDOF 1
ENDMDL
