MODEL 1
REMARK VINA RESULT:    -4.648      0.000      0.000
REMARK INTER + INTRA:          -4.648
REMARK INTER:                  -4.648
REMARK INTRA:                   0.000
REMARK UNBOUND:                 0.000
REMARK SMILES CC(C)=C1CC[C@H](C)CC1=O
REMARK SMILES IDX 8 1 7 2 6 3 5 4 4 5 2 6 1 7 3 8 10 9 11 10 9 11
REMARK H PARENT
REMARK Flexibility Score: inf
ROOT
ATOM      1  C   UNL     1      14.153  25.491  23.937  1.00  0.00     0.008 C 
ATOM      2  C   UNL     1      12.864  24.788  23.501  1.00  0.00    -0.006 C 
ATOM      3  C   UNL     1      12.596  23.555  24.379  1.00  0.00     0.008 C 
ATOM      4  C   UNL     1      11.365  22.779  23.893  1.00  0.00     0.039 C 
ATOM      5  C   UNL     1      10.138  23.668  23.744  1.00  0.00    -0.006 C 
ATOM      6  C   UNL     1       8.879  23.182  23.956  1.00  0.00    -0.070 C 
ATOM      7  C   UNL     1       7.657  24.067  23.866  1.00  0.00     0.039 C 
ATOM      8  C   UNL     1       8.651  21.735  24.330  1.00  0.00     0.039 C 
ATOM      9  C   UNL     1      10.387  25.053  23.243  1.00  0.00     0.159 C 
ATOM     10  O   UNL     1       9.539  25.655  22.532  1.00  0.00    -0.295 OA
ATOM     11  C   UNL     1      11.672  25.753  23.577  1.00  0.00     0.084 C 
ENDROOT
TORSDOF 0
ENDMDL
MODEL 2
REMARK VINA RESULT:    -4.293     10.848     11.960
REMARK INTER + INTRA:          -4.293
REMARK INTER:                  -4.293
REMARK INTRA:                   0.000
REMARK UNBOUND:                 0.000
REMARK SMILES CC(C)=C1CC[C@H](C)CC1=O
REMARK SMILES IDX 8 1 7 2 6 3 5 4 4 5 2 6 1 7 3 8 10 9 11 10 9 11
REMARK H PARENT
REMARK Flexibility Score: inf
ROOT
ATOM      1  C   UNL     1       9.956  16.923  14.530  1.00  0.00     0.008 C 
ATOM      2  C   UNL     1       8.534  17.084  15.079  1.00  0.00    -0.006 C 
ATOM      3  C   UNL     1       8.222  18.565  15.348  1.00  0.00     0.008 C 
ATOM      4  C   UNL     1       6.841  18.736  15.994  1.00  0.00     0.039 C 
ATOM      5  C   UNL     1       5.739  18.041  15.206  1.00  0.00    -0.006 C 
ATOM      6  C   UNL     1       4.467  18.537  15.176  1.00  0.00    -0.070 C 
ATOM      7  C   UNL     1       3.378  17.887  14.353  1.00  0.00     0.039 C 
ATOM      8  C   UNL     1       4.095  19.787  15.940  1.00  0.00     0.039 C 
ATOM      9  C   UNL     1       6.105  16.738  14.574  1.00  0.00     0.159 C 
ATOM     10  O   UNL     1       5.259  15.815  14.439  1.00  0.00    -0.295 OA
ATOM     11  C   UNL     1       7.508  16.504  14.095  1.00  0.00     0.084 C 
ENDROOT
TORSDOF 0
ENDMDL
MODEL 3
REMARK VINA RESULT:    -4.198     11.127     12.400
REMARK INTER + INTRA:          -4.198
REMARK INTER:                  -4.198
REMARK INTRA:                   0.000
REMARK UNBOUND:                 0.000
REMARK SMILES CC(C)=C1CC[C@H](C)CC1=O
REMARK SMILES IDX 8 1 7 2 6 3 5 4 4 5 2 6 1 7 3 8 10 9 11 10 9 11
REMARK H PARENT
REMARK Flexibility Score: inf
ROOT
ATOM      1  C   UNL     1       8.075  19.095  15.963  1.00  0.00     0.008 C 
ATOM      2  C   UNL     1       6.583  18.745  15.943  1.00  0.00    -0.006 C 
ATOM      3  C   UNL     1       5.742  19.978  15.575  1.00  0.00     0.008 C 
ATOM      4  C   UNL     1       4.240  19.674  15.650  1.00  0.00     0.039 C 
ATOM      5  C   UNL     1       3.855  18.442  14.843  1.00  0.00    -0.006 C 
ATOM      6  C   UNL     1       2.632  18.340  14.244  1.00  0.00    -0.070 C 
ATOM      7  C   UNL     1       2.258  17.147  13.394  1.00  0.00     0.039 C 
ATOM      8  C   UNL     1       1.602  19.439  14.373  1.00  0.00     0.039 C 
ATOM      9  C   UNL     1       4.840  17.319  14.846  1.00  0.00     0.159 C 
ATOM     10  O   UNL     1       4.466  16.119  14.774  1.00  0.00    -0.295 OA
ATOM     11  C   UNL     1       6.310  17.610  14.946  1.00  0.00     0.084 C 
ENDROOT
TORSDOF 0
ENDMDL
MODEL 4
REMARK VINA RESULT:    -4.170     10.499     11.683
REMARK INTER + INTRA:          -4.170
REMARK INTER:                  -4.170
REMARK INTRA:                   0.000
REMARK UNBOUND:                 0.000
REMARK SMILES CC(C)=C1CC[C@H](C)CC1=O
REMARK SMILES IDX 8 1 7 2 6 3 5 4 4 5 2 6 1 7 3 8 10 9 11 10 9 11
REMARK H PARENT
REMARK Flexibility Score: inf
ROOT
ATOM      1  C   UNL     1      17.751  30.994  12.993  1.00  0.00     0.008 C 
ATOM      2  C   UNL     1      16.644  30.324  13.814  1.00  0.00    -0.006 C 
ATOM      3  C   UNL     1      15.276  30.520  13.139  1.00  0.00     0.008 C 
ATOM      4  C   UNL     1      14.142  29.946  13.998  1.00  0.00     0.039 C 
ATOM      5  C   UNL     1      14.392  28.500  14.402  1.00  0.00    -0.006 C 
ATOM      6  C   UNL     1      13.360  27.622  14.575  1.00  0.00    -0.070 C 
ATOM      7  C   UNL     1      13.598  26.170  14.922  1.00  0.00     0.039 C 
ATOM      8  C   UNL     1      11.924  28.057  14.390  1.00  0.00     0.039 C 
ATOM      9  C   UNL     1      15.809  28.139  14.708  1.00  0.00     0.159 C 
ATOM     10  O   UNL     1      16.091  27.267  15.572  1.00  0.00    -0.295 OA
ATOM     11  C   UNL     1      16.932  28.826  13.987  1.00  0.00     0.084 C 
ENDROOT
TORSDOF 0
ENDMDL
MODEL 5
REMARK VINA RESULT:    -4.135     10.810     12.620
REMARK INTER + INTRA:          -4.135
REMARK INTER:                  -4.135
REMARK INTRA:                   0.000
REMARK UNBOUND:                 0.000
REMARK SMILES CC(C)=C1CC[C@H](C)CC1=O
REMARK SMILES IDX 8 1 7 2 6 3 5 4 4 5 2 6 1 7 3 8 10 9 11 10 9 11
REMARK H PARENT
REMARK Flexibility Score: inf
ROOT
ATOM      1  C   UNL     1      12.861  27.917  15.252  1.00  0.00     0.008 C 
ATOM      2  C   UNL     1      14.341  28.303  15.153  1.00  0.00    -0.006 C 
ATOM      3  C   UNL     1      15.217  27.051  14.982  1.00  0.00     0.008 C 
ATOM      4  C   UNL     1      16.709  27.409  14.984  1.00  0.00     0.039 C 
ATOM      5  C   UNL     1      17.048  28.501  13.979  1.00  0.00    -0.006 C 
ATOM      6  C   UNL     1      18.261  28.539  13.353  1.00  0.00    -0.070 C 
ATOM      7  C   UNL     1      18.589  29.586  12.313  1.00  0.00     0.039 C 
ATOM      8  C   UNL     1      19.326  27.507  13.648  1.00  0.00     0.039 C 
ATOM      9  C   UNL     1      16.028  29.579  13.812  1.00  0.00     0.159 C 
ATOM     10  O   UNL     1      16.363  30.762  13.538  1.00  0.00    -0.295 OA
ATOM     11  C   UNL     1      14.569  29.266  13.979  1.00  0.00     0.084 C 
ENDROOT
TORSDOF 0
ENDMDL
MODEL 6
REMARK VINA RESULT:    -4.116     10.972     12.440
REMARK INTER + INTRA:          -4.116
REMARK INTER:                  -4.116
REMARK INTRA:                   0.000
REMARK UNBOUND:                 0.000
REMARK SMILES CC(C)=C1CC[C@H](C)CC1=O
REMARK SMILES IDX 8 1 7 2 6 3 5 4 4 5 2 6 1 7 3 8 10 9 11 10 9 11
REMARK H PARENT
REMARK Flexibility Score: inf
ROOT
ATOM      1  C   UNL     1       4.553  26.610  14.699  1.00  0.00     0.008 C 
ATOM      2  C   UNL     1       4.667  28.006  15.320  1.00  0.00    -0.006 C 
ATOM      3  C   UNL     1       6.126  28.492  15.296  1.00  0.00     0.008 C 
ATOM      4  C   UNL     1       6.276  29.844  16.006  1.00  0.00     0.039 C 
ATOM      5  C   UNL     1       5.303  30.890  15.479  1.00  0.00    -0.006 C 
ATOM      6  C   UNL     1       5.632  32.215  15.452  1.00  0.00    -0.070 C 
ATOM      7  C   UNL     1       4.697  33.257  14.881  1.00  0.00     0.039 C 
ATOM      8  C   UNL     1       6.969  32.701  15.964  1.00  0.00     0.039 C 
ATOM      9  C   UNL     1       3.944  30.395  15.107  1.00  0.00     0.159 C 
ATOM     10  O   UNL     1       2.923  31.120  15.242  1.00  0.00    -0.295 OA
ATOM     11  C   UNL     1       3.772  29.004  14.571  1.00  0.00     0.084 C 
ENDROOT
TORSDOF 0
ENDMDL
MODEL 7
REMARK VINA RESULT:    -4.105     11.080     12.864
REMARK INTER + INTRA:          -4.105
REMARK INTER:                  -4.105
REMARK INTRA:                   0.000
REMARK UNBOUND:                 0.000
REMARK SMILES CC(C)=C1CC[C@H](C)CC1=O
REMARK SMILES IDX 8 1 7 2 6 3 5 4 4 5 2 6 1 7 3 8 10 9 11 10 9 11
REMARK H PARENT
REMARK Flexibility Score: inf
ROOT
ATOM      1  C   UNL     1       1.185  19.710  14.883  1.00  0.00     0.008 C 
ATOM      2  C   UNL     1       2.682  19.494  14.634  1.00  0.00    -0.006 C 
ATOM      3  C   UNL     1       3.492  19.810  15.901  1.00  0.00     0.008 C 
ATOM      4  C   UNL     1       5.000  19.699  15.642  1.00  0.00     0.039 C 
ATOM      5  C   UNL     1       5.388  18.365  15.018  1.00  0.00    -0.006 C 
ATOM      6  C   UNL     1       6.598  17.786  15.274  1.00  0.00    -0.070 C 
ATOM      7  C   UNL     1       6.972  16.436  14.705  1.00  0.00     0.039 C 
ATOM      8  C   UNL     1       7.611  18.456  16.174  1.00  0.00     0.039 C 
ATOM      9  C   UNL     1       4.422  17.797  14.030  1.00  0.00     0.159 C 
ATOM     10  O   UNL     1       4.814  17.108  13.051  1.00  0.00    -0.295 OA
ATOM     11  C   UNL     1       2.951  18.050  14.187  1.00  0.00     0.084 C 
ENDROOT
TORSDOF 0
ENDMDL
MODEL 8
REMARK VINA RESULT:    -4.060     10.216     11.028
REMARK INTER + INTRA:          -4.060
REMARK INTER:                  -4.060
REMARK INTRA:                   0.000
REMARK UNBOUND:                 0.000
REMARK SMILES CC(C)=C1CC[C@H](C)CC1=O
REMARK SMILES IDX 8 1 7 2 6 3 5 4 4 5 2 6 1 7 3 8 10 9 11 10 9 11
REMARK H PARENT
REMARK Flexibility Score: inf
ROOT
ATOM      1  C   UNL     1       9.258  20.882  16.176  1.00  0.00     0.008 C 
ATOM      2  C   UNL     1       8.222  20.084  15.378  1.00  0.00    -0.006 C 
ATOM      3  C   UNL     1       7.894  18.760  16.087  1.00  0.00     0.008 C 
ATOM      4  C   UNL     1       6.936  17.901  15.251  1.00  0.00     0.039 C 
ATOM      5  C   UNL     1       5.687  18.663  14.830  1.00  0.00    -0.006 C 
ATOM      6  C   UNL     1       4.487  18.030  14.676  1.00  0.00    -0.070 C 
ATOM      7  C   UNL     1       3.228  18.784  14.313  1.00  0.00     0.039 C 
ATOM      8  C   UNL     1       4.353  16.541  14.900  1.00  0.00     0.039 C 
ATOM      9  C   UNL     1       5.881  20.104  14.487  1.00  0.00     0.159 C 
ATOM     10  O   UNL     1       5.176  20.669  13.610  1.00  0.00    -0.295 OA
ATOM     11  C   UNL     1       6.939  20.907  15.186  1.00  0.00     0.084 C 
ENDROOT
TORSDOF 0
ENDMDL
MODEL 9
REMARK VINA RESULT:    -4.059     10.624     11.650
REMARK INTER + INTRA:          -4.059
REMARK INTER:                  -4.059
REMARK INTRA:                   0.000
REMARK UNBOUND:                 0.000
REMARK SMILES CC(C)=C1CC[C@H](C)CC1=O
REMARK SMILES IDX 8 1 7 2 6 3 5 4 4 5 2 6 1 7 3 8 10 9 11 10 9 11
REMARK H PARENT
REMARK Flexibility Score: inf
ROOT
ATOM      1  C   UNL     1       9.141  20.708  16.014  1.00  0.00     0.008 C 
ATOM      2  C   UNL     1       8.241  19.468  15.984  1.00  0.00    -0.006 C 
ATOM      3  C   UNL     1       6.799  19.854  15.619  1.00  0.00     0.008 C 
ATOM      4  C   UNL     1       5.862  18.641  15.685  1.00  0.00     0.039 C 
ATOM      5  C   UNL     1       6.377  17.462  14.869  1.00  0.00    -0.006 C 
ATOM      6  C   UNL     1       5.518  16.590  14.263  1.00  0.00    -0.070 C 
ATOM      7  C   UNL     1       6.016  15.449  13.405  1.00  0.00     0.039 C 
ATOM      8  C   UNL     1       4.020  16.747  14.393  1.00  0.00     0.039 C 
ATOM      9  C   UNL     1       7.856  17.257  14.872  1.00  0.00     0.159 C 
ATOM     10  O   UNL     1       8.358  16.105  14.792  1.00  0.00    -0.295 OA
ATOM     11  C   UNL     1       8.778  18.437  14.981  1.00  0.00     0.084 C 
ENDROOT
TORSDOF 0
ENDMDL
