MODEL 1
REMARK VINA RESULT:    -1.783      0.000      0.000
REMARK INTER + INTRA:          -3.683
REMARK INTER:                  -3.242
REMARK INTRA:                  -0.441
REMARK UNBOUND:                -0.441
REMARK SMILES CCCCCCCCCCCCCCCC(=O)[O-]
REMARK SMILES IDX 9 1 10 2 11 3 12 4 13 5 14 6 15 7 16 8 17 9 18 10 8 11 7 12
REMARK SMILES IDX 6 13 5 14 4 15 3 16 2 17 1 18
REMARK H PARENT
REMARK Flexibility Score: inf
ROOT
ATOM      1  C   UNL     1       0.258  -7.508  -6.273  1.00  0.00     0.000 C 
ENDROOT
BRANCH   1   2
ATOM      2  C   UNL     1       1.316  -7.299  -5.173  1.00  0.00     0.000 C 
BRANCH   2   3
ATOM      3  C   UNL     1       2.149  -6.011  -5.350  1.00  0.00     0.000 C 
BRANCH   3   4
ATOM      4  C   UNL     1       3.641  -6.235  -5.048  1.00  0.00     0.000 C 
BRANCH   4   5
ATOM      5  C   UNL     1       4.437  -4.921  -4.984  1.00  0.00     0.000 C 
BRANCH   5   6
ATOM      6  C   UNL     1       5.950  -5.134  -5.171  1.00  0.00     0.006 C 
BRANCH   6   7
ATOM      7  C   UNL     1       6.395  -4.875  -6.616  1.00  0.00     0.053 C 
BRANCH   7   8
ATOM      8  C   UNL     1       7.814  -5.297  -6.847  1.00  0.00     0.041 C 
ATOM      9  O   UNL     1       8.264  -5.395  -8.018  1.00  0.00    -0.550 OA
ATOM     10  O   UNL     1       8.648  -5.555  -5.766  1.00  0.00    -0.550 OA
ENDBRANCH   7   8
ENDBRANCH   6   7
ENDBRANCH   5   6
ENDBRANCH   4   5
ENDBRANCH   3   4
ENDBRANCH   2   3
ENDBRANCH   1   2
BRANCH   1  11
ATOM     11  C   UNL     1      -1.190  -7.209  -5.842  1.00  0.00     0.000 C 
BRANCH  11  12
ATOM     12  C   UNL     1      -1.813  -8.249  -4.889  1.00  0.00    -0.000 C 
BRANCH  12  13
ATOM     13  C   UNL     1      -3.351  -8.351  -4.942  1.00  0.00    -0.000 C 
BRANCH  13  14
ATOM     14  C   UNL     1      -3.897  -9.523  -5.777  1.00  0.00    -0.000 C 
BRANCH  14  15
ATOM     15  C   UNL     1      -3.774 -10.876  -5.060  1.00  0.00    -0.000 C 
BRANCH  15  16
ATOM     16  C   UNL     1      -4.438 -11.992  -5.879  1.00  0.00    -0.000 C 
BRANCH  16  17
ATOM     17  C   UNL     1      -5.893 -11.668  -6.249  1.00  0.00    -0.003 C 
ATOM     18  C   UNL     1      -6.788 -11.487  -5.023  1.00  0.00     0.004 C 
ENDBRANCH  16  17
ENDBRANCH  15  16
ENDBRANCH  14  15
ENDBRANCH  13  14
ENDBRANCH  12  13
ENDBRANCH  11  12
ENDBRANCH   1  11
TORSDOF 14
ENDMDL
