MODEL 1
REMARK VINA RESULT:    -3.548      0.000      0.000
REMARK INTER + INTRA:          -5.797
REMARK INTER:                  -5.414
REMARK INTRA:                  -0.383
REMARK UNBOUND:                -0.383
REMARK SMILES CC1=CCC[C@H](C)C(=O)C[C@@H](C(C)C)C(=O)C1
REMARK SMILES IDX 8 1 9 2 6 3 7 4 5 5 4 6 3 7 2 8 1 9 10 11 11 12 15 13 16 14
REMARK SMILES IDX 17 15 12 17 13 18 14 19
REMARK H PARENT
REMARK Flexibility Score: 70.00
ROOT
ATOM      1  C   UNL     1      18.904  30.737  30.141  1.00  0.00     0.136 C 
ATOM      2  O   UNL     1      19.857  30.844  29.381  1.00  0.00    -0.299 OA
ENDROOT
BRANCH   1   3
ATOM      3  C   UNL     1      18.179  31.977  30.613  1.00  0.00     0.053 C 
ATOM      4  C   UNL     1      19.155  33.004  31.198  1.00  0.00     0.016 C 
BRANCH   3   5
ATOM      5  C   UNL     1      17.368  32.567  29.434  1.00  0.00     0.015 C 
BRANCH   5   6
ATOM      6  C   UNL     1      15.903  32.098  29.323  1.00  0.00     0.028 C 
BRANCH   6   7
ATOM      7  C   UNL     1      15.268  31.532  30.574  1.00  0.00    -0.028 C 
ATOM      8  C   UNL     1      14.774  30.281  30.743  1.00  0.00    -0.070 CG0
ATOM      9  C   UNL     1      14.089  29.969  32.051  1.00  0.00     0.039 C 
ATOM     10  G   UNL     1      14.931  29.160  29.732  1.00  0.00     0.000 G0
ENDBRANCH   6   7
ENDBRANCH   5   6
ENDBRANCH   3   5
ENDBRANCH   1   3
BRANCH   1  11
ATOM     11  C   UNL     1      18.417  29.361  30.528  1.00  0.00     0.087 C 
BRANCH  11  12
ATOM     12  C   UNL     1      17.539  28.712  29.413  1.00  0.00     0.066 C 
BRANCH  12  13
ATOM     13  C   UNL     1      16.181  28.341  29.994  1.00  0.00     0.140 C 
ATOM     14  O   UNL     1      16.082  27.314  30.653  1.00  0.00    -0.299 OA
BRANCH  13  15
ATOM     15  C   UNL     1      14.934  29.156  29.719  1.00  0.00     0.106 CG0
ATOM     16  G   UNL     1      14.790  30.284  30.724  1.00  0.00     0.000 G0
ENDBRANCH  13  15
ENDBRANCH  12  13
BRANCH  12  17
ATOM     17  C   UNL     1      18.234  27.466  28.768  1.00  0.00    -0.006 C 
ATOM     18  C   UNL     1      18.251  27.546  27.227  1.00  0.00     0.008 C 
ATOM     19  C   UNL     1      19.688  27.306  29.256  1.00  0.00     0.008 C 
ENDBRANCH  12  17
ENDBRANCH  11  12
ENDBRANCH   1  11
TORSDOF 1
ENDMDL
MODEL 2
REMARK VINA RESULT:    -3.473      5.789      8.161
REMARK INTER + INTRA:          -5.683
REMARK INTER:                  -5.686
REMARK INTRA:                   0.004
REMARK UNBOUND:                -0.383
REMARK SMILES CC1=CCC[C@H](C)C(=O)C[C@@H](C(C)C)C(=O)C1
REMARK SMILES IDX 8 1 9 2 6 3 7 4 5 5 4 6 3 7 2 8 1 9 10 11 11 12 15 13 16 14
REMARK SMILES IDX 17 15 12 17 13 18 14 19
REMARK H PARENT
REMARK Flexibility Score: 70.00
ROOT
ATOM      1  C   UNL     1      15.070  20.781  28.252  1.00  0.00     0.136 C 
ATOM      2  O   UNL     1      15.652  19.982  27.531  1.00  0.00    -0.299 OA
ENDROOT
BRANCH   1   3
ATOM      3  C   UNL     1      14.919  20.488  29.727  1.00  0.00     0.053 C 
ATOM      4  C   UNL     1      15.772  19.285  30.145  1.00  0.00     0.016 C 
BRANCH   3   5
ATOM      5  C   UNL     1      15.286  21.756  30.535  1.00  0.00     0.015 C 
BRANCH   5   6
ATOM      6  C   UNL     1      14.107  22.671  30.924  1.00  0.00     0.028 C 
BRANCH   6   7
ATOM      7  C   UNL     1      14.400  24.151  31.048  1.00  0.00    -0.028 C 
ATOM      8  C   UNL     1      14.480  25.053  30.039  1.00  0.00    -0.070 CG0
ATOM      9  C   UNL     1      14.888  26.463  30.391  1.00  0.00     0.039 C 
ATOM     10  G   UNL     1      14.116  24.752  28.597  1.00  0.00     0.000 G0
ENDBRANCH   6   7
ENDBRANCH   5   6
ENDBRANCH   3   5
ENDBRANCH   1   3
BRANCH   1  11
ATOM     11  C   UNL     1      14.585  22.088  27.669  1.00  0.00     0.087 C 
BRANCH  11  12
ATOM     12  C   UNL     1      15.760  23.067  27.362  1.00  0.00     0.066 C 
BRANCH  12  13
ATOM     13  C   UNL     1      15.343  24.485  27.730  1.00  0.00     0.140 C 
ATOM     14  O   UNL     1      16.053  25.418  27.381  1.00  0.00    -0.299 OA
BRANCH  13  15
ATOM     15  C   UNL     1      14.120  24.773  28.577  1.00  0.00     0.106 CG0
ATOM     16  G   UNL     1      14.509  25.042  30.019  1.00  0.00     0.000 G0
ENDBRANCH  13  15
ENDBRANCH  12  13
BRANCH  12  17
ATOM     17  C   UNL     1      16.218  22.987  25.867  1.00  0.00    -0.006 C 
ATOM     18  C   UNL     1      17.507  22.156  25.700  1.00  0.00     0.008 C 
ATOM     19  C   UNL     1      15.128  22.368  24.969  1.00  0.00     0.008 C 
ENDBRANCH  12  17
ENDBRANCH  11  12
ENDBRANCH   1  11
TORSDOF 1
ENDMDL
MODEL 3
REMARK VINA RESULT:    -3.470      2.806      5.738
REMARK INTER + INTRA:          -5.678
REMARK INTER:                  -5.662
REMARK INTRA:                  -0.016
REMARK UNBOUND:                -0.383
REMARK SMILES CC1=CCC[C@H](C)C(=O)C[C@@H](C(C)C)C(=O)C1
REMARK SMILES IDX 8 1 9 2 6 3 7 4 5 5 4 6 3 7 2 8 1 9 10 11 11 12 15 13 16 14
REMARK SMILES IDX 17 15 12 17 13 18 14 19
REMARK H PARENT
REMARK Flexibility Score: 70.00
ROOT
ATOM      1  C   UNL     1      18.493  27.306  28.426  1.00  0.00     0.136 C 
ATOM      2  O   UNL     1      18.443  27.823  27.318  1.00  0.00    -0.299 OA
ENDROOT
BRANCH   1   3
ATOM      3  C   UNL     1      19.250  26.012  28.617  1.00  0.00     0.053 C 
ATOM      4  C   UNL     1      19.453  25.284  27.283  1.00  0.00     0.016 C 
BRANCH   3   5
ATOM      5  C   UNL     1      20.600  26.313  29.313  1.00  0.00     0.015 C 
BRANCH   5   6
ATOM      6  C   UNL     1      21.367  27.544  28.790  1.00  0.00     0.028 C 
BRANCH   6   7
ATOM      7  C   UNL     1      21.975  28.465  29.826  1.00  0.00    -0.028 C 
ATOM      8  C   UNL     1      21.630  29.751  30.075  1.00  0.00    -0.070 CG0
ATOM      9  C   UNL     1      22.448  30.511  31.090  1.00  0.00     0.039 C 
ATOM     10  G   UNL     1      20.433  30.448  29.454  1.00  0.00     0.000 G0
ENDBRANCH   6   7
ENDBRANCH   5   6
ENDBRANCH   3   5
ENDBRANCH   1   3
BRANCH   1  11
ATOM     11  C   UNL     1      17.867  28.017  29.603  1.00  0.00     0.087 C 
BRANCH  11  12
ATOM     12  C   UNL     1      17.927  29.569  29.452  1.00  0.00     0.066 C 
BRANCH  12  13
ATOM     13  C   UNL     1      19.154  30.099  30.184  1.00  0.00     0.140 C 
ATOM     14  O   UNL     1      19.085  30.285  31.392  1.00  0.00    -0.299 OA
BRANCH  13  15
ATOM     15  C   UNL     1      20.429  30.475  29.458  1.00  0.00     0.106 CG0
ATOM     16  G   UNL     1      21.628  29.769  30.065  1.00  0.00     0.000 G0
ENDBRANCH  13  15
ENDBRANCH  12  13
BRANCH  12  17
ATOM     17  C   UNL     1      16.622  30.262  29.969  1.00  0.00    -0.006 C 
ATOM     18  C   UNL     1      16.399  31.640  29.314  1.00  0.00     0.008 C 
ATOM     19  C   UNL     1      15.373  29.396  29.705  1.00  0.00     0.008 C 
ENDBRANCH  12  17
ENDBRANCH  11  12
ENDBRANCH   1  11
TORSDOF 1
ENDMDL
MODEL 4
REMARK VINA RESULT:    -3.381      2.936      4.975
REMARK INTER + INTRA:          -5.542
REMARK INTER:                  -5.203
REMARK INTRA:                  -0.339
REMARK UNBOUND:                -0.383
REMARK SMILES CC1=CCC[C@H](C)C(=O)C[C@@H](C(C)C)C(=O)C1
REMARK SMILES IDX 8 1 9 2 6 3 7 4 5 5 4 6 3 7 2 8 1 9 10 11 11 12 15 13 16 14
REMARK SMILES IDX 17 15 12 17 13 18 14 19
REMARK H PARENT
REMARK Flexibility Score: 70.00
ROOT
ATOM      1  C   UNL     1      17.747  28.658  29.592  1.00  0.00     0.136 C 
ATOM      2  O   UNL     1      16.920  27.785  29.822  1.00  0.00    -0.299 OA
ENDROOT
BRANCH   1   3
ATOM      3  C   UNL     1      17.688  29.965  30.350  1.00  0.00     0.053 C 
ATOM      4  C   UNL     1      16.420  30.753  30.001  1.00  0.00     0.016 C 
BRANCH   3   5
ATOM      5  C   UNL     1      17.778  29.674  31.868  1.00  0.00     0.015 C 
BRANCH   5   6
ATOM      6  C   UNL     1      19.201  29.642  32.463  1.00  0.00     0.028 C 
BRANCH   6   7
ATOM      7  C   UNL     1      20.245  30.507  31.789  1.00  0.00    -0.028 C 
ATOM      8  C   UNL     1      21.362  30.084  31.150  1.00  0.00    -0.070 CG0
ATOM      9  C   UNL     1      22.318  31.137  30.641  1.00  0.00     0.039 C 
ATOM     10  G   UNL     1      21.675  28.630  30.850  1.00  0.00     0.000 G0
ENDBRANCH   6   7
ENDBRANCH   5   6
ENDBRANCH   3   5
ENDBRANCH   1   3
BRANCH   1  11
ATOM     11  C   UNL     1      18.864  28.380  28.615  1.00  0.00     0.087 C 
BRANCH  11  12
ATOM     12  C   UNL     1      19.948  27.432  29.214  1.00  0.00     0.066 C 
BRANCH  12  13
ATOM     13  C   UNL     1      21.225  28.223  29.467  1.00  0.00     0.140 C 
ATOM     14  O   UNL     1      21.947  28.497  28.517  1.00  0.00    -0.299 OA
BRANCH  13  15
ATOM     15  C   UNL     1      21.670  28.615  30.861  1.00  0.00     0.106 CG0
ATOM     16  G   UNL     1      21.376  30.079  31.133  1.00  0.00     0.000 G0
ENDBRANCH  13  15
ENDBRANCH  12  13
BRANCH  12  17
ATOM     17  C   UNL     1      20.226  26.198  28.291  1.00  0.00    -0.006 C 
ATOM     18  C   UNL     1      21.082  25.127  28.997  1.00  0.00     0.008 C 
ATOM     19  C   UNL     1      18.917  25.532  27.819  1.00  0.00     0.008 C 
ENDBRANCH  12  17
ENDBRANCH  11  12
ENDBRANCH   1  11
TORSDOF 1
ENDMDL
MODEL 5
REMARK VINA RESULT:    -3.374      2.232      5.384
REMARK INTER + INTRA:          -5.532
REMARK INTER:                  -5.285
REMARK INTRA:                  -0.247
REMARK UNBOUND:                -0.383
REMARK SMILES CC1=CCC[C@H](C)C(=O)C[C@@H](C(C)C)C(=O)C1
REMARK SMILES IDX 8 1 9 2 6 3 7 4 5 5 4 6 3 7 2 8 1 9 10 11 11 12 15 13 16 14
REMARK SMILES IDX 17 15 12 17 13 18 14 19
REMARK H PARENT
REMARK Flexibility Score: 70.00
ROOT
ATOM      1  C   UNL     1      15.871  28.600  29.927  1.00  0.00     0.136 C 
ATOM      2  O   UNL     1      14.883  28.919  29.278  1.00  0.00    -0.299 OA
ENDROOT
BRANCH   1   3
ATOM      3  C   UNL     1      16.382  27.179  29.867  1.00  0.00     0.053 C 
ATOM      4  C   UNL     1      15.393  26.204  30.515  1.00  0.00     0.016 C 
BRANCH   3   5
ATOM      5  C   UNL     1      16.666  26.806  28.391  1.00  0.00     0.015 C 
BRANCH   5   6
ATOM      6  C   UNL     1      17.975  27.365  27.797  1.00  0.00     0.028 C 
BRANCH   6   7
ATOM      7  C   UNL     1      19.228  27.211  28.631  1.00  0.00    -0.028 C 
ATOM      8  C   UNL     1      20.064  28.197  29.035  1.00  0.00    -0.070 CG0
ATOM      9  C   UNL     1      21.316  27.794  29.776  1.00  0.00     0.039 C 
ATOM     10  G   UNL     1      19.786  29.678  28.855  1.00  0.00     0.000 G0
ENDBRANCH   6   7
ENDBRANCH   5   6
ENDBRANCH   3   5
ENDBRANCH   1   3
BRANCH   1  11
ATOM     11  C   UNL     1      16.611  29.656  30.713  1.00  0.00     0.087 C 
BRANCH  11  12
ATOM     12  C   UNL     1      17.478  30.573  29.795  1.00  0.00     0.066 C 
BRANCH  12  13
ATOM     13  C   UNL     1      18.949  30.228  29.985  1.00  0.00     0.140 C 
ATOM     14  O   UNL     1      19.474  30.455  31.067  1.00  0.00    -0.299 OA
BRANCH  13  15
ATOM     15  C   UNL     1      19.805  29.687  28.857  1.00  0.00     0.106 CG0
ATOM     16  G   UNL     1      20.055  28.200  29.031  1.00  0.00     0.000 G0
ENDBRANCH  13  15
ENDBRANCH  12  13
BRANCH  12  17
ATOM     17  C   UNL     1      17.218  32.093  30.067  1.00  0.00    -0.006 C 
ATOM     18  C   UNL     1      16.142  32.674  29.127  1.00  0.00     0.008 C 
ATOM     19  C   UNL     1      16.772  32.344  31.522  1.00  0.00     0.008 C 
ENDBRANCH  12  17
ENDBRANCH  11  12
ENDBRANCH   1  11
TORSDOF 1
ENDMDL
MODEL 6
REMARK VINA RESULT:    -3.255      2.421      4.619
REMARK INTER + INTRA:          -5.350
REMARK INTER:                  -5.025
REMARK INTRA:                  -0.325
REMARK UNBOUND:                -0.383
REMARK SMILES CC1=CCC[C@H](C)C(=O)C[C@@H](C(C)C)C(=O)C1
REMARK SMILES IDX 8 1 9 2 6 3 7 4 5 5 4 6 3 7 2 8 1 9 10 11 11 12 15 13 16 14
REMARK SMILES IDX 17 15 12 17 13 18 14 19
REMARK H PARENT
REMARK Flexibility Score: 70.00
ROOT
ATOM      1  C   UNL     1      19.840  28.320  29.251  1.00  0.00     0.136 C 
ATOM      2  O   UNL     1      20.301  27.307  29.759  1.00  0.00    -0.299 OA
ENDROOT
BRANCH   1   3
ATOM      3  C   UNL     1      18.397  28.343  28.799  1.00  0.00     0.053 C 
ATOM      4  C   UNL     1      18.136  27.286  27.720  1.00  0.00     0.016 C 
BRANCH   3   5
ATOM      5  C   UNL     1      17.478  28.142  30.029  1.00  0.00     0.015 C 
BRANCH   5   6
ATOM      6  C   UNL     1      17.176  29.408  30.856  1.00  0.00     0.028 C 
BRANCH   6   7
ATOM      7  C   UNL     1      16.829  30.664  30.085  1.00  0.00    -0.028 C 
ATOM      8  C   UNL     1      17.430  31.874  30.188  1.00  0.00    -0.070 CG0
ATOM      9  C   UNL     1      16.845  33.015  29.392  1.00  0.00     0.039 C 
ATOM     10  G   UNL     1      18.690  32.134  30.992  1.00  0.00     0.000 G0
ENDBRANCH   6   7
ENDBRANCH   5   6
ENDBRANCH   3   5
ENDBRANCH   1   3
BRANCH   1  11
ATOM     11  C   UNL     1      20.698  29.560  29.162  1.00  0.00     0.087 C 
BRANCH  11  12
ATOM     12  C   UNL     1      20.657  30.400  30.476  1.00  0.00     0.066 C 
BRANCH  12  13
ATOM     13  C   UNL     1      19.937  31.715  30.210  1.00  0.00     0.140 C 
ATOM     14  O   UNL     1      20.402  32.486  29.381  1.00  0.00    -0.299 OA
BRANCH  13  15
ATOM     15  C   UNL     1      18.708  32.136  30.991  1.00  0.00     0.106 CG0
ATOM     16  G   UNL     1      17.443  31.882  30.192  1.00  0.00     0.000 G0
ENDBRANCH  13  15
ENDBRANCH  12  13
BRANCH  12  17
ATOM     17  C   UNL     1      22.089  30.652  31.059  1.00  0.00    -0.006 C 
ATOM     18  C   UNL     1      22.126  30.492  32.592  1.00  0.00     0.008 C 
ATOM     19  C   UNL     1      23.130  29.690  30.450  1.00  0.00     0.008 C 
ENDBRANCH  12  17
ENDBRANCH  11  12
ENDBRANCH   1  11
TORSDOF 1
ENDMDL
MODEL 7
REMARK VINA RESULT:    -3.222      3.088      6.494
REMARK INTER + INTRA:          -5.299
REMARK INTER:                  -5.740
REMARK INTRA:                   0.441
REMARK UNBOUND:                -0.383
REMARK SMILES CC1=CCC[C@H](C)C(=O)C[C@@H](C(C)C)C(=O)C1
REMARK SMILES IDX 8 1 9 2 6 3 7 4 5 5 4 6 3 7 2 8 1 9 10 11 11 12 15 13 16 14
REMARK SMILES IDX 17 15 12 17 13 18 14 19
REMARK H PARENT
REMARK Flexibility Score: 70.00
ROOT
ATOM      1  C   UNL     1      18.112  27.071  28.208  1.00  0.00     0.136 C 
ATOM      2  O   UNL     1      17.912  27.629  27.137  1.00  0.00    -0.299 OA
ENDROOT
BRANCH   1   3
ATOM      3  C   UNL     1      18.329  25.576  28.245  1.00  0.00     0.053 C 
ATOM      4  C   UNL     1      17.113  24.823  27.696  1.00  0.00     0.016 C 
BRANCH   3   5
ATOM      5  C   UNL     1      19.616  25.232  27.455  1.00  0.00     0.015 C 
BRANCH   5   6
ATOM      6  C   UNL     1      20.876  24.967  28.305  1.00  0.00     0.028 C 
BRANCH   6   7
ATOM      7  C   UNL     1      21.988  25.990  28.220  1.00  0.00    -0.028 C 
ATOM      8  C   UNL     1      22.040  27.189  28.847  1.00  0.00    -0.070 CG0
ATOM      9  C   UNL     1      23.207  28.094  28.531  1.00  0.00     0.039 C 
ATOM     10  G   UNL     1      21.044  27.647  29.897  1.00  0.00     0.000 G0
ENDBRANCH   6   7
ENDBRANCH   5   6
ENDBRANCH   3   5
ENDBRANCH   1   3
BRANCH   1  11
ATOM     11  C   UNL     1      18.221  27.901  29.465  1.00  0.00     0.087 C 
BRANCH  11  12
ATOM     12  C   UNL     1      19.004  29.229  29.227  1.00  0.00     0.066 C 
BRANCH  12  13
ATOM     13  C   UNL     1      20.471  29.018  29.579  1.00  0.00     0.140 C 
ATOM     14  O   UNL     1      21.231  29.976  29.537  1.00  0.00    -0.299 OA
BRANCH  13  15
ATOM     15  C   UNL     1      21.036  27.651  29.905  1.00  0.00     0.106 CG0
ATOM     16  G   UNL     1      22.037  27.211  28.852  1.00  0.00     0.000 G0
ENDBRANCH  13  15
ENDBRANCH  12  13
BRANCH  12  17
ATOM     17  C   UNL     1      18.398  30.423  30.039  1.00  0.00    -0.006 C 
ATOM     18  C   UNL     1      17.509  31.328  29.162  1.00  0.00     0.008 C 
ATOM     19  C   UNL     1      17.553  29.931  31.232  1.00  0.00     0.008 C 
ENDBRANCH  12  17
ENDBRANCH  11  12
ENDBRANCH   1  11
TORSDOF 1
ENDMDL
MODEL 8
REMARK VINA RESULT:    -3.187      2.601      5.024
REMARK INTER + INTRA:          -5.247
REMARK INTER:                  -5.482
REMARK INTRA:                   0.235
REMARK UNBOUND:                -0.383
REMARK SMILES CC1=CCC[C@H](C)C(=O)C[C@@H](C(C)C)C(=O)C1
REMARK SMILES IDX 8 1 9 2 6 3 7 4 5 5 4 6 3 7 2 8 1 9 10 11 11 12 15 13 16 14
REMARK SMILES IDX 17 15 12 17 13 18 14 19
REMARK H PARENT
REMARK Flexibility Score: 70.00
ROOT
ATOM      1  C   UNL     1      20.352  26.360  28.581  1.00  0.00     0.136 C 
ATOM      2  O   UNL     1      20.745  25.700  29.533  1.00  0.00    -0.299 OA
ENDROOT
BRANCH   1   3
ATOM      3  C   UNL     1      19.458  25.720  27.544  1.00  0.00     0.053 C 
ATOM      4  C   UNL     1      20.016  24.369  27.084  1.00  0.00     0.016 C 
BRANCH   3   5
ATOM      5  C   UNL     1      18.030  25.578  28.125  1.00  0.00     0.015 C 
BRANCH   5   6
ATOM      6  C   UNL     1      17.111  26.806  27.960  1.00  0.00     0.028 C 
BRANCH   6   7
ATOM      7  C   UNL     1      16.653  27.496  29.227  1.00  0.00    -0.028 C 
ATOM      8  C   UNL     1      17.243  28.552  29.838  1.00  0.00    -0.070 CG0
ATOM      9  C   UNL     1      16.666  29.010  31.155  1.00  0.00     0.039 C 
ATOM     10  G   UNL     1      18.395  29.344  29.247  1.00  0.00     0.000 G0
ENDBRANCH   6   7
ENDBRANCH   5   6
ENDBRANCH   3   5
ENDBRANCH   1   3
BRANCH   1  11
ATOM     11  C   UNL     1      20.699  27.828  28.503  1.00  0.00     0.087 C 
BRANCH  11  12
ATOM     12  C   UNL     1      20.806  28.482  29.915  1.00  0.00     0.066 C 
BRANCH  12  13
ATOM     13  C   UNL     1      19.592  29.371  30.151  1.00  0.00     0.140 C 
ATOM     14  O   UNL     1      19.561  30.075  31.152  1.00  0.00    -0.299 OA
BRANCH  13  15
ATOM     15  C   UNL     1      18.388  29.356  29.231  1.00  0.00     0.106 CG0
ATOM     16  G   UNL     1      17.252  28.552  29.836  1.00  0.00     0.000 G0
ENDBRANCH  13  15
ENDBRANCH  12  13
BRANCH  12  17
ATOM     17  C   UNL     1      22.136  29.291  30.090  1.00  0.00    -0.006 C 
ATOM     18  C   UNL     1      22.617  29.305  31.555  1.00  0.00     0.008 C 
ATOM     19  C   UNL     1      23.271  28.719  29.217  1.00  0.00     0.008 C 
ENDBRANCH  12  17
ENDBRANCH  11  12
ENDBRANCH   1  11
TORSDOF 1
ENDMDL
MODEL 9
REMARK VINA RESULT:    -2.955      2.016      4.500
REMARK INTER + INTRA:          -4.892
REMARK INTER:                  -4.811
REMARK INTRA:                  -0.081
REMARK UNBOUND:                -0.383
REMARK SMILES CC1=CCC[C@H](C)C(=O)C[C@@H](C(C)C)C(=O)C1
REMARK SMILES IDX 8 1 9 2 6 3 7 4 5 5 4 6 3 7 2 8 1 9 10 11 11 12 15 13 16 14
REMARK SMILES IDX 17 15 12 17 13 18 14 19
REMARK H PARENT
REMARK Flexibility Score: 70.00
ROOT
ATOM      1  C   UNL     1      21.156  28.991  29.754  1.00  0.00     0.136 C 
ATOM      2  O   UNL     1      21.863  28.690  30.707  1.00  0.00    -0.299 OA
ENDROOT
BRANCH   1   3
ATOM      3  C   UNL     1      20.947  27.999  28.633  1.00  0.00     0.053 C 
ATOM      4  C   UNL     1      22.164  27.084  28.466  1.00  0.00     0.016 C 
BRANCH   3   5
ATOM      5  C   UNL     1      19.657  27.188  28.910  1.00  0.00     0.015 C 
BRANCH   5   6
ATOM      6  C   UNL     1      18.379  27.701  28.217  1.00  0.00     0.028 C 
BRANCH   6   7
ATOM      7  C   UNL     1      17.169  27.936  29.097  1.00  0.00    -0.028 C 
ATOM      8  C   UNL     1      16.843  29.080  29.744  1.00  0.00    -0.070 CG0
ATOM      9  C   UNL     1      15.638  29.051  30.653  1.00  0.00     0.039 C 
ATOM     10  G   UNL     1      17.565  30.402  29.555  1.00  0.00     0.000 G0
ENDBRANCH   6   7
ENDBRANCH   5   6
ENDBRANCH   3   5
ENDBRANCH   1   3
BRANCH   1  11
ATOM     11  C   UNL     1      20.437  30.319  29.757  1.00  0.00     0.087 C 
BRANCH  11  12
ATOM     12  C   UNL     1      19.708  30.590  31.109  1.00  0.00     0.066 C 
BRANCH  12  13
ATOM     13  C   UNL     1      18.231  30.849  30.841  1.00  0.00     0.140 C 
ATOM     14  O   UNL     1      17.555  31.373  31.717  1.00  0.00    -0.299 OA
BRANCH  13  15
ATOM     15  C   UNL     1      17.553  30.411  29.559  1.00  0.00     0.106 CG0
ATOM     16  G   UNL     1      16.850  29.079  29.743  1.00  0.00     0.000 G0
ENDBRANCH  13  15
ENDBRANCH  12  13
BRANCH  12  17
ATOM     17  C   UNL     1      20.352  31.780  31.897  1.00  0.00    -0.006 C 
ATOM     18  C   UNL     1      21.469  31.307  32.850  1.00  0.00     0.008 C 
ATOM     19  C   UNL     1      20.948  32.838  30.946  1.00  0.00     0.008 C 
ENDBRANCH  12  17
ENDBRANCH  11  12
ENDBRANCH   1  11
TORSDOF 1
ENDMDL
