MODEL 1
REMARK VINA RESULT:    -5.244      0.000      0.000
REMARK INTER + INTRA:         -16.848
REMARK INTER:                 -13.827
REMARK INTRA:                  -3.022
REMARK UNBOUND:                -3.022
REMARK SMILES CCCCCCCCCCCCCCCCCCCCCCCCCCCCCC(=O)[O-]
REMARK SMILES IDX 16 1 17 2 18 3 19 4 20 5 21 6 22 7 23 8 24 9 25 10 26 11
REMARK SMILES IDX 27 12 28 13 29 14 30 15 31 16 32 17 15 18 14 19 13 20 12 21
REMARK SMILES IDX 11 22 10 23 9 24 8 25 7 26 6 27 5 28 4 29 3 30 2 31 1 32
REMARK H PARENT
REMARK Flexibility Score: inf
ROOT
ATOM      1  C   UNL     1       2.698  60.366  17.550  1.00  0.00     0.000 C 
ENDROOT
BRANCH   1   2
ATOM      2  C   UNL     1       2.042  59.969  18.884  1.00  0.00     0.000 C 
BRANCH   2   3
ATOM      3  C   UNL     1       2.399  60.930  20.033  1.00  0.00     0.000 C 
BRANCH   3   4
ATOM      4  C   UNL     1       3.139  60.280  21.217  1.00  0.00     0.000 C 
BRANCH   4   5
ATOM      5  C   UNL     1       3.224  58.750  21.102  1.00  0.00     0.000 C 
BRANCH   5   6
ATOM      6  C   UNL     1       4.636  58.308  20.691  1.00  0.00     0.000 C 
BRANCH   6   7
ATOM      7  C   UNL     1       5.016  56.923  21.246  1.00  0.00     0.000 C 
BRANCH   7   8
ATOM      8  C   UNL     1       6.528  56.636  21.300  1.00  0.00     0.000 C 
BRANCH   8   9
ATOM      9  C   UNL     1       7.240  56.939  19.974  1.00  0.00     0.000 C 
BRANCH   9  10
ATOM     10  C   UNL     1       7.636  55.644  19.252  1.00  0.00     0.000 C 
BRANCH  10  11
ATOM     11  C   UNL     1       7.836  54.458  20.212  1.00  0.00     0.000 C 
BRANCH  11  12
ATOM     12  C   UNL     1       9.204  54.463  20.926  1.00  0.00     0.000 C 
BRANCH  12  13
ATOM     13  C   UNL     1       9.070  54.257  22.445  1.00  0.00     0.006 C 
BRANCH  13  14
ATOM     14  C   UNL     1      10.413  53.923  23.107  1.00  0.00     0.053 C 
BRANCH  14  15
ATOM     15  C   UNL     1      10.520  54.522  24.475  1.00  0.00     0.041 C 
ATOM     16  O   UNL     1       9.481  54.785  25.137  1.00  0.00    -0.550 OA
ATOM     17  O   UNL     1      11.768  54.828  25.005  1.00  0.00    -0.550 OA
ENDBRANCH  14  15
ENDBRANCH  13  14
ENDBRANCH  12  13
ENDBRANCH  11  12
ENDBRANCH  10  11
ENDBRANCH   9  10
ENDBRANCH   8   9
ENDBRANCH   7   8
ENDBRANCH   6   7
ENDBRANCH   5   6
ENDBRANCH   4   5
ENDBRANCH   3   4
ENDBRANCH   2   3
ENDBRANCH   1   2
BRANCH   1  18
ATOM     18  C   UNL     1       1.808  60.064  16.330  1.00  0.00     0.000 C 
BRANCH  18  19
ATOM     19  C   UNL     1       1.759  61.175  15.267  1.00  0.00     0.000 C 
BRANCH  19  20
ATOM     20  C   UNL     1       0.370  61.824  15.143  1.00  0.00     0.000 C 
BRANCH  20  21
ATOM     21  C   UNL     1      -0.684  61.131  16.020  1.00  0.00     0.000 C 
BRANCH  21  22
ATOM     22  C   UNL     1      -1.959  61.976  16.188  1.00  0.00     0.000 C 
BRANCH  22  23
ATOM     23  C   UNL     1      -2.030  62.688  17.551  1.00  0.00     0.000 C 
BRANCH  23  24
ATOM     24  C   UNL     1      -0.802  62.489  18.460  1.00  0.00    -0.000 C 
BRANCH  24  25
ATOM     25  C   UNL     1      -1.179  62.163  19.915  1.00  0.00    -0.000 C 
BRANCH  25  26
ATOM     26  C   UNL     1      -1.447  60.664  20.145  1.00  0.00    -0.000 C 
BRANCH  26  27
ATOM     27  C   UNL     1      -1.349  60.195  21.608  1.00  0.00    -0.000 C 
BRANCH  27  28
ATOM     28  C   UNL     1      -0.254  60.926  22.401  1.00  0.00    -0.000 C 
BRANCH  28  29
ATOM     29  C   UNL     1      -0.256  60.493  23.872  1.00  0.00    -0.000 C 
BRANCH  29  30
ATOM     30  C   UNL     1       0.366  59.098  24.036  1.00  0.00    -0.000 C 
BRANCH  30  31
ATOM     31  C   UNL     1       0.118  58.500  25.428  1.00  0.00    -0.003 C 
ATOM     32  C   UNL     1      -0.320  57.037  25.374  1.00  0.00     0.004 C 
ENDBRANCH  30  31
ENDBRANCH  29  30
ENDBRANCH  28  29
ENDBRANCH  27  28
ENDBRANCH  26  27
ENDBRANCH  25  26
ENDBRANCH  24  25
ENDBRANCH  23  24
ENDBRANCH  22  23
ENDBRANCH  21  22
ENDBRANCH  20  21
ENDBRANCH  19  20
ENDBRANCH  18  19
ENDBRANCH   1  18
TORSDOF 28
ENDMDL
MODEL 2
REMARK VINA RESULT:    -5.131      2.907      9.517
REMARK INTER + INTRA:         -16.553
REMARK INTER:                 -12.764
REMARK INTRA:                  -3.789
REMARK UNBOUND:                -3.022
REMARK SMILES CCCCCCCCCCCCCCCCCCCCCCCCCCCCCC(=O)[O-]
REMARK SMILES IDX 16 1 17 2 18 3 19 4 20 5 21 6 22 7 23 8 24 9 25 10 26 11
REMARK SMILES IDX 27 12 28 13 29 14 30 15 31 16 32 17 15 18 14 19 13 20 12 21
REMARK SMILES IDX 11 22 10 23 9 24 8 25 7 26 6 27 5 28 4 29 3 30 2 31 1 32
REMARK H PARENT
REMARK Flexibility Score: inf
ROOT
ATOM      1  C   UNL     1       1.907  59.720  17.503  1.00  0.00     0.000 C 
ENDROOT
BRANCH   1   2
ATOM      2  C   UNL     1       2.426  60.509  16.288  1.00  0.00     0.000 C 
BRANCH   2   3
ATOM      3  C   UNL     1       1.314  60.843  15.276  1.00  0.00     0.000 C 
BRANCH   3   4
ATOM      4  C   UNL     1       1.196  62.336  14.912  1.00  0.00     0.000 C 
BRANCH   4   5
ATOM      5  C   UNL     1      -0.260  62.818  14.829  1.00  0.00     0.000 C 
BRANCH   5   6
ATOM      6  C   UNL     1      -1.201  61.853  15.567  1.00  0.00     0.000 C 
BRANCH   6   7
ATOM      7  C   UNL     1      -1.821  62.471  16.833  1.00  0.00     0.000 C 
BRANCH   7   8
ATOM      8  C   UNL     1      -0.936  63.505  17.553  1.00  0.00     0.000 C 
BRANCH   8   9
ATOM      9  C   UNL     1      -1.432  63.832  18.969  1.00  0.00     0.000 C 
BRANCH   9  10
ATOM     10  C   UNL     1      -1.847  62.559  19.718  1.00  0.00     0.000 C 
BRANCH  10  11
ATOM     11  C   UNL     1      -2.017  62.783  21.231  1.00  0.00     0.000 C 
BRANCH  11  12
ATOM     12  C   UNL     1      -1.059  61.935  22.094  1.00  0.00     0.000 C 
BRANCH  12  13
ATOM     13  C   UNL     1      -1.012  60.465  21.641  1.00  0.00     0.006 C 
BRANCH  13  14
ATOM     14  C   UNL     1      -1.326  59.494  22.787  1.00  0.00     0.053 C 
BRANCH  14  15
ATOM     15  C   UNL     1      -0.171  58.585  23.074  1.00  0.00     0.041 C 
ATOM     16  O   UNL     1      -0.089  57.464  22.504  1.00  0.00    -0.550 OA
ATOM     17  O   UNL     1       0.794  58.958  24.001  1.00  0.00    -0.550 OA
ENDBRANCH  14  15
ENDBRANCH  13  14
ENDBRANCH  12  13
ENDBRANCH  11  12
ENDBRANCH  10  11
ENDBRANCH   9  10
ENDBRANCH   8   9
ENDBRANCH   7   8
ENDBRANCH   6   7
ENDBRANCH   5   6
ENDBRANCH   4   5
ENDBRANCH   3   4
ENDBRANCH   2   3
ENDBRANCH   1   2
BRANCH   1  18
ATOM     18  C   UNL     1       1.042  60.575  18.448  1.00  0.00     0.000 C 
BRANCH  18  19
ATOM     19  C   UNL     1       1.825  61.535  19.359  1.00  0.00     0.000 C 
BRANCH  19  20
ATOM     20  C   UNL     1       3.080  60.891  19.972  1.00  0.00     0.000 C 
BRANCH  20  21
ATOM     21  C   UNL     1       2.763  60.065  21.228  1.00  0.00     0.000 C 
BRANCH  21  22
ATOM     22  C   UNL     1       3.000  58.560  21.019  1.00  0.00     0.000 C 
BRANCH  22  23
ATOM     23  C   UNL     1       4.453  58.230  20.631  1.00  0.00     0.000 C 
BRANCH  23  24
ATOM     24  C   UNL     1       5.080  57.043  21.384  1.00  0.00    -0.000 C 
BRANCH  24  25
ATOM     25  C   UNL     1       6.609  56.974  21.230  1.00  0.00    -0.000 C 
BRANCH  25  26
ATOM     26  C   UNL     1       7.051  56.472  19.844  1.00  0.00    -0.000 C 
BRANCH  26  27
ATOM     27  C   UNL     1       8.343  55.634  19.829  1.00  0.00    -0.000 C 
BRANCH  27  28
ATOM     28  C   UNL     1       8.242  54.359  20.680  1.00  0.00    -0.000 C 
BRANCH  28  29
ATOM     29  C   UNL     1       9.368  54.299  21.720  1.00  0.00    -0.000 C 
BRANCH  29  30
ATOM     30  C   UNL     1       8.829  54.580  23.131  1.00  0.00    -0.000 C 
BRANCH  30  31
ATOM     31  C   UNL     1       9.830  55.352  24.003  1.00  0.00    -0.003 C 
ATOM     32  C   UNL     1      11.078  54.534  24.336  1.00  0.00     0.004 C 
ENDBRANCH  30  31
ENDBRANCH  29  30
ENDBRANCH  28  29
ENDBRANCH  27  28
ENDBRANCH  26  27
ENDBRANCH  25  26
ENDBRANCH  24  25
ENDBRANCH  23  24
ENDBRANCH  22  23
ENDBRANCH  21  22
ENDBRANCH  20  21
ENDBRANCH  19  20
ENDBRANCH  18  19
ENDBRANCH   1  18
TORSDOF 28
ENDMDL
MODEL 3
REMARK VINA RESULT:    -5.064      7.349     13.217
REMARK INTER + INTRA:         -16.375
REMARK INTER:                 -13.865
REMARK INTRA:                  -2.510
REMARK UNBOUND:                -3.022
REMARK SMILES CCCCCCCCCCCCCCCCCCCCCCCCCCCCCC(=O)[O-]
REMARK SMILES IDX 16 1 17 2 18 3 19 4 20 5 21 6 22 7 23 8 24 9 25 10 26 11
REMARK SMILES IDX 27 12 28 13 29 14 30 15 31 16 32 17 15 18 14 19 13 20 12 21
REMARK SMILES IDX 11 22 10 23 9 24 8 25 7 26 6 27 5 28 4 29 3 30 2 31 1 32
REMARK H PARENT
REMARK Flexibility Score: inf
ROOT
ATOM      1  C   UNL     1      11.657  47.766  23.132  1.00  0.00     0.000 C 
ENDROOT
BRANCH   1   2
ATOM      2  C   UNL     1      11.024  46.570  23.866  1.00  0.00     0.000 C 
BRANCH   2   3
ATOM      3  C   UNL     1       9.485  46.604  23.843  1.00  0.00     0.000 C 
BRANCH   3   4
ATOM      4  C   UNL     1       8.806  45.221  23.836  1.00  0.00     0.000 C 
BRANCH   4   5
ATOM      5  C   UNL     1       9.547  44.187  24.698  1.00  0.00     0.000 C 
BRANCH   5   6
ATOM      6  C   UNL     1       8.763  43.881  25.983  1.00  0.00     0.000 C 
BRANCH   6   7
ATOM      7  C   UNL     1       7.271  44.246  25.877  1.00  0.00     0.000 C 
BRANCH   7   8
ATOM      8  C   UNL     1       6.780  45.283  26.904  1.00  0.00     0.000 C 
BRANCH   8   9
ATOM      9  C   UNL     1       6.107  46.498  26.250  1.00  0.00     0.000 C 
BRANCH   9  10
ATOM     10  C   UNL     1       4.902  46.972  27.073  1.00  0.00     0.000 C 
BRANCH  10  11
ATOM     11  C   UNL     1       3.863  47.734  26.231  1.00  0.00     0.000 C 
BRANCH  11  12
ATOM     12  C   UNL     1       3.866  47.341  24.739  1.00  0.00     0.000 C 
BRANCH  12  13
ATOM     13  C   UNL     1       3.169  48.392  23.857  1.00  0.00     0.006 C 
BRANCH  13  14
ATOM     14  C   UNL     1       2.819  49.665  24.638  1.00  0.00     0.053 C 
BRANCH  14  15
ATOM     15  C   UNL     1       1.674  50.401  24.013  1.00  0.00     0.041 C 
ATOM     16  O   UNL     1       1.309  50.128  22.839  1.00  0.00    -0.550 OA
ATOM     17  O   UNL     1       1.036  51.418  24.712  1.00  0.00    -0.550 OA
ENDBRANCH  14  15
ENDBRANCH  13  14
ENDBRANCH  12  13
ENDBRANCH  11  12
ENDBRANCH  10  11
ENDBRANCH   9  10
ENDBRANCH   8   9
ENDBRANCH   7   8
ENDBRANCH   6   7
ENDBRANCH   5   6
ENDBRANCH   4   5
ENDBRANCH   3   4
ENDBRANCH   2   3
ENDBRANCH   1   2
BRANCH   1  18
ATOM     18  C   UNL     1      10.996  49.109  23.492  1.00  0.00     0.000 C 
BRANCH  18  19
ATOM     19  C   UNL     1      11.036  50.174  22.383  1.00  0.00     0.000 C 
BRANCH  19  20
ATOM     20  C   UNL     1      10.261  51.452  22.751  1.00  0.00     0.000 C 
BRANCH  20  21
ATOM     21  C   UNL     1      10.326  52.518  21.646  1.00  0.00     0.000 C 
BRANCH  21  22
ATOM     22  C   UNL     1      10.837  53.873  22.165  1.00  0.00     0.000 C 
BRANCH  22  23
ATOM     23  C   UNL     1      10.636  54.048  23.680  1.00  0.00     0.000 C 
BRANCH  23  24
ATOM     24  C   UNL     1       9.404  54.877  24.087  1.00  0.00    -0.000 C 
BRANCH  24  25
ATOM     25  C   UNL     1       8.087  54.089  23.978  1.00  0.00    -0.000 C 
BRANCH  25  26
ATOM     26  C   UNL     1       7.290  54.424  22.704  1.00  0.00    -0.000 C 
BRANCH  26  27
ATOM     27  C   UNL     1       7.703  55.726  21.993  1.00  0.00    -0.000 C 
BRANCH  27  28
ATOM     28  C   UNL     1       6.943  55.958  20.678  1.00  0.00    -0.000 C 
BRANCH  28  29
ATOM     29  C   UNL     1       7.899  55.942  19.478  1.00  0.00    -0.000 C 
BRANCH  29  30
ATOM     30  C   UNL     1       8.238  54.503  19.064  1.00  0.00    -0.000 C 
BRANCH  30  31
ATOM     31  C   UNL     1       7.624  54.118  17.709  1.00  0.00    -0.003 C 
ATOM     32  C   UNL     1       7.038  55.316  16.964  1.00  0.00     0.004 C 
ENDBRANCH  30  31
ENDBRANCH  29  30
ENDBRANCH  28  29
ENDBRANCH  27  28
ENDBRANCH  26  27
ENDBRANCH  25  26
ENDBRANCH  24  25
ENDBRANCH  23  24
ENDBRANCH  22  23
ENDBRANCH  21  22
ENDBRANCH  20  21
ENDBRANCH  19  20
ENDBRANCH  18  19
ENDBRANCH   1  18
TORSDOF 28
ENDMDL
MODEL 4
REMARK VINA RESULT:    -4.996      3.936      8.400
REMARK INTER + INTRA:         -16.195
REMARK INTER:                 -14.284
REMARK INTRA:                  -1.911
REMARK UNBOUND:                -3.022
REMARK SMILES CCCCCCCCCCCCCCCCCCCCCCCCCCCCCC(=O)[O-]
REMARK SMILES IDX 16 1 17 2 18 3 19 4 20 5 21 6 22 7 23 8 24 9 25 10 26 11
REMARK SMILES IDX 27 12 28 13 29 14 30 15 31 16 32 17 15 18 14 19 13 20 12 21
REMARK SMILES IDX 11 22 10 23 9 24 8 25 7 26 6 27 5 28 4 29 3 30 2 31 1 32
REMARK H PARENT
REMARK Flexibility Score: inf
ROOT
ATOM      1  C   UNL     1       0.071  58.455  25.371  1.00  0.00     0.000 C 
ENDROOT
BRANCH   1   2
ATOM      2  C   UNL     1       0.096  59.578  24.318  1.00  0.00     0.000 C 
BRANCH   2   3
ATOM      3  C   UNL     1       1.256  59.428  23.317  1.00  0.00     0.000 C 
BRANCH   3   4
ATOM      4  C   UNL     1       0.861  58.834  21.951  1.00  0.00     0.000 C 
BRANCH   4   5
ATOM      5  C   UNL     1       1.965  58.983  20.892  1.00  0.00     0.000 C 
BRANCH   5   6
ATOM      6  C   UNL     1       3.357  58.905  21.536  1.00  0.00     0.000 C 
BRANCH   6   7
ATOM      7  C   UNL     1       4.350  58.061  20.716  1.00  0.00     0.000 C 
BRANCH   7   8
ATOM      8  C   UNL     1       5.233  57.109  21.544  1.00  0.00     0.000 C 
BRANCH   8   9
ATOM      9  C   UNL     1       6.617  56.884  20.919  1.00  0.00     0.000 C 
BRANCH   9  10
ATOM     10  C   UNL     1       6.813  55.414  20.524  1.00  0.00     0.000 C 
BRANCH  10  11
ATOM     11  C   UNL     1       8.234  55.114  20.015  1.00  0.00     0.000 C 
BRANCH  11  12
ATOM     12  C   UNL     1       9.027  54.152  20.925  1.00  0.00     0.000 C 
BRANCH  12  13
ATOM     13  C   UNL     1       9.241  54.728  22.337  1.00  0.00     0.006 C 
BRANCH  13  14
ATOM     14  C   UNL     1      10.250  53.908  23.151  1.00  0.00     0.053 C 
BRANCH  14  15
ATOM     15  C   UNL     1      10.501  54.518  24.496  1.00  0.00     0.041 C 
ATOM     16  O   UNL     1      11.677  54.774  24.867  1.00  0.00    -0.550 OA
ATOM     17  O   UNL     1       9.439  54.767  25.356  1.00  0.00    -0.550 OA
ENDBRANCH  14  15
ENDBRANCH  13  14
ENDBRANCH  12  13
ENDBRANCH  11  12
ENDBRANCH  10  11
ENDBRANCH   9  10
ENDBRANCH   8   9
ENDBRANCH   7   8
ENDBRANCH   6   7
ENDBRANCH   5   6
ENDBRANCH   4   5
ENDBRANCH   3   4
ENDBRANCH   2   3
ENDBRANCH   1   2
BRANCH   1  18
ATOM     18  C   UNL     1      -0.647  57.186  24.877  1.00  0.00     0.000 C 
BRANCH  18  19
ATOM     19  C   UNL     1      -1.323  56.349  25.976  1.00  0.00     0.000 C 
BRANCH  19  20
ATOM     20  C   UNL     1      -0.490  55.125  26.396  1.00  0.00     0.000 C 
BRANCH  20  21
ATOM     21  C   UNL     1       0.586  55.475  27.436  1.00  0.00     0.000 C 
BRANCH  21  22
ATOM     22  C   UNL     1       0.452  54.644  28.724  1.00  0.00     0.000 C 
BRANCH  22  23
ATOM     23  C   UNL     1       1.275  53.344  28.685  1.00  0.00     0.000 C 
BRANCH  23  24
ATOM     24  C   UNL     1       0.476  52.054  28.948  1.00  0.00    -0.000 C 
BRANCH  24  25
ATOM     25  C   UNL     1      -0.434  51.662  27.771  1.00  0.00    -0.000 C 
BRANCH  25  26
ATOM     26  C   UNL     1       0.353  51.214  26.526  1.00  0.00    -0.000 C 
BRANCH  26  27
ATOM     27  C   UNL     1      -0.195  51.728  25.181  1.00  0.00    -0.000 C 
BRANCH  27  28
ATOM     28  C   UNL     1       0.909  52.007  24.150  1.00  0.00    -0.000 C 
BRANCH  28  29
ATOM     29  C   UNL     1       1.968  50.898  24.162  1.00  0.00    -0.000 C 
BRANCH  29  30
ATOM     30  C   UNL     1       1.502  49.683  23.346  1.00  0.00    -0.000 C 
BRANCH  30  31
ATOM     31  C   UNL     1       2.218  48.387  23.754  1.00  0.00    -0.003 C 
ATOM     32  C   UNL     1       3.087  47.814  22.635  1.00  0.00     0.004 C 
ENDBRANCH  30  31
ENDBRANCH  29  30
ENDBRANCH  28  29
ENDBRANCH  27  28
ENDBRANCH  26  27
ENDBRANCH  25  26
ENDBRANCH  24  25
ENDBRANCH  23  24
ENDBRANCH  22  23
ENDBRANCH  21  22
ENDBRANCH  20  21
ENDBRANCH  19  20
ENDBRANCH  18  19
ENDBRANCH   1  18
TORSDOF 28
ENDMDL
MODEL 5
REMARK VINA RESULT:    -4.963      5.592     10.272
REMARK INTER + INTRA:         -16.108
REMARK INTER:                 -14.014
REMARK INTRA:                  -2.094
REMARK UNBOUND:                -3.022
REMARK SMILES CCCCCCCCCCCCCCCCCCCCCCCCCCCCCC(=O)[O-]
REMARK SMILES IDX 16 1 17 2 18 3 19 4 20 5 21 6 22 7 23 8 24 9 25 10 26 11
REMARK SMILES IDX 27 12 28 13 29 14 30 15 31 16 32 17 15 18 14 19 13 20 12 21
REMARK SMILES IDX 11 22 10 23 9 24 8 25 7 26 6 27 5 28 4 29 3 30 2 31 1 32
REMARK H PARENT
REMARK Flexibility Score: inf
ROOT
ATOM      1  C   UNL     1      10.220  52.548  21.628  1.00  0.00     0.000 C 
ENDROOT
BRANCH   1   2
ATOM      2  C   UNL     1      10.632  51.644  22.804  1.00  0.00     0.000 C 
BRANCH   2   3
ATOM      3  C   UNL     1      10.607  50.148  22.442  1.00  0.00     0.000 C 
BRANCH   3   4
ATOM      4  C   UNL     1      11.122  49.205  23.547  1.00  0.00     0.000 C 
BRANCH   4   5
ATOM      5  C   UNL     1      12.053  48.107  23.010  1.00  0.00     0.000 C 
BRANCH   5   6
ATOM      6  C   UNL     1      11.543  46.713  23.404  1.00  0.00     0.000 C 
BRANCH   6   7
ATOM      7  C   UNL     1      10.114  46.738  23.978  1.00  0.00     0.000 C 
BRANCH   7   8
ATOM      8  C   UNL     1       9.401  45.373  24.007  1.00  0.00     0.000 C 
BRANCH   8   9
ATOM      9  C   UNL     1       9.341  44.762  25.413  1.00  0.00     0.000 C 
BRANCH   9  10
ATOM     10  C   UNL     1      10.734  44.330  25.889  1.00  0.00     0.000 C 
BRANCH  10  11
ATOM     11  C   UNL     1      10.877  44.347  27.422  1.00  0.00     0.000 C 
BRANCH  11  12
ATOM     12  C   UNL     1      11.923  45.359  27.935  1.00  0.00     0.000 C 
BRANCH  12  13
ATOM     13  C   UNL     1      12.739  45.986  26.789  1.00  0.00     0.006 C 
BRANCH  13  14
ATOM     14  C   UNL     1      12.744  47.518  26.851  1.00  0.00     0.053 C 
BRANCH  14  15
ATOM     15  C   UNL     1      13.977  48.041  27.520  1.00  0.00     0.041 C 
ATOM     16  O   UNL     1      14.827  47.243  27.999  1.00  0.00    -0.550 OA
ATOM     17  O   UNL     1      14.170  49.411  27.651  1.00  0.00    -0.550 OA
ENDBRANCH  14  15
ENDBRANCH  13  14
ENDBRANCH  12  13
ENDBRANCH  11  12
ENDBRANCH  10  11
ENDBRANCH   9  10
ENDBRANCH   8   9
ENDBRANCH   7   8
ENDBRANCH   6   7
ENDBRANCH   5   6
ENDBRANCH   4   5
ENDBRANCH   3   4
ENDBRANCH   2   3
ENDBRANCH   1   2
BRANCH   1  18
ATOM     18  C   UNL     1      10.311  54.048  21.963  1.00  0.00     0.000 C 
BRANCH  18  19
ATOM     19  C   UNL     1       9.292  54.548  23.001  1.00  0.00     0.000 C 
BRANCH  19  20
ATOM     20  C   UNL     1       7.834  54.344  22.556  1.00  0.00     0.000 C 
BRANCH  20  21
ATOM     21  C   UNL     1       7.547  54.967  21.181  1.00  0.00     0.000 C 
BRANCH  21  22
ATOM     22  C   UNL     1       7.451  56.502  21.238  1.00  0.00     0.000 C 
BRANCH  22  23
ATOM     23  C   UNL     1       6.190  57.049  20.547  1.00  0.00     0.000 C 
BRANCH  23  24
ATOM     24  C   UNL     1       5.015  57.376  21.489  1.00  0.00    -0.000 C 
BRANCH  24  25
ATOM     25  C   UNL     1       4.029  58.392  20.890  1.00  0.00    -0.000 C 
BRANCH  25  26
ATOM     26  C   UNL     1       3.308  59.234  21.959  1.00  0.00    -0.000 C 
BRANCH  26  27
ATOM     27  C   UNL     1       2.098  60.041  21.455  1.00  0.00    -0.000 C 
BRANCH  27  28
ATOM     28  C   UNL     1       0.794  59.687  22.185  1.00  0.00    -0.000 C 
BRANCH  28  29
ATOM     29  C   UNL     1       0.416  60.774  23.199  1.00  0.00    -0.000 C 
BRANCH  29  30
ATOM     30  C   UNL     1      -0.266  60.162  24.432  1.00  0.00    -0.000 C 
BRANCH  30  31
ATOM     31  C   UNL     1      -0.533  58.658  24.274  1.00  0.00    -0.003 C 
ATOM     32  C   UNL     1       0.109  57.823  25.382  1.00  0.00     0.004 C 
ENDBRANCH  30  31
ENDBRANCH  29  30
ENDBRANCH  28  29
ENDBRANCH  27  28
ENDBRANCH  26  27
ENDBRANCH  25  26
ENDBRANCH  24  25
ENDBRANCH  23  24
ENDBRANCH  22  23
ENDBRANCH  21  22
ENDBRANCH  20  21
ENDBRANCH  19  20
ENDBRANCH  18  19
ENDBRANCH   1  18
TORSDOF 28
ENDMDL
MODEL 6
REMARK VINA RESULT:    -4.941      5.663     13.802
REMARK INTER + INTRA:         -16.052
REMARK INTER:                 -14.183
REMARK INTRA:                  -1.868
REMARK UNBOUND:                -3.022
REMARK SMILES CCCCCCCCCCCCCCCCCCCCCCCCCCCCCC(=O)[O-]
REMARK SMILES IDX 16 1 17 2 18 3 19 4 20 5 21 6 22 7 23 8 24 9 25 10 26 11
REMARK SMILES IDX 27 12 28 13 29 14 30 15 31 16 32 17 15 18 14 19 13 20 12 21
REMARK SMILES IDX 11 22 10 23 9 24 8 25 7 26 6 27 5 28 4 29 3 30 2 31 1 32
REMARK H PARENT
REMARK Flexibility Score: inf
ROOT
ATOM      1  C   UNL     1       7.637  56.289  20.619  1.00  0.00     0.000 C 
ENDROOT
BRANCH   1   2
ATOM      2  C   UNL     1       6.269  56.423  21.312  1.00  0.00     0.000 C 
BRANCH   2   3
ATOM      3  C   UNL     1       5.278  57.287  20.511  1.00  0.00     0.000 C 
BRANCH   3   4
ATOM      4  C   UNL     1       4.295  58.108  21.368  1.00  0.00     0.000 C 
BRANCH   4   5
ATOM      5  C   UNL     1       3.434  59.069  20.534  1.00  0.00     0.000 C 
BRANCH   5   6
ATOM      6  C   UNL     1       3.036  60.304  21.357  1.00  0.00     0.000 C 
BRANCH   6   7
ATOM      7  C   UNL     1       2.277  59.946  22.647  1.00  0.00     0.000 C 
BRANCH   7   8
ATOM      8  C   UNL     1       0.811  60.414  22.690  1.00  0.00     0.000 C 
BRANCH   8   9
ATOM      9  C   UNL     1      -0.120  59.536  21.841  1.00  0.00     0.000 C 
BRANCH   9  10
ATOM     10  C   UNL     1      -1.161  60.387  21.102  1.00  0.00     0.000 C 
BRANCH  10  11
ATOM     11  C   UNL     1      -0.526  61.472  20.212  1.00  0.00     0.000 C 
BRANCH  11  12
ATOM     12  C   UNL     1      -0.248  61.004  18.768  1.00  0.00     0.000 C 
BRANCH  12  13
ATOM     13  C   UNL     1       1.187  61.326  18.317  1.00  0.00     0.006 C 
BRANCH  13  14
ATOM     14  C   UNL     1       1.820  60.172  17.528  1.00  0.00     0.053 C 
BRANCH  14  15
ATOM     15  C   UNL     1       1.240  60.058  16.152  1.00  0.00     0.041 C 
ATOM     16  O   UNL     1       0.900  58.934  15.697  1.00  0.00    -0.550 OA
ATOM     17  O   UNL     1       1.112  61.189  15.356  1.00  0.00    -0.550 OA
ENDBRANCH  14  15
ENDBRANCH  13  14
ENDBRANCH  12  13
ENDBRANCH  11  12
ENDBRANCH  10  11
ENDBRANCH   9  10
ENDBRANCH   8   9
ENDBRANCH   7   8
ENDBRANCH   6   7
ENDBRANCH   5   6
ENDBRANCH   4   5
ENDBRANCH   3   4
ENDBRANCH   2   3
ENDBRANCH   1   2
BRANCH   1  18
ATOM     18  C   UNL     1       8.173  54.846  20.622  1.00  0.00     0.000 C 
BRANCH  18  19
ATOM     19  C   UNL     1       8.863  54.410  21.926  1.00  0.00     0.000 C 
BRANCH  19  20
ATOM     20  C   UNL     1      10.254  53.794  21.691  1.00  0.00     0.000 C 
BRANCH  20  21
ATOM     21  C   UNL     1      10.604  52.719  22.732  1.00  0.00     0.000 C 
BRANCH  21  22
ATOM     22  C   UNL     1      10.510  51.294  22.160  1.00  0.00     0.000 C 
BRANCH  22  23
ATOM     23  C   UNL     1      10.961  50.216  23.161  1.00  0.00     0.000 C 
BRANCH  23  24
ATOM     24  C   UNL     1      10.866  48.766  22.651  1.00  0.00    -0.000 C 
BRANCH  24  25
ATOM     25  C   UNL     1      11.235  47.726  23.723  1.00  0.00    -0.000 C 
BRANCH  25  26
ATOM     26  C   UNL     1      11.401  48.341  25.125  1.00  0.00    -0.000 C 
BRANCH  26  27
ATOM     27  C   UNL     1      12.200  47.487  26.127  1.00  0.00    -0.000 C 
BRANCH  27  28
ATOM     28  C   UNL     1      13.106  48.325  27.041  1.00  0.00    -0.000 C 
BRANCH  28  29
ATOM     29  C   UNL     1      12.859  47.994  28.518  1.00  0.00    -0.000 C 
BRANCH  29  30
ATOM     30  C   UNL     1      13.379  46.590  28.861  1.00  0.00    -0.000 C 
BRANCH  30  31
ATOM     31  C   UNL     1      14.839  46.381  28.436  1.00  0.00    -0.003 C 
ATOM     32  C   UNL     1      15.590  45.416  29.353  1.00  0.00     0.004 C 
ENDBRANCH  30  31
ENDBRANCH  29  30
ENDBRANCH  28  29
ENDBRANCH  27  28
ENDBRANCH  26  27
ENDBRANCH  25  26
ENDBRANCH  24  25
ENDBRANCH  23  24
ENDBRANCH  22  23
ENDBRANCH  21  22
ENDBRANCH  20  21
ENDBRANCH  19  20
ENDBRANCH  18  19
ENDBRANCH   1  18
TORSDOF 28
ENDMDL
MODEL 7
REMARK VINA RESULT:    -4.934      7.849     14.195
REMARK INTER + INTRA:         -16.031
REMARK INTER:                 -12.915
REMARK INTRA:                  -3.116
REMARK UNBOUND:                -3.022
REMARK SMILES CCCCCCCCCCCCCCCCCCCCCCCCCCCCCC(=O)[O-]
REMARK SMILES IDX 16 1 17 2 18 3 19 4 20 5 21 6 22 7 23 8 24 9 25 10 26 11
REMARK SMILES IDX 27 12 28 13 29 14 30 15 31 16 32 17 15 18 14 19 13 20 12 21
REMARK SMILES IDX 11 22 10 23 9 24 8 25 7 26 6 27 5 28 4 29 3 30 2 31 1 32
REMARK H PARENT
REMARK Flexibility Score: inf
ROOT
ATOM      1  C   UNL     1      12.259  46.910  26.201  1.00  0.00     0.000 C 
ENDROOT
BRANCH   1   2
ATOM      2  C   UNL     1      12.326  45.579  25.431  1.00  0.00     0.000 C 
BRANCH   2   3
ATOM      3  C   UNL     1      10.949  44.907  25.284  1.00  0.00     0.000 C 
BRANCH   3   4
ATOM      4  C   UNL     1      10.451  44.758  23.834  1.00  0.00     0.000 C 
BRANCH   4   5
ATOM      5  C   UNL     1       8.933  44.950  23.699  1.00  0.00     0.000 C 
BRANCH   5   6
ATOM      6  C   UNL     1       8.528  46.391  24.045  1.00  0.00     0.000 C 
BRANCH   6   7
ATOM      7  C   UNL     1       7.458  46.465  25.149  1.00  0.00     0.000 C 
BRANCH   7   8
ATOM      8  C   UNL     1       6.657  45.168  25.366  1.00  0.00     0.000 C 
BRANCH   8   9
ATOM      9  C   UNL     1       5.463  45.355  26.312  1.00  0.00     0.000 C 
BRANCH   9  10
ATOM     10  C   UNL     1       4.941  46.797  26.265  1.00  0.00     0.000 C 
BRANCH  10  11
ATOM     11  C   UNL     1       3.771  46.980  25.282  1.00  0.00     0.000 C 
BRANCH  11  12
ATOM     12  C   UNL     1       3.737  48.369  24.611  1.00  0.00     0.000 C 
BRANCH  12  13
ATOM     13  C   UNL     1       2.343  48.716  24.057  1.00  0.00     0.006 C 
BRANCH  13  14
ATOM     14  C   UNL     1       2.188  48.316  22.584  1.00  0.00     0.053 C 
BRANCH  14  15
ATOM     15  C   UNL     1       1.166  47.235  22.409  1.00  0.00     0.041 C 
ATOM     16  O   UNL     1      -0.042  47.450  22.698  1.00  0.00    -0.550 OA
ATOM     17  O   UNL     1       1.553  45.977  21.966  1.00  0.00    -0.550 OA
ENDBRANCH  14  15
ENDBRANCH  13  14
ENDBRANCH  12  13
ENDBRANCH  11  12
ENDBRANCH  10  11
ENDBRANCH   9  10
ENDBRANCH   8   9
ENDBRANCH   7   8
ENDBRANCH   6   7
ENDBRANCH   5   6
ENDBRANCH   4   5
ENDBRANCH   3   4
ENDBRANCH   2   3
ENDBRANCH   1   2
BRANCH   1  18
ATOM     18  C   UNL     1      11.838  48.096  25.313  1.00  0.00     0.000 C 
BRANCH  18  19
ATOM     19  C   UNL     1      12.520  48.154  23.936  1.00  0.00     0.000 C 
BRANCH  19  20
ATOM     20  C   UNL     1      11.516  48.211  22.771  1.00  0.00     0.000 C 
BRANCH  20  21
ATOM     21  C   UNL     1      10.445  49.294  22.971  1.00  0.00     0.000 C 
BRANCH  21  22
ATOM     22  C   UNL     1      11.009  50.717  22.815  1.00  0.00     0.000 C 
BRANCH  22  23
ATOM     23  C   UNL     1       9.990  51.703  22.218  1.00  0.00     0.000 C 
BRANCH  23  24
ATOM     24  C   UNL     1      10.600  52.920  21.497  1.00  0.00    -0.000 C 
BRANCH  24  25
ATOM     25  C   UNL     1      10.994  54.053  22.460  1.00  0.00    -0.000 C 
BRANCH  25  26
ATOM     26  C   UNL     1      10.235  53.995  23.799  1.00  0.00    -0.000 C 
BRANCH  26  27
ATOM     27  C   UNL     1       8.955  54.848  23.868  1.00  0.00    -0.000 C 
BRANCH  27  28
ATOM     28  C   UNL     1       7.700  54.084  23.417  1.00  0.00    -0.000 C 
BRANCH  28  29
ATOM     29  C   UNL     1       7.011  54.797  22.247  1.00  0.00    -0.000 C 
BRANCH  29  30
ATOM     30  C   UNL     1       7.914  55.893  21.661  1.00  0.00    -0.000 C 
BRANCH  30  31
ATOM     31  C   UNL     1       8.296  55.624  20.199  1.00  0.00    -0.003 C 
ATOM     32  C   UNL     1       7.741  56.676  19.239  1.00  0.00     0.004 C 
ENDBRANCH  30  31
ENDBRANCH  29  30
ENDBRANCH  28  29
ENDBRANCH  27  28
ENDBRANCH  26  27
ENDBRANCH  25  26
ENDBRANCH  24  25
ENDBRANCH  23  24
ENDBRANCH  22  23
ENDBRANCH  21  22
ENDBRANCH  20  21
ENDBRANCH  19  20
ENDBRANCH  18  19
ENDBRANCH   1  18
TORSDOF 28
ENDMDL
MODEL 8
REMARK VINA RESULT:    -4.913      3.666      6.877
REMARK INTER + INTRA:         -15.977
REMARK INTER:                 -13.201
REMARK INTRA:                  -2.776
REMARK UNBOUND:                -3.022
REMARK SMILES CCCCCCCCCCCCCCCCCCCCCCCCCCCCCC(=O)[O-]
REMARK SMILES IDX 16 1 17 2 18 3 19 4 20 5 21 6 22 7 23 8 24 9 25 10 26 11
REMARK SMILES IDX 27 12 28 13 29 14 30 15 31 16 32 17 15 18 14 19 13 20 12 21
REMARK SMILES IDX 11 22 10 23 9 24 8 25 7 26 6 27 5 28 4 29 3 30 2 31 1 32
REMARK H PARENT
REMARK Flexibility Score: inf
ROOT
ATOM      1  C   UNL     1       6.603  56.734  20.958  1.00  0.00     0.000 C 
ENDROOT
BRANCH   1   2
ATOM      2  C   UNL     1       6.782  55.408  20.198  1.00  0.00     0.000 C 
BRANCH   2   3
ATOM      3  C   UNL     1       7.601  54.373  20.991  1.00  0.00     0.000 C 
BRANCH   3   4
ATOM      4  C   UNL     1       7.361  54.386  22.513  1.00  0.00     0.000 C 
BRANCH   4   5
ATOM      5  C   UNL     1       8.642  54.134  23.323  1.00  0.00     0.000 C 
BRANCH   5   6
ATOM      6  C   UNL     1       9.884  54.593  22.543  1.00  0.00     0.000 C 
BRANCH   6   7
ATOM      7  C   UNL     1      10.965  53.501  22.440  1.00  0.00     0.000 C 
BRANCH   7   8
ATOM      8  C   UNL     1      10.459  52.127  21.963  1.00  0.00     0.000 C 
BRANCH   8   9
ATOM      9  C   UNL     1      10.525  51.054  23.058  1.00  0.00     0.000 C 
BRANCH   9  10
ATOM     10  C   UNL     1      10.848  49.677  22.464  1.00  0.00     0.000 C 
BRANCH  10  11
ATOM     11  C   UNL     1      11.439  48.700  23.497  1.00  0.00     0.000 C 
BRANCH  11  12
ATOM     12  C   UNL     1      10.619  47.404  23.663  1.00  0.00     0.000 C 
BRANCH  12  13
ATOM     13  C   UNL     1      11.238  46.452  24.703  1.00  0.00     0.006 C 
BRANCH  13  14
ATOM     14  C   UNL     1      12.712  46.774  24.980  1.00  0.00     0.053 C 
BRANCH  14  15
ATOM     15  C   UNL     1      12.933  47.169  26.407  1.00  0.00     0.041 C 
ATOM     16  O   UNL     1      12.438  48.238  26.854  1.00  0.00    -0.550 OA
ATOM     17  O   UNL     1      13.720  46.377  27.234  1.00  0.00    -0.550 OA
ENDBRANCH  14  15
ENDBRANCH  13  14
ENDBRANCH  12  13
ENDBRANCH  11  12
ENDBRANCH  10  11
ENDBRANCH   9  10
ENDBRANCH   8   9
ENDBRANCH   7   8
ENDBRANCH   6   7
ENDBRANCH   5   6
ENDBRANCH   4   5
ENDBRANCH   3   4
ENDBRANCH   2   3
ENDBRANCH   1   2
BRANCH   1  18
ATOM     18  C   UNL     1       5.129  57.056  21.264  1.00  0.00     0.000 C 
BRANCH  18  19
ATOM     19  C   UNL     1       4.564  58.284  20.530  1.00  0.00     0.000 C 
BRANCH  19  20
ATOM     20  C   UNL     1       3.104  58.589  20.908  1.00  0.00     0.000 C 
BRANCH  20  21
ATOM     21  C   UNL     1       2.739  60.067  20.699  1.00  0.00     0.000 C 
BRANCH  21  22
ATOM     22  C   UNL     1       3.124  60.577  19.300  1.00  0.00     0.000 C 
BRANCH  22  23
ATOM     23  C   UNL     1       2.235  59.998  18.186  1.00  0.00     0.000 C 
BRANCH  23  24
ATOM     24  C   UNL     1       2.670  60.350  16.750  1.00  0.00    -0.000 C 
BRANCH  24  25
ATOM     25  C   UNL     1       1.563  60.104  15.711  1.00  0.00    -0.000 C 
BRANCH  25  26
ATOM     26  C   UNL     1       0.397  59.262  16.261  1.00  0.00    -0.000 C 
BRANCH  26  27
ATOM     27  C   UNL     1      -0.951  59.998  16.370  1.00  0.00    -0.000 C 
BRANCH  27  28
ATOM     28  C   UNL     1      -0.827  61.514  16.155  1.00  0.00    -0.000 C 
BRANCH  28  29
ATOM     29  C   UNL     1      -1.349  62.289  17.371  1.00  0.00    -0.000 C 
BRANCH  29  30
ATOM     30  C   UNL     1      -0.190  62.757  18.264  1.00  0.00    -0.000 C 
BRANCH  30  31
ATOM     31  C   UNL     1      -0.329  62.271  19.714  1.00  0.00    -0.003 C 
ATOM     32  C   UNL     1      -1.039  60.922  19.821  1.00  0.00     0.004 C 
ENDBRANCH  30  31
ENDBRANCH  29  30
ENDBRANCH  28  29
ENDBRANCH  27  28
ENDBRANCH  26  27
ENDBRANCH  25  26
ENDBRANCH  24  25
ENDBRANCH  23  24
ENDBRANCH  22  23
ENDBRANCH  21  22
ENDBRANCH  20  21
ENDBRANCH  19  20
ENDBRANCH  18  19
ENDBRANCH   1  18
TORSDOF 28
ENDMDL
MODEL 9
REMARK VINA RESULT:    -4.910      4.198      9.059
REMARK INTER + INTRA:         -15.969
REMARK INTER:                 -13.777
REMARK INTRA:                  -2.192
REMARK UNBOUND:                -3.022
REMARK SMILES CCCCCCCCCCCCCCCCCCCCCCCCCCCCCC(=O)[O-]
REMARK SMILES IDX 16 1 17 2 18 3 19 4 20 5 21 6 22 7 23 8 24 9 25 10 26 11
REMARK SMILES IDX 27 12 28 13 29 14 30 15 31 16 32 17 15 18 14 19 13 20 12 21
REMARK SMILES IDX 11 22 10 23 9 24 8 25 7 26 6 27 5 28 4 29 3 30 2 31 1 32
REMARK H PARENT
REMARK Flexibility Score: inf
ROOT
ATOM      1  C   UNL     1      -1.042  57.208  25.297  1.00  0.00     0.000 C 
ENDROOT
BRANCH   1   2
ATOM      2  C   UNL     1       0.128  58.207  25.293  1.00  0.00     0.000 C 
BRANCH   2   3
ATOM      3  C   UNL     1      -0.265  59.583  24.724  1.00  0.00     0.000 C 
BRANCH   3   4
ATOM      4  C   UNL     1      -0.052  59.742  23.206  1.00  0.00     0.000 C 
BRANCH   4   5
ATOM      5  C   UNL     1       1.395  60.107  22.840  1.00  0.00     0.000 C 
BRANCH   5   6
ATOM      6  C   UNL     1       1.539  60.328  21.326  1.00  0.00     0.000 C 
BRANCH   6   7
ATOM      7  C   UNL     1       2.346  59.216  20.632  1.00  0.00     0.000 C 
BRANCH   7   8
ATOM      8  C   UNL     1       3.397  58.524  21.520  1.00  0.00     0.000 C 
BRANCH   8   9
ATOM      9  C   UNL     1       4.628  58.055  20.733  1.00  0.00     0.000 C 
BRANCH   9  10
ATOM     10  C   UNL     1       5.229  56.786  21.351  1.00  0.00     0.000 C 
BRANCH  10  11
ATOM     11  C   UNL     1       6.744  56.660  21.108  1.00  0.00     0.000 C 
BRANCH  11  12
ATOM     12  C   UNL     1       7.168  55.292  20.533  1.00  0.00     0.000 C 
BRANCH  12  13
ATOM     13  C   UNL     1       8.688  55.068  20.622  1.00  0.00     0.006 C 
BRANCH  13  14
ATOM     14  C   UNL     1       9.046  53.864  21.503  1.00  0.00     0.053 C 
BRANCH  14  15
ATOM     15  C   UNL     1       9.206  54.256  22.939  1.00  0.00     0.041 C 
ATOM     16  O   UNL     1      10.309  54.696  23.359  1.00  0.00    -0.550 OA
ATOM     17  O   UNL     1       8.147  54.099  23.825  1.00  0.00    -0.550 OA
ENDBRANCH  14  15
ENDBRANCH  13  14
ENDBRANCH  12  13
ENDBRANCH  11  12
ENDBRANCH  10  11
ENDBRANCH   9  10
ENDBRANCH   8   9
ENDBRANCH   7   8
ENDBRANCH   6   7
ENDBRANCH   5   6
ENDBRANCH   4   5
ENDBRANCH   3   4
ENDBRANCH   2   3
ENDBRANCH   1   2
BRANCH   1  18
ATOM     18  C   UNL     1      -0.608  55.776  25.659  1.00  0.00     0.000 C 
BRANCH  18  19
ATOM     19  C   UNL     1      -0.681  55.431  27.156  1.00  0.00     0.000 C 
BRANCH  19  20
ATOM     20  C   UNL     1       0.695  55.104  27.764  1.00  0.00     0.000 C 
BRANCH  20  21
ATOM     21  C   UNL     1       0.599  54.665  29.233  1.00  0.00     0.000 C 
BRANCH  21  22
ATOM     22  C   UNL     1       0.641  53.136  29.395  1.00  0.00     0.000 C 
BRANCH  22  23
ATOM     23  C   UNL     1       1.358  52.430  28.231  1.00  0.00     0.000 C 
BRANCH  23  24
ATOM     24  C   UNL     1       1.385  50.892  28.313  1.00  0.00    -0.000 C 
BRANCH  24  25
ATOM     25  C   UNL     1       1.063  50.213  26.971  1.00  0.00    -0.000 C 
BRANCH  25  26
ATOM     26  C   UNL     1       2.290  49.537  26.330  1.00  0.00    -0.000 C 
BRANCH  26  27
ATOM     27  C   UNL     1       2.550  49.907  24.858  1.00  0.00    -0.000 C 
BRANCH  27  28
ATOM     28  C   UNL     1       1.587  49.211  23.885  1.00  0.00    -0.000 C 
BRANCH  28  29
ATOM     29  C   UNL     1       0.865  50.232  22.997  1.00  0.00    -0.000 C 
BRANCH  29  30
ATOM     30  C   UNL     1      -0.549  50.518  23.525  1.00  0.00    -0.000 C 
BRANCH  30  31
ATOM     31  C   UNL     1      -0.637  51.849  24.286  1.00  0.00    -0.003 C 
ATOM     32  C   UNL     1       0.429  52.853  23.848  1.00  0.00     0.004 C 
ENDBRANCH  30  31
ENDBRANCH  29  30
ENDBRANCH  28  29
ENDBRANCH  27  28
ENDBRANCH  26  27
ENDBRANCH  25  26
ENDBRANCH  24  25
ENDBRANCH  23  24
ENDBRANCH  22  23
ENDBRANCH  21  22
ENDBRANCH  20  21
ENDBRANCH  19  20
ENDBRANCH  18  19
ENDBRANCH   1  18
TORSDOF 28
ENDMDL
