MODEL 1
REMARK VINA RESULT:    -4.373      0.000      0.000
REMARK INTER + INTRA:          -7.346
REMARK INTER:                  -5.396
REMARK INTRA:                  -1.950
REMARK UNBOUND:                -1.950
REMARK SMILES C=C(CCC=C(C)C)[C@H]1CC=C(C)CC1
REMARK SMILES IDX 3 1 2 2 1 3 9 4 13 5 12 6 11 7 14 8 10 9 15 10 4 11 5 12
REMARK SMILES IDX 6 13 7 14 8 15
REMARK H PARENT
REMARK Flexibility Score: inf
ROOT
ATOM      1  C   UNL     1     133.216 136.286 132.795  1.00  0.00     0.035 C 
ENDROOT
BRANCH   1   2
ATOM      2  C   UNL     1     134.400 135.384 132.530  1.00  0.00    -0.074 C 
ATOM      3  C   UNL     1     135.397 135.345 133.435  1.00  0.00     0.008 C 
BRANCH   2   4
ATOM      4  C   UNL     1     134.425 134.549 131.251  1.00  0.00     0.018 C 
ATOM      5  C   UNL     1     134.432 137.504 127.960  1.00  0.00     0.039 C 
ATOM      6  C   UNL     1     134.442 136.422 129.004  1.00  0.00    -0.077 C 
ATOM      7  C   UNL     1     133.277 135.839 129.354  1.00  0.00    -0.027 C 
ATOM      8  C   UNL     1     135.737 136.114 129.726  1.00  0.00     0.031 C 
ATOM      9  C   UNL     1     133.172 134.722 130.365  1.00  0.00     0.035 C 
ATOM     10  C   UNL     1     135.713 134.758 130.438  1.00  0.00     0.013 C 
ENDBRANCH   2   4
ENDBRANCH   1   2
BRANCH   1  11
ATOM     11  C   UNL     1     133.681 137.689 133.199  1.00  0.00     0.032 C 
BRANCH  11  12
ATOM     12  C   UNL     1     133.610 138.636 132.026  1.00  0.00    -0.028 C 
ATOM     13  C   UNL     1     134.678 139.277 131.500  1.00  0.00    -0.080 C 
ATOM     14  C   UNL     1     134.488 140.223 130.341  1.00  0.00     0.039 C 
ATOM     15  C   UNL     1     136.081 139.044 132.002  1.00  0.00     0.039 C 
ENDBRANCH  11  12
ENDBRANCH   1  11
TORSDOF 4
ENDMDL
MODEL 2
REMARK VINA RESULT:    -4.333      2.519      4.509
REMARK INTER + INTRA:          -7.297
REMARK INTER:                  -5.283
REMARK INTRA:                  -2.013
REMARK UNBOUND:                -1.950
REMARK SMILES C=C(CCC=C(C)C)[C@H]1CC=C(C)CC1
REMARK SMILES IDX 3 1 2 2 1 3 9 4 13 5 12 6 11 7 14 8 10 9 15 10 4 11 5 12
REMARK SMILES IDX 6 13 7 14 8 15
REMARK H PARENT
REMARK Flexibility Score: inf
ROOT
ATOM      1  C   UNL     1     136.516 140.391 132.956  1.00  0.00     0.035 C 
ENDROOT
BRANCH   1   2
ATOM      2  C   UNL     1     135.549 139.308 132.530  1.00  0.00    -0.074 C 
ATOM      3  C   UNL     1     135.464 138.190 133.276  1.00  0.00     0.008 C 
BRANCH   2   4
ATOM      4  C   UNL     1     134.705 139.519 131.275  1.00  0.00     0.018 C 
ATOM      5  C   UNL     1     137.499 138.903 127.903  1.00  0.00     0.039 C 
ATOM      6  C   UNL     1     136.470 139.121 128.977  1.00  0.00    -0.077 C 
ATOM      7  C   UNL     1     136.189 140.381 129.369  1.00  0.00    -0.027 C 
ATOM      8  C   UNL     1     135.877 137.917 129.677  1.00  0.00     0.031 C 
ATOM      9  C   UNL     1     135.153 140.720 130.413  1.00  0.00     0.035 C 
ATOM     10  C   UNL     1     134.583 138.242 130.428  1.00  0.00     0.013 C 
ENDBRANCH   2   4
ENDBRANCH   1   2
BRANCH   1  11
ATOM     11  C   UNL     1     137.905 139.804 133.227  1.00  0.00     0.032 C 
BRANCH  11  12
ATOM     12  C   UNL     1     138.813 140.005 132.038  1.00  0.00    -0.028 C 
ATOM     13  C   UNL     1     139.368 138.999 131.326  1.00  0.00    -0.080 C 
ATOM     14  C   UNL     1     140.283 139.315 130.171  1.00  0.00     0.039 C 
ATOM     15  C   UNL     1     139.067 137.549 131.616  1.00  0.00     0.039 C 
ENDBRANCH  11  12
ENDBRANCH   1  11
TORSDOF 4
ENDMDL
MODEL 3
REMARK VINA RESULT:    -4.315      3.788      5.001
REMARK INTER + INTRA:          -7.274
REMARK INTER:                  -5.245
REMARK INTRA:                  -2.029
REMARK UNBOUND:                -1.950
REMARK SMILES C=C(CCC=C(C)C)[C@H]1CC=C(C)CC1
REMARK SMILES IDX 3 1 2 2 1 3 9 4 13 5 12 6 11 7 14 8 10 9 15 10 4 11 5 12
REMARK SMILES IDX 6 13 7 14 8 15
REMARK H PARENT
REMARK Flexibility Score: inf
ROOT
ATOM      1  C   UNL     1     138.099 136.677 132.883  1.00  0.00     0.035 C 
ENDROOT
BRANCH   1   2
ATOM      2  C   UNL     1     139.559 137.073 132.863  1.00  0.00    -0.074 C 
ATOM      3  C   UNL     1     140.047 137.788 133.894  1.00  0.00     0.008 C 
BRANCH   2   4
ATOM      4  C   UNL     1     140.426 136.649 131.679  1.00  0.00     0.018 C 
ATOM      5  C   UNL     1     139.290 139.383 128.394  1.00  0.00     0.039 C 
ATOM      6  C   UNL     1     139.753 138.414 129.447  1.00  0.00    -0.077 C 
ATOM      7  C   UNL     1     139.212 137.179 129.483  1.00  0.00    -0.027 C 
ATOM      8  C   UNL     1     140.713 138.896 130.513  1.00  0.00     0.031 C 
ATOM      9  C   UNL     1     139.622 136.115 130.473  1.00  0.00     0.035 C 
ATOM     10  C   UNL     1     141.410 137.749 131.249  1.00  0.00     0.013 C 
ENDBRANCH   2   4
ENDBRANCH   1   2
BRANCH   1  11
ATOM     11  C   UNL     1     137.216 137.874 133.252  1.00  0.00     0.032 C 
BRANCH  11  12
ATOM     12  C   UNL     1     136.680 138.547 132.012  1.00  0.00    -0.028 C 
ATOM     13  C   UNL     1     137.006 139.802 131.628  1.00  0.00    -0.080 C 
ATOM     14  C   UNL     1     136.390 140.387 130.382  1.00  0.00     0.039 C 
ATOM     15  C   UNL     1     138.012 140.637 132.380  1.00  0.00     0.039 C 
ENDBRANCH  11  12
ENDBRANCH   1  11
TORSDOF 4
ENDMDL
MODEL 4
REMARK VINA RESULT:    -4.283      1.610      3.888
REMARK INTER + INTRA:          -7.234
REMARK INTER:                  -5.226
REMARK INTRA:                  -2.008
REMARK UNBOUND:                -1.950
REMARK SMILES C=C(CCC=C(C)C)[C@H]1CC=C(C)CC1
REMARK SMILES IDX 3 1 2 2 1 3 9 4 13 5 12 6 11 7 14 8 10 9 15 10 4 11 5 12
REMARK SMILES IDX 6 13 7 14 8 15
REMARK H PARENT
REMARK Flexibility Score: inf
ROOT
ATOM      1  C   UNL     1     134.568 137.693 129.886  1.00  0.00     0.035 C 
ENDROOT
BRANCH   1   2
ATOM      2  C   UNL     1     133.914 137.771 131.248  1.00  0.00    -0.074 C 
ATOM      3  C   UNL     1     134.148 138.853 132.015  1.00  0.00     0.008 C 
BRANCH   2   4
ATOM      4  C   UNL     1     133.012 136.626 131.704  1.00  0.00     0.018 C 
ATOM      5  C   UNL     1     135.740 133.200 132.320  1.00  0.00     0.039 C 
ATOM      6  C   UNL     1     134.733 134.304 132.150  1.00  0.00    -0.077 C 
ATOM      7  C   UNL     1     134.037 134.383 130.998  1.00  0.00    -0.027 C 
ATOM      8  C   UNL     1     134.627 135.368 133.222  1.00  0.00     0.031 C 
ATOM      9  C   UNL     1     132.980 135.428 130.730  1.00  0.00     0.035 C 
ATOM     10  C   UNL     1     133.324 136.168 133.138  1.00  0.00     0.013 C 
ENDBRANCH   2   4
ENDBRANCH   1   2
BRANCH   1  11
ATOM     11  C   UNL     1     136.048 138.080 129.971  1.00  0.00     0.032 C 
BRANCH  11  12
ATOM     12  C   UNL     1     136.914 136.855 130.137  1.00  0.00    -0.028 C 
ATOM     13  C   UNL     1     137.638 136.580 131.245  1.00  0.00    -0.080 C 
ATOM     14  C   UNL     1     138.491 135.338 131.293  1.00  0.00     0.039 C 
ATOM     15  C   UNL     1     137.591 137.456 132.473  1.00  0.00     0.039 C 
ENDBRANCH  11  12
ENDBRANCH   1  11
TORSDOF 4
ENDMDL
MODEL 5
REMARK VINA RESULT:    -4.279      1.496      4.201
REMARK INTER + INTRA:          -7.230
REMARK INTER:                  -5.232
REMARK INTRA:                  -1.997
REMARK UNBOUND:                -1.950
REMARK SMILES C=C(CCC=C(C)C)[C@H]1CC=C(C)CC1
REMARK SMILES IDX 3 1 2 2 1 3 9 4 13 5 12 6 11 7 14 8 10 9 15 10 4 11 5 12
REMARK SMILES IDX 6 13 7 14 8 15
REMARK H PARENT
REMARK Flexibility Score: inf
ROOT
ATOM      1  C   UNL     1     136.596 137.889 132.458  1.00  0.00     0.035 C 
ENDROOT
BRANCH   1   2
ATOM      2  C   UNL     1     135.243 138.353 132.952  1.00  0.00    -0.074 C 
ATOM      3  C   UNL     1     135.054 138.493 134.278  1.00  0.00     0.008 C 
BRANCH   2   4
ATOM      4  C   UNL     1     134.143 138.647 131.934  1.00  0.00     0.018 C 
ATOM      5  C   UNL     1     133.133 134.717 130.176  1.00  0.00     0.039 C 
ATOM      6  C   UNL     1     133.395 136.095 130.717  1.00  0.00    -0.077 C 
ATOM      7  C   UNL     1     134.227 136.915 130.043  1.00  0.00    -0.027 C 
ATOM      8  C   UNL     1     132.823 136.472 132.067  1.00  0.00     0.031 C 
ATOM      9  C   UNL     1     134.538 138.329 130.475  1.00  0.00     0.035 C 
ATOM     10  C   UNL     1     132.807 137.984 132.305  1.00  0.00     0.013 C 
ENDBRANCH   2   4
ENDBRANCH   1   2
BRANCH   1  11
ATOM     11  C   UNL     1     137.102 136.707 133.291  1.00  0.00     0.032 C 
BRANCH  11  12
ATOM     12  C   UNL     1     136.742 135.396 132.636  1.00  0.00    -0.028 C 
ATOM     13  C   UNL     1     135.877 134.498 133.158  1.00  0.00    -0.080 C 
ATOM     14  C   UNL     1     135.609 133.205 132.430  1.00  0.00     0.039 C 
ATOM     15  C   UNL     1     135.121 134.760 134.437  1.00  0.00     0.039 C 
ENDBRANCH  11  12
ENDBRANCH   1  11
TORSDOF 4
ENDMDL
MODEL 6
REMARK VINA RESULT:    -4.278      2.657      4.755
REMARK INTER + INTRA:          -7.228
REMARK INTER:                  -5.236
REMARK INTRA:                  -1.992
REMARK UNBOUND:                -1.950
REMARK SMILES C=C(CCC=C(C)C)[C@H]1CC=C(C)CC1
REMARK SMILES IDX 3 1 2 2 1 3 9 4 13 5 12 6 11 7 14 8 10 9 15 10 4 11 5 12
REMARK SMILES IDX 6 13 7 14 8 15
REMARK H PARENT
REMARK Flexibility Score: inf
ROOT
ATOM      1  C   UNL     1     137.931 137.276 132.626  1.00  0.00     0.035 C 
ENDROOT
BRANCH   1   2
ATOM      2  C   UNL     1     138.272 138.676 133.085  1.00  0.00    -0.074 C 
ATOM      3  C   UNL     1     138.309 138.931 134.407  1.00  0.00     0.008 C 
BRANCH   2   4
ATOM      4  C   UNL     1     138.563 139.750 132.038  1.00  0.00     0.018 C 
ATOM      5  C   UNL     1     134.708 140.404 129.973  1.00  0.00     0.039 C 
ATOM      6  C   UNL     1     136.059 140.264 130.617  1.00  0.00    -0.077 C 
ATOM      7  C   UNL     1     136.979 139.463 130.041  1.00  0.00    -0.027 C 
ATOM      8  C   UNL     1     136.300 140.918 131.961  1.00  0.00     0.031 C 
ATOM      9  C   UNL     1     138.376 139.272 130.582  1.00  0.00     0.035 C 
ATOM     10  C   UNL     1     137.787 141.051 132.300  1.00  0.00     0.013 C 
ENDBRANCH   2   4
ENDBRANCH   1   2
BRANCH   1  11
ATOM     11  C   UNL     1     136.705 136.742 133.373  1.00  0.00     0.032 C 
BRANCH  11  12
ATOM     12  C   UNL     1     135.435 137.092 132.638  1.00  0.00    -0.028 C 
ATOM     13  C   UNL     1     134.459 137.883 133.139  1.00  0.00    -0.080 C 
ATOM     14  C   UNL     1     133.217 138.146 132.326  1.00  0.00     0.039 C 
ATOM     15  C   UNL     1     134.584 138.560 134.481  1.00  0.00     0.039 C 
ENDBRANCH  11  12
ENDBRANCH   1  11
TORSDOF 4
ENDMDL
MODEL 7
REMARK VINA RESULT:    -4.274      2.921      5.572
REMARK INTER + INTRA:          -7.224
REMARK INTER:                  -5.228
REMARK INTRA:                  -1.996
REMARK UNBOUND:                -1.950
REMARK SMILES C=C(CCC=C(C)C)[C@H]1CC=C(C)CC1
REMARK SMILES IDX 3 1 2 2 1 3 9 4 13 5 12 6 11 7 14 8 10 9 15 10 4 11 5 12
REMARK SMILES IDX 6 13 7 14 8 15
REMARK H PARENT
REMARK Flexibility Score: inf
ROOT
ATOM      1  C   UNL     1     136.230 137.925 129.492  1.00  0.00     0.035 C 
ENDROOT
BRANCH   1   2
ATOM      2  C   UNL     1     136.135 139.425 129.322  1.00  0.00    -0.074 C 
ATOM      3  C   UNL     1     136.916 140.022 128.401  1.00  0.00     0.008 C 
BRANCH   2   4
ATOM      4  C   UNL     1     135.160 140.210 130.198  1.00  0.00     0.018 C 
ATOM      5  C   UNL     1     136.679 139.721 134.322  1.00  0.00     0.039 C 
ATOM      6  C   UNL     1     136.088 139.955 132.959  1.00  0.00    -0.077 C 
ATOM      7  C   UNL     1     135.073 139.172 132.542  1.00  0.00    -0.027 C 
ATOM      8  C   UNL     1     136.738 140.974 132.047  1.00  0.00     0.031 C 
ATOM      9  C   UNL     1     134.383 139.338 131.208  1.00  0.00     0.035 C 
ATOM     10  C   UNL     1     135.828 141.407 130.894  1.00  0.00     0.013 C 
ENDBRANCH   2   4
ENDBRANCH   1   2
BRANCH   1  11
ATOM     11  C   UNL     1     137.694 137.479 129.567  1.00  0.00     0.032 C 
BRANCH  11  12
ATOM     12  C   UNL     1     138.169 137.437 130.999  1.00  0.00    -0.028 C 
ATOM     13  C   UNL     1     139.146 138.227 131.499  1.00  0.00    -0.080 C 
ATOM     14  C   UNL     1     139.560 138.083 132.942  1.00  0.00     0.039 C 
ATOM     15  C   UNL     1     139.816 139.297 130.673  1.00  0.00     0.039 C 
ENDBRANCH  11  12
ENDBRANCH   1  11
TORSDOF 4
ENDMDL
MODEL 8
REMARK VINA RESULT:    -4.274      3.819      6.638
REMARK INTER + INTRA:          -7.224
REMARK INTER:                  -5.223
REMARK INTRA:                  -2.001
REMARK UNBOUND:                -1.950
REMARK SMILES C=C(CCC=C(C)C)[C@H]1CC=C(C)CC1
REMARK SMILES IDX 3 1 2 2 1 3 9 4 13 5 12 6 11 7 14 8 10 9 15 10 4 11 5 12
REMARK SMILES IDX 6 13 7 14 8 15
REMARK H PARENT
REMARK Flexibility Score: inf
ROOT
ATOM      1  C   UNL     1     137.856 137.604 129.586  1.00  0.00     0.035 C 
ENDROOT
BRANCH   1   2
ATOM      2  C   UNL     1     139.354 137.705 129.396  1.00  0.00    -0.074 C 
ATOM      3  C   UNL     1     139.938 136.943 128.452  1.00  0.00     0.008 C 
BRANCH   2   4
ATOM      4  C   UNL     1     140.149 138.666 130.278  1.00  0.00     0.018 C 
ATOM      5  C   UNL     1     139.803 137.016 134.367  1.00  0.00     0.039 C 
ATOM      6  C   UNL     1     139.989 137.651 133.016  1.00  0.00    -0.077 C 
ATOM      7  C   UNL     1     139.180 138.666 132.653  1.00  0.00    -0.027 C 
ATOM      8  C   UNL     1     140.989 137.044 132.055  1.00  0.00     0.031 C 
ATOM      9  C   UNL     1     139.296 139.398 131.337  1.00  0.00     0.035 C 
ATOM     10  C   UNL     1     141.376 137.996 130.919  1.00  0.00     0.013 C 
ENDBRANCH   2   4
ENDBRANCH   1   2
BRANCH   1  11
ATOM     11  C   UNL     1     137.413 136.139 129.645  1.00  0.00     0.032 C 
BRANCH  11  12
ATOM     12  C   UNL     1     137.392 135.642 131.069  1.00  0.00    -0.028 C 
ATOM     13  C   UNL     1     138.190 134.658 131.544  1.00  0.00    -0.080 C 
ATOM     14  C   UNL     1     138.066 134.222 132.981  1.00  0.00     0.039 C 
ATOM     15  C   UNL     1     139.248 134.002 130.692  1.00  0.00     0.039 C 
ENDBRANCH  11  12
ENDBRANCH   1  11
TORSDOF 4
ENDMDL
MODEL 9
REMARK VINA RESULT:    -4.255      2.745      4.387
REMARK INTER + INTRA:          -7.200
REMARK INTER:                  -5.191
REMARK INTRA:                  -2.009
REMARK UNBOUND:                -1.950
REMARK SMILES C=C(CCC=C(C)C)[C@H]1CC=C(C)CC1
REMARK SMILES IDX 3 1 2 2 1 3 9 4 13 5 12 6 11 7 14 8 10 9 15 10 4 11 5 12
REMARK SMILES IDX 6 13 7 14 8 15
REMARK H PARENT
REMARK Flexibility Score: inf
ROOT
ATOM      1  C   UNL     1     135.752 136.485 132.618  1.00  0.00     0.035 C 
ENDROOT
BRANCH   1   2
ATOM      2  C   UNL     1     135.371 135.086 133.046  1.00  0.00    -0.074 C 
ATOM      3  C   UNL     1     135.264 134.820 134.362  1.00  0.00     0.008 C 
BRANCH   2   4
ATOM      4  C   UNL     1     135.121 134.025 131.976  1.00  0.00     0.018 C 
ATOM      5  C   UNL     1     139.088 133.258 130.179  1.00  0.00     0.039 C 
ATOM      6  C   UNL     1     137.700 133.438 130.729  1.00  0.00    -0.077 C 
ATOM      7  C   UNL     1     136.848 134.269 130.095  1.00  0.00    -0.027 C 
ATOM      8  C   UNL     1     137.347 132.787 132.049  1.00  0.00     0.031 C 
ATOM      9  C   UNL     1     135.423 134.502 130.538  1.00  0.00     0.035 C 
ATOM     10  C   UNL     1     135.836 132.699 132.284  1.00  0.00     0.013 C 
ENDBRANCH   2   4
ENDBRANCH   1   2
BRANCH   1  11
ATOM     11  C   UNL     1     136.949 136.995 133.427  1.00  0.00     0.032 C 
BRANCH  11  12
ATOM     12  C   UNL     1     138.245 136.683 132.721  1.00  0.00    -0.028 C 
ATOM     13  C   UNL     1     139.195 135.851 133.205  1.00  0.00    -0.080 C 
ATOM     14  C   UNL     1     140.466 135.631 132.426  1.00  0.00     0.039 C 
ATOM     15  C   UNL     1     139.010 135.084 134.491  1.00  0.00     0.039 C 
ENDBRANCH  11  12
ENDBRANCH   1  11
TORSDOF 4
ENDMDL
