MODEL 1
REMARK VINA RESULT:    -4.128      0.000      0.000
REMARK INTER + INTRA:          -6.931
REMARK INTER:                  -6.058
REMARK INTRA:                  -0.873
REMARK UNBOUND:                -0.873
REMARK SMILES O=C([O-])CCCCCCCC(=O)[O-]
REMARK SMILES IDX 7 1 6 2 5 3 4 4 2 5 1 6 3 7 8 8 9 9 10 10 11 11 12 12 13 13
REMARK H PARENT
REMARK Flexibility Score: inf
ROOT
ATOM      1  C   UNL     1      -3.543  60.513  47.604  1.00  0.00     0.000 C 
ENDROOT
BRANCH   1   2
ATOM      2  C   UNL     1      -4.108  59.804  46.356  1.00  0.00     0.000 C 
BRANCH   2   3
ATOM      3  C   UNL     1      -3.138  59.713  45.165  1.00  0.00     0.006 C 
BRANCH   3   4
ATOM      4  C   UNL     1      -1.666  59.780  45.590  1.00  0.00     0.053 C 
BRANCH   4   5
ATOM      5  C   UNL     1      -0.848  58.817  44.790  1.00  0.00     0.041 C 
ATOM      6  O   UNL     1      -1.377  57.779  44.314  1.00  0.00    -0.550 OA
ATOM      7  O   UNL     1       0.512  59.040  44.612  1.00  0.00    -0.550 OA
ENDBRANCH   4   5
ENDBRANCH   3   4
ENDBRANCH   2   3
ENDBRANCH   1   2
BRANCH   1   8
ATOM      8  C   UNL     1      -3.461  59.640  48.872  1.00  0.00     0.000 C 
BRANCH   8   9
ATOM      9  C   UNL     1      -2.233  58.714  48.946  1.00  0.00     0.006 C 
BRANCH   9  10
ATOM     10  C   UNL     1      -2.610  57.227  48.966  1.00  0.00     0.053 C 
BRANCH  10  11
ATOM     11  C   UNL     1      -2.356  56.607  47.629  1.00  0.00     0.041 C 
ATOM     12  O   UNL     1      -3.303  56.447  46.815  1.00  0.00    -0.550 OA
ATOM     13  O   UNL     1      -1.065  56.249  47.263  1.00  0.00    -0.550 OA
ENDBRANCH  10  11
ENDBRANCH   9  10
ENDBRANCH   8   9
ENDBRANCH   1   8
TORSDOF 8
ENDMDL
MODEL 2
REMARK VINA RESULT:    -4.098      0.090      3.817
REMARK INTER + INTRA:          -6.887
REMARK INTER:                  -6.046
REMARK INTRA:                  -0.841
REMARK UNBOUND:                -0.873
REMARK SMILES O=C([O-])CCCCCCCC(=O)[O-]
REMARK SMILES IDX 7 1 6 2 5 3 4 4 2 5 1 6 3 7 8 8 9 9 10 10 11 11 12 12 13 13
REMARK H PARENT
REMARK Flexibility Score: inf
ROOT
ATOM      1  C   UNL     1      -3.552  60.470  47.629  1.00  0.00     0.000 C 
ENDROOT
BRANCH   1   2
ATOM      2  C   UNL     1      -3.427  59.605  48.899  1.00  0.00     0.000 C 
BRANCH   2   3
ATOM      3  C   UNL     1      -2.206  58.668  48.930  1.00  0.00     0.006 C 
BRANCH   3   4
ATOM      4  C   UNL     1      -2.595  57.185  48.962  1.00  0.00     0.053 C 
BRANCH   4   5
ATOM      5  C   UNL     1      -2.375  56.558  47.622  1.00  0.00     0.041 C 
ATOM      6  O   UNL     1      -1.209  56.272  47.241  1.00  0.00    -0.550 OA
ATOM      7  O   UNL     1      -3.451  56.335  46.773  1.00  0.00    -0.550 OA
ENDBRANCH   4   5
ENDBRANCH   3   4
ENDBRANCH   2   3
ENDBRANCH   1   2
BRANCH   1   8
ATOM      8  C   UNL     1      -4.090  59.735  46.385  1.00  0.00     0.000 C 
BRANCH   8   9
ATOM      9  C   UNL     1      -3.136  59.718  45.177  1.00  0.00     0.006 C 
BRANCH   9  10
ATOM     10  C   UNL     1      -1.660  59.820  45.583  1.00  0.00     0.053 C 
BRANCH  10  11
ATOM     11  C   UNL     1      -0.836  58.847  44.801  1.00  0.00     0.041 C 
ATOM     12  O   UNL     1       0.401  59.033  44.662  1.00  0.00    -0.550 OA
ATOM     13  O   UNL     1      -1.425  57.708  44.268  1.00  0.00    -0.550 OA
ENDBRANCH  10  11
ENDBRANCH   9  10
ENDBRANCH   8   9
ENDBRANCH   1   8
TORSDOF 8
ENDMDL
MODEL 3
REMARK VINA RESULT:    -4.081      1.831      3.715
REMARK INTER + INTRA:          -6.863
REMARK INTER:                  -6.109
REMARK INTRA:                  -0.753
REMARK UNBOUND:                -0.873
REMARK SMILES O=C([O-])CCCCCCCC(=O)[O-]
REMARK SMILES IDX 7 1 6 2 5 3 4 4 2 5 1 6 3 7 8 8 9 9 10 10 11 11 12 12 13 13
REMARK H PARENT
REMARK Flexibility Score: inf
ROOT
ATOM      1  C   UNL     1      -2.181  58.831  48.901  1.00  0.00     0.000 C 
ENDROOT
BRANCH   1   2
ATOM      2  C   UNL     1      -2.565  57.346  49.063  1.00  0.00     0.000 C 
BRANCH   2   3
ATOM      3  C   UNL     1      -2.185  56.443  47.876  1.00  0.00     0.006 C 
BRANCH   3   4
ATOM      4  C   UNL     1      -3.131  56.604  46.680  1.00  0.00     0.053 C 
BRANCH   4   5
ATOM      5  C   UNL     1      -2.476  57.408  45.601  1.00  0.00     0.041 C 
ATOM      6  O   UNL     1      -3.173  57.958  44.709  1.00  0.00    -0.550 OA
ATOM      7  O   UNL     1      -1.091  57.508  45.552  1.00  0.00    -0.550 OA
ENDBRANCH   4   5
ENDBRANCH   3   4
ENDBRANCH   2   3
ENDBRANCH   1   2
BRANCH   1   8
ATOM      8  C   UNL     1      -3.364  59.820  48.927  1.00  0.00     0.000 C 
BRANCH   8   9
ATOM      9  C   UNL     1      -4.019  60.084  47.559  1.00  0.00     0.006 C 
BRANCH   9  10
ATOM     10  C   UNL     1      -3.654  61.457  46.981  1.00  0.00     0.053 C 
BRANCH  10  11
ATOM     11  C   UNL     1      -2.800  61.300  45.763  1.00  0.00     0.041 C 
ATOM     12  O   UNL     1      -3.240  61.640  44.633  1.00  0.00    -0.550 OA
ATOM     13  O   UNL     1      -1.501  60.823  45.881  1.00  0.00    -0.550 OA
ENDBRANCH  10  11
ENDBRANCH   9  10
ENDBRANCH   8   9
ENDBRANCH   1   8
TORSDOF 8
ENDMDL
MODEL 4
REMARK VINA RESULT:    -3.995     13.226     14.384
REMARK INTER + INTRA:          -6.736
REMARK INTER:                  -6.233
REMARK INTRA:                  -0.504
REMARK UNBOUND:                -0.873
REMARK SMILES O=C([O-])CCCCCCCC(=O)[O-]
REMARK SMILES IDX 7 1 6 2 5 3 4 4 2 5 1 6 3 7 8 8 9 9 10 10 11 11 12 12 13 13
REMARK H PARENT
REMARK Flexibility Score: inf
ROOT
ATOM      1  C   UNL     1       5.702  59.604  57.351  1.00  0.00     0.000 C 
ENDROOT
BRANCH   1   2
ATOM      2  C   UNL     1       5.676  59.639  58.892  1.00  0.00     0.000 C 
BRANCH   2   3
ATOM      3  C   UNL     1       5.477  61.035  59.508  1.00  0.00     0.006 C 
BRANCH   3   4
ATOM      4  C   UNL     1       5.302  62.132  58.451  1.00  0.00     0.053 C 
BRANCH   4   5
ATOM      5  C   UNL     1       3.865  62.534  58.349  1.00  0.00     0.041 C 
ATOM      6  O   UNL     1       2.959  61.659  58.360  1.00  0.00    -0.550 OA
ATOM      7  O   UNL     1       3.527  63.872  58.192  1.00  0.00    -0.550 OA
ENDBRANCH   4   5
ENDBRANCH   3   4
ENDBRANCH   2   3
ENDBRANCH   1   2
BRANCH   1   8
ATOM      8  C   UNL     1       6.644  58.550  56.735  1.00  0.00     0.000 C 
BRANCH   8   9
ATOM      9  C   UNL     1       7.866  59.124  55.994  1.00  0.00     0.006 C 
BRANCH   9  10
ATOM     10  C   UNL     1       7.959  60.652  56.096  1.00  0.00     0.053 C 
BRANCH  10  11
ATOM     11  C   UNL     1       8.541  61.224  54.843  1.00  0.00     0.041 C 
ATOM     12  O   UNL     1       7.977  61.026  53.735  1.00  0.00    -0.550 OA
ATOM     13  O   UNL     1       9.680  62.016  54.903  1.00  0.00    -0.550 OA
ENDBRANCH  10  11
ENDBRANCH   9  10
ENDBRANCH   8   9
ENDBRANCH   1   8
TORSDOF 8
ENDMDL
MODEL 5
REMARK VINA RESULT:    -3.941      1.841      2.460
REMARK INTER + INTRA:          -6.657
REMARK INTER:                  -5.951
REMARK INTRA:                  -0.706
REMARK UNBOUND:                -0.873
REMARK SMILES O=C([O-])CCCCCCCC(=O)[O-]
REMARK SMILES IDX 7 1 6 2 5 3 4 4 2 5 1 6 3 7 8 8 9 9 10 10 11 11 12 12 13 13
REMARK H PARENT
REMARK Flexibility Score: inf
ROOT
ATOM      1  C   UNL     1      -3.481  58.350  45.227  1.00  0.00     0.000 C 
ENDROOT
BRANCH   1   2
ATOM      2  C   UNL     1      -3.162  59.801  45.640  1.00  0.00     0.000 C 
BRANCH   2   3
ATOM      3  C   UNL     1      -1.681  60.202  45.513  1.00  0.00     0.006 C 
BRANCH   3   4
ATOM      4  C   UNL     1      -0.820  59.104  44.877  1.00  0.00     0.053 C 
BRANCH   4   5
ATOM      5  C   UNL     1       0.578  59.593  44.667  1.00  0.00     0.041 C 
ATOM      6  O   UNL     1       1.337  59.010  43.849  1.00  0.00    -0.550 OA
ATOM      7  O   UNL     1       1.060  60.663  45.411  1.00  0.00    -0.550 OA
ENDBRANCH   4   5
ENDBRANCH   3   4
ENDBRANCH   2   3
ENDBRANCH   1   2
BRANCH   1   8
ATOM      8  C   UNL     1      -4.121  57.482  46.329  1.00  0.00     0.000 C 
BRANCH   8   9
ATOM      9  C   UNL     1      -3.278  56.273  46.774  1.00  0.00     0.006 C 
BRANCH   9  10
ATOM     10  C   UNL     1      -1.985  56.682  47.491  1.00  0.00     0.053 C 
BRANCH  10  11
ATOM     11  C   UNL     1      -2.299  57.322  48.806  1.00  0.00     0.041 C 
ATOM     12  O   UNL     1      -2.647  56.615  49.788  1.00  0.00    -0.550 OA
ATOM     13  O   UNL     1      -2.159  58.695  48.962  1.00  0.00    -0.550 OA
ENDBRANCH  10  11
ENDBRANCH   9  10
ENDBRANCH   8   9
ENDBRANCH   1   8
TORSDOF 8
ENDMDL
MODEL 6
REMARK VINA RESULT:    -3.927      1.964      2.906
REMARK INTER + INTRA:          -6.637
REMARK INTER:                  -5.963
REMARK INTRA:                  -0.674
REMARK UNBOUND:                -0.873
REMARK SMILES O=C([O-])CCCCCCCC(=O)[O-]
REMARK SMILES IDX 7 1 6 2 5 3 4 4 2 5 1 6 3 7 8 8 9 9 10 10 11 11 12 12 13 13
REMARK H PARENT
REMARK Flexibility Score: inf
ROOT
ATOM      1  C   UNL     1      -2.308  58.872  48.884  1.00  0.00     0.000 C 
ENDROOT
BRANCH   1   2
ATOM      2  C   UNL     1      -3.613  59.632  48.569  1.00  0.00     0.000 C 
BRANCH   2   3
ATOM      3  C   UNL     1      -3.435  60.908  47.727  1.00  0.00     0.006 C 
BRANCH   3   4
ATOM      4  C   UNL     1      -4.050  60.787  46.327  1.00  0.00     0.053 C 
BRANCH   4   5
ATOM      5  C   UNL     1      -3.102  61.310  45.294  1.00  0.00     0.041 C 
ATOM      6  O   UNL     1      -1.898  60.942  45.294  1.00  0.00    -0.550 OA
ATOM      7  O   UNL     1      -3.536  62.244  44.362  1.00  0.00    -0.550 OA
ENDBRANCH   4   5
ENDBRANCH   3   4
ENDBRANCH   2   3
ENDBRANCH   1   2
BRANCH   1   8
ATOM      8  C   UNL     1      -2.471  57.355  49.103  1.00  0.00     0.000 C 
BRANCH   8   9
ATOM      9  C   UNL     1      -2.108  56.481  47.888  1.00  0.00     0.006 C 
BRANCH   9  10
ATOM     10  C   UNL     1      -3.128  56.595  46.748  1.00  0.00     0.053 C 
BRANCH  10  11
ATOM     11  C   UNL     1      -2.553  57.375  45.609  1.00  0.00     0.041 C 
ATOM     12  O   UNL     1      -3.300  57.787  44.683  1.00  0.00    -0.550 OA
ATOM     13  O   UNL     1      -1.201  57.691  45.595  1.00  0.00    -0.550 OA
ENDBRANCH  10  11
ENDBRANCH   9  10
ENDBRANCH   8   9
ENDBRANCH   1   8
TORSDOF 8
ENDMDL
MODEL 7
REMARK VINA RESULT:    -3.883      3.020      3.796
REMARK INTER + INTRA:          -6.572
REMARK INTER:                  -5.965
REMARK INTRA:                  -0.607
REMARK UNBOUND:                -0.873
REMARK SMILES O=C([O-])CCCCCCCC(=O)[O-]
REMARK SMILES IDX 7 1 6 2 5 3 4 4 2 5 1 6 3 7 8 8 9 9 10 10 11 11 12 12 13 13
REMARK H PARENT
REMARK Flexibility Score: inf
ROOT
ATOM      1  C   UNL     1      -2.160  58.230  45.257  1.00  0.00     0.000 C 
ENDROOT
BRANCH   1   2
ATOM      2  C   UNL     1      -2.261  59.712  45.673  1.00  0.00     0.000 C 
BRANCH   2   3
ATOM      3  C   UNL     1      -3.696  60.247  45.826  1.00  0.00     0.006 C 
BRANCH   3   4
ATOM      4  C   UNL     1      -3.791  61.421  46.808  1.00  0.00     0.053 C 
BRANCH   4   5
ATOM      5  C   UNL     1      -3.994  62.705  46.069  1.00  0.00     0.041 C 
ATOM      6  O   UNL     1      -4.125  62.702  44.816  1.00  0.00    -0.550 OA
ATOM      7  O   UNL     1      -3.989  63.912  46.756  1.00  0.00    -0.550 OA
ENDBRANCH   4   5
ENDBRANCH   3   4
ENDBRANCH   2   3
ENDBRANCH   1   2
BRANCH   1   8
ATOM      8  C   UNL     1      -3.485  57.444  45.304  1.00  0.00     0.000 C 
BRANCH   8   9
ATOM      9  C   UNL     1      -3.696  56.602  46.575  1.00  0.00     0.006 C 
BRANCH   9  10
ATOM     10  C   UNL     1      -2.415  56.449  47.406  1.00  0.00     0.053 C 
BRANCH  10  11
ATOM     11  C   UNL     1      -2.591  57.074  48.754  1.00  0.00     0.041 C 
ATOM     12  O   UNL     1      -2.613  56.355  49.787  1.00  0.00    -0.550 OA
ATOM     13  O   UNL     1      -2.681  58.455  48.874  1.00  0.00    -0.550 OA
ENDBRANCH  10  11
ENDBRANCH   9  10
ENDBRANCH   8   9
ENDBRANCH   1   8
TORSDOF 8
ENDMDL
MODEL 8
REMARK VINA RESULT:    -3.808      1.867      4.844
REMARK INTER + INTRA:          -6.462
REMARK INTER:                  -5.928
REMARK INTRA:                  -0.535
REMARK UNBOUND:                -0.873
REMARK SMILES O=C([O-])CCCCCCCC(=O)[O-]
REMARK SMILES IDX 7 1 6 2 5 3 4 4 2 5 1 6 3 7 8 8 9 9 10 10 11 11 12 12 13 13
REMARK H PARENT
REMARK Flexibility Score: inf
ROOT
ATOM      1  C   UNL     1      -2.750  59.082  45.193  1.00  0.00     0.000 C 
ENDROOT
BRANCH   1   2
ATOM      2  C   UNL     1      -3.341  57.663  45.074  1.00  0.00     0.000 C 
BRANCH   2   3
ATOM      3  C   UNL     1      -4.020  57.132  46.349  1.00  0.00     0.006 C 
BRANCH   3   4
ATOM      4  C   UNL     1      -3.467  57.772  47.628  1.00  0.00     0.053 C 
BRANCH   4   5
ATOM      5  C   UNL     1      -2.535  56.830  48.322  1.00  0.00     0.041 C 
ATOM      6  O   UNL     1      -2.662  56.607  49.555  1.00  0.00    -0.550 OA
ATOM      7  O   UNL     1      -1.496  56.235  47.619  1.00  0.00    -0.550 OA
ENDBRANCH   4   5
ENDBRANCH   3   4
ENDBRANCH   2   3
ENDBRANCH   1   2
BRANCH   1   8
ATOM      8  C   UNL     1      -1.215  59.165  45.068  1.00  0.00     0.000 C 
BRANCH   8   9
ATOM      9  C   UNL     1      -0.519  57.837  44.718  1.00  0.00     0.006 C 
BRANCH   9  10
ATOM     10  C   UNL     1       0.088  57.838  43.309  1.00  0.00     0.053 C 
BRANCH  10  11
ATOM     11  C   UNL     1       1.494  58.347  43.347  1.00  0.00     0.041 C 
ATOM     12  O   UNL     1       2.460  57.545  43.256  1.00  0.00    -0.550 OA
ATOM     13  O   UNL     1       1.737  59.711  43.433  1.00  0.00    -0.550 OA
ENDBRANCH  10  11
ENDBRANCH   9  10
ENDBRANCH   8   9
ENDBRANCH   1   8
TORSDOF 8
ENDMDL
MODEL 9
REMARK VINA RESULT:    -3.803      1.666      4.216
REMARK INTER + INTRA:          -6.455
REMARK INTER:                  -5.814
REMARK INTRA:                  -0.641
REMARK UNBOUND:                -0.873
REMARK SMILES O=C([O-])CCCCCCCC(=O)[O-]
REMARK SMILES IDX 7 1 6 2 5 3 4 4 2 5 1 6 3 7 8 8 9 9 10 10 11 11 12 12 13 13
REMARK H PARENT
REMARK Flexibility Score: inf
ROOT
ATOM      1  C   UNL     1      -3.744  59.243  46.203  1.00  0.00     0.000 C 
ENDROOT
BRANCH   1   2
ATOM      2  C   UNL     1      -3.847  57.783  45.718  1.00  0.00     0.000 C 
BRANCH   2   3
ATOM      3  C   UNL     1      -3.682  56.720  46.819  1.00  0.00     0.006 C 
BRANCH   3   4
ATOM      4  C   UNL     1      -2.279  56.718  47.439  1.00  0.00     0.053 C 
BRANCH   4   5
ATOM      5  C   UNL     1      -2.333  57.202  48.853  1.00  0.00     0.041 C 
ATOM      6  O   UNL     1      -2.677  56.419  49.778  1.00  0.00    -0.550 OA
ATOM      7  O   UNL     1      -2.053  58.530  49.146  1.00  0.00    -0.550 OA
ENDBRANCH   4   5
ENDBRANCH   3   4
ENDBRANCH   2   3
ENDBRANCH   1   2
BRANCH   1   8
ATOM      8  C   UNL     1      -3.404  60.274  45.108  1.00  0.00     0.000 C 
BRANCH   8   9
ATOM      9  C   UNL     1      -2.025  60.943  45.251  1.00  0.00     0.006 C 
BRANCH   9  10
ATOM     10  C   UNL     1      -0.973  60.010  45.863  1.00  0.00     0.053 C 
BRANCH  10  11
ATOM     11  C   UNL     1      -0.266  59.246  44.789  1.00  0.00     0.041 C 
ATOM     12  O   UNL     1       0.367  59.858  43.888  1.00  0.00    -0.550 OA
ATOM     13  O   UNL     1      -0.264  57.858  44.809  1.00  0.00    -0.550 OA
ENDBRANCH  10  11
ENDBRANCH   9  10
ENDBRANCH   8   9
ENDBRANCH   1   8
TORSDOF 8
ENDMDL
