MODEL 1
REMARK VINA RESULT:    -3.554      0.000      0.000
REMARK INTER + INTRA:         -10.679
REMARK INTER:                  -8.124
REMARK INTRA:                  -2.555
REMARK UNBOUND:                -2.555
REMARK SMILES CCCCCCCCCCCCCCCCCCCCCCCC(=O)[O-]
REMARK SMILES IDX 13 1 14 2 15 3 16 4 17 5 18 6 19 7 20 8 21 9 22 10 23 11
REMARK SMILES IDX 24 12 25 13 26 14 12 15 11 16 10 17 9 18 8 19 7 20 6 21 5 22
REMARK SMILES IDX 4 23 3 24 2 25 1 26
REMARK H PARENT
REMARK Flexibility Score: inf
ROOT
ATOM      1  C   UNL     1      15.995  -3.324  14.128  1.00  0.00     0.000 C 
ENDROOT
BRANCH   1   2
ATOM      2  C   UNL     1      15.743  -4.701  14.776  1.00  0.00     0.000 C 
BRANCH   2   3
ATOM      3  C   UNL     1      15.938  -5.909  13.840  1.00  0.00     0.000 C 
BRANCH   3   4
ATOM      4  C   UNL     1      16.392  -5.559  12.409  1.00  0.00     0.000 C 
BRANCH   4   5
ATOM      5  C   UNL     1      15.291  -5.650  11.338  1.00  0.00     0.000 C 
BRANCH   5   6
ATOM      6  C   UNL     1      15.814  -6.168   9.991  1.00  0.00     0.000 C 
BRANCH   6   7
ATOM      7  C   UNL     1      17.255  -6.680  10.119  1.00  0.00     0.000 C 
BRANCH   7   8
ATOM      8  C   UNL     1      18.176  -5.987   9.105  1.00  0.00     0.000 C 
BRANCH   8   9
ATOM      9  C   UNL     1      17.435  -4.979   8.209  1.00  0.00     0.000 C 
BRANCH   9  10
ATOM     10  C   UNL     1      18.343  -4.060   7.371  1.00  0.00     0.006 C 
BRANCH  10  11
ATOM     11  C   UNL     1      19.838  -4.290   7.635  1.00  0.00     0.053 C 
BRANCH  11  12
ATOM     12  C   UNL     1      20.490  -3.032   8.117  1.00  0.00     0.041 C 
ATOM     13  O   UNL     1      19.896  -1.926   8.006  1.00  0.00    -0.550 OA
ATOM     14  O   UNL     1      21.766  -3.075   8.669  1.00  0.00    -0.550 OA
ENDBRANCH  11  12
ENDBRANCH  10  11
ENDBRANCH   9  10
ENDBRANCH   8   9
ENDBRANCH   7   8
ENDBRANCH   6   7
ENDBRANCH   5   6
ENDBRANCH   4   5
ENDBRANCH   3   4
ENDBRANCH   2   3
ENDBRANCH   1   2
BRANCH   1  15
ATOM     15  C   UNL     1      16.396  -2.202  15.106  1.00  0.00     0.000 C 
BRANCH  15  16
ATOM     16  C   UNL     1      16.284  -0.773  14.544  1.00  0.00     0.000 C 
BRANCH  16  17
ATOM     17  C   UNL     1      16.508   0.307  15.615  1.00  0.00     0.000 C 
BRANCH  17  18
ATOM     18  C   UNL     1      15.731   1.601  15.320  1.00  0.00    -0.000 C 
BRANCH  18  19
ATOM     19  C   UNL     1      14.699   1.940  16.410  1.00  0.00    -0.000 C 
BRANCH  19  20
ATOM     20  C   UNL     1      14.560   0.826  17.472  1.00  0.00    -0.000 C 
BRANCH  20  21
ATOM     21  C   UNL     1      13.197   0.113  17.449  1.00  0.00    -0.000 C 
BRANCH  21  22
ATOM     22  C   UNL     1      13.088  -1.047  16.442  1.00  0.00    -0.000 C 
BRANCH  22  23
ATOM     23  C   UNL     1      13.303  -2.443  17.071  1.00  0.00    -0.000 C 
BRANCH  23  24
ATOM     24  C   UNL     1      13.095  -2.451  18.593  1.00  0.00    -0.000 C 
BRANCH  24  25
ATOM     25  C   UNL     1      14.320  -3.028  19.311  1.00  0.00    -0.003 C 
ATOM     26  C   UNL     1      15.609  -2.668  18.577  1.00  0.00     0.004 C 
ENDBRANCH  24  25
ENDBRANCH  23  24
ENDBRANCH  22  23
ENDBRANCH  21  22
ENDBRANCH  20  21
ENDBRANCH  19  20
ENDBRANCH  18  19
ENDBRANCH  17  18
ENDBRANCH  16  17
ENDBRANCH  15  16
ENDBRANCH   1  15
TORSDOF 22
ENDMDL
MODEL 2
REMARK VINA RESULT:    -3.551      4.206      7.649
REMARK INTER + INTRA:         -10.672
REMARK INTER:                  -6.397
REMARK INTRA:                  -4.275
REMARK UNBOUND:                -2.555
REMARK SMILES CCCCCCCCCCCCCCCCCCCCCCCC(=O)[O-]
REMARK SMILES IDX 13 1 14 2 15 3 16 4 17 5 18 6 19 7 20 8 21 9 22 10 23 11
REMARK SMILES IDX 24 12 25 13 26 14 12 15 11 16 10 17 9 18 8 19 7 20 6 21 5 22
REMARK SMILES IDX 4 23 3 24 2 25 1 26
REMARK H PARENT
REMARK Flexibility Score: inf
ROOT
ATOM      1  C   UNL     1      16.399  -1.425  19.361  1.00  0.00     0.000 C 
ENDROOT
BRANCH   1   2
ATOM      2  C   UNL     1      15.190  -2.381  19.409  1.00  0.00     0.000 C 
BRANCH   2   3
ATOM      3  C   UNL     1      14.910  -3.145  18.100  1.00  0.00     0.000 C 
BRANCH   3   4
ATOM      4  C   UNL     1      13.533  -2.870  17.465  1.00  0.00     0.000 C 
BRANCH   4   5
ATOM      5  C   UNL     1      12.822  -1.606  17.979  1.00  0.00     0.000 C 
BRANCH   5   6
ATOM      6  C   UNL     1      12.236  -0.751  16.845  1.00  0.00     0.000 C 
BRANCH   6   7
ATOM      7  C   UNL     1      12.669   0.714  16.980  1.00  0.00     0.000 C 
BRANCH   7   8
ATOM      8  C   UNL     1      13.905   0.841  17.882  1.00  0.00     0.000 C 
BRANCH   8   9
ATOM      9  C   UNL     1      14.726   2.112  17.603  1.00  0.00     0.000 C 
BRANCH   9  10
ATOM     10  C   UNL     1      14.434   2.796  16.254  1.00  0.00     0.006 C 
BRANCH  10  11
ATOM     11  C   UNL     1      15.636   2.781  15.300  1.00  0.00     0.053 C 
BRANCH  11  12
ATOM     12  C   UNL     1      15.885   4.147  14.741  1.00  0.00     0.041 C 
ATOM     13  O   UNL     1      15.092   5.093  14.999  1.00  0.00    -0.550 OA
ATOM     14  O   UNL     1      16.980   4.374  13.914  1.00  0.00    -0.550 OA
ENDBRANCH  11  12
ENDBRANCH  10  11
ENDBRANCH   9  10
ENDBRANCH   8   9
ENDBRANCH   7   8
ENDBRANCH   6   7
ENDBRANCH   5   6
ENDBRANCH   4   5
ENDBRANCH   3   4
ENDBRANCH   2   3
ENDBRANCH   1   2
BRANCH   1  15
ATOM     15  C   UNL     1      17.708  -2.047  18.834  1.00  0.00     0.000 C 
BRANCH  15  16
ATOM     16  C   UNL     1      18.219  -1.467  17.503  1.00  0.00     0.000 C 
BRANCH  16  17
ATOM     17  C   UNL     1      17.293  -0.378  16.935  1.00  0.00     0.000 C 
BRANCH  17  18
ATOM     18  C   UNL     1      17.064  -0.530  15.421  1.00  0.00    -0.000 C 
BRANCH  18  19
ATOM     19  C   UNL     1      15.623  -0.943  15.075  1.00  0.00    -0.000 C 
BRANCH  19  20
ATOM     20  C   UNL     1      15.559  -2.140  14.099  1.00  0.00    -0.000 C 
BRANCH  20  21
ATOM     21  C   UNL     1      16.032  -3.469  14.716  1.00  0.00    -0.000 C 
BRANCH  21  22
ATOM     22  C   UNL     1      16.061  -4.662  13.742  1.00  0.00    -0.000 C 
BRANCH  22  23
ATOM     23  C   UNL     1      15.915  -6.037  14.434  1.00  0.00    -0.000 C 
BRANCH  23  24
ATOM     24  C   UNL     1      14.946  -6.007  15.625  1.00  0.00    -0.000 C 
BRANCH  24  25
ATOM     25  C   UNL     1      15.628  -6.518  16.899  1.00  0.00    -0.003 C 
ATOM     26  C   UNL     1      17.140  -6.319  16.833  1.00  0.00     0.004 C 
ENDBRANCH  24  25
ENDBRANCH  23  24
ENDBRANCH  22  23
ENDBRANCH  21  22
ENDBRANCH  20  21
ENDBRANCH  19  20
ENDBRANCH  18  19
ENDBRANCH  17  18
ENDBRANCH  16  17
ENDBRANCH  15  16
ENDBRANCH   1  15
TORSDOF 22
ENDMDL
MODEL 3
REMARK VINA RESULT:    -3.540      9.282     12.893
REMARK INTER + INTRA:         -10.648
REMARK INTER:                  -7.091
REMARK INTRA:                  -3.558
REMARK UNBOUND:                -2.555
REMARK SMILES CCCCCCCCCCCCCCCCCCCCCCCC(=O)[O-]
REMARK SMILES IDX 13 1 14 2 15 3 16 4 17 5 18 6 19 7 20 8 21 9 22 10 23 11
REMARK SMILES IDX 24 12 25 13 26 14 12 15 11 16 10 17 9 18 8 19 7 20 6 21 5 22
REMARK SMILES IDX 4 23 3 24 2 25 1 26
REMARK H PARENT
REMARK Flexibility Score: inf
ROOT
ATOM      1  C   UNL     1      23.427   2.024   6.182  1.00  0.00     0.000 C 
ENDROOT
BRANCH   1   2
ATOM      2  C   UNL     1      22.959   3.357   5.563  1.00  0.00     0.000 C 
BRANCH   2   3
ATOM      3  C   UNL     1      21.491   3.378   5.094  1.00  0.00     0.000 C 
BRANCH   3   4
ATOM      4  C   UNL     1      20.791   2.005   5.077  1.00  0.00     0.000 C 
BRANCH   4   5
ATOM      5  C   UNL     1      20.079   1.655   3.758  1.00  0.00     0.000 C 
BRANCH   5   6
ATOM      6  C   UNL     1      20.690   0.432   3.059  1.00  0.00     0.000 C 
BRANCH   6   7
ATOM      7  C   UNL     1      22.212   0.577   2.926  1.00  0.00     0.000 C 
BRANCH   7   8
ATOM      8  C   UNL     1      22.900  -0.794   2.968  1.00  0.00     0.000 C 
BRANCH   8   9
ATOM      9  C   UNL     1      23.446  -1.151   4.362  1.00  0.00     0.000 C 
BRANCH   9  10
ATOM     10  C   UNL     1      22.561  -2.106   5.186  1.00  0.00     0.006 C 
BRANCH  10  11
ATOM     11  C   UNL     1      21.714  -1.379   6.239  1.00  0.00     0.053 C 
BRANCH  11  12
ATOM     12  C   UNL     1      21.011  -2.363   7.123  1.00  0.00     0.041 C 
ATOM     13  O   UNL     1      20.368  -1.964   8.131  1.00  0.00    -0.550 OA
ATOM     14  O   UNL     1      21.084  -3.724   6.849  1.00  0.00    -0.550 OA
ENDBRANCH  11  12
ENDBRANCH  10  11
ENDBRANCH   9  10
ENDBRANCH   8   9
ENDBRANCH   7   8
ENDBRANCH   6   7
ENDBRANCH   5   6
ENDBRANCH   4   5
ENDBRANCH   3   4
ENDBRANCH   2   3
ENDBRANCH   1   2
BRANCH   1  15
ATOM     15  C   UNL     1      24.938   1.740   6.061  1.00  0.00     0.000 C 
BRANCH  15  16
ATOM     16  C   UNL     1      25.587   1.111   7.307  1.00  0.00     0.000 C 
BRANCH  16  17
ATOM     17  C   UNL     1      25.492  -0.424   7.316  1.00  0.00     0.000 C 
BRANCH  17  18
ATOM     18  C   UNL     1      26.058  -1.042   8.606  1.00  0.00    -0.000 C 
BRANCH  18  19
ATOM     19  C   UNL     1      26.342   0.006   9.696  1.00  0.00    -0.000 C 
BRANCH  19  20
ATOM     20  C   UNL     1      27.550  -0.365  10.586  1.00  0.00    -0.000 C 
BRANCH  20  21
ATOM     21  C   UNL     1      28.436   0.836  10.963  1.00  0.00    -0.000 C 
BRANCH  21  22
ATOM     22  C   UNL     1      28.341   2.038  10.005  1.00  0.00    -0.000 C 
BRANCH  22  23
ATOM     23  C   UNL     1      29.714   2.621   9.596  1.00  0.00    -0.000 C 
BRANCH  23  24
ATOM     24  C   UNL     1      30.261   2.006   8.300  1.00  0.00    -0.000 C 
BRANCH  24  25
ATOM     25  C   UNL     1      29.134   1.756   7.292  1.00  0.00    -0.003 C 
ATOM     26  C   UNL     1      29.169   0.321   6.772  1.00  0.00     0.004 C 
ENDBRANCH  24  25
ENDBRANCH  23  24
ENDBRANCH  22  23
ENDBRANCH  21  22
ENDBRANCH  20  21
ENDBRANCH  19  20
ENDBRANCH  18  19
ENDBRANCH  17  18
ENDBRANCH  16  17
ENDBRANCH  15  16
ENDBRANCH   1  15
TORSDOF 22
ENDMDL
MODEL 4
REMARK VINA RESULT:    -3.493      1.907      4.120
REMARK INTER + INTRA:         -10.540
REMARK INTER:                  -8.542
REMARK INTRA:                  -1.998
REMARK UNBOUND:                -2.555
REMARK SMILES CCCCCCCCCCCCCCCCCCCCCCCC(=O)[O-]
REMARK SMILES IDX 13 1 14 2 15 3 16 4 17 5 18 6 19 7 20 8 21 9 22 10 23 11
REMARK SMILES IDX 24 12 25 13 26 14 12 15 11 16 10 17 9 18 8 19 7 20 6 21 5 22
REMARK SMILES IDX 4 23 3 24 2 25 1 26
REMARK H PARENT
REMARK Flexibility Score: inf
ROOT
ATOM      1  C   UNL     1      15.602  -2.118  14.165  1.00  0.00     0.000 C 
ENDROOT
BRANCH   1   2
ATOM      2  C   UNL     1      15.651  -3.107  15.348  1.00  0.00     0.000 C 
BRANCH   2   3
ATOM      3  C   UNL     1      16.257  -4.486  15.021  1.00  0.00     0.000 C 
BRANCH   3   4
ATOM      4  C   UNL     1      16.128  -4.923  13.548  1.00  0.00     0.000 C 
BRANCH   4   5
ATOM      5  C   UNL     1      17.231  -5.876  13.055  1.00  0.00     0.000 C 
BRANCH   5   6
ATOM      6  C   UNL     1      16.839  -6.625  11.773  1.00  0.00     0.000 C 
BRANCH   6   7
ATOM      7  C   UNL     1      15.417  -6.254  11.332  1.00  0.00     0.000 C 
BRANCH   7   8
ATOM      8  C   UNL     1      15.348  -6.056   9.811  1.00  0.00     0.000 C 
BRANCH   8   9
ATOM      9  C   UNL     1      16.348  -6.938   9.043  1.00  0.00     0.000 C 
BRANCH   9  10
ATOM     10  C   UNL     1      17.026  -6.259   7.838  1.00  0.00     0.006 C 
BRANCH  10  11
ATOM     11  C   UNL     1      17.404  -4.796   8.108  1.00  0.00     0.053 C 
BRANCH  11  12
ATOM     12  C   UNL     1      18.833  -4.542   7.741  1.00  0.00     0.041 C 
ATOM     13  O   UNL     1      19.603  -5.506   7.479  1.00  0.00    -0.550 OA
ATOM     14  O   UNL     1      19.326  -3.242   7.709  1.00  0.00    -0.550 OA
ENDBRANCH  11  12
ENDBRANCH  10  11
ENDBRANCH   9  10
ENDBRANCH   8   9
ENDBRANCH   7   8
ENDBRANCH   6   7
ENDBRANCH   5   6
ENDBRANCH   4   5
ENDBRANCH   3   4
ENDBRANCH   2   3
ENDBRANCH   1   2
BRANCH   1  15
ATOM     15  C   UNL     1      16.083  -0.688  14.486  1.00  0.00     0.000 C 
BRANCH  15  16
ATOM     16  C   UNL     1      17.073  -0.579  15.659  1.00  0.00     0.000 C 
BRANCH  16  17
ATOM     17  C   UNL     1      16.509   0.228  16.840  1.00  0.00     0.000 C 
BRANCH  17  18
ATOM     18  C   UNL     1      14.979   0.377  16.775  1.00  0.00    -0.000 C 
BRANCH  18  19
ATOM     19  C   UNL     1      14.380   0.958  18.068  1.00  0.00    -0.000 C 
BRANCH  19  20
ATOM     20  C   UNL     1      14.556   2.490  18.176  1.00  0.00    -0.000 C 
BRANCH  20  21
ATOM     21  C   UNL     1      13.520   3.292  17.369  1.00  0.00    -0.000 C 
BRANCH  21  22
ATOM     22  C   UNL     1      14.102   4.121  16.209  1.00  0.00    -0.000 C 
BRANCH  22  23
ATOM     23  C   UNL     1      15.617   3.910  15.988  1.00  0.00    -0.000 C 
BRANCH  23  24
ATOM     24  C   UNL     1      15.984   3.722  14.508  1.00  0.00    -0.000 C 
BRANCH  24  25
ATOM     25  C   UNL     1      16.878   4.864  14.015  1.00  0.00    -0.003 C 
ATOM     26  C   UNL     1      16.090   6.166  13.891  1.00  0.00     0.004 C 
ENDBRANCH  24  25
ENDBRANCH  23  24
ENDBRANCH  22  23
ENDBRANCH  21  22
ENDBRANCH  20  21
ENDBRANCH  19  20
ENDBRANCH  18  19
ENDBRANCH  17  18
ENDBRANCH  16  17
ENDBRANCH  15  16
ENDBRANCH   1  15
TORSDOF 22
ENDMDL
MODEL 5
REMARK VINA RESULT:    -3.488      7.783     11.988
REMARK INTER + INTRA:         -10.529
REMARK INTER:                  -7.523
REMARK INTRA:                  -3.006
REMARK UNBOUND:                -2.555
REMARK SMILES CCCCCCCCCCCCCCCCCCCCCCCC(=O)[O-]
REMARK SMILES IDX 13 1 14 2 15 3 16 4 17 5 18 6 19 7 20 8 21 9 22 10 23 11
REMARK SMILES IDX 24 12 25 13 26 14 12 15 11 16 10 17 9 18 8 19 7 20 6 21 5 22
REMARK SMILES IDX 4 23 3 24 2 25 1 26
REMARK H PARENT
REMARK Flexibility Score: inf
ROOT
ATOM      1  C   UNL     1      22.042   2.847   5.750  1.00  0.00     0.000 C 
ENDROOT
BRANCH   1   2
ATOM      2  C   UNL     1      23.495   3.113   5.305  1.00  0.00     0.000 C 
BRANCH   2   3
ATOM      3  C   UNL     1      24.572   2.739   6.341  1.00  0.00     0.000 C 
BRANCH   3   4
ATOM      4  C   UNL     1      25.848   2.101   5.756  1.00  0.00     0.000 C 
BRANCH   4   5
ATOM      5  C   UNL     1      25.950   0.576   5.932  1.00  0.00     0.000 C 
BRANCH   5   6
ATOM      6  C   UNL     1      25.267   0.079   7.214  1.00  0.00     0.000 C 
BRANCH   6   7
ATOM      7  C   UNL     1      26.009  -1.129   7.800  1.00  0.00     0.000 C 
BRANCH   7   8
ATOM      8  C   UNL     1      27.036  -0.685   8.852  1.00  0.00     0.000 C 
BRANCH   8   9
ATOM      9  C   UNL     1      26.604   0.577   9.619  1.00  0.00     0.000 C 
BRANCH   9  10
ATOM     10  C   UNL     1      27.619   1.736   9.593  1.00  0.00     0.006 C 
BRANCH  10  11
ATOM     11  C   UNL     1      28.538   1.701   8.364  1.00  0.00     0.053 C 
BRANCH  11  12
ATOM     12  C   UNL     1      29.885   2.265   8.694  1.00  0.00     0.041 C 
ATOM     13  O   UNL     1      30.308   3.291   8.094  1.00  0.00    -0.550 OA
ATOM     14  O   UNL     1      30.686   1.647   9.647  1.00  0.00    -0.550 OA
ENDBRANCH  11  12
ENDBRANCH  10  11
ENDBRANCH   9  10
ENDBRANCH   8   9
ENDBRANCH   7   8
ENDBRANCH   6   7
ENDBRANCH   5   6
ENDBRANCH   4   5
ENDBRANCH   3   4
ENDBRANCH   2   3
ENDBRANCH   1   2
BRANCH   1  15
ATOM     15  C   UNL     1      21.757   1.411   6.236  1.00  0.00     0.000 C 
BRANCH  15  16
ATOM     16  C   UNL     1      21.357   0.414   5.134  1.00  0.00     0.000 C 
BRANCH  16  17
ATOM     17  C   UNL     1      22.516  -0.506   4.715  1.00  0.00     0.000 C 
BRANCH  17  18
ATOM     18  C   UNL     1      22.209  -1.992   4.963  1.00  0.00    -0.000 C 
BRANCH  18  19
ATOM     19  C   UNL     1      23.031  -2.587   6.120  1.00  0.00    -0.000 C 
BRANCH  19  20
ATOM     20  C   UNL     1      22.151  -3.239   7.209  1.00  0.00    -0.000 C 
BRANCH  20  21
ATOM     21  C   UNL     1      20.872  -2.445   7.532  1.00  0.00    -0.000 C 
BRANCH  21  22
ATOM     22  C   UNL     1      19.605  -3.301   7.715  1.00  0.00    -0.000 C 
BRANCH  22  23
ATOM     23  C   UNL     1      19.892  -4.808   7.909  1.00  0.00    -0.000 C 
BRANCH  23  24
ATOM     24  C   UNL     1      18.789  -5.529   8.698  1.00  0.00    -0.000 C 
BRANCH  24  25
ATOM     25  C   UNL     1      17.404  -5.204   8.128  1.00  0.00    -0.003 C 
ATOM     26  C   UNL     1      16.325  -6.065   8.779  1.00  0.00     0.004 C 
ENDBRANCH  24  25
ENDBRANCH  23  24
ENDBRANCH  22  23
ENDBRANCH  21  22
ENDBRANCH  20  21
ENDBRANCH  19  20
ENDBRANCH  18  19
ENDBRANCH  17  18
ENDBRANCH  16  17
ENDBRANCH  15  16
ENDBRANCH   1  15
TORSDOF 22
ENDMDL
MODEL 6
REMARK VINA RESULT:    -3.482      8.828     12.477
REMARK INTER + INTRA:         -10.514
REMARK INTER:                  -6.153
REMARK INTRA:                  -4.361
REMARK UNBOUND:                -2.555
REMARK SMILES CCCCCCCCCCCCCCCCCCCCCCCC(=O)[O-]
REMARK SMILES IDX 13 1 14 2 15 3 16 4 17 5 18 6 19 7 20 8 21 9 22 10 23 11
REMARK SMILES IDX 24 12 25 13 26 14 12 15 11 16 10 17 9 18 8 19 7 20 6 21 5 22
REMARK SMILES IDX 4 23 3 24 2 25 1 26
REMARK H PARENT
REMARK Flexibility Score: inf
ROOT
ATOM      1  C   UNL     1      27.692  -0.472  10.620  1.00  0.00     0.000 C 
ENDROOT
BRANCH   1   2
ATOM      2  C   UNL     1      28.896   0.490  10.545  1.00  0.00     0.000 C 
BRANCH   2   3
ATOM      3  C   UNL     1      28.573   1.896  10.003  1.00  0.00     0.000 C 
BRANCH   3   4
ATOM      4  C   UNL     1      29.134   2.199   8.599  1.00  0.00     0.000 C 
BRANCH   4   5
ATOM      5  C   UNL     1      29.384   0.962   7.718  1.00  0.00     0.000 C 
BRANCH   5   6
ATOM      6  C   UNL     1      28.439   0.893   6.510  1.00  0.00     0.000 C 
BRANCH   6   7
ATOM      7  C   UNL     1      27.265   1.867   6.673  1.00  0.00     0.000 C 
BRANCH   7   8
ATOM      8  C   UNL     1      26.042   1.390   5.878  1.00  0.00     0.000 C 
BRANCH   8   9
ATOM      9  C   UNL     1      24.710   1.676   6.594  1.00  0.00     0.000 C 
BRANCH   9  10
ATOM     10  C   UNL     1      23.448   1.244   5.823  1.00  0.00     0.006 C 
BRANCH  10  11
ATOM     11  C   UNL     1      22.212   2.082   6.177  1.00  0.00     0.053 C 
BRANCH  11  12
ATOM     12  C   UNL     1      21.831   2.972   5.035  1.00  0.00     0.041 C 
ATOM     13  O   UNL     1      20.676   2.904   4.535  1.00  0.00    -0.550 OA
ATOM     14  O   UNL     1      22.758   3.862   4.505  1.00  0.00    -0.550 OA
ENDBRANCH  11  12
ENDBRANCH  10  11
ENDBRANCH   9  10
ENDBRANCH   8   9
ENDBRANCH   7   8
ENDBRANCH   6   7
ENDBRANCH   5   6
ENDBRANCH   4   5
ENDBRANCH   3   4
ENDBRANCH   2   3
ENDBRANCH   1   2
BRANCH   1  15
ATOM     15  C   UNL     1      26.387   0.059   9.994  1.00  0.00     0.000 C 
BRANCH  15  16
ATOM     16  C   UNL     1      25.773  -0.836   8.903  1.00  0.00     0.000 C 
BRANCH  16  17
ATOM     17  C   UNL     1      26.780  -1.842   8.323  1.00  0.00     0.000 C 
BRANCH  17  18
ATOM     18  C   UNL     1      26.142  -2.788   7.291  1.00  0.00    -0.000 C 
BRANCH  18  19
ATOM     19  C   UNL     1      25.163  -2.067   6.347  1.00  0.00    -0.000 C 
BRANCH  19  20
ATOM     20  C   UNL     1      23.803  -2.791   6.224  1.00  0.00    -0.000 C 
BRANCH  20  21
ATOM     21  C   UNL     1      22.700  -2.194   7.115  1.00  0.00    -0.000 C 
BRANCH  21  22
ATOM     22  C   UNL     1      22.207  -3.117   8.245  1.00  0.00    -0.000 C 
BRANCH  22  23
ATOM     23  C   UNL     1      23.311  -3.516   9.252  1.00  0.00    -0.000 C 
BRANCH  23  24
ATOM     24  C   UNL     1      23.123  -2.868  10.632  1.00  0.00    -0.000 C 
BRANCH  24  25
ATOM     25  C   UNL     1      24.233  -3.299  11.596  1.00  0.00    -0.003 C 
ATOM     26  C   UNL     1      25.293  -4.131  10.879  1.00  0.00     0.004 C 
ENDBRANCH  24  25
ENDBRANCH  23  24
ENDBRANCH  22  23
ENDBRANCH  21  22
ENDBRANCH  20  21
ENDBRANCH  19  20
ENDBRANCH  18  19
ENDBRANCH  17  18
ENDBRANCH  16  17
ENDBRANCH  15  16
ENDBRANCH   1  15
TORSDOF 22
ENDMDL
MODEL 7
REMARK VINA RESULT:    -3.481      9.001     12.516
REMARK INTER + INTRA:         -10.513
REMARK INTER:                  -7.110
REMARK INTRA:                  -3.403
REMARK UNBOUND:                -2.555
REMARK SMILES CCCCCCCCCCCCCCCCCCCCCCCC(=O)[O-]
REMARK SMILES IDX 13 1 14 2 15 3 16 4 17 5 18 6 19 7 20 8 21 9 22 10 23 11
REMARK SMILES IDX 24 12 25 13 26 14 12 15 11 16 10 17 9 18 8 19 7 20 6 21 5 22
REMARK SMILES IDX 4 23 3 24 2 25 1 26
REMARK H PARENT
REMARK Flexibility Score: inf
ROOT
ATOM      1  C   UNL     1      23.463  -0.736   4.263  1.00  0.00     0.000 C 
ENDROOT
BRANCH   1   2
ATOM      2  C   UNL     1      24.446   0.368   3.824  1.00  0.00     0.000 C 
BRANCH   2   3
ATOM      3  C   UNL     1      25.762   0.425   4.624  1.00  0.00     0.000 C 
BRANCH   3   4
ATOM      4  C   UNL     1      26.219   1.840   5.029  1.00  0.00     0.000 C 
BRANCH   4   5
ATOM      5  C   UNL     1      25.921   2.226   6.489  1.00  0.00     0.000 C 
BRANCH   5   6
ATOM      6  C   UNL     1      25.585   1.013   7.367  1.00  0.00     0.000 C 
BRANCH   6   7
ATOM      7  C   UNL     1      26.723   0.715   8.352  1.00  0.00     0.000 C 
BRANCH   7   8
ATOM      8  C   UNL     1      26.604  -0.708   8.915  1.00  0.00     0.000 C 
BRANCH   8   9
ATOM      9  C   UNL     1      25.813  -1.655   7.995  1.00  0.00     0.000 C 
BRANCH   9  10
ATOM     10  C   UNL     1      24.932  -2.688   8.723  1.00  0.00     0.006 C 
BRANCH  10  11
ATOM     11  C   UNL     1      24.647  -2.310  10.183  1.00  0.00     0.053 C 
BRANCH  11  12
ATOM     12  C   UNL     1      23.344  -2.894  10.636  1.00  0.00     0.041 C 
ATOM     13  O   UNL     1      23.196  -3.262  11.833  1.00  0.00    -0.550 OA
ATOM     14  O   UNL     1      22.300  -3.054   9.733  1.00  0.00    -0.550 OA
ENDBRANCH  11  12
ENDBRANCH  10  11
ENDBRANCH   9  10
ENDBRANCH   8   9
ENDBRANCH   7   8
ENDBRANCH   6   7
ENDBRANCH   5   6
ENDBRANCH   4   5
ENDBRANCH   3   4
ENDBRANCH   2   3
ENDBRANCH   1   2
BRANCH   1  15
ATOM     15  C   UNL     1      23.036  -0.685   5.744  1.00  0.00     0.000 C 
BRANCH  15  16
ATOM     16  C   UNL     1      21.571  -0.283   5.990  1.00  0.00     0.000 C 
BRANCH  16  17
ATOM     17  C   UNL     1      21.259   1.146   5.517  1.00  0.00     0.000 C 
BRANCH  17  18
ATOM     18  C   UNL     1      22.186   2.195   6.155  1.00  0.00    -0.000 C 
BRANCH  18  19
ATOM     19  C   UNL     1      22.539   3.344   5.194  1.00  0.00    -0.000 C 
BRANCH  19  20
ATOM     20  C   UNL     1      21.807   3.238   3.838  1.00  0.00    -0.000 C 
BRANCH  20  21
ATOM     21  C   UNL     1      20.916   4.452   3.518  1.00  0.00    -0.000 C 
BRANCH  21  22
ATOM     22  C   UNL     1      19.881   4.802   4.603  1.00  0.00    -0.000 C 
BRANCH  22  23
ATOM     23  C   UNL     1      18.756   3.752   4.755  1.00  0.00    -0.000 C 
BRANCH  23  24
ATOM     24  C   UNL     1      18.083   3.400   3.420  1.00  0.00    -0.000 C 
BRANCH  24  25
ATOM     25  C   UNL     1      16.567   3.258   3.590  1.00  0.00    -0.003 C 
ATOM     26  C   UNL     1      16.015   4.329   4.528  1.00  0.00     0.004 C 
ENDBRANCH  24  25
ENDBRANCH  23  24
ENDBRANCH  22  23
ENDBRANCH  21  22
ENDBRANCH  20  21
ENDBRANCH  19  20
ENDBRANCH  18  19
ENDBRANCH  17  18
ENDBRANCH  16  17
ENDBRANCH  15  16
ENDBRANCH   1  15
TORSDOF 22
ENDMDL
MODEL 8
REMARK VINA RESULT:    -3.436      8.511     12.472
REMARK INTER + INTRA:         -10.410
REMARK INTER:                  -7.041
REMARK INTRA:                  -3.368
REMARK UNBOUND:                -2.555
REMARK SMILES CCCCCCCCCCCCCCCCCCCCCCCC(=O)[O-]
REMARK SMILES IDX 13 1 14 2 15 3 16 4 17 5 18 6 19 7 20 8 21 9 22 10 23 11
REMARK SMILES IDX 24 12 25 13 26 14 12 15 11 16 10 17 9 18 8 19 7 20 6 21 5 22
REMARK SMILES IDX 4 23 3 24 2 25 1 26
REMARK H PARENT
REMARK Flexibility Score: inf
ROOT
ATOM      1  C   UNL     1      27.533   1.618   9.650  1.00  0.00     0.000 C 
ENDROOT
BRANCH   1   2
ATOM      2  C   UNL     1      26.940   0.289  10.158  1.00  0.00     0.000 C 
BRANCH   2   3
ATOM      3  C   UNL     1      25.902  -0.362   9.223  1.00  0.00     0.000 C 
BRANCH   3   4
ATOM      4  C   UNL     1      26.394  -1.618   8.476  1.00  0.00     0.000 C 
BRANCH   4   5
ATOM      5  C   UNL     1      25.851  -1.777   7.045  1.00  0.00     0.000 C 
BRANCH   5   6
ATOM      6  C   UNL     1      24.685  -2.772   6.958  1.00  0.00     0.000 C 
BRANCH   6   7
ATOM      7  C   UNL     1      23.460  -2.128   6.297  1.00  0.00     0.000 C 
BRANCH   7   8
ATOM      8  C   UNL     1      22.194  -2.376   7.129  1.00  0.00     0.000 C 
BRANCH   8   9
ATOM      9  C   UNL     1      22.210  -3.729   7.862  1.00  0.00     0.000 C 
BRANCH   9  10
ATOM     10  C   UNL     1      21.846  -3.666   9.358  1.00  0.00     0.006 C 
BRANCH  10  11
ATOM     11  C   UNL     1      22.807  -2.790  10.172  1.00  0.00     0.053 C 
BRANCH  11  12
ATOM     12  C   UNL     1      23.524  -3.607  11.202  1.00  0.00     0.041 C 
ATOM     13  O   UNL     1      24.746  -3.402  11.437  1.00  0.00    -0.550 OA
ATOM     14  O   UNL     1      22.852  -4.613  11.887  1.00  0.00    -0.550 OA
ENDBRANCH  11  12
ENDBRANCH  10  11
ENDBRANCH   9  10
ENDBRANCH   8   9
ENDBRANCH   7   8
ENDBRANCH   6   7
ENDBRANCH   5   6
ENDBRANCH   4   5
ENDBRANCH   3   4
ENDBRANCH   2   3
ENDBRANCH   1   2
BRANCH   1  15
ATOM     15  C   UNL     1      29.068   1.635   9.495  1.00  0.00     0.000 C 
BRANCH  15  16
ATOM     16  C   UNL     1      29.581   2.025   8.098  1.00  0.00     0.000 C 
BRANCH  16  17
ATOM     17  C   UNL     1      29.078   1.080   6.994  1.00  0.00     0.000 C 
BRANCH  17  18
ATOM     18  C   UNL     1      28.248   1.811   5.924  1.00  0.00    -0.000 C 
BRANCH  18  19
ATOM     19  C   UNL     1      26.802   1.293   5.834  1.00  0.00    -0.000 C 
BRANCH  19  20
ATOM     20  C   UNL     1      25.787   2.216   6.546  1.00  0.00    -0.000 C 
BRANCH  20  21
ATOM     21  C   UNL     1      24.317   1.842   6.283  1.00  0.00    -0.000 C 
BRANCH  21  22
ATOM     22  C   UNL     1      23.454   2.977   5.702  1.00  0.00    -0.000 C 
BRANCH  22  23
ATOM     23  C   UNL     1      21.932   2.749   5.859  1.00  0.00    -0.000 C 
BRANCH  23  24
ATOM     24  C   UNL     1      21.533   1.272   5.719  1.00  0.00    -0.000 C 
BRANCH  24  25
ATOM     25  C   UNL     1      20.932   0.995   4.337  1.00  0.00    -0.003 C 
ATOM     26  C   UNL     1      21.587  -0.221   3.686  1.00  0.00     0.004 C 
ENDBRANCH  24  25
ENDBRANCH  23  24
ENDBRANCH  22  23
ENDBRANCH  21  22
ENDBRANCH  20  21
ENDBRANCH  19  20
ENDBRANCH  18  19
ENDBRANCH  17  18
ENDBRANCH  16  17
ENDBRANCH  15  16
ENDBRANCH   1  15
TORSDOF 22
ENDMDL
MODEL 9
REMARK VINA RESULT:    -3.387     11.416     13.528
REMARK INTER + INTRA:         -10.298
REMARK INTER:                  -5.953
REMARK INTRA:                  -4.344
REMARK UNBOUND:                -2.555
REMARK SMILES CCCCCCCCCCCCCCCCCCCCCCCC(=O)[O-]
REMARK SMILES IDX 13 1 14 2 15 3 16 4 17 5 18 6 19 7 20 8 21 9 22 10 23 11
REMARK SMILES IDX 24 12 25 13 26 14 12 15 11 16 10 17 9 18 8 19 7 20 6 21 5 22
REMARK SMILES IDX 4 23 3 24 2 25 1 26
REMARK H PARENT
REMARK Flexibility Score: inf
ROOT
ATOM      1  C   UNL     1      23.303   2.507   5.416  1.00  0.00     0.000 C 
ENDROOT
BRANCH   1   2
ATOM      2  C   UNL     1      22.171   1.894   6.266  1.00  0.00     0.000 C 
BRANCH   2   3
ATOM      3  C   UNL     1      21.074   1.168   5.464  1.00  0.00     0.000 C 
BRANCH   3   4
ATOM      4  C   UNL     1      21.583   0.089   4.489  1.00  0.00     0.000 C 
BRANCH   4   5
ATOM      5  C   UNL     1      21.238   0.335   3.009  1.00  0.00     0.000 C 
BRANCH   5   6
ATOM      6  C   UNL     1      22.328   1.120   2.267  1.00  0.00     0.000 C 
BRANCH   6   7
ATOM      7  C   UNL     1      21.784   2.455   1.741  1.00  0.00     0.000 C 
BRANCH   7   8
ATOM      8  C   UNL     1      20.285   2.592   2.039  1.00  0.00     0.000 C 
BRANCH   8   9
ATOM      9  C   UNL     1      19.896   3.994   2.541  1.00  0.00     0.000 C 
BRANCH   9  10
ATOM     10  C   UNL     1      20.603   4.443   3.834  1.00  0.00     0.006 C 
BRANCH  10  11
ATOM     11  C   UNL     1      19.662   4.493   5.046  1.00  0.00     0.053 C 
BRANCH  11  12
ATOM     12  C   UNL     1      18.682   5.616   4.909  1.00  0.00     0.041 C 
ATOM     13  O   UNL     1      19.057   6.809   5.070  1.00  0.00    -0.550 OA
ATOM     14  O   UNL     1      17.348   5.347   4.626  1.00  0.00    -0.550 OA
ENDBRANCH  11  12
ENDBRANCH  10  11
ENDBRANCH   9  10
ENDBRANCH   8   9
ENDBRANCH   7   8
ENDBRANCH   6   7
ENDBRANCH   5   6
ENDBRANCH   4   5
ENDBRANCH   3   4
ENDBRANCH   2   3
ENDBRANCH   1   2
BRANCH   1  15
ATOM     15  C   UNL     1      24.638   2.722   6.159  1.00  0.00     0.000 C 
BRANCH  15  16
ATOM     16  C   UNL     1      25.890   2.234   5.408  1.00  0.00     0.000 C 
BRANCH  16  17
ATOM     17  C   UNL     1      25.550   1.479   4.112  1.00  0.00     0.000 C 
BRANCH  17  18
ATOM     18  C   UNL     1      26.672   0.522   3.675  1.00  0.00    -0.000 C 
BRANCH  18  19
ATOM     19  C   UNL     1      26.318  -0.958   3.907  1.00  0.00    -0.000 C 
BRANCH  19  20
ATOM     20  C   UNL     1      24.828  -1.171   4.255  1.00  0.00    -0.000 C 
BRANCH  20  21
ATOM     21  C   UNL     1      24.601  -1.895   5.595  1.00  0.00    -0.000 C 
BRANCH  21  22
ATOM     22  C   UNL     1      24.614  -0.982   6.835  1.00  0.00    -0.000 C 
BRANCH  22  23
ATOM     23  C   UNL     1      25.980  -0.929   7.557  1.00  0.00    -0.000 C 
BRANCH  23  24
ATOM     24  C   UNL     1      26.093   0.251   8.535  1.00  0.00    -0.000 C 
BRANCH  24  25
ATOM     25  C   UNL     1      27.448   0.954   8.392  1.00  0.00    -0.003 C 
ATOM     26  C   UNL     1      27.784   1.760   9.644  1.00  0.00     0.004 C 
ENDBRANCH  24  25
ENDBRANCH  23  24
ENDBRANCH  22  23
ENDBRANCH  21  22
ENDBRANCH  20  21
ENDBRANCH  19  20
ENDBRANCH  18  19
ENDBRANCH  17  18
ENDBRANCH  16  17
ENDBRANCH  15  16
ENDBRANCH   1  15
TORSDOF 22
ENDMDL
