MODEL 1
REMARK VINA RESULT:    -2.759      0.000      0.000
REMARK INTER + INTRA:          -3.087
REMARK INTER:                  -3.082
REMARK INTRA:                  -0.005
REMARK UNBOUND:                -0.005
REMARK SMILES CCCC(=O)[O-]
REMARK SMILES IDX 3 1 4 2 5 3 6 4 2 5 1 6
REMARK H PARENT
REMARK Flexibility Score: inf
ROOT
ATOM      1  C   UNL     1      -0.986  18.781  29.343  1.00  0.00     0.052 C 
ENDROOT
BRANCH   1   2
ATOM      2  C   UNL     1      -0.554  17.546  28.616  1.00  0.00     0.041 C 
ATOM      3  O   UNL     1       0.203  17.633  27.613  1.00  0.00    -0.550 OA
ATOM      4  O   UNL     1      -1.026  16.303  29.017  1.00  0.00    -0.550 OA
ENDBRANCH   1   2
BRANCH   1   5
ATOM      5  C   UNL     1      -2.504  18.955  29.249  1.00  0.00     0.003 C 
ATOM      6  C   UNL     1      -2.939  20.310  29.797  1.00  0.00     0.004 C 
ENDBRANCH   1   5
TORSDOF 2
ENDMDL
MODEL 2
REMARK VINA RESULT:    -2.743     14.978     15.475
REMARK INTER + INTRA:          -3.069
REMARK INTER:                  -3.048
REMARK INTRA:                  -0.021
REMARK UNBOUND:                -0.005
REMARK SMILES CCCC(=O)[O-]
REMARK SMILES IDX 3 1 4 2 5 3 6 4 2 5 1 6
REMARK H PARENT
REMARK Flexibility Score: inf
ROOT
ATOM      1  C   UNL     1       8.821  15.049  16.862  1.00  0.00     0.052 C 
ENDROOT
BRANCH   1   2
ATOM      2  C   UNL     1       8.459  13.930  17.788  1.00  0.00     0.041 C 
ATOM      3  O   UNL     1       8.101  14.176  18.969  1.00  0.00    -0.550 OA
ATOM      4  O   UNL     1       8.565  12.612  17.360  1.00  0.00    -0.550 OA
ENDBRANCH   1   2
BRANCH   1   5
ATOM      5  C   UNL     1       8.565  16.402  17.530  1.00  0.00     0.003 C 
ATOM      6  C   UNL     1       7.944  17.392  16.549  1.00  0.00     0.004 C 
ENDBRANCH   1   5
TORSDOF 2
ENDMDL
MODEL 3
REMARK VINA RESULT:    -2.684      9.894     10.849
REMARK INTER + INTRA:          -3.003
REMARK INTER:                  -2.966
REMARK INTRA:                  -0.037
REMARK UNBOUND:                -0.005
REMARK SMILES CCCC(=O)[O-]
REMARK SMILES IDX 3 1 4 2 5 3 6 4 2 5 1 6
REMARK H PARENT
REMARK Flexibility Score: inf
ROOT
ATOM      1  C   UNL     1       8.777  22.925  28.234  1.00  0.00     0.052 C 
ENDROOT
BRANCH   1   2
ATOM      2  C   UNL     1       7.318  22.677  28.463  1.00  0.00     0.041 C 
ATOM      3  O   UNL     1       6.702  23.310  29.361  1.00  0.00    -0.550 OA
ATOM      4  O   UNL     1       6.652  21.712  27.719  1.00  0.00    -0.550 OA
ENDBRANCH   1   2
BRANCH   1   5
ATOM      5  C   UNL     1       9.543  21.601  28.177  1.00  0.00     0.003 C 
ATOM      6  C   UNL     1      10.227  21.418  26.826  1.00  0.00     0.004 C 
ENDBRANCH   1   5
TORSDOF 2
ENDMDL
MODEL 4
REMARK VINA RESULT:    -2.660     10.516     11.259
REMARK INTER + INTRA:          -2.976
REMARK INTER:                  -2.933
REMARK INTRA:                  -0.044
REMARK UNBOUND:                -0.005
REMARK SMILES CCCC(=O)[O-]
REMARK SMILES IDX 3 1 4 2 5 3 6 4 2 5 1 6
REMARK H PARENT
REMARK Flexibility Score: inf
ROOT
ATOM      1  C   UNL     1       9.542  21.695  28.346  1.00  0.00     0.052 C 
ENDROOT
BRANCH   1   2
ATOM      2  C   UNL     1       9.996  21.245  26.993  1.00  0.00     0.041 C 
ATOM      3  O   UNL     1      10.953  21.827  26.419  1.00  0.00    -0.550 OA
ATOM      4  O   UNL     1       9.328  20.213  26.344  1.00  0.00    -0.550 OA
ENDBRANCH   1   2
BRANCH   1   5
ATOM      5  C   UNL     1       8.595  22.892  28.223  1.00  0.00     0.003 C 
ATOM      6  C   UNL     1       7.138  22.441  28.205  1.00  0.00     0.004 C 
ENDBRANCH   1   5
TORSDOF 2
ENDMDL
MODEL 5
REMARK VINA RESULT:    -2.648     16.090     16.912
REMARK INTER + INTRA:          -2.963
REMARK INTER:                  -2.955
REMARK INTRA:                  -0.009
REMARK UNBOUND:                -0.005
REMARK SMILES CCCC(=O)[O-]
REMARK SMILES IDX 3 1 4 2 5 3 6 4 2 5 1 6
REMARK H PARENT
REMARK Flexibility Score: inf
ROOT
ATOM      1  C   UNL     1       8.053  15.822  14.723  1.00  0.00     0.052 C 
ENDROOT
BRANCH   1   2
ATOM      2  C   UNL     1       7.734  14.373  14.525  1.00  0.00     0.041 C 
ATOM      3  O   UNL     1       6.834  14.028  13.715  1.00  0.00    -0.550 OA
ATOM      4  O   UNL     1       8.398  13.407  15.271  1.00  0.00    -0.550 OA
ENDBRANCH   1   2
BRANCH   1   5
ATOM      5  C   UNL     1       8.422  16.095  16.184  1.00  0.00     0.003 C 
ATOM      6  C   UNL     1       7.942  17.474  16.625  1.00  0.00     0.004 C 
ENDBRANCH   1   5
TORSDOF 2
ENDMDL
MODEL 6
REMARK VINA RESULT:    -2.616     15.144     15.623
REMARK INTER + INTRA:          -2.927
REMARK INTER:                  -2.899
REMARK INTRA:                  -0.028
REMARK UNBOUND:                -0.005
REMARK SMILES CCCC(=O)[O-]
REMARK SMILES IDX 3 1 4 2 5 3 6 4 2 5 1 6
REMARK H PARENT
REMARK Flexibility Score: inf
ROOT
ATOM      1  C   UNL     1       8.567  14.845  16.579  1.00  0.00     0.052 C 
ENDROOT
BRANCH   1   2
ATOM      2  C   UNL     1       8.504  13.826  17.673  1.00  0.00     0.041 C 
ATOM      3  O   UNL     1       8.802  12.625  17.439  1.00  0.00    -0.550 OA
ATOM      4  O   UNL     1       8.069  14.193  18.941  1.00  0.00    -0.550 OA
ENDBRANCH   1   2
BRANCH   1   5
ATOM      5  C   UNL     1       8.921  16.221  17.147  1.00  0.00     0.003 C 
ATOM      6  C   UNL     1       8.004  17.303  16.584  1.00  0.00     0.004 C 
ENDBRANCH   1   5
TORSDOF 2
ENDMDL
MODEL 7
REMARK VINA RESULT:    -2.594      9.874     10.652
REMARK INTER + INTRA:          -2.902
REMARK INTER:                  -2.832
REMARK INTRA:                  -0.071
REMARK UNBOUND:                -0.005
REMARK SMILES CCCC(=O)[O-]
REMARK SMILES IDX 3 1 4 2 5 3 6 4 2 5 1 6
REMARK H PARENT
REMARK Flexibility Score: inf
ROOT
ATOM      1  C   UNL     1       8.078  23.270  28.382  1.00  0.00     0.052 C 
ENDROOT
BRANCH   1   2
ATOM      2  C   UNL     1       9.248  22.336  28.387  1.00  0.00     0.041 C 
ATOM      3  O   UNL     1       9.620  21.792  29.461  1.00  0.00    -0.550 OA
ATOM      4  O   UNL     1       9.957  22.104  27.216  1.00  0.00    -0.550 OA
ENDBRANCH   1   2
BRANCH   1   5
ATOM      5  C   UNL     1       6.822  22.559  28.892  1.00  0.00     0.003 C 
ATOM      6  C   UNL     1       6.365  21.480  27.915  1.00  0.00     0.004 C 
ENDBRANCH   1   5
TORSDOF 2
ENDMDL
MODEL 8
REMARK VINA RESULT:    -2.585     15.736     16.595
REMARK INTER + INTRA:          -2.892
REMARK INTER:                  -2.875
REMARK INTRA:                  -0.017
REMARK UNBOUND:                -0.005
REMARK SMILES CCCC(=O)[O-]
REMARK SMILES IDX 3 1 4 2 5 3 6 4 2 5 1 6
REMARK H PARENT
REMARK Flexibility Score: inf
ROOT
ATOM      1  C   UNL     1       8.441  15.378  15.910  1.00  0.00     0.052 C 
ENDROOT
BRANCH   1   2
ATOM      2  C   UNL     1       8.466  16.621  16.745  1.00  0.00     0.041 C 
ATOM      3  O   UNL     1       7.674  17.567  16.496  1.00  0.00    -0.550 OA
ATOM      4  O   UNL     1       9.399  16.753  17.766  1.00  0.00    -0.550 OA
ENDBRANCH   1   2
BRANCH   1   5
ATOM      5  C   UNL     1       7.990  15.700  14.483  1.00  0.00     0.003 C 
ATOM      6  C   UNL     1       7.341  14.487  13.824  1.00  0.00     0.004 C 
ENDBRANCH   1   5
TORSDOF 2
ENDMDL
MODEL 9
REMARK VINA RESULT:    -2.536      6.145      6.927
REMARK INTER + INTRA:          -2.838
REMARK INTER:                  -2.768
REMARK INTRA:                  -0.069
REMARK UNBOUND:                -0.005
REMARK SMILES CCCC(=O)[O-]
REMARK SMILES IDX 3 1 4 2 5 3 6 4 2 5 1 6
REMARK H PARENT
REMARK Flexibility Score: inf
ROOT
ATOM      1  C   UNL     1      -1.225  11.786  29.909  1.00  0.00     0.052 C 
ENDROOT
BRANCH   1   2
ATOM      2  C   UNL     1      -1.630  11.243  31.244  1.00  0.00     0.041 C 
ATOM      3  O   UNL     1      -2.763  11.517  31.722  1.00  0.00    -0.550 OA
ATOM      4  O   UNL     1      -0.738  10.477  31.983  1.00  0.00    -0.550 OA
ENDBRANCH   1   2
BRANCH   1   5
ATOM      5  C   UNL     1      -1.223  13.316  29.931  1.00  0.00     0.003 C 
ATOM      6  C   UNL     1      -0.034  13.855  30.720  1.00  0.00     0.004 C 
ENDBRANCH   1   5
TORSDOF 2
ENDMDL
