MODEL 1
REMARK VINA RESULT:    -5.025      0.000      0.000
REMARK INTER + INTRA:         -11.168
REMARK INTER:                  -9.285
REMARK INTRA:                  -1.883
REMARK UNBOUND:                -1.883
REMARK SMILES CCCCCCCCCCCCCCCCO
REMARK SMILES IDX 9 1 8 2 7 3 6 4 5 5 4 6 3 7 2 8 1 9 10 10 11 11 12 12 13 13
REMARK SMILES IDX 14 14 15 15 16 16 17 17
REMARK H PARENT 17 18
REMARK Flexibility Score: inf
ROOT
ATOM      1  C   UNL     1      21.592  -3.154  21.469  1.00  0.00     0.000 C 
ENDROOT
BRANCH   1   2
ATOM      2  C   UNL     1      21.018  -3.229  22.892  1.00  0.00    -0.000 C 
BRANCH   2   3
ATOM      3  C   UNL     1      21.134  -1.875  23.602  1.00  0.00    -0.000 C 
BRANCH   3   4
ATOM      4  C   UNL     1      20.035  -0.912  23.136  1.00  0.00    -0.000 C 
BRANCH   4   5
ATOM      5  C   UNL     1      20.627   0.248  22.324  1.00  0.00    -0.000 C 
BRANCH   5   6
ATOM      6  C   UNL     1      19.716   0.699  21.168  1.00  0.00    -0.000 C 
BRANCH   6   7
ATOM      7  C   UNL     1      18.622  -0.308  20.770  1.00  0.00    -0.000 C 
BRANCH   7   8
ATOM      8  C   UNL     1      18.575  -0.575  19.259  1.00  0.00    -0.003 C 
ATOM      9  C   UNL     1      17.177  -0.325  18.699  1.00  0.00     0.004 C 
ENDBRANCH   7   8
ENDBRANCH   6   7
ENDBRANCH   5   6
ENDBRANCH   4   5
ENDBRANCH   3   4
ENDBRANCH   2   3
ENDBRANCH   1   2
BRANCH   1  10
ATOM     10  C   UNL     1      20.571  -3.558  20.391  1.00  0.00     0.000 C 
BRANCH  10  11
ATOM     11  C   UNL     1      19.190  -3.991  20.926  1.00  0.00     0.000 C 
BRANCH  11  12
ATOM     12  C   UNL     1      18.348  -4.831  19.948  1.00  0.00     0.000 C 
BRANCH  12  13
ATOM     13  C   UNL     1      17.059  -4.115  19.509  1.00  0.00     0.000 C 
BRANCH  13  14
ATOM     14  C   UNL     1      16.927  -4.023  17.980  1.00  0.00     0.002 C 
BRANCH  14  15
ATOM     15  C   UNL     1      15.461  -4.025  17.515  1.00  0.00     0.028 C 
BRANCH  15  16
ATOM     16  C   UNL     1      14.849  -5.429  17.565  1.00  0.00     0.156 C 
BRANCH  16  17
ATOM     17  O   UNL     1      14.011  -5.566  18.681  1.00  0.00    -0.396 OA
ATOM     18  H   UNL     1      14.587  -5.487  19.486  1.00  0.00     0.210 HD
ENDBRANCH  16  17
ENDBRANCH  15  16
ENDBRANCH  14  15
ENDBRANCH  13  14
ENDBRANCH  12  13
ENDBRANCH  11  12
ENDBRANCH  10  11
ENDBRANCH   1  10
TORSDOF 15
ENDMDL
MODEL 2
REMARK VINA RESULT:    -4.996      2.884      5.594
REMARK INTER + INTRA:         -11.114
REMARK INTER:                  -8.539
REMARK INTRA:                  -2.575
REMARK UNBOUND:                -1.883
REMARK SMILES CCCCCCCCCCCCCCCCO
REMARK SMILES IDX 9 1 8 2 7 3 6 4 5 5 4 6 3 7 2 8 1 9 10 10 11 11 12 12 13 13
REMARK SMILES IDX 14 14 15 15 16 16 17 17
REMARK H PARENT 17 18
REMARK Flexibility Score: inf
ROOT
ATOM      1  C   UNL     1      18.533  -4.054  21.186  1.00  0.00     0.000 C 
ENDROOT
BRANCH   1   2
ATOM      2  C   UNL     1      18.711  -4.802  19.857  1.00  0.00    -0.000 C 
BRANCH   2   3
ATOM      3  C   UNL     1      20.118  -4.582  19.288  1.00  0.00    -0.000 C 
BRANCH   3   4
ATOM      4  C   UNL     1      20.065  -4.284  17.785  1.00  0.00    -0.000 C 
BRANCH   4   5
ATOM      5  C   UNL     1      19.866  -2.784  17.527  1.00  0.00    -0.000 C 
BRANCH   5   6
ATOM      6  C   UNL     1      18.489  -2.456  16.923  1.00  0.00    -0.000 C 
BRANCH   6   7
ATOM      7  C   UNL     1      17.644  -1.454  17.730  1.00  0.00    -0.000 C 
BRANCH   7   8
ATOM      8  C   UNL     1      16.238  -1.979  18.054  1.00  0.00    -0.003 C 
ATOM      9  C   UNL     1      16.058  -3.411  17.554  1.00  0.00     0.004 C 
ENDBRANCH   7   8
ENDBRANCH   6   7
ENDBRANCH   5   6
ENDBRANCH   4   5
ENDBRANCH   3   4
ENDBRANCH   2   3
ENDBRANCH   1   2
BRANCH   1  10
ATOM     10  C   UNL     1      18.069  -2.599  20.994  1.00  0.00     0.000 C 
BRANCH  10  11
ATOM     11  C   UNL     1      18.993  -1.529  21.611  1.00  0.00     0.000 C 
BRANCH  11  12
ATOM     12  C   UNL     1      19.914  -0.808  20.610  1.00  0.00     0.000 C 
BRANCH  12  13
ATOM     13  C   UNL     1      21.355  -1.346  20.635  1.00  0.00     0.000 C 
BRANCH  13  14
ATOM     14  C   UNL     1      21.800  -1.776  22.042  1.00  0.00     0.002 C 
BRANCH  14  15
ATOM     15  C   UNL     1      22.110  -3.280  22.127  1.00  0.00     0.028 C 
BRANCH  15  16
ATOM     16  C   UNL     1      21.410  -3.941  23.319  1.00  0.00     0.156 C 
BRANCH  16  17
ATOM     17  O   UNL     1      22.158  -5.028  23.795  1.00  0.00    -0.396 OA
ATOM     18  H   UNL     1      21.747  -5.308  24.653  1.00  0.00     0.210 HD
ENDBRANCH  16  17
ENDBRANCH  15  16
ENDBRANCH  14  15
ENDBRANCH  13  14
ENDBRANCH  12  13
ENDBRANCH  11  12
ENDBRANCH  10  11
ENDBRANCH   1  10
TORSDOF 15
ENDMDL
MODEL 3
REMARK VINA RESULT:    -4.976      2.898      4.600
REMARK INTER + INTRA:         -11.077
REMARK INTER:                  -8.930
REMARK INTRA:                  -2.148
REMARK UNBOUND:                -1.883
REMARK SMILES CCCCCCCCCCCCCCCCO
REMARK SMILES IDX 9 1 8 2 7 3 6 4 5 5 4 6 3 7 2 8 1 9 10 10 11 11 12 12 13 13
REMARK SMILES IDX 14 14 15 15 16 16 17 17
REMARK H PARENT 17 18
REMARK Flexibility Score: inf
ROOT
ATOM      1  C   UNL     1      18.930   0.567  20.836  1.00  0.00     0.000 C 
ENDROOT
BRANCH   1   2
ATOM      2  C   UNL     1      20.428   0.333  20.588  1.00  0.00    -0.000 C 
BRANCH   2   3
ATOM      3  C   UNL     1      21.183   0.168  21.912  1.00  0.00    -0.000 C 
BRANCH   3   4
ATOM      4  C   UNL     1      20.216   0.161  23.102  1.00  0.00    -0.000 C 
BRANCH   4   5
ATOM      5  C   UNL     1      20.255  -1.187  23.836  1.00  0.00    -0.000 C 
BRANCH   5   6
ATOM      6  C   UNL     1      21.245  -2.184  23.208  1.00  0.00    -0.000 C 
BRANCH   6   7
ATOM      7  C   UNL     1      20.605  -3.450  22.611  1.00  0.00    -0.000 C 
BRANCH   7   8
ATOM      8  C   UNL     1      19.547  -3.139  21.543  1.00  0.00    -0.003 C 
ATOM      9  C   UNL     1      18.762  -4.392  21.165  1.00  0.00     0.004 C 
ENDBRANCH   7   8
ENDBRANCH   6   7
ENDBRANCH   5   6
ENDBRANCH   4   5
ENDBRANCH   3   4
ENDBRANCH   2   3
ENDBRANCH   1   2
BRANCH   1  10
ATOM     10  C   UNL     1      18.033  -0.318  19.953  1.00  0.00     0.000 C 
BRANCH  10  11
ATOM     11  C   UNL     1      18.693  -0.835  18.658  1.00  0.00     0.000 C 
BRANCH  11  12
ATOM     12  C   UNL     1      17.971  -2.018  17.988  1.00  0.00     0.000 C 
BRANCH  12  13
ATOM     13  C   UNL     1      18.908  -3.206  17.711  1.00  0.00     0.000 C 
BRANCH  13  14
ATOM     14  C   UNL     1      20.393  -2.817  17.793  1.00  0.00     0.002 C 
BRANCH  14  15
ATOM     15  C   UNL     1      21.274  -3.967  18.311  1.00  0.00     0.028 C 
BRANCH  15  16
ATOM     16  C   UNL     1      21.908  -4.761  17.164  1.00  0.00     0.156 C 
BRANCH  16  17
ATOM     17  O   UNL     1      22.995  -4.063  16.618  1.00  0.00    -0.396 OA
ATOM     18  H   UNL     1      23.818  -4.524  16.926  1.00  0.00     0.210 HD
ENDBRANCH  16  17
ENDBRANCH  15  16
ENDBRANCH  14  15
ENDBRANCH  13  14
ENDBRANCH  12  13
ENDBRANCH  11  12
ENDBRANCH  10  11
ENDBRANCH   1  10
TORSDOF 15
ENDMDL
MODEL 4
REMARK VINA RESULT:    -4.947      2.381      4.826
REMARK INTER + INTRA:         -11.024
REMARK INTER:                  -8.416
REMARK INTRA:                  -2.607
REMARK UNBOUND:                -1.883
REMARK SMILES CCCCCCCCCCCCCCCCO
REMARK SMILES IDX 9 1 8 2 7 3 6 4 5 5 4 6 3 7 2 8 1 9 10 10 11 11 12 12 13 13
REMARK SMILES IDX 14 14 15 15 16 16 17 17
REMARK H PARENT 17 18
REMARK Flexibility Score: inf
ROOT
ATOM      1  C   UNL     1      16.287  -2.219  18.237  1.00  0.00     0.000 C 
ENDROOT
BRANCH   1   2
ATOM      2  C   UNL     1      17.386  -1.171  18.472  1.00  0.00    -0.000 C 
BRANCH   2   3
ATOM      3  C   UNL     1      18.567  -1.393  17.520  1.00  0.00    -0.000 C 
BRANCH   3   4
ATOM      4  C   UNL     1      19.903  -1.143  18.230  1.00  0.00    -0.000 C 
BRANCH   4   5
ATOM      5  C   UNL     1      19.679  -0.590  19.645  1.00  0.00    -0.000 C 
BRANCH   5   6
ATOM      6  C   UNL     1      20.640  -1.194  20.684  1.00  0.00    -0.000 C 
BRANCH   6   7
ATOM      7  C   UNL     1      20.151  -1.122  22.143  1.00  0.00    -0.000 C 
BRANCH   7   8
ATOM      8  C   UNL     1      20.683  -2.273  23.009  1.00  0.00    -0.003 C 
ATOM      9  C   UNL     1      21.680  -3.130  22.232  1.00  0.00     0.004 C 
ENDBRANCH   7   8
ENDBRANCH   6   7
ENDBRANCH   5   6
ENDBRANCH   4   5
ENDBRANCH   3   4
ENDBRANCH   2   3
ENDBRANCH   1   2
BRANCH   1  10
ATOM     10  C   UNL     1      16.200  -3.257  19.369  1.00  0.00     0.000 C 
BRANCH  10  11
ATOM     11  C   UNL     1      17.147  -3.009  20.561  1.00  0.00     0.000 C 
BRANCH  11  12
ATOM     12  C   UNL     1      18.333  -3.985  20.664  1.00  0.00     0.000 C 
BRANCH  12  13
ATOM     13  C   UNL     1      18.282  -5.096  19.601  1.00  0.00     0.000 C 
BRANCH  13  14
ATOM     14  C   UNL     1      19.297  -4.876  18.468  1.00  0.00     0.002 C 
BRANCH  14  15
ATOM     15  C   UNL     1      20.713  -4.589  18.995  1.00  0.00     0.028 C 
BRANCH  15  16
ATOM     16  C   UNL     1      21.745  -4.548  17.863  1.00  0.00     0.156 C 
BRANCH  16  17
ATOM     17  O   UNL     1      21.141  -4.171  16.654  1.00  0.00    -0.396 OA
ATOM     18  H   UNL     1      20.717  -3.287  16.807  1.00  0.00     0.210 HD
ENDBRANCH  16  17
ENDBRANCH  15  16
ENDBRANCH  14  15
ENDBRANCH  13  14
ENDBRANCH  12  13
ENDBRANCH  11  12
ENDBRANCH  10  11
ENDBRANCH   1  10
TORSDOF 15
ENDMDL
MODEL 5
REMARK VINA RESULT:    -4.946      1.030      3.214
REMARK INTER + INTRA:         -11.022
REMARK INTER:                  -8.956
REMARK INTRA:                  -2.066
REMARK UNBOUND:                -1.883
REMARK SMILES CCCCCCCCCCCCCCCCO
REMARK SMILES IDX 9 1 8 2 7 3 6 4 5 5 4 6 3 7 2 8 1 9 10 10 11 11 12 12 13 13
REMARK SMILES IDX 14 14 15 15 16 16 17 17
REMARK H PARENT 17 18
REMARK Flexibility Score: inf
ROOT
ATOM      1  C   UNL     1      18.294  -0.571  20.556  1.00  0.00     0.000 C 
ENDROOT
BRANCH   1   2
ATOM      2  C   UNL     1      18.432  -0.391  22.074  1.00  0.00    -0.000 C 
BRANCH   2   3
ATOM      3  C   UNL     1      19.875  -0.038  22.455  1.00  0.00    -0.000 C 
BRANCH   3   4
ATOM      4  C   UNL     1      20.396  -0.965  23.560  1.00  0.00    -0.000 C 
BRANCH   4   5
ATOM      5  C   UNL     1      21.376  -2.002  22.992  1.00  0.00    -0.000 C 
BRANCH   5   6
ATOM      6  C   UNL     1      20.739  -3.390  22.805  1.00  0.00    -0.000 C 
BRANCH   6   7
ATOM      7  C   UNL     1      20.328  -3.730  21.361  1.00  0.00    -0.000 C 
BRANCH   7   8
ATOM      8  C   UNL     1      18.842  -4.095  21.232  1.00  0.00    -0.003 C 
ATOM      9  C   UNL     1      18.584  -4.907  19.965  1.00  0.00     0.004 C 
ENDBRANCH   7   8
ENDBRANCH   6   7
ENDBRANCH   5   6
ENDBRANCH   4   5
ENDBRANCH   3   4
ENDBRANCH   2   3
ENDBRANCH   1   2
BRANCH   1  10
ATOM     10  C   UNL     1      19.650  -0.583  19.829  1.00  0.00     0.000 C 
BRANCH  10  11
ATOM     11  C   UNL     1      19.670  -1.348  18.490  1.00  0.00     0.000 C 
BRANCH  11  12
ATOM     12  C   UNL     1      18.396  -1.202  17.639  1.00  0.00     0.000 C 
BRANCH  12  13
ATOM     13  C   UNL     1      17.838  -2.557  17.170  1.00  0.00     0.000 C 
BRANCH  13  14
ATOM     14  C   UNL     1      16.470  -2.880  17.792  1.00  0.00     0.002 C 
BRANCH  14  15
ATOM     15  C   UNL     1      15.724  -3.989  17.032  1.00  0.00     0.028 C 
BRANCH  15  16
ATOM     16  C   UNL     1      15.520  -5.237  17.897  1.00  0.00     0.156 C 
BRANCH  16  17
ATOM     17  O   UNL     1      14.255  -5.218  18.505  1.00  0.00    -0.396 OA
ATOM     18  H   UNL     1      14.309  -5.811  19.299  1.00  0.00     0.210 HD
ENDBRANCH  16  17
ENDBRANCH  15  16
ENDBRANCH  14  15
ENDBRANCH  13  14
ENDBRANCH  12  13
ENDBRANCH  11  12
ENDBRANCH  10  11
ENDBRANCH   1  10
TORSDOF 15
ENDMDL
MODEL 6
REMARK VINA RESULT:    -4.938      2.729      5.292
REMARK INTER + INTRA:         -11.006
REMARK INTER:                  -8.723
REMARK INTRA:                  -2.283
REMARK UNBOUND:                -1.883
REMARK SMILES CCCCCCCCCCCCCCCCO
REMARK SMILES IDX 9 1 8 2 7 3 6 4 5 5 4 6 3 7 2 8 1 9 10 10 11 11 12 12 13 13
REMARK SMILES IDX 14 14 15 15 16 16 17 17
REMARK H PARENT 17 18
REMARK Flexibility Score: inf
ROOT
ATOM      1  C   UNL     1      19.056  -0.625  19.759  1.00  0.00     0.000 C 
ENDROOT
BRANCH   1   2
ATOM      2  C   UNL     1      19.252  -1.123  18.319  1.00  0.00    -0.000 C 
BRANCH   2   3
ATOM      3  C   UNL     1      17.913  -1.190  17.575  1.00  0.00    -0.000 C 
BRANCH   3   4
ATOM      4  C   UNL     1      16.771  -0.647  18.443  1.00  0.00    -0.000 C 
BRANCH   4   5
ATOM      5  C   UNL     1      15.660  -1.693  18.608  1.00  0.00    -0.000 C 
BRANCH   5   6
ATOM      6  C   UNL     1      15.867  -2.934  17.722  1.00  0.00    -0.000 C 
BRANCH   6   7
ATOM      7  C   UNL     1      15.424  -4.267  18.353  1.00  0.00    -0.000 C 
BRANCH   7   8
ATOM      8  C   UNL     1      14.926  -5.283  17.316  1.00  0.00    -0.003 C 
ATOM      9  C   UNL     1      16.017  -5.611  16.300  1.00  0.00     0.004 C 
ENDBRANCH   7   8
ENDBRANCH   6   7
ENDBRANCH   5   6
ENDBRANCH   4   5
ENDBRANCH   3   4
ENDBRANCH   2   3
ENDBRANCH   1   2
BRANCH   1  10
ATOM     10  C   UNL     1      19.455  -1.673  20.813  1.00  0.00     0.000 C 
BRANCH  10  11
ATOM     11  C   UNL     1      18.408  -2.775  21.072  1.00  0.00     0.000 C 
BRANCH  11  12
ATOM     12  C   UNL     1      18.948  -4.215  21.006  1.00  0.00     0.000 C 
BRANCH  12  13
ATOM     13  C   UNL     1      18.405  -4.997  19.797  1.00  0.00     0.000 C 
BRANCH  13  14
ATOM     14  C   UNL     1      19.151  -4.662  18.495  1.00  0.00     0.002 C 
BRANCH  14  15
ATOM     15  C   UNL     1      20.603  -5.168  18.502  1.00  0.00     0.028 C 
BRANCH  15  16
ATOM     16  C   UNL     1      21.582  -4.100  18.005  1.00  0.00     0.156 C 
BRANCH  16  17
ATOM     17  O   UNL     1      22.101  -3.364  19.081  1.00  0.00    -0.396 OA
ATOM     18  H   UNL     1      21.345  -2.853  19.472  1.00  0.00     0.210 HD
ENDBRANCH  16  17
ENDBRANCH  15  16
ENDBRANCH  14  15
ENDBRANCH  13  14
ENDBRANCH  12  13
ENDBRANCH  11  12
ENDBRANCH  10  11
ENDBRANCH   1  10
TORSDOF 15
ENDMDL
MODEL 7
REMARK VINA RESULT:    -4.907      1.227      3.137
REMARK INTER + INTRA:         -10.950
REMARK INTER:                  -8.483
REMARK INTRA:                  -2.468
REMARK UNBOUND:                -1.883
REMARK SMILES CCCCCCCCCCCCCCCCO
REMARK SMILES IDX 9 1 8 2 7 3 6 4 5 5 4 6 3 7 2 8 1 9 10 10 11 11 12 12 13 13
REMARK SMILES IDX 14 14 15 15 16 16 17 17
REMARK H PARENT 17 18
REMARK Flexibility Score: inf
ROOT
ATOM      1  C   UNL     1      19.872   0.365  21.056  1.00  0.00     0.000 C 
ENDROOT
BRANCH   1   2
ATOM      2  C   UNL     1      19.906   0.433  22.590  1.00  0.00    -0.000 C 
BRANCH   2   3
ATOM      3  C   UNL     1      19.854  -0.972  23.202  1.00  0.00    -0.000 C 
BRANCH   3   4
ATOM      4  C   UNL     1      21.236  -1.636  23.181  1.00  0.00    -0.000 C 
BRANCH   4   5
ATOM      5  C   UNL     1      21.151  -3.068  22.635  1.00  0.00    -0.000 C 
BRANCH   5   6
ATOM      6  C   UNL     1      19.866  -3.329  21.830  1.00  0.00    -0.000 C 
BRANCH   6   7
ATOM      7  C   UNL     1      20.088  -3.754  20.367  1.00  0.00    -0.000 C 
BRANCH   7   8
ATOM      8  C   UNL     1      20.835  -2.696  19.543  1.00  0.00    -0.003 C 
ATOM      9  C   UNL     1      20.131  -2.436  18.214  1.00  0.00     0.004 C 
ENDBRANCH   7   8
ENDBRANCH   6   7
ENDBRANCH   5   6
ENDBRANCH   4   5
ENDBRANCH   3   4
ENDBRANCH   2   3
ENDBRANCH   1   2
BRANCH   1  10
ATOM     10  C   UNL     1      18.499   0.741  20.472  1.00  0.00     0.000 C 
BRANCH  10  11
ATOM     11  C   UNL     1      17.648  -0.448  19.981  1.00  0.00     0.000 C 
BRANCH  11  12
ATOM     12  C   UNL     1      16.827  -1.156  21.073  1.00  0.00     0.000 C 
BRANCH  12  13
ATOM     13  C   UNL     1      16.494  -2.615  20.715  1.00  0.00     0.000 C 
BRANCH  13  14
ATOM     14  C   UNL     1      16.368  -2.836  19.199  1.00  0.00     0.002 C 
BRANCH  14  15
ATOM     15  C   UNL     1      16.620  -4.298  18.794  1.00  0.00     0.028 C 
BRANCH  15  16
ATOM     16  C   UNL     1      15.472  -4.863  17.951  1.00  0.00     0.156 C 
BRANCH  16  17
ATOM     17  O   UNL     1      14.395  -5.241  18.768  1.00  0.00    -0.396 OA
ATOM     18  H   UNL     1      14.408  -4.640  19.558  1.00  0.00     0.210 HD
ENDBRANCH  16  17
ENDBRANCH  15  16
ENDBRANCH  14  15
ENDBRANCH  13  14
ENDBRANCH  12  13
ENDBRANCH  11  12
ENDBRANCH  10  11
ENDBRANCH   1  10
TORSDOF 15
ENDMDL
MODEL 8
REMARK VINA RESULT:    -4.891      2.853      3.834
REMARK INTER + INTRA:         -10.919
REMARK INTER:                  -8.485
REMARK INTRA:                  -2.435
REMARK UNBOUND:                -1.883
REMARK SMILES CCCCCCCCCCCCCCCCO
REMARK SMILES IDX 9 1 8 2 7 3 6 4 5 5 4 6 3 7 2 8 1 9 10 10 11 11 12 12 13 13
REMARK SMILES IDX 14 14 15 15 16 16 17 17
REMARK H PARENT 17 18
REMARK Flexibility Score: inf
ROOT
ATOM      1  C   UNL     1      20.499  -3.381  21.756  1.00  0.00     0.000 C 
ENDROOT
BRANCH   1   2
ATOM      2  C   UNL     1      20.398  -1.917  22.208  1.00  0.00    -0.000 C 
BRANCH   2   3
ATOM      3  C   UNL     1      21.027  -0.979  21.170  1.00  0.00    -0.000 C 
BRANCH   3   4
ATOM      4  C   UNL     1      19.954  -0.352  20.272  1.00  0.00    -0.000 C 
BRANCH   4   5
ATOM      5  C   UNL     1      18.650  -0.122  21.049  1.00  0.00    -0.000 C 
BRANCH   5   6
ATOM      6  C   UNL     1      17.465   0.245  20.139  1.00  0.00    -0.000 C 
BRANCH   6   7
ATOM      7  C   UNL     1      17.524  -0.349  18.720  1.00  0.00    -0.000 C 
BRANCH   7   8
ATOM      8  C   UNL     1      16.136  -0.658  18.142  1.00  0.00    -0.003 C 
ATOM      9  C   UNL     1      15.506  -1.862  18.838  1.00  0.00     0.004 C 
ENDBRANCH   7   8
ENDBRANCH   6   7
ENDBRANCH   5   6
ENDBRANCH   4   5
ENDBRANCH   3   4
ENDBRANCH   2   3
ENDBRANCH   1   2
BRANCH   1  10
ATOM     10  C   UNL     1      19.134  -4.090  21.719  1.00  0.00     0.000 C 
BRANCH  10  11
ATOM     11  C   UNL     1      18.258  -3.763  20.492  1.00  0.00     0.000 C 
BRANCH  11  12
ATOM     12  C   UNL     1      18.578  -4.580  19.227  1.00  0.00     0.000 C 
BRANCH  12  13
ATOM     13  C   UNL     1      18.951  -3.693  18.027  1.00  0.00     0.000 C 
BRANCH  13  14
ATOM     14  C   UNL     1      20.434  -3.289  18.029  1.00  0.00     0.002 C 
BRANCH  14  15
ATOM     15  C   UNL     1      21.370  -4.487  18.260  1.00  0.00     0.028 C 
BRANCH  15  16
ATOM     16  C   UNL     1      22.128  -4.873  16.986  1.00  0.00     0.156 C 
BRANCH  16  17
ATOM     17  O   UNL     1      22.916  -3.803  16.534  1.00  0.00    -0.396 OA
ATOM     18  H   UNL     1      22.509  -3.483  15.688  1.00  0.00     0.210 HD
ENDBRANCH  16  17
ENDBRANCH  15  16
ENDBRANCH  14  15
ENDBRANCH  13  14
ENDBRANCH  12  13
ENDBRANCH  11  12
ENDBRANCH  10  11
ENDBRANCH   1  10
TORSDOF 15
ENDMDL
MODEL 9
REMARK VINA RESULT:    -4.888      2.883      4.655
REMARK INTER + INTRA:         -10.915
REMARK INTER:                  -8.866
REMARK INTRA:                  -2.049
REMARK UNBOUND:                -1.883
REMARK SMILES CCCCCCCCCCCCCCCCO
REMARK SMILES IDX 9 1 8 2 7 3 6 4 5 5 4 6 3 7 2 8 1 9 10 10 11 11 12 12 13 13
REMARK SMILES IDX 14 14 15 15 16 16 17 17
REMARK H PARENT 17 18
REMARK Flexibility Score: inf
ROOT
ATOM      1  C   UNL     1      18.234  -0.486  19.541  1.00  0.00     0.000 C 
ENDROOT
BRANCH   1   2
ATOM      2  C   UNL     1      19.445  -0.334  20.472  1.00  0.00    -0.000 C 
BRANCH   2   3
ATOM      3  C   UNL     1      19.161   0.687  21.580  1.00  0.00    -0.000 C 
BRANCH   3   4
ATOM      4  C   UNL     1      20.046   0.432  22.806  1.00  0.00    -0.000 C 
BRANCH   4   5
ATOM      5  C   UNL     1      19.845  -0.992  23.344  1.00  0.00    -0.000 C 
BRANCH   5   6
ATOM      6  C   UNL     1      21.170  -1.697  23.686  1.00  0.00    -0.000 C 
BRANCH   6   7
ATOM      7  C   UNL     1      21.608  -2.782  22.685  1.00  0.00    -0.000 C 
BRANCH   7   8
ATOM      8  C   UNL     1      22.395  -2.216  21.495  1.00  0.00    -0.003 C 
ATOM      9  C   UNL     1      23.713  -1.596  21.952  1.00  0.00     0.004 C 
ENDBRANCH   7   8
ENDBRANCH   6   7
ENDBRANCH   5   6
ENDBRANCH   4   5
ENDBRANCH   3   4
ENDBRANCH   2   3
ENDBRANCH   1   2
BRANCH   1  10
ATOM     10  C   UNL     1      17.749  -1.942  19.424  1.00  0.00     0.000 C 
BRANCH  10  11
ATOM     11  C   UNL     1      17.641  -2.706  20.759  1.00  0.00     0.000 C 
BRANCH  11  12
ATOM     12  C   UNL     1      18.650  -3.856  20.934  1.00  0.00     0.000 C 
BRANCH  12  13
ATOM     13  C   UNL     1      19.037  -4.513  19.598  1.00  0.00     0.000 C 
BRANCH  13  14
ATOM     14  C   UNL     1      20.532  -4.359  19.276  1.00  0.00     0.002 C 
BRANCH  14  15
ATOM     15  C   UNL     1      20.779  -3.933  17.819  1.00  0.00     0.028 C 
BRANCH  15  16
ATOM     16  C   UNL     1      21.840  -4.806  17.141  1.00  0.00     0.156 C 
BRANCH  16  17
ATOM     17  O   UNL     1      22.905  -4.021  16.673  1.00  0.00    -0.396 OA
ATOM     18  H   UNL     1      22.621  -3.073  16.755  1.00  0.00     0.210 HD
ENDBRANCH  16  17
ENDBRANCH  15  16
ENDBRANCH  14  15
ENDBRANCH  13  14
ENDBRANCH  12  13
ENDBRANCH  11  12
ENDBRANCH  10  11
ENDBRANCH   1  10
TORSDOF 15
ENDMDL
