MODEL 1
REMARK VINA RESULT:    -4.191      0.000      0.000
REMARK INTER + INTRA:          -5.564
REMARK INTER:                  -5.416
REMARK INTRA:                  -0.147
REMARK UNBOUND:                -0.147
REMARK SMILES CCCCCCC(=O)[O-]
REMARK SMILES IDX 5 1 6 2 7 3 8 4 9 5 4 6 3 7 2 8 1 9
REMARK H PARENT
REMARK Flexibility Score: inf
ROOT
ATOM      1  C   UNL     1     116.829 165.479 122.034  1.00  0.00     0.006 C 
ENDROOT
BRANCH   1   2
ATOM      2  C   UNL     1     117.369 166.221 123.263  1.00  0.00     0.053 C 
BRANCH   2   3
ATOM      3  C   UNL     1     116.469 167.360 123.623  1.00  0.00     0.041 C 
ATOM      4  O   UNL     1     116.836 168.214 124.472  1.00  0.00    -0.550 OA
ATOM      5  O   UNL     1     115.203 167.451 123.060  1.00  0.00    -0.550 OA
ENDBRANCH   2   3
ENDBRANCH   1   2
BRANCH   1   6
ATOM      6  C   UNL     1     117.912 164.665 121.310  1.00  0.00     0.000 C 
BRANCH   6   7
ATOM      7  C   UNL     1     117.440 164.128 119.951  1.00  0.00    -0.000 C 
BRANCH   7   8
ATOM      8  C   UNL     1     116.772 165.235 119.126  1.00  0.00    -0.003 C 
ATOM      9  C   UNL     1     117.506 165.461 117.808  1.00  0.00     0.004 C 
ENDBRANCH   7   8
ENDBRANCH   6   7
ENDBRANCH   1   6
TORSDOF 5
ENDMDL
MODEL 2
REMARK VINA RESULT:    -4.125      1.353      2.164
REMARK INTER + INTRA:          -5.478
REMARK INTER:                  -5.226
REMARK INTRA:                  -0.252
REMARK UNBOUND:                -0.147
REMARK SMILES CCCCCCC(=O)[O-]
REMARK SMILES IDX 5 1 6 2 7 3 8 4 9 5 4 6 3 7 2 8 1 9
REMARK H PARENT
REMARK Flexibility Score: inf
ROOT
ATOM      1  C   UNL     1     117.985 165.855 123.037  1.00  0.00     0.006 C 
ENDROOT
BRANCH   1   2
ATOM      2  C   UNL     1     116.452 165.876 123.081  1.00  0.00     0.053 C 
BRANCH   2   3
ATOM      3  C   UNL     1     115.957 167.258 123.371  1.00  0.00     0.041 C 
ATOM      4  O   UNL     1     114.842 167.638 122.925  1.00  0.00    -0.550 OA
ATOM      5  O   UNL     1     116.749 168.144 124.090  1.00  0.00    -0.550 OA
ENDBRANCH   2   3
ENDBRANCH   1   2
BRANCH   1   6
ATOM      6  C   UNL     1     118.531 165.087 121.824  1.00  0.00     0.000 C 
BRANCH   6   7
ATOM      7  C   UNL     1     117.445 164.773 120.784  1.00  0.00    -0.000 C 
BRANCH   7   8
ATOM      8  C   UNL     1     117.724 163.435 120.088  1.00  0.00    -0.003 C 
ATOM      9  C   UNL     1     118.190 162.380 121.086  1.00  0.00     0.004 C 
ENDBRANCH   7   8
ENDBRANCH   6   7
ENDBRANCH   1   6
TORSDOF 5
ENDMDL
MODEL 3
REMARK VINA RESULT:    -4.021      1.949      2.372
REMARK INTER + INTRA:          -5.343
REMARK INTER:                  -5.172
REMARK INTRA:                  -0.171
REMARK UNBOUND:                -0.147
REMARK SMILES CCCCCCC(=O)[O-]
REMARK SMILES IDX 5 1 6 2 7 3 8 4 9 5 4 6 3 7 2 8 1 9
REMARK H PARENT
REMARK Flexibility Score: inf
ROOT
ATOM      1  C   UNL     1     117.989 164.884 121.654  1.00  0.00     0.006 C 
ENDROOT
BRANCH   1   2
ATOM      2  C   UNL     1     119.233 164.906 122.551  1.00  0.00     0.053 C 
BRANCH   2   3
ATOM      3  C   UNL     1     119.502 166.295 123.039  1.00  0.00     0.041 C 
ATOM      4  O   UNL     1     120.652 166.793 122.928  1.00  0.00    -0.550 OA
ATOM      5  O   UNL     1     118.494 167.019 123.662  1.00  0.00    -0.550 OA
ENDBRANCH   2   3
ENDBRANCH   1   2
BRANCH   1   6
ATOM      6  C   UNL     1     117.854 163.575 120.860  1.00  0.00     0.000 C 
BRANCH   6   7
ATOM      7  C   UNL     1     117.335 163.800 119.432  1.00  0.00    -0.000 C 
BRANCH   7   8
ATOM      8  C   UNL     1     117.271 165.297 119.102  1.00  0.00    -0.003 C 
ATOM      9  C   UNL     1     117.538 165.547 117.621  1.00  0.00     0.004 C 
ENDBRANCH   7   8
ENDBRANCH   6   7
ENDBRANCH   1   6
TORSDOF 5
ENDMDL
MODEL 4
REMARK VINA RESULT:    -3.957      1.564      2.306
REMARK INTER + INTRA:          -5.261
REMARK INTER:                  -5.167
REMARK INTRA:                  -0.094
REMARK UNBOUND:                -0.147
REMARK SMILES CCCCCCC(=O)[O-]
REMARK SMILES IDX 5 1 6 2 7 3 8 4 9 5 4 6 3 7 2 8 1 9
REMARK H PARENT
REMARK Flexibility Score: inf
ROOT
ATOM      1  C   UNL     1     117.360 164.399 120.953  1.00  0.00     0.006 C 
ENDROOT
BRANCH   1   2
ATOM      2  C   UNL     1     118.503 165.028 121.760  1.00  0.00     0.053 C 
BRANCH   2   3
ATOM      3  C   UNL     1     117.959 165.853 122.883  1.00  0.00     0.041 C 
ATOM      4  O   UNL     1     116.723 165.857 123.125  1.00  0.00    -0.550 OA
ATOM      5  O   UNL     1     118.809 166.658 123.630  1.00  0.00    -0.550 OA
ENDBRANCH   2   3
ENDBRANCH   1   2
BRANCH   1   6
ATOM      6  C   UNL     1     116.941 165.261 119.752  1.00  0.00     0.000 C 
BRANCH   6   7
ATOM      7  C   UNL     1     117.445 164.696 118.415  1.00  0.00    -0.000 C 
BRANCH   7   8
ATOM      8  C   UNL     1     117.471 165.786 117.336  1.00  0.00    -0.003 C 
ATOM      9  C   UNL     1     118.210 165.310 116.089  1.00  0.00     0.004 C 
ENDBRANCH   7   8
ENDBRANCH   6   7
ENDBRANCH   1   6
TORSDOF 5
ENDMDL
MODEL 5
REMARK VINA RESULT:    -3.898     14.056     15.029
REMARK INTER + INTRA:          -5.185
REMARK INTER:                  -4.983
REMARK INTRA:                  -0.202
REMARK UNBOUND:                -0.147
REMARK SMILES CCCCCCC(=O)[O-]
REMARK SMILES IDX 5 1 6 2 7 3 8 4 9 5 4 6 3 7 2 8 1 9
REMARK H PARENT
REMARK Flexibility Score: inf
ROOT
ATOM      1  C   UNL     1     122.324 178.909 125.888  1.00  0.00     0.006 C 
ENDROOT
BRANCH   1   2
ATOM      2  C   UNL     1     123.402 179.462 126.828  1.00  0.00     0.053 C 
BRANCH   2   3
ATOM      3  C   UNL     1     123.355 178.759 128.148  1.00  0.00     0.041 C 
ATOM      4  O   UNL     1     122.910 177.583 128.224  1.00  0.00    -0.550 OA
ATOM      5  O   UNL     1     123.753 179.419 129.302  1.00  0.00    -0.550 OA
ENDBRANCH   2   3
ENDBRANCH   1   2
BRANCH   1   6
ATOM      6  C   UNL     1     120.996 179.676 125.994  1.00  0.00     0.000 C 
BRANCH   6   7
ATOM      7  C   UNL     1     120.332 179.901 124.627  1.00  0.00    -0.000 C 
BRANCH   7   8
ATOM      8  C   UNL     1     120.940 178.978 123.564  1.00  0.00    -0.003 C 
ATOM      9  C   UNL     1     120.811 179.582 122.169  1.00  0.00     0.004 C 
ENDBRANCH   7   8
ENDBRANCH   6   7
ENDBRANCH   1   6
TORSDOF 5
ENDMDL
MODEL 6
REMARK VINA RESULT:    -3.880     13.964     14.954
REMARK INTER + INTRA:          -5.161
REMARK INTER:                  -4.814
REMARK INTRA:                  -0.348
REMARK UNBOUND:                -0.147
REMARK SMILES CCCCCCC(=O)[O-]
REMARK SMILES IDX 5 1 6 2 7 3 8 4 9 5 4 6 3 7 2 8 1 9
REMARK H PARENT
REMARK Flexibility Score: inf
ROOT
ATOM      1  C   UNL     1     120.610 180.092 125.614  1.00  0.00     0.006 C 
ENDROOT
BRANCH   1   2
ATOM      2  C   UNL     1     119.865 179.571 124.379  1.00  0.00     0.053 C 
BRANCH   2   3
ATOM      3  C   UNL     1     120.836 179.154 123.319  1.00  0.00     0.041 C 
ATOM      4  O   UNL     1     121.690 178.261 123.559  1.00  0.00    -0.550 OA
ATOM      5  O   UNL     1     120.831 179.789 122.084  1.00  0.00    -0.550 OA
ENDBRANCH   2   3
ENDBRANCH   1   2
BRANCH   1   6
ATOM      6  C   UNL     1     120.470 179.159 126.827  1.00  0.00     0.000 C 
BRANCH   6   7
ATOM      7  C   UNL     1     121.793 178.971 127.584  1.00  0.00    -0.000 C 
BRANCH   7   8
ATOM      8  C   UNL     1     122.984 179.417 126.726  1.00  0.00    -0.003 C 
ATOM      9  C   UNL     1     123.851 178.227 126.324  1.00  0.00     0.004 C 
ENDBRANCH   7   8
ENDBRANCH   6   7
ENDBRANCH   1   6
TORSDOF 5
ENDMDL
MODEL 7
REMARK VINA RESULT:    -3.848      3.633      5.504
REMARK INTER + INTRA:          -5.120
REMARK INTER:                  -5.013
REMARK INTRA:                  -0.108
REMARK UNBOUND:                -0.147
REMARK SMILES CCCCCCC(=O)[O-]
REMARK SMILES IDX 5 1 6 2 7 3 8 4 9 5 4 6 3 7 2 8 1 9
REMARK H PARENT
REMARK Flexibility Score: inf
ROOT
ATOM      1  C   UNL     1     117.067 165.116 119.138  1.00  0.00     0.006 C 
ENDROOT
BRANCH   1   2
ATOM      2  C   UNL     1     117.705 164.585 117.847  1.00  0.00     0.053 C 
BRANCH   2   3
ATOM      3  C   UNL     1     117.709 165.645 116.792  1.00  0.00     0.041 C 
ATOM      4  O   UNL     1     117.092 166.726 116.977  1.00  0.00    -0.550 OA
ATOM      5  O   UNL     1     118.352 165.419 115.582  1.00  0.00    -0.550 OA
ENDBRANCH   2   3
ENDBRANCH   1   2
BRANCH   1   6
ATOM      6  C   UNL     1     117.409 164.255 120.364  1.00  0.00     0.000 C 
BRANCH   6   7
ATOM      7  C   UNL     1     117.509 165.080 121.656  1.00  0.00    -0.000 C 
BRANCH   7   8
ATOM      8  C   UNL     1     118.952 165.114 122.173  1.00  0.00    -0.003 C 
ATOM      9  C   UNL     1     119.113 166.133 123.297  1.00  0.00     0.004 C 
ENDBRANCH   7   8
ENDBRANCH   6   7
ENDBRANCH   1   6
TORSDOF 5
ENDMDL
MODEL 8
REMARK VINA RESULT:    -3.838     13.291     14.548
REMARK INTER + INTRA:          -5.107
REMARK INTER:                  -4.914
REMARK INTRA:                  -0.194
REMARK UNBOUND:                -0.147
REMARK SMILES CCCCCCC(=O)[O-]
REMARK SMILES IDX 5 1 6 2 7 3 8 4 9 5 4 6 3 7 2 8 1 9
REMARK H PARENT
REMARK Flexibility Score: inf
ROOT
ATOM      1  C   UNL     1     118.071 180.019 125.554  1.00  0.00     0.006 C 
ENDROOT
BRANCH   1   2
ATOM      2  C   UNL     1     117.959 178.683 124.808  1.00  0.00     0.053 C 
BRANCH   2   3
ATOM      3  C   UNL     1     117.762 178.918 123.343  1.00  0.00     0.041 C 
ATOM      4  O   UNL     1     118.747 178.900 122.560  1.00  0.00    -0.550 OA
ATOM      5  O   UNL     1     116.496 179.207 122.850  1.00  0.00    -0.550 OA
ENDBRANCH   2   3
ENDBRANCH   1   2
BRANCH   1   6
ATOM      6  C   UNL     1     119.308 180.088 126.462  1.00  0.00     0.000 C 
BRANCH   6   7
ATOM      7  C   UNL     1     120.620 179.878 125.691  1.00  0.00    -0.000 C 
BRANCH   7   8
ATOM      8  C   UNL     1     121.545 178.909 126.437  1.00  0.00    -0.003 C 
ATOM      9  C   UNL     1     122.944 179.496 126.600  1.00  0.00     0.004 C 
ENDBRANCH   7   8
ENDBRANCH   6   7
ENDBRANCH   1   6
TORSDOF 5
ENDMDL
MODEL 9
REMARK VINA RESULT:    -3.819      1.145      1.799
REMARK INTER + INTRA:          -5.083
REMARK INTER:                  -4.990
REMARK INTRA:                  -0.093
REMARK UNBOUND:                -0.147
REMARK SMILES CCCCCCC(=O)[O-]
REMARK SMILES IDX 5 1 6 2 7 3 8 4 9 5 4 6 3 7 2 8 1 9
REMARK H PARENT
REMARK Flexibility Score: inf
ROOT
ATOM      1  C   UNL     1     117.364 166.184 123.293  1.00  0.00     0.006 C 
ENDROOT
BRANCH   1   2
ATOM      2  C   UNL     1     116.383 166.157 124.471  1.00  0.00     0.053 C 
BRANCH   2   3
ATOM      3  C   UNL     1     116.562 167.369 125.329  1.00  0.00     0.041 C 
ATOM      4  O   UNL     1     116.200 167.351 126.535  1.00  0.00    -0.550 OA
ATOM      5  O   UNL     1     117.083 168.536 124.784  1.00  0.00    -0.550 OA
ENDBRANCH   2   3
ENDBRANCH   1   2
BRANCH   1   6
ATOM      6  C   UNL     1     116.824 165.450 122.056  1.00  0.00     0.000 C 
BRANCH   6   7
ATOM      7  C   UNL     1     117.936 164.782 121.232  1.00  0.00    -0.000 C 
BRANCH   7   8
ATOM      8  C   UNL     1     117.356 164.080 119.998  1.00  0.00    -0.003 C 
ATOM      9  C   UNL     1     117.306 165.023 118.799  1.00  0.00     0.004 C 
ENDBRANCH   7   8
ENDBRANCH   6   7
ENDBRANCH   1   6
TORSDOF 5
ENDMDL
