MODEL 1
REMARK VINA RESULT:    -2.456      0.000      0.000
REMARK INTER + INTRA:          -3.675
REMARK INTER:                  -3.318
REMARK INTRA:                  -0.358
REMARK UNBOUND:                -0.358
REMARK SMILES CCCCCCCC(=O)[O-]
REMARK SMILES IDX 5 1 6 2 7 3 8 4 9 5 10 6 4 7 3 8 2 9 1 10
REMARK H PARENT
REMARK Flexibility Score: inf
ROOT
ATOM      1  C   UNL     1      52.213 -35.614  24.209  1.00  0.00     0.000 C 
ENDROOT
BRANCH   1   2
ATOM      2  C   UNL     1      51.580 -34.754  23.105  1.00  0.00     0.006 C 
BRANCH   2   3
ATOM      3  C   UNL     1      50.792 -33.586  23.704  1.00  0.00     0.053 C 
BRANCH   3   4
ATOM      4  C   UNL     1      51.367 -32.280  23.256  1.00  0.00     0.041 C 
ATOM      5  O   UNL     1      52.580 -32.015  23.468  1.00  0.00    -0.550 OA
ATOM      6  O   UNL     1      50.553 -31.334  22.647  1.00  0.00    -0.550 OA
ENDBRANCH   3   4
ENDBRANCH   2   3
ENDBRANCH   1   2
BRANCH   1   7
ATOM      7  C   UNL     1      53.752 -35.610  24.163  1.00  0.00     0.000 C 
BRANCH   7   8
ATOM      8  C   UNL     1      54.367 -34.994  22.890  1.00  0.00    -0.000 C 
BRANCH   8   9
ATOM      9  C   UNL     1      55.123 -35.985  21.988  1.00  0.00    -0.003 C 
ATOM     10  C   UNL     1      56.477 -36.399  22.564  1.00  0.00     0.004 C 
ENDBRANCH   8   9
ENDBRANCH   7   8
ENDBRANCH   1   7
TORSDOF 6
ENDMDL
MODEL 2
REMARK VINA RESULT:    -2.431      3.586      5.579
REMARK INTER + INTRA:          -3.641
REMARK INTER:                  -3.434
REMARK INTRA:                  -0.207
REMARK UNBOUND:                -0.358
REMARK SMILES CCCCCCCC(=O)[O-]
REMARK SMILES IDX 5 1 6 2 7 3 8 4 9 5 10 6 4 7 3 8 2 9 1 10
REMARK H PARENT
REMARK Flexibility Score: inf
ROOT
ATOM      1  C   UNL     1      53.655 -35.242  23.356  1.00  0.00     0.000 C 
ENDROOT
BRANCH   1   2
ATOM      2  C   UNL     1      55.026 -34.855  22.781  1.00  0.00     0.006 C 
BRANCH   2   3
ATOM      3  C   UNL     1      55.672 -36.042  22.061  1.00  0.00     0.053 C 
BRANCH   3   4
ATOM      4  C   UNL     1      56.970 -36.405  22.710  1.00  0.00     0.041 C 
ATOM      5  O   UNL     1      58.061 -36.100  22.158  1.00  0.00    -0.550 OA
ATOM      6  O   UNL     1      56.977 -37.125  23.897  1.00  0.00    -0.550 OA
ENDBRANCH   3   4
ENDBRANCH   2   3
ENDBRANCH   1   2
BRANCH   1   7
ATOM      7  C   UNL     1      52.851 -34.028  23.857  1.00  0.00     0.000 C 
BRANCH   7   8
ATOM      8  C   UNL     1      51.355 -34.036  23.485  1.00  0.00    -0.000 C 
BRANCH   8   9
ATOM      9  C   UNL     1      50.781 -32.668  23.075  1.00  0.00    -0.003 C 
ATOM     10  C   UNL     1      51.823 -31.551  23.105  1.00  0.00     0.004 C 
ENDBRANCH   8   9
ENDBRANCH   7   8
ENDBRANCH   1   7
TORSDOF 6
ENDMDL
MODEL 3
REMARK VINA RESULT:    -2.427      2.752      5.168
REMARK INTER + INTRA:          -3.636
REMARK INTER:                  -3.439
REMARK INTRA:                  -0.197
REMARK UNBOUND:                -0.358
REMARK SMILES CCCCCCCC(=O)[O-]
REMARK SMILES IDX 5 1 6 2 7 3 8 4 9 5 10 6 4 7 3 8 2 9 1 10
REMARK H PARENT
REMARK Flexibility Score: inf
ROOT
ATOM      1  C   UNL     1      52.599 -33.877  23.852  1.00  0.00     0.000 C 
ENDROOT
BRANCH   1   2
ATOM      2  C   UNL     1      53.138 -35.185  23.254  1.00  0.00     0.006 C 
BRANCH   2   3
ATOM      3  C   UNL     1      54.614 -35.383  23.611  1.00  0.00     0.053 C 
BRANCH   3   4
ATOM      4  C   UNL     1      55.391 -35.814  22.408  1.00  0.00     0.041 C 
ATOM      5  O   UNL     1      56.644 -35.931  22.472  1.00  0.00    -0.550 OA
ATOM      6  O   UNL     1      54.740 -36.038  21.202  1.00  0.00    -0.550 OA
ENDBRANCH   3   4
ENDBRANCH   2   3
ENDBRANCH   1   2
BRANCH   1   7
ATOM      7  C   UNL     1      51.075 -33.727  23.687  1.00  0.00     0.000 C 
BRANCH   7   8
ATOM      8  C   UNL     1      50.617 -32.427  22.996  1.00  0.00    -0.000 C 
BRANCH   8   9
ATOM      9  C   UNL     1      51.646 -31.283  23.017  1.00  0.00    -0.003 C 
ATOM     10  C   UNL     1      50.997 -29.899  23.030  1.00  0.00     0.004 C 
ENDBRANCH   8   9
ENDBRANCH   7   8
ENDBRANCH   1   7
TORSDOF 6
ENDMDL
MODEL 4
REMARK VINA RESULT:    -2.386      4.188      5.693
REMARK INTER + INTRA:          -3.581
REMARK INTER:                  -3.052
REMARK INTRA:                  -0.529
REMARK UNBOUND:                -0.358
REMARK SMILES CCCCCCCC(=O)[O-]
REMARK SMILES IDX 5 1 6 2 7 3 8 4 9 5 10 6 4 7 3 8 2 9 1 10
REMARK H PARENT
REMARK Flexibility Score: inf
ROOT
ATOM      1  C   UNL     1      54.614 -35.668  22.349  1.00  0.00     0.000 C 
ENDROOT
BRANCH   1   2
ATOM      2  C   UNL     1      56.004 -36.185  21.948  1.00  0.00     0.006 C 
BRANCH   2   3
ATOM      3  C   UNL     1      56.932 -36.259  23.164  1.00  0.00     0.053 C 
BRANCH   3   4
ATOM      4  C   UNL     1      58.350 -36.012  22.757  1.00  0.00     0.041 C 
ATOM      5  O   UNL     1      58.920 -36.788  21.944  1.00  0.00    -0.550 OA
ATOM      6  O   UNL     1      59.059 -34.956  23.313  1.00  0.00    -0.550 OA
ENDBRANCH   3   4
ENDBRANCH   2   3
ENDBRANCH   1   2
BRANCH   1   7
ATOM      7  C   UNL     1      54.523 -35.288  23.838  1.00  0.00     0.000 C 
BRANCH   7   8
ATOM      8  C   UNL     1      54.132 -33.823  24.116  1.00  0.00    -0.000 C 
BRANCH   8   9
ATOM      9  C   UNL     1      55.064 -32.772  23.489  1.00  0.00    -0.003 C 
ATOM     10  C   UNL     1      56.425 -32.694  24.180  1.00  0.00     0.004 C 
ENDBRANCH   8   9
ENDBRANCH   7   8
ENDBRANCH   1   7
TORSDOF 6
ENDMDL
MODEL 5
REMARK VINA RESULT:    -2.356      3.727      5.809
REMARK INTER + INTRA:          -3.540
REMARK INTER:                  -3.290
REMARK INTRA:                  -0.251
REMARK UNBOUND:                -0.358
REMARK SMILES CCCCCCCC(=O)[O-]
REMARK SMILES IDX 5 1 6 2 7 3 8 4 9 5 10 6 4 7 3 8 2 9 1 10
REMARK H PARENT
REMARK Flexibility Score: inf
ROOT
ATOM      1  C   UNL     1      54.544 -35.642  22.261  1.00  0.00     0.000 C 
ENDROOT
BRANCH   1   2
ATOM      2  C   UNL     1      55.997 -36.022  21.938  1.00  0.00     0.006 C 
BRANCH   2   3
ATOM      3  C   UNL     1      56.847 -36.066  23.210  1.00  0.00     0.053 C 
BRANCH   3   4
ATOM      4  C   UNL     1      58.297 -35.904  22.879  1.00  0.00     0.041 C 
ATOM      5  O   UNL     1      58.945 -34.926  23.337  1.00  0.00    -0.550 OA
ATOM      6  O   UNL     1      58.920 -36.803  22.024  1.00  0.00    -0.550 OA
ENDBRANCH   3   4
ENDBRANCH   2   3
ENDBRANCH   1   2
BRANCH   1   7
ATOM      7  C   UNL     1      54.346 -35.229  23.730  1.00  0.00     0.000 C 
BRANCH   7   8
ATOM      8  C   UNL     1      52.974 -35.593  24.333  1.00  0.00    -0.000 C 
BRANCH   8   9
ATOM      9  C   UNL     1      51.760 -35.133  23.507  1.00  0.00    -0.003 C 
ATOM     10  C   UNL     1      51.574 -33.616  23.516  1.00  0.00     0.004 C 
ENDBRANCH   8   9
ENDBRANCH   7   8
ENDBRANCH   1   7
TORSDOF 6
ENDMDL
MODEL 6
REMARK VINA RESULT:    -2.352      4.072      5.705
REMARK INTER + INTRA:          -3.535
REMARK INTER:                  -2.981
REMARK INTRA:                  -0.554
REMARK UNBOUND:                -0.358
REMARK SMILES CCCCCCCC(=O)[O-]
REMARK SMILES IDX 5 1 6 2 7 3 8 4 9 5 10 6 4 7 3 8 2 9 1 10
REMARK H PARENT
REMARK Flexibility Score: inf
ROOT
ATOM      1  C   UNL     1      55.477 -35.977  21.919  1.00  0.00     0.000 C 
ENDROOT
BRANCH   1   2
ATOM      2  C   UNL     1      56.579 -36.650  22.751  1.00  0.00     0.006 C 
BRANCH   2   3
ATOM      3  C   UNL     1      57.947 -36.031  22.450  1.00  0.00     0.053 C 
BRANCH   3   4
ATOM      4  C   UNL     1      58.460 -35.287  23.643  1.00  0.00     0.041 C 
ATOM      5  O   UNL     1      59.404 -34.463  23.517  1.00  0.00    -0.550 OA
ATOM      6  O   UNL     1      57.930 -35.540  24.901  1.00  0.00    -0.550 OA
ENDBRANCH   3   4
ENDBRANCH   2   3
ENDBRANCH   1   2
BRANCH   1   7
ATOM      7  C   UNL     1      54.300 -35.477  22.776  1.00  0.00     0.000 C 
BRANCH   7   8
ATOM      8  C   UNL     1      54.687 -34.530  23.930  1.00  0.00    -0.000 C 
BRANCH   8   9
ATOM      9  C   UNL     1      54.790 -33.044  23.544  1.00  0.00    -0.003 C 
ATOM     10  C   UNL     1      56.124 -32.416  23.946  1.00  0.00     0.004 C 
ENDBRANCH   8   9
ENDBRANCH   7   8
ENDBRANCH   1   7
TORSDOF 6
ENDMDL
MODEL 7
REMARK VINA RESULT:    -2.344      1.284      1.966
REMARK INTER + INTRA:          -3.524
REMARK INTER:                  -3.277
REMARK INTRA:                  -0.247
REMARK UNBOUND:                -0.358
REMARK SMILES CCCCCCCC(=O)[O-]
REMARK SMILES IDX 5 1 6 2 7 3 8 4 9 5 10 6 4 7 3 8 2 9 1 10
REMARK H PARENT
REMARK Flexibility Score: inf
ROOT
ATOM      1  C   UNL     1      54.824 -33.544  23.457  1.00  0.00     0.000 C 
ENDROOT
BRANCH   1   2
ATOM      2  C   UNL     1      53.672 -32.661  23.959  1.00  0.00     0.006 C 
BRANCH   2   3
ATOM      3  C   UNL     1      52.324 -33.365  23.779  1.00  0.00     0.053 C 
BRANCH   3   4
ATOM      4  C   UNL     1      51.308 -32.417  23.225  1.00  0.00     0.041 C 
ATOM      5  O   UNL     1      50.122 -32.799  23.038  1.00  0.00    -0.550 OA
ATOM      6  O   UNL     1      51.679 -31.128  22.868  1.00  0.00    -0.550 OA
ENDBRANCH   3   4
ENDBRANCH   2   3
ENDBRANCH   1   2
BRANCH   1   7
ATOM      7  C   UNL     1      54.382 -34.986  23.147  1.00  0.00     0.000 C 
BRANCH   7   8
ATOM      8  C   UNL     1      55.131 -35.664  21.982  1.00  0.00    -0.000 C 
BRANCH   8   9
ATOM      9  C   UNL     1      56.218 -36.668  22.406  1.00  0.00    -0.003 C 
ATOM     10  C   UNL     1      57.542 -35.995  22.765  1.00  0.00     0.004 C 
ENDBRANCH   8   9
ENDBRANCH   7   8
ENDBRANCH   1   7
TORSDOF 6
ENDMDL
MODEL 8
REMARK VINA RESULT:    -2.267      2.784      4.758
REMARK INTER + INTRA:          -3.420
REMARK INTER:                  -3.000
REMARK INTRA:                  -0.420
REMARK UNBOUND:                -0.358
REMARK SMILES CCCCCCCC(=O)[O-]
REMARK SMILES IDX 5 1 6 2 7 3 8 4 9 5 10 6 4 7 3 8 2 9 1 10
REMARK H PARENT
REMARK Flexibility Score: inf
ROOT
ATOM      1  C   UNL     1      53.810 -33.430  24.512  1.00  0.00     0.000 C 
ENDROOT
BRANCH   1   2
ATOM      2  C   UNL     1      54.961 -33.929  23.627  1.00  0.00     0.006 C 
BRANCH   2   3
ATOM      3  C   UNL     1      55.138 -35.445  23.761  1.00  0.00     0.053 C 
BRANCH   3   4
ATOM      4  C   UNL     1      55.620 -36.032  22.473  1.00  0.00     0.041 C 
ATOM      5  O   UNL     1      56.758 -36.569  22.408  1.00  0.00    -0.550 OA
ATOM      6  O   UNL     1      54.836 -35.943  21.330  1.00  0.00    -0.550 OA
ENDBRANCH   3   4
ENDBRANCH   2   3
ENDBRANCH   1   2
BRANCH   1   7
ATOM      7  C   UNL     1      52.731 -32.670  23.719  1.00  0.00     0.000 C 
BRANCH   7   8
ATOM      8  C   UNL     1      51.365 -33.379  23.627  1.00  0.00    -0.000 C 
BRANCH   8   9
ATOM      9  C   UNL     1      51.415 -34.815  23.076  1.00  0.00    -0.003 C 
ATOM     10  C   UNL     1      51.016 -35.864  24.114  1.00  0.00     0.004 C 
ENDBRANCH   8   9
ENDBRANCH   7   8
ENDBRANCH   1   7
TORSDOF 6
ENDMDL
MODEL 9
REMARK VINA RESULT:    -2.243      3.017      4.602
REMARK INTER + INTRA:          -3.387
REMARK INTER:                  -2.747
REMARK INTRA:                  -0.640
REMARK UNBOUND:                -0.358
REMARK SMILES CCCCCCCC(=O)[O-]
REMARK SMILES IDX 5 1 6 2 7 3 8 4 9 5 10 6 4 7 3 8 2 9 1 10
REMARK H PARENT
REMARK Flexibility Score: inf
ROOT
ATOM      1  C   UNL     1      57.018 -37.047  23.420  1.00  0.00     0.000 C 
ENDROOT
BRANCH   1   2
ATOM      2  C   UNL     1      56.765 -36.045  22.283  1.00  0.00     0.006 C 
BRANCH   2   3
ATOM      3  C   UNL     1      55.269 -35.927  21.980  1.00  0.00     0.053 C 
BRANCH   3   4
ATOM      4  C   UNL     1      54.596 -35.056  22.994  1.00  0.00     0.041 C 
ATOM      5  O   UNL     1      55.148 -33.991  23.379  1.00  0.00    -0.550 OA
ATOM      6  O   UNL     1      53.385 -35.444  23.550  1.00  0.00    -0.550 OA
ENDBRANCH   3   4
ENDBRANCH   2   3
ENDBRANCH   1   2
BRANCH   1   7
ATOM      7  C   UNL     1      57.900 -36.469  24.541  1.00  0.00     0.000 C 
BRANCH   7   8
ATOM      8  C   UNL     1      57.137 -35.982  25.789  1.00  0.00    -0.000 C 
BRANCH   8   9
ATOM      9  C   UNL     1      55.835 -36.743  26.093  1.00  0.00    -0.003 C 
ATOM     10  C   UNL     1      54.776 -35.868  26.762  1.00  0.00     0.004 C 
ENDBRANCH   8   9
ENDBRANCH   7   8
ENDBRANCH   1   7
TORSDOF 6
ENDMDL
