MODEL 1
REMARK VINA RESULT:    -3.928      0.000      0.000
REMARK INTER + INTRA:          -4.168
REMARK INTER:                  -4.158
REMARK INTRA:                  -0.011
REMARK UNBOUND:                -0.011
REMARK SMILES O=Cc1ccco1
REMARK SMILES IDX 5 1 6 2 7 3 3 4 4 5 2 6 1 7
REMARK H PARENT
REMARK Flexibility Score: inf
ROOT
ATOM      1  C   UNL     1      32.155 -18.764 -28.615  1.00  0.00     0.043 A 
ATOM      2  C   UNL     1      32.317 -19.484 -29.783  1.00  0.00     0.196 A 
ATOM      3  O   UNL     1      33.584 -19.492 -30.127  1.00  0.00    -0.462 OA
ATOM      4  C   UNL     1      34.262 -18.809 -29.233  1.00  0.00     0.166 A 
ATOM      5  C   UNL     1      33.414 -18.327 -28.258  1.00  0.00     0.054 A 
ENDROOT
BRANCH   4   6
ATOM      6  C   UNL     1      35.710 -18.598 -29.281  1.00  0.00     0.298 C 
ATOM      7  O   UNL     1      36.178 -17.433 -29.367  1.00  0.00    -0.294 OA
ENDBRANCH   4   6
TORSDOF 1
ENDMDL
MODEL 2
REMARK VINA RESULT:    -3.896      2.073      2.734
REMARK INTER + INTRA:          -4.135
REMARK INTER:                  -4.124
REMARK INTRA:                  -0.011
REMARK UNBOUND:                -0.011
REMARK SMILES O=Cc1ccco1
REMARK SMILES IDX 5 1 6 2 7 3 3 4 4 5 2 6 1 7
REMARK H PARENT
REMARK Flexibility Score: inf
ROOT
ATOM      1  C   UNL     1      34.289 -18.104 -28.252  1.00  0.00     0.043 A 
ATOM      2  C   UNL     1      34.637 -16.769 -28.315  1.00  0.00     0.196 A 
ATOM      3  O   UNL     1      35.690 -16.621 -29.086  1.00  0.00    -0.462 OA
ATOM      4  C   UNL     1      36.048 -17.804 -29.532  1.00  0.00     0.166 A 
ATOM      5  C   UNL     1      35.201 -18.775 -29.039  1.00  0.00     0.054 A 
ENDROOT
BRANCH   4   6
ATOM      6  C   UNL     1      37.184 -18.039 -30.424  1.00  0.00     0.298 C 
ATOM      7  O   UNL     1      37.009 -18.119 -31.668  1.00  0.00    -0.294 OA
ENDBRANCH   4   6
TORSDOF 1
ENDMDL
MODEL 3
REMARK VINA RESULT:    -3.721      1.034      1.415
REMARK INTER + INTRA:          -3.950
REMARK INTER:                  -3.936
REMARK INTRA:                  -0.013
REMARK UNBOUND:                -0.011
REMARK SMILES O=Cc1ccco1
REMARK SMILES IDX 5 1 6 2 7 3 3 4 4 5 2 6 1 7
REMARK H PARENT
REMARK Flexibility Score: inf
ROOT
ATOM      1  C   UNL     1      32.003 -19.174 -29.435  1.00  0.00     0.043 A 
ATOM      2  C   UNL     1      32.242 -18.409 -28.310  1.00  0.00     0.196 A 
ATOM      3  O   UNL     1      33.530 -18.179 -28.195  1.00  0.00    -0.462 OA
ATOM      4  C   UNL     1      34.147 -18.759 -29.199  1.00  0.00     0.166 A 
ATOM      5  C   UNL     1      33.235 -19.400 -30.012  1.00  0.00     0.054 A 
ENDROOT
BRANCH   4   6
ATOM      6  C   UNL     1      35.595 -18.721 -29.409  1.00  0.00     0.298 C 
ATOM      7  O   UNL     1      36.211 -17.623 -29.383  1.00  0.00    -0.294 OA
ENDBRANCH   4   6
TORSDOF 1
ENDMDL
MODEL 4
REMARK VINA RESULT:    -3.432      1.560      3.504
REMARK INTER + INTRA:          -3.643
REMARK INTER:                  -3.632
REMARK INTRA:                  -0.011
REMARK UNBOUND:                -0.011
REMARK SMILES O=Cc1ccco1
REMARK SMILES IDX 5 1 6 2 7 3 3 4 4 5 2 6 1 7
REMARK H PARENT
REMARK Flexibility Score: inf
ROOT
ATOM      1  C   UNL     1      36.631 -18.326 -30.038  1.00  0.00     0.043 A 
ATOM      2  C   UNL     1      36.507 -17.024 -29.593  1.00  0.00     0.196 A 
ATOM      3  O   UNL     1      35.432 -16.911 -28.848  1.00  0.00    -0.462 OA
ATOM      4  C   UNL     1      34.846 -18.084 -28.782  1.00  0.00     0.166 A 
ATOM      5  C   UNL     1      35.557 -19.013 -29.514  1.00  0.00     0.054 A 
ENDROOT
BRANCH   4   6
ATOM      6  C   UNL     1      33.615 -18.350 -28.037  1.00  0.00     0.298 C 
ATOM      7  O   UNL     1      32.498 -18.033 -28.524  1.00  0.00    -0.294 OA
ENDBRANCH   4   6
TORSDOF 1
ENDMDL
MODEL 5
REMARK VINA RESULT:    -3.403      1.244      3.056
REMARK INTER + INTRA:          -3.612
REMARK INTER:                  -3.600
REMARK INTRA:                  -0.012
REMARK UNBOUND:                -0.011
REMARK SMILES O=Cc1ccco1
REMARK SMILES IDX 5 1 6 2 7 3 3 4 4 5 2 6 1 7
REMARK H PARENT
REMARK Flexibility Score: inf
ROOT
ATOM      1  C   UNL     1      34.410 -17.904 -28.123  1.00  0.00     0.043 A 
ATOM      2  C   UNL     1      35.252 -18.488 -29.050  1.00  0.00     0.196 A 
ATOM      3  O   UNL     1      34.553 -19.228 -29.879  1.00  0.00    -0.462 OA
ATOM      4  C   UNL     1      33.287 -19.154 -29.537  1.00  0.00     0.166 A 
ATOM      5  C   UNL     1      33.138 -18.335 -28.437  1.00  0.00     0.054 A 
ENDROOT
BRANCH   4   6
ATOM      6  C   UNL     1      32.204 -19.850 -30.233  1.00  0.00     0.298 C 
ATOM      7  O   UNL     1      31.010 -19.692 -29.865  1.00  0.00    -0.294 OA
ENDBRANCH   4   6
TORSDOF 1
ENDMDL
MODEL 6
REMARK VINA RESULT:    -3.324      1.598      3.210
REMARK INTER + INTRA:          -3.529
REMARK INTER:                  -3.518
REMARK INTRA:                  -0.011
REMARK UNBOUND:                -0.011
REMARK SMILES O=Cc1ccco1
REMARK SMILES IDX 5 1 6 2 7 3 3 4 4 5 2 6 1 7
REMARK H PARENT
REMARK Flexibility Score: inf
ROOT
ATOM      1  C   UNL     1      36.316 -17.050 -29.473  1.00  0.00     0.043 A 
ATOM      2  C   UNL     1      36.379 -18.365 -29.891  1.00  0.00     0.196 A 
ATOM      3  O   UNL     1      35.339 -19.025 -29.437  1.00  0.00    -0.462 OA
ATOM      4  C   UNL     1      34.594 -18.198 -28.739  1.00  0.00     0.166 A 
ATOM      5  C   UNL     1      35.161 -16.941 -28.727  1.00  0.00     0.054 A 
ENDROOT
BRANCH   4   6
ATOM      6  C   UNL     1      33.345 -18.575 -28.075  1.00  0.00     0.298 C 
ATOM      7  O   UNL     1      32.258 -18.044 -28.421  1.00  0.00    -0.294 OA
ENDBRANCH   4   6
TORSDOF 1
ENDMDL
MODEL 7
REMARK VINA RESULT:    -3.283      1.567      2.507
REMARK INTER + INTRA:          -3.486
REMARK INTER:                  -3.471
REMARK INTRA:                  -0.015
REMARK UNBOUND:                -0.011
REMARK SMILES O=Cc1ccco1
REMARK SMILES IDX 5 1 6 2 7 3 3 4 4 5 2 6 1 7
REMARK H PARENT
REMARK Flexibility Score: inf
ROOT
ATOM      1  C   UNL     1      32.235 -18.239 -27.991  1.00  0.00     0.043 A 
ATOM      2  C   UNL     1      33.600 -18.077 -28.133  1.00  0.00     0.196 A 
ATOM      3  O   UNL     1      34.018 -18.741 -29.186  1.00  0.00    -0.462 OA
ATOM      4  C   UNL     1      32.986 -19.332 -29.743  1.00  0.00     0.166 A 
ATOM      5  C   UNL     1      31.837 -19.051 -29.033  1.00  0.00     0.054 A 
ENDROOT
BRANCH   4   6
ATOM      6  C   UNL     1      33.062 -20.165 -30.943  1.00  0.00     0.298 C 
ATOM      7  O   UNL     1      33.927 -19.929 -31.826  1.00  0.00    -0.294 OA
ENDBRANCH   4   6
TORSDOF 1
ENDMDL
MODEL 8
REMARK VINA RESULT:    -2.652      1.724      3.595
REMARK INTER + INTRA:          -2.817
REMARK INTER:                  -2.801
REMARK INTRA:                  -0.016
REMARK UNBOUND:                -0.011
REMARK SMILES O=Cc1ccco1
REMARK SMILES IDX 5 1 6 2 7 3 3 4 4 5 2 6 1 7
REMARK H PARENT
REMARK Flexibility Score: inf
ROOT
ATOM      1  C   UNL     1      37.036 -17.542 -29.844  1.00  0.00     0.043 A 
ATOM      2  C   UNL     1      36.966 -17.967 -31.157  1.00  0.00     0.196 A 
ATOM      3  O   UNL     1      35.870 -18.667 -31.338  1.00  0.00    -0.462 OA
ATOM      4  C   UNL     1      35.217 -18.719 -30.200  1.00  0.00     0.166 A 
ATOM      5  C   UNL     1      35.905 -18.028 -29.224  1.00  0.00     0.054 A 
ENDROOT
BRANCH   4   6
ATOM      6  C   UNL     1      33.944 -19.416 -30.011  1.00  0.00     0.298 C 
ATOM      7  O   UNL     1      33.461 -20.117 -30.938  1.00  0.00    -0.294 OA
ENDBRANCH   4   6
TORSDOF 1
ENDMDL
MODEL 9
REMARK VINA RESULT:    -2.223      1.713      3.005
REMARK INTER + INTRA:          -2.363
REMARK INTER:                  -2.349
REMARK INTRA:                  -0.014
REMARK UNBOUND:                -0.011
REMARK SMILES O=Cc1ccco1
REMARK SMILES IDX 5 1 6 2 7 3 3 4 4 5 2 6 1 7
REMARK H PARENT
REMARK Flexibility Score: inf
ROOT
ATOM      1  C   UNL     1      35.147 -19.121 -30.245  1.00  0.00     0.043 A 
ATOM      2  C   UNL     1      34.121 -19.724 -30.947  1.00  0.00     0.196 A 
ATOM      3  O   UNL     1      32.999 -19.613 -30.275  1.00  0.00    -0.462 OA
ATOM      4  C   UNL     1      33.243 -18.961 -29.161  1.00  0.00     0.166 A 
ATOM      5  C   UNL     1      34.580 -18.626 -29.089  1.00  0.00     0.054 A 
ENDROOT
BRANCH   4   6
ATOM      6  C   UNL     1      32.232 -18.644 -28.152  1.00  0.00     0.298 C 
ATOM      7  O   UNL     1      31.345 -19.487 -27.856  1.00  0.00    -0.294 OA
ENDBRANCH   4   6
TORSDOF 1
ENDMDL
