MODEL 1
REMARK VINA RESULT:    -4.665      0.000      0.000
REMARK INTER + INTRA:          -7.216
REMARK INTER:                  -6.302
REMARK INTRA:                  -0.914
REMARK UNBOUND:                -0.914
REMARK SMILES CC(=O)CCC=C(C)CCC=C(C)C
REMARK SMILES IDX 7 1 6 2 8 3 9 4 10 5 11 6 13 7 12 8 14 9 5 10 4 11 2 12 3 13
REMARK SMILES IDX 1 14
REMARK H PARENT
REMARK Flexibility Score: inf
ROOT
ATOM      1  C   UNL     1      11.704  20.367  16.809  1.00  0.00    -0.077 C 
ATOM      2  C   UNL     1      10.608  19.890  16.173  1.00  0.00    -0.028 C 
ATOM      3  C   UNL     1      12.312  21.650  16.301  1.00  0.00     0.039 C 
ENDROOT
BRANCH   1   4
ATOM      4  C   UNL     1      12.352  19.670  17.992  1.00  0.00     0.034 C 
BRANCH   4   5
ATOM      5  C   UNL     1      13.837  19.393  17.728  1.00  0.00     0.032 C 
BRANCH   5   6
ATOM      6  C   UNL     1      14.083  17.927  17.465  1.00  0.00    -0.028 C 
ATOM      7  C   UNL     1      14.482  15.939  16.074  1.00  0.00     0.039 C 
ATOM      8  C   UNL     1      14.240  17.419  16.225  1.00  0.00    -0.080 C 
ATOM      9  C   UNL     1      14.180  18.297  14.997  1.00  0.00     0.039 C 
ENDBRANCH   5   6
ENDBRANCH   4   5
ENDBRANCH   1   4
BRANCH   2  10
ATOM     10  C   UNL     1       9.846  18.635  16.542  1.00  0.00     0.035 C 
BRANCH  10  11
ATOM     11  C   UNL     1       8.448  18.632  15.910  1.00  0.00     0.079 C 
BRANCH  11  12
ATOM     12  C   UNL     1       7.926  17.231  15.710  1.00  0.00     0.130 C 
ATOM     13  O   UNL     1       6.916  16.874  16.298  1.00  0.00    -0.300 OA
ATOM     14  C   UNL     1       8.617  16.265  14.793  1.00  0.00     0.087 C 
ENDBRANCH  11  12
ENDBRANCH  10  11
ENDBRANCH   2  10
TORSDOF 6
ENDMDL
MODEL 2
REMARK VINA RESULT:    -4.578      2.932      5.386
REMARK INTER + INTRA:          -7.097
REMARK INTER:                  -6.049
REMARK INTRA:                  -1.049
REMARK UNBOUND:                -0.914
REMARK SMILES CC(=O)CCC=C(C)CCC=C(C)C
REMARK SMILES IDX 7 1 6 2 8 3 9 4 10 5 11 6 13 7 12 8 14 9 5 10 4 11 2 12 3 13
REMARK SMILES IDX 1 14
REMARK H PARENT
REMARK Flexibility Score: inf
ROOT
ATOM      1  C   UNL     1      14.759  18.100  16.762  1.00  0.00    -0.077 C 
ATOM      2  C   UNL     1      14.494  16.772  16.727  1.00  0.00    -0.028 C 
ATOM      3  C   UNL     1      15.223  18.692  18.069  1.00  0.00     0.039 C 
ENDROOT
BRANCH   1   4
ATOM      4  C   UNL     1      14.599  19.015  15.562  1.00  0.00     0.034 C 
BRANCH   4   5
ATOM      5  C   UNL     1      13.555  20.105  15.829  1.00  0.00     0.032 C 
BRANCH   5   6
ATOM      6  C   UNL     1      12.151  19.564  15.695  1.00  0.00    -0.028 C 
ATOM      7  C   UNL     1       9.938  18.858  16.502  1.00  0.00     0.039 C 
ATOM      8  C   UNL     1      11.321  19.406  16.746  1.00  0.00    -0.080 C 
ATOM      9  C   UNL     1      11.746  19.765  18.151  1.00  0.00     0.039 C 
ENDBRANCH   5   6
ENDBRANCH   4   5
ENDBRANCH   1   4
BRANCH   2  10
ATOM     10  C   UNL     1      14.039  15.992  15.513  1.00  0.00     0.035 C 
BRANCH  10  11
ATOM     11  C   UNL     1      15.002  14.839  15.202  1.00  0.00     0.079 C 
BRANCH  11  12
ATOM     12  C   UNL     1      14.589  13.562  15.890  1.00  0.00     0.130 C 
ATOM     13  O   UNL     1      15.369  13.009  16.652  1.00  0.00    -0.300 OA
ATOM     14  C   UNL     1      13.236  12.957  15.664  1.00  0.00     0.087 C 
ENDBRANCH  11  12
ENDBRANCH  10  11
ENDBRANCH   2  10
TORSDOF 6
ENDMDL
MODEL 3
REMARK VINA RESULT:    -4.453      1.954      3.752
REMARK INTER + INTRA:          -6.929
REMARK INTER:                  -6.167
REMARK INTRA:                  -0.762
REMARK UNBOUND:                -0.914
REMARK SMILES CC(=O)CCC=C(C)CCC=C(C)C
REMARK SMILES IDX 7 1 6 2 8 3 9 4 10 5 11 6 13 7 12 8 14 9 5 10 4 11 2 12 3 13
REMARK SMILES IDX 1 14
REMARK H PARENT
REMARK Flexibility Score: inf
ROOT
ATOM      1  C   UNL     1      14.473  18.202  17.068  1.00  0.00    -0.077 C 
ATOM      2  C   UNL     1      13.812  19.178  17.735  1.00  0.00    -0.028 C 
ATOM      3  C   UNL     1      15.957  18.371  16.860  1.00  0.00     0.039 C 
ENDROOT
BRANCH   1   4
ATOM      4  C   UNL     1      13.794  16.964  16.514  1.00  0.00     0.034 C 
BRANCH   4   5
ATOM      5  C   UNL     1      14.753  16.151  15.635  1.00  0.00     0.032 C 
BRANCH   5   6
ATOM      6  C   UNL     1      14.905  14.740  16.150  1.00  0.00    -0.028 C 
ATOM      7  C   UNL     1      14.462  12.322  16.217  1.00  0.00     0.039 C 
ATOM      8  C   UNL     1      14.236  13.690  15.628  1.00  0.00    -0.080 C 
ATOM      9  C   UNL     1      13.275  13.860  14.475  1.00  0.00     0.039 C 
ENDBRANCH   5   6
ENDBRANCH   4   5
ENDBRANCH   1   4
BRANCH   2  10
ATOM     10  C   UNL     1      12.334  19.184  18.060  1.00  0.00     0.035 C 
BRANCH  10  11
ATOM     11  C   UNL     1      11.563  20.111  17.111  1.00  0.00     0.079 C 
BRANCH  11  12
ATOM     12  C   UNL     1      10.652  19.339  16.189  1.00  0.00     0.130 C 
ATOM     13  O   UNL     1       9.524  19.053  16.559  1.00  0.00    -0.300 OA
ATOM     14  C   UNL     1      11.101  18.922  14.821  1.00  0.00     0.087 C 
ENDBRANCH  11  12
ENDBRANCH  10  11
ENDBRANCH   2  10
TORSDOF 6
ENDMDL
MODEL 4
REMARK VINA RESULT:    -4.432      2.214      5.057
REMARK INTER + INTRA:          -6.900
REMARK INTER:                  -6.010
REMARK INTRA:                  -0.890
REMARK UNBOUND:                -0.914
REMARK SMILES CC(=O)CCC=C(C)CCC=C(C)C
REMARK SMILES IDX 7 1 6 2 8 3 9 4 10 5 11 6 13 7 12 8 14 9 5 10 4 11 2 12 3 13
REMARK SMILES IDX 1 14
REMARK H PARENT
REMARK Flexibility Score: inf
ROOT
ATOM      1  C   UNL     1      12.462  20.149  17.065  1.00  0.00    -0.077 C 
ATOM      2  C   UNL     1      13.757  19.890  17.362  1.00  0.00    -0.028 C 
ATOM      3  C   UNL     1      12.106  21.546  16.621  1.00  0.00     0.039 C 
ENDROOT
BRANCH   1   4
ATOM      4  C   UNL     1      11.359  19.113  17.168  1.00  0.00     0.034 C 
BRANCH   4   5
ATOM      5  C   UNL     1      10.363  19.243  16.009  1.00  0.00     0.032 C 
BRANCH   5   6
ATOM      6  C   UNL     1       9.052  18.568  16.333  1.00  0.00    -0.028 C 
ATOM      7  C   UNL     1       7.247  16.924  16.038  1.00  0.00     0.039 C 
ATOM      8  C   UNL     1       8.568  17.525  15.629  1.00  0.00    -0.080 C 
ATOM      9  C   UNL     1       9.317  16.952  14.448  1.00  0.00     0.039 C 
ENDBRANCH   5   6
ENDBRANCH   4   5
ENDBRANCH   1   4
BRANCH   2  10
ATOM     10  C   UNL     1      14.314  18.554  17.805  1.00  0.00     0.035 C 
BRANCH  10  11
ATOM     11  C   UNL     1      15.117  17.889  16.680  1.00  0.00     0.079 C 
BRANCH  11  12
ATOM     12  C   UNL     1      14.331  16.794  16.001  1.00  0.00     0.130 C 
ATOM     13  O   UNL     1      14.433  15.644  16.400  1.00  0.00    -0.300 OA
ATOM     14  C   UNL     1      13.419  17.090  14.848  1.00  0.00     0.087 C 
ENDBRANCH  11  12
ENDBRANCH  10  11
ENDBRANCH   2  10
TORSDOF 6
ENDMDL
MODEL 5
REMARK VINA RESULT:    -4.403      3.606      6.195
REMARK INTER + INTRA:          -6.862
REMARK INTER:                  -6.201
REMARK INTRA:                  -0.661
REMARK UNBOUND:                -0.914
REMARK SMILES CC(=O)CCC=C(C)CCC=C(C)C
REMARK SMILES IDX 7 1 6 2 8 3 9 4 10 5 11 6 13 7 12 8 14 9 5 10 4 11 2 12 3 13
REMARK SMILES IDX 1 14
REMARK H PARENT
REMARK Flexibility Score: inf
ROOT
ATOM      1  C   UNL     1      12.417  22.454  16.109  1.00  0.00    -0.077 C 
ATOM      2  C   UNL     1      11.916  21.302  16.614  1.00  0.00    -0.028 C 
ATOM      3  C   UNL     1      11.725  23.743  16.473  1.00  0.00     0.039 C 
ENDROOT
BRANCH   1   4
ATOM      4  C   UNL     1      13.625  22.507  15.191  1.00  0.00     0.034 C 
BRANCH   4   5
ATOM      5  C   UNL     1      13.859  23.927  14.664  1.00  0.00     0.032 C 
BRANCH   5   6
ATOM      6  C   UNL     1      15.228  24.436  15.048  1.00  0.00    -0.028 C 
ATOM      7  C   UNL     1      16.828  25.952  16.138  1.00  0.00     0.039 C 
ATOM      8  C   UNL     1      15.418  25.531  15.813  1.00  0.00    -0.080 C 
ATOM      9  C   UNL     1      14.254  26.335  16.345  1.00  0.00     0.039 C 
ENDBRANCH   5   6
ENDBRANCH   4   5
ENDBRANCH   1   4
BRANCH   2  10
ATOM     10  C   UNL     1      12.477  19.915  16.382  1.00  0.00     0.035 C 
BRANCH  10  11
ATOM     11  C   UNL     1      12.795  19.218  17.711  1.00  0.00     0.079 C 
BRANCH  11  12
ATOM     12  C   UNL     1      14.029  18.355  17.610  1.00  0.00     0.130 C 
ATOM     13  O   UNL     1      13.960  17.268  17.058  1.00  0.00    -0.300 OA
ATOM     14  C   UNL     1      15.344  18.809  18.169  1.00  0.00     0.087 C 
ENDBRANCH  11  12
ENDBRANCH  10  11
ENDBRANCH   2  10
TORSDOF 6
ENDMDL
MODEL 6
REMARK VINA RESULT:    -4.399      3.119      4.980
REMARK INTER + INTRA:          -6.855
REMARK INTER:                  -6.095
REMARK INTRA:                  -0.760
REMARK UNBOUND:                -0.914
REMARK SMILES CC(=O)CCC=C(C)CCC=C(C)C
REMARK SMILES IDX 7 1 6 2 8 3 9 4 10 5 11 6 13 7 12 8 14 9 5 10 4 11 2 12 3 13
REMARK SMILES IDX 1 14
REMARK H PARENT
REMARK Flexibility Score: inf
ROOT
ATOM      1  C   UNL     1      11.336  19.843  16.929  1.00  0.00    -0.077 C 
ATOM      2  C   UNL     1      11.437  20.934  16.134  1.00  0.00    -0.028 C 
ATOM      3  C   UNL     1      10.262  18.834  16.608  1.00  0.00     0.039 C 
ENDROOT
BRANCH   1   4
ATOM      4  C   UNL     1      12.236  19.595  18.126  1.00  0.00     0.034 C 
BRANCH   4   5
ATOM      5  C   UNL     1      13.686  19.352  17.690  1.00  0.00     0.032 C 
BRANCH   5   6
ATOM      6  C   UNL     1      13.937  17.890  17.412  1.00  0.00    -0.028 C 
ATOM      7  C   UNL     1      14.379  15.922  16.005  1.00  0.00     0.039 C 
ATOM      8  C   UNL     1      14.136  17.400  16.171  1.00  0.00    -0.080 C 
ATOM      9  C   UNL     1      14.120  18.298  14.955  1.00  0.00     0.039 C 
ENDBRANCH   5   6
ENDBRANCH   4   5
ENDBRANCH   1   4
BRANCH   2  10
ATOM     10  C   UNL     1      12.456  22.044  16.280  1.00  0.00     0.035 C 
BRANCH  10  11
ATOM     11  C   UNL     1      11.778  23.421  16.275  1.00  0.00     0.079 C 
BRANCH  11  12
ATOM     12  C   UNL     1      12.773  24.535  16.061  1.00  0.00     0.130 C 
ATOM     13  O   UNL     1      12.719  25.533  16.764  1.00  0.00    -0.300 OA
ATOM     14  C   UNL     1      13.834  24.441  15.006  1.00  0.00     0.087 C 
ENDBRANCH  11  12
ENDBRANCH  10  11
ENDBRANCH   2  10
TORSDOF 6
ENDMDL
MODEL 7
REMARK VINA RESULT:    -4.377      2.840      4.904
REMARK INTER + INTRA:          -6.827
REMARK INTER:                  -5.781
REMARK INTRA:                  -1.045
REMARK UNBOUND:                -0.914
REMARK SMILES CC(=O)CCC=C(C)CCC=C(C)C
REMARK SMILES IDX 7 1 6 2 8 3 9 4 10 5 11 6 13 7 12 8 14 9 5 10 4 11 2 12 3 13
REMARK SMILES IDX 1 14
REMARK H PARENT
REMARK Flexibility Score: inf
ROOT
ATOM      1  C   UNL     1      11.030  20.271  16.286  1.00  0.00    -0.077 C 
ATOM      2  C   UNL     1      11.396  21.048  15.240  1.00  0.00    -0.028 C 
ATOM      3  C   UNL     1       9.832  19.372  16.112  1.00  0.00     0.039 C 
ENDROOT
BRANCH   1   4
ATOM      4  C   UNL     1      11.753  20.273  17.620  1.00  0.00     0.034 C 
BRANCH   4   5
ATOM      5  C   UNL     1      12.295  18.879  17.961  1.00  0.00     0.032 C 
BRANCH   5   6
ATOM      6  C   UNL     1      13.787  18.802  17.744  1.00  0.00    -0.028 C 
ATOM      7  C   UNL     1      15.846  18.205  16.540  1.00  0.00     0.039 C 
ATOM      8  C   UNL     1      14.344  18.228  16.658  1.00  0.00    -0.080 C 
ATOM      9  C   UNL     1      13.498  17.613  15.567  1.00  0.00     0.039 C 
ENDBRANCH   5   6
ENDBRANCH   4   5
ENDBRANCH   1   4
BRANCH   2  10
ATOM     10  C   UNL     1      12.574  21.998  15.211  1.00  0.00     0.035 C 
BRANCH  10  11
ATOM     11  C   UNL     1      12.121  23.432  14.908  1.00  0.00     0.079 C 
BRANCH  11  12
ATOM     12  C   UNL     1      12.219  24.320  16.123  1.00  0.00     0.130 C 
ATOM     13  O   UNL     1      11.435  24.166  17.047  1.00  0.00    -0.300 OA
ATOM     14  C   UNL     1      13.268  25.388  16.225  1.00  0.00     0.087 C 
ENDBRANCH  11  12
ENDBRANCH  10  11
ENDBRANCH   2  10
TORSDOF 6
ENDMDL
MODEL 8
REMARK VINA RESULT:    -4.249      3.495      6.702
REMARK INTER + INTRA:          -6.653
REMARK INTER:                  -5.606
REMARK INTRA:                  -1.047
REMARK UNBOUND:                -0.914
REMARK SMILES CC(=O)CCC=C(C)CCC=C(C)C
REMARK SMILES IDX 7 1 6 2 8 3 9 4 10 5 11 6 13 7 12 8 14 9 5 10 4 11 2 12 3 13
REMARK SMILES IDX 1 14
REMARK H PARENT
REMARK Flexibility Score: inf
ROOT
ATOM      1  C   UNL     1      14.793  14.411  15.536  1.00  0.00    -0.077 C 
ATOM      2  C   UNL     1      14.507  15.520  16.259  1.00  0.00    -0.028 C 
ATOM      3  C   UNL     1      14.914  13.101  16.273  1.00  0.00     0.039 C 
ENDROOT
BRANCH   1   4
ATOM      4  C   UNL     1      15.010  14.427  14.034  1.00  0.00     0.034 C 
BRANCH   4   5
ATOM      5  C   UNL     1      13.888  13.679  13.303  1.00  0.00     0.032 C 
BRANCH   5   6
ATOM      6  C   UNL     1      12.600  14.466  13.324  1.00  0.00    -0.028 C 
ATOM      7  C   UNL     1      10.229  14.865  13.840  1.00  0.00     0.039 C 
ATOM      8  C   UNL     1      11.460  13.997  13.873  1.00  0.00    -0.080 C 
ATOM      9  C   UNL     1      11.396  12.631  14.516  1.00  0.00     0.039 C 
ENDBRANCH   5   6
ENDBRANCH   4   5
ENDBRANCH   1   4
BRANCH   2  10
ATOM     10  C   UNL     1      14.327  16.917  15.705  1.00  0.00     0.035 C 
BRANCH  10  11
ATOM     11  C   UNL     1      15.330  17.893  16.331  1.00  0.00     0.079 C 
BRANCH  11  12
ATOM     12  C   UNL     1      14.792  18.520  17.593  1.00  0.00     0.130 C 
ATOM     13  O   UNL     1      15.540  18.702  18.542  1.00  0.00    -0.300 OA
ATOM     14  C   UNL     1      13.355  18.933  17.706  1.00  0.00     0.087 C 
ENDBRANCH  11  12
ENDBRANCH  10  11
ENDBRANCH   2  10
TORSDOF 6
ENDMDL
MODEL 9
REMARK VINA RESULT:    -4.243      3.219      5.348
REMARK INTER + INTRA:          -6.646
REMARK INTER:                  -5.978
REMARK INTRA:                  -0.668
REMARK UNBOUND:                -0.914
REMARK SMILES CC(=O)CCC=C(C)CCC=C(C)C
REMARK SMILES IDX 7 1 6 2 8 3 9 4 10 5 11 6 13 7 12 8 14 9 5 10 4 11 2 12 3 13
REMARK SMILES IDX 1 14
REMARK H PARENT
REMARK Flexibility Score: inf
ROOT
ATOM      1  C   UNL     1      15.368  16.994  15.780  1.00  0.00    -0.077 C 
ATOM      2  C   UNL     1      15.028  16.325  14.653  1.00  0.00    -0.028 C 
ATOM      3  C   UNL     1      16.754  17.581  15.861  1.00  0.00     0.039 C 
ENDROOT
BRANCH   1   4
ATOM      4  C   UNL     1      14.431  17.167  16.962  1.00  0.00     0.034 C 
BRANCH   4   5
ATOM      5  C   UNL     1      14.737  18.460  17.728  1.00  0.00     0.032 C 
BRANCH   5   6
ATOM      6  C   UNL     1      14.209  19.669  16.995  1.00  0.00    -0.028 C 
ATOM      7  C   UNL     1      12.538  21.371  16.397  1.00  0.00     0.039 C 
ATOM      8  C   UNL     1      12.964  20.156  17.180  1.00  0.00    -0.080 C 
ATOM      9  C   UNL     1      12.000  19.514  18.149  1.00  0.00     0.039 C 
ENDBRANCH   5   6
ENDBRANCH   4   5
ENDBRANCH   1   4
BRANCH   2  10
ATOM     10  C   UNL     1      13.686  15.683  14.374  1.00  0.00     0.035 C 
BRANCH  10  11
ATOM     11  C   UNL     1      13.843  14.193  14.045  1.00  0.00     0.079 C 
BRANCH  11  12
ATOM     12  C   UNL     1      13.640  13.324  15.261  1.00  0.00     0.130 C 
ATOM     13  O   UNL     1      12.544  12.825  15.468  1.00  0.00    -0.300 OA
ATOM     14  C   UNL     1      14.759  13.053  16.220  1.00  0.00     0.087 C 
ENDBRANCH  11  12
ENDBRANCH  10  11
ENDBRANCH   2  10
TORSDOF 6
ENDMDL
