MODEL 1
REMARK VINA RESULT:    -6.176      0.000      0.000
REMARK INTER + INTRA:         -13.426
REMARK INTER:                 -11.953
REMARK INTRA:                  -1.472
REMARK UNBOUND:                -1.472
REMARK SMILES CCCCCCCCCCCCCCCCCC(=O)[O-]
REMARK SMILES IDX 10 1 11 2 12 3 13 4 14 5 15 6 16 7 17 8 18 9 19 10 20 11
REMARK SMILES IDX 9 12 8 13 7 14 6 15 5 16 4 17 3 18 2 19 1 20
REMARK H PARENT
REMARK Flexibility Score: inf
ROOT
ATOM      1  C   UNL     1       1.831   4.426  19.042  1.00  0.00     0.000 C 
ENDROOT
BRANCH   1   2
ATOM      2  C   UNL     1       3.018   3.478  18.803  1.00  0.00     0.000 C 
BRANCH   2   3
ATOM      3  C   UNL     1       3.184   3.099  17.321  1.00  0.00     0.000 C 
BRANCH   3   4
ATOM      4  C   UNL     1       3.028   4.307  16.382  1.00  0.00     0.000 C 
BRANCH   4   5
ATOM      5  C   UNL     1       2.830   3.896  14.915  1.00  0.00     0.000 C 
BRANCH   5   6
ATOM      6  C   UNL     1       4.162   3.928  14.151  1.00  0.00     0.000 C 
BRANCH   6   7
ATOM      7  C   UNL     1       4.539   2.567  13.540  1.00  0.00     0.006 C 
BRANCH   7   8
ATOM      8  C   UNL     1       4.934   1.501  14.579  1.00  0.00     0.053 C 
BRANCH   8   9
ATOM      9  C   UNL     1       3.968   0.356  14.631  1.00  0.00     0.041 C 
ATOM     10  O   UNL     1       3.207   0.121  13.656  1.00  0.00    -0.550 OA
ATOM     11  O   UNL     1       3.886  -0.432  15.772  1.00  0.00    -0.550 OA
ENDBRANCH   8   9
ENDBRANCH   7   8
ENDBRANCH   6   7
ENDBRANCH   5   6
ENDBRANCH   4   5
ENDBRANCH   3   4
ENDBRANCH   2   3
ENDBRANCH   1   2
BRANCH   1  12
ATOM     12  C   UNL     1       2.263   5.781  19.629  1.00  0.00     0.000 C 
BRANCH  12  13
ATOM     13  C   UNL     1       2.219   6.914  18.590  1.00  0.00    -0.000 C 
BRANCH  13  14
ATOM     14  C   UNL     1       2.087   8.305  19.234  1.00  0.00    -0.000 C 
BRANCH  14  15
ATOM     15  C   UNL     1       2.578   9.432  18.310  1.00  0.00    -0.000 C 
BRANCH  15  16
ATOM     16  C   UNL     1       3.978   9.158  17.735  1.00  0.00    -0.000 C 
BRANCH  16  17
ATOM     17  C   UNL     1       3.931   8.798  16.233  1.00  0.00    -0.000 C 
BRANCH  17  18
ATOM     18  C   UNL     1       4.861   7.632  15.850  1.00  0.00    -0.000 C 
BRANCH  18  19
ATOM     19  C   UNL     1       5.197   7.546  14.351  1.00  0.00    -0.003 C 
ATOM     20  C   UNL     1       6.644   7.930  14.044  1.00  0.00     0.004 C 
ENDBRANCH  18  19
ENDBRANCH  17  18
ENDBRANCH  16  17
ENDBRANCH  15  16
ENDBRANCH  14  15
ENDBRANCH  13  14
ENDBRANCH  12  13
ENDBRANCH   1  12
TORSDOF 16
ENDMDL
MODEL 2
REMARK VINA RESULT:    -6.162      1.145      4.358
REMARK INTER + INTRA:         -13.398
REMARK INTER:                 -11.703
REMARK INTRA:                  -1.695
REMARK UNBOUND:                -1.472
REMARK SMILES CCCCCCCCCCCCCCCCCC(=O)[O-]
REMARK SMILES IDX 10 1 11 2 12 3 13 4 14 5 15 6 16 7 17 8 18 9 19 10 20 11
REMARK SMILES IDX 9 12 8 13 7 14 6 15 5 16 4 17 3 18 2 19 1 20
REMARK H PARENT
REMARK Flexibility Score: inf
ROOT
ATOM      1  C   UNL     1       4.499   7.607  15.877  1.00  0.00     0.000 C 
ENDROOT
BRANCH   1   2
ATOM      2  C   UNL     1       5.966   7.758  15.442  1.00  0.00     0.000 C 
BRANCH   2   3
ATOM      3  C   UNL     1       6.213   7.252  14.010  1.00  0.00     0.000 C 
BRANCH   3   4
ATOM      4  C   UNL     1       4.936   6.712  13.346  1.00  0.00     0.000 C 
BRANCH   4   5
ATOM      5  C   UNL     1       5.051   5.230  12.956  1.00  0.00     0.000 C 
BRANCH   5   6
ATOM      6  C   UNL     1       3.789   4.455  13.363  1.00  0.00     0.000 C 
BRANCH   6   7
ATOM      7  C   UNL     1       3.661   4.272  14.886  1.00  0.00     0.006 C 
BRANCH   7   8
ATOM      8  C   UNL     1       4.300   2.976  15.418  1.00  0.00     0.053 C 
BRANCH   8   9
ATOM      9  C   UNL     1       3.698   1.743  14.815  1.00  0.00     0.041 C 
ATOM     10  O   UNL     1       4.378   1.014  14.045  1.00  0.00    -0.550 OA
ATOM     11  O   UNL     1       2.374   1.416  15.078  1.00  0.00    -0.550 OA
ENDBRANCH   8   9
ENDBRANCH   7   8
ENDBRANCH   6   7
ENDBRANCH   5   6
ENDBRANCH   4   5
ENDBRANCH   3   4
ENDBRANCH   2   3
ENDBRANCH   1   2
BRANCH   1  12
ATOM     12  C   UNL     1       3.849   8.952  16.248  1.00  0.00     0.000 C 
BRANCH  12  13
ATOM     13  C   UNL     1       3.916   9.241  17.757  1.00  0.00    -0.000 C 
BRANCH  13  14
ATOM     14  C   UNL     1       2.523   9.396  18.393  1.00  0.00    -0.000 C 
BRANCH  14  15
ATOM     15  C   UNL     1       2.179   8.242  19.349  1.00  0.00    -0.000 C 
BRANCH  15  16
ATOM     16  C   UNL     1       1.930   6.916  18.610  1.00  0.00    -0.000 C 
BRANCH  16  17
ATOM     17  C   UNL     1       2.459   5.700  19.402  1.00  0.00    -0.000 C 
BRANCH  17  18
ATOM     18  C   UNL     1       2.753   4.471  18.520  1.00  0.00    -0.000 C 
BRANCH  18  19
ATOM     19  C   UNL     1       2.970   3.162  19.298  1.00  0.00    -0.003 C 
ATOM     20  C   UNL     1       1.739   2.735  20.096  1.00  0.00     0.004 C 
ENDBRANCH  18  19
ENDBRANCH  17  18
ENDBRANCH  16  17
ENDBRANCH  15  16
ENDBRANCH  14  15
ENDBRANCH  13  14
ENDBRANCH  12  13
ENDBRANCH   1  12
TORSDOF 16
ENDMDL
MODEL 3
REMARK VINA RESULT:    -6.147      1.966      6.075
REMARK INTER + INTRA:         -13.369
REMARK INTER:                 -11.588
REMARK INTRA:                  -1.781
REMARK UNBOUND:                -1.472
REMARK SMILES CCCCCCCCCCCCCCCCCC(=O)[O-]
REMARK SMILES IDX 10 1 11 2 12 3 13 4 14 5 15 6 16 7 17 8 18 9 19 10 20 11
REMARK SMILES IDX 9 12 8 13 7 14 6 15 5 16 4 17 3 18 2 19 1 20
REMARK H PARENT
REMARK Flexibility Score: inf
ROOT
ATOM      1  C   UNL     1       4.614   7.517  15.733  1.00  0.00     0.000 C 
ENDROOT
BRANCH   1   2
ATOM      2  C   UNL     1       4.533   8.722  16.685  1.00  0.00     0.000 C 
BRANCH   2   3
ATOM      3  C   UNL     1       3.089   9.054  17.098  1.00  0.00     0.000 C 
BRANCH   3   4
ATOM      4  C   UNL     1       2.948   9.297  18.610  1.00  0.00     0.000 C 
BRANCH   4   5
ATOM      5  C   UNL     1       1.852   8.431  19.250  1.00  0.00     0.000 C 
BRANCH   5   6
ATOM      6  C   UNL     1       2.352   6.999  19.486  1.00  0.00     0.000 C 
BRANCH   6   7
ATOM      7  C   UNL     1       1.763   5.983  18.491  1.00  0.00     0.006 C 
BRANCH   7   8
ATOM      8  C   UNL     1       2.738   4.862  18.088  1.00  0.00     0.053 C 
BRANCH   8   9
ATOM      9  C   UNL     1       2.588   3.632  18.932  1.00  0.00     0.041 C 
ATOM     10  O   UNL     1       1.633   3.532  19.747  1.00  0.00    -0.550 OA
ATOM     11  O   UNL     1       3.524   2.609  18.841  1.00  0.00    -0.550 OA
ENDBRANCH   8   9
ENDBRANCH   7   8
ENDBRANCH   6   7
ENDBRANCH   5   6
ENDBRANCH   4   5
ENDBRANCH   3   4
ENDBRANCH   2   3
ENDBRANCH   1   2
BRANCH   1  12
ATOM     12  C   UNL     1       6.033   7.293  15.180  1.00  0.00     0.000 C 
BRANCH  12  13
ATOM     13  C   UNL     1       6.123   7.554  13.667  1.00  0.00    -0.000 C 
BRANCH  13  14
ATOM     14  C   UNL     1       5.010   6.845  12.875  1.00  0.00    -0.000 C 
BRANCH  14  15
ATOM     15  C   UNL     1       5.143   5.314  12.912  1.00  0.00    -0.000 C 
BRANCH  15  16
ATOM     16  C   UNL     1       3.789   4.607  13.094  1.00  0.00    -0.000 C 
BRANCH  16  17
ATOM     17  C   UNL     1       3.550   4.174  14.558  1.00  0.00    -0.000 C 
BRANCH  17  18
ATOM     18  C   UNL     1       3.583   2.648  14.762  1.00  0.00    -0.000 C 
BRANCH  18  19
ATOM     19  C   UNL     1       4.799   2.132  15.551  1.00  0.00    -0.003 C 
ATOM     20  C   UNL     1       5.527   0.992  14.841  1.00  0.00     0.004 C 
ENDBRANCH  18  19
ENDBRANCH  17  18
ENDBRANCH  16  17
ENDBRANCH  15  16
ENDBRANCH  14  15
ENDBRANCH  13  14
ENDBRANCH  12  13
ENDBRANCH   1  12
TORSDOF 16
ENDMDL
MODEL 4
REMARK VINA RESULT:    -6.142      1.249      4.087
REMARK INTER + INTRA:         -13.360
REMARK INTER:                 -11.953
REMARK INTRA:                  -1.407
REMARK UNBOUND:                -1.472
REMARK SMILES CCCCCCCCCCCCCCCCCC(=O)[O-]
REMARK SMILES IDX 10 1 11 2 12 3 13 4 14 5 15 6 16 7 17 8 18 9 19 10 20 11
REMARK SMILES IDX 9 12 8 13 7 14 6 15 5 16 4 17 3 18 2 19 1 20
REMARK H PARENT
REMARK Flexibility Score: inf
ROOT
ATOM      1  C   UNL     1       5.123   7.916  14.686  1.00  0.00     0.000 C 
ENDROOT
BRANCH   1   2
ATOM      2  C   UNL     1       5.620   6.551  14.180  1.00  0.00     0.000 C 
BRANCH   2   3
ATOM      3  C   UNL     1       4.857   6.068  12.935  1.00  0.00     0.000 C 
BRANCH   3   4
ATOM      4  C   UNL     1       4.454   4.587  13.027  1.00  0.00     0.000 C 
BRANCH   4   5
ATOM      5  C   UNL     1       3.471   4.311  14.176  1.00  0.00     0.000 C 
BRANCH   5   6
ATOM      6  C   UNL     1       4.050   3.283  15.159  1.00  0.00     0.000 C 
BRANCH   6   7
ATOM      7  C   UNL     1       3.062   2.152  15.498  1.00  0.00     0.006 C 
BRANCH   7   8
ATOM      8  C   UNL     1       3.257   0.877  14.657  1.00  0.00     0.053 C 
BRANCH   8   9
ATOM      9  C   UNL     1       2.045  -0.005  14.652  1.00  0.00     0.041 C 
ATOM     10  O   UNL     1       0.925   0.450  15.007  1.00  0.00    -0.550 OA
ATOM     11  O   UNL     1       2.159  -1.340  14.286  1.00  0.00    -0.550 OA
ENDBRANCH   8   9
ENDBRANCH   7   8
ENDBRANCH   6   7
ENDBRANCH   5   6
ENDBRANCH   4   5
ENDBRANCH   3   4
ENDBRANCH   2   3
ENDBRANCH   1   2
BRANCH   1  12
ATOM     12  C   UNL     1       4.629   7.864  16.142  1.00  0.00     0.000 C 
BRANCH  12  13
ATOM     13  C   UNL     1       3.690   9.032  16.487  1.00  0.00    -0.000 C 
BRANCH  13  14
ATOM     14  C   UNL     1       3.663   9.347  17.993  1.00  0.00    -0.000 C 
BRANCH  14  15
ATOM     15  C   UNL     1       2.255   9.220  18.597  1.00  0.00    -0.000 C 
BRANCH  15  16
ATOM     16  C   UNL     1       2.121   8.010  19.538  1.00  0.00    -0.000 C 
BRANCH  16  17
ATOM     17  C   UNL     1       1.872   6.696  18.766  1.00  0.00    -0.000 C 
BRANCH  17  18
ATOM     18  C   UNL     1       2.525   5.464  19.420  1.00  0.00    -0.000 C 
BRANCH  18  19
ATOM     19  C   UNL     1       2.724   4.267  18.475  1.00  0.00    -0.003 C 
ATOM     20  C   UNL     1       3.182   3.005  19.205  1.00  0.00     0.004 C 
ENDBRANCH  18  19
ENDBRANCH  17  18
ENDBRANCH  16  17
ENDBRANCH  15  16
ENDBRANCH  14  15
ENDBRANCH  13  14
ENDBRANCH  12  13
ENDBRANCH   1  12
TORSDOF 16
ENDMDL
MODEL 5
REMARK VINA RESULT:    -6.120      2.712      6.144
REMARK INTER + INTRA:         -13.317
REMARK INTER:                 -11.633
REMARK INTRA:                  -1.685
REMARK UNBOUND:                -1.472
REMARK SMILES CCCCCCCCCCCCCCCCCC(=O)[O-]
REMARK SMILES IDX 10 1 11 2 12 3 13 4 14 5 15 6 16 7 17 8 18 9 19 10 20 11
REMARK SMILES IDX 9 12 8 13 7 14 6 15 5 16 4 17 3 18 2 19 1 20
REMARK H PARENT
REMARK Flexibility Score: inf
ROOT
ATOM      1  C   UNL     1       1.873   4.444  18.973  1.00  0.00     0.000 C 
ENDROOT
BRANCH   1   2
ATOM      2  C   UNL     1       2.418   5.772  19.525  1.00  0.00     0.000 C 
BRANCH   2   3
ATOM      3  C   UNL     1       2.143   6.960  18.587  1.00  0.00     0.000 C 
BRANCH   3   4
ATOM      4  C   UNL     1       2.199   8.313  19.317  1.00  0.00     0.000 C 
BRANCH   4   5
ATOM      5  C   UNL     1       2.937   9.392  18.509  1.00  0.00     0.000 C 
BRANCH   5   6
ATOM      6  C   UNL     1       3.108   8.961  17.046  1.00  0.00     0.000 C 
BRANCH   6   7
ATOM      7  C   UNL     1       4.580   8.744  16.650  1.00  0.00     0.006 C 
BRANCH   7   8
ATOM      8  C   UNL     1       4.807   7.545  15.712  1.00  0.00     0.053 C 
BRANCH   8   9
ATOM      9  C   UNL     1       5.267   7.955  14.346  1.00  0.00     0.041 C 
ATOM     10  O   UNL     1       5.152   9.151  13.969  1.00  0.00    -0.550 OA
ATOM     11  O   UNL     1       5.793   7.009  13.476  1.00  0.00    -0.550 OA
ENDBRANCH   8   9
ENDBRANCH   7   8
ENDBRANCH   6   7
ENDBRANCH   5   6
ENDBRANCH   4   5
ENDBRANCH   3   4
ENDBRANCH   2   3
ENDBRANCH   1   2
BRANCH   1  12
ATOM     12  C   UNL     1       2.960   3.363  18.847  1.00  0.00     0.000 C 
BRANCH  12  13
ATOM     13  C   UNL     1       3.293   3.030  17.383  1.00  0.00    -0.000 C 
BRANCH  13  14
ATOM     14  C   UNL     1       3.014   4.205  16.429  1.00  0.00    -0.000 C 
BRANCH  14  15
ATOM     15  C   UNL     1       2.916   3.762  14.960  1.00  0.00    -0.000 C 
BRANCH  15  16
ATOM     16  C   UNL     1       4.255   3.884  14.214  1.00  0.00    -0.000 C 
BRANCH  16  17
ATOM     17  C   UNL     1       4.508   2.688  13.271  1.00  0.00    -0.000 C 
BRANCH  17  18
ATOM     18  C   UNL     1       4.438   1.320  13.977  1.00  0.00    -0.000 C 
BRANCH  18  19
ATOM     19  C   UNL     1       5.525   1.093  15.042  1.00  0.00    -0.003 C 
ATOM     20  C   UNL     1       5.058   0.190  16.183  1.00  0.00     0.004 C 
ENDBRANCH  18  19
ENDBRANCH  17  18
ENDBRANCH  16  17
ENDBRANCH  15  16
ENDBRANCH  14  15
ENDBRANCH  13  14
ENDBRANCH  12  13
ENDBRANCH   1  12
TORSDOF 16
ENDMDL
MODEL 6
REMARK VINA RESULT:    -6.097      1.460      4.434
REMARK INTER + INTRA:         -13.272
REMARK INTER:                 -11.370
REMARK INTRA:                  -1.901
REMARK UNBOUND:                -1.472
REMARK SMILES CCCCCCCCCCCCCCCCCC(=O)[O-]
REMARK SMILES IDX 10 1 11 2 12 3 13 4 14 5 15 6 16 7 17 8 18 9 19 10 20 11
REMARK SMILES IDX 9 12 8 13 7 14 6 15 5 16 4 17 3 18 2 19 1 20
REMARK H PARENT
REMARK Flexibility Score: inf
ROOT
ATOM      1  C   UNL     1       5.361   6.875  14.218  1.00  0.00     0.000 C 
ENDROOT
BRANCH   1   2
ATOM      2  C   UNL     1       4.964   6.101  12.950  1.00  0.00     0.000 C 
BRANCH   2   3
ATOM      3  C   UNL     1       4.242   4.780  13.265  1.00  0.00     0.000 C 
BRANCH   3   4
ATOM      4  C   UNL     1       4.031   4.568  14.774  1.00  0.00     0.000 C 
BRANCH   4   5
ATOM      5  C   UNL     1       2.751   3.778  15.088  1.00  0.00     0.000 C 
BRANCH   5   6
ATOM      6  C   UNL     1       3.070   2.516  15.903  1.00  0.00     0.000 C 
BRANCH   6   7
ATOM      7  C   UNL     1       4.100   1.601  15.216  1.00  0.00     0.006 C 
BRANCH   7   8
ATOM      8  C   UNL     1       5.249   1.150  16.136  1.00  0.00     0.053 C 
BRANCH   8   9
ATOM      9  C   UNL     1       4.783   0.274  17.260  1.00  0.00     0.041 C 
ATOM     10  O   UNL     1       4.447  -0.919  17.040  1.00  0.00    -0.550 OA
ATOM     11  O   UNL     1       4.688   0.788  18.547  1.00  0.00    -0.550 OA
ENDBRANCH   8   9
ENDBRANCH   7   8
ENDBRANCH   6   7
ENDBRANCH   5   6
ENDBRANCH   4   5
ENDBRANCH   3   4
ENDBRANCH   2   3
ENDBRANCH   1   2
BRANCH   1  12
ATOM     12  C   UNL     1       5.288   8.400  14.029  1.00  0.00     0.000 C 
BRANCH  12  13
ATOM     13  C   UNL     1       4.506   9.096  15.156  1.00  0.00    -0.000 C 
BRANCH  13  14
ATOM     14  C   UNL     1       4.193   8.154  16.331  1.00  0.00    -0.000 C 
BRANCH  14  15
ATOM     15  C   UNL     1       3.250   8.792  17.364  1.00  0.00    -0.000 C 
BRANCH  15  16
ATOM     16  C   UNL     1       2.605   7.753  18.298  1.00  0.00    -0.000 C 
BRANCH  16  17
ATOM     17  C   UNL     1       2.685   6.323  17.721  1.00  0.00    -0.000 C 
BRANCH  17  18
ATOM     18  C   UNL     1       1.905   5.281  18.546  1.00  0.00    -0.000 C 
BRANCH  18  19
ATOM     19  C   UNL     1       2.786   4.291  19.326  1.00  0.00    -0.003 C 
ATOM     20  C   UNL     1       2.042   3.015  19.718  1.00  0.00     0.004 C 
ENDBRANCH  18  19
ENDBRANCH  17  18
ENDBRANCH  16  17
ENDBRANCH  15  16
ENDBRANCH  14  15
ENDBRANCH  13  14
ENDBRANCH  12  13
ENDBRANCH   1  12
TORSDOF 16
ENDMDL
MODEL 7
REMARK VINA RESULT:    -6.095      1.325      1.864
REMARK INTER + INTRA:         -13.267
REMARK INTER:                 -11.761
REMARK INTRA:                  -1.506
REMARK UNBOUND:                -1.472
REMARK SMILES CCCCCCCCCCCCCCCCCC(=O)[O-]
REMARK SMILES IDX 10 1 11 2 12 3 13 4 14 5 15 6 16 7 17 8 18 9 19 10 20 11
REMARK SMILES IDX 9 12 8 13 7 14 6 15 5 16 4 17 3 18 2 19 1 20
REMARK H PARENT
REMARK Flexibility Score: inf
ROOT
ATOM      1  C   UNL     1       2.193   6.180  18.478  1.00  0.00     0.000 C 
ENDROOT
BRANCH   1   2
ATOM      2  C   UNL     1       2.625   4.791  18.977  1.00  0.00     0.000 C 
BRANCH   2   3
ATOM      3  C   UNL     1       2.940   3.820  17.826  1.00  0.00     0.000 C 
BRANCH   3   4
ATOM      4  C   UNL     1       3.012   4.527  16.462  1.00  0.00     0.000 C 
BRANCH   4   5
ATOM      5  C   UNL     1       3.990   3.844  15.492  1.00  0.00     0.000 C 
BRANCH   5   6
ATOM      6  C   UNL     1       3.391   2.546  14.931  1.00  0.00     0.000 C 
BRANCH   6   7
ATOM      7  C   UNL     1       4.392   1.377  14.917  1.00  0.00     0.006 C 
BRANCH   7   8
ATOM      8  C   UNL     1       5.253   1.273  16.189  1.00  0.00     0.053 C 
BRANCH   8   9
ATOM      9  C   UNL     1       4.783   0.197  17.120  1.00  0.00     0.041 C 
ATOM     10  O   UNL     1       4.223  -0.837  16.668  1.00  0.00    -0.550 OA
ATOM     11  O   UNL     1       4.934   0.350  18.493  1.00  0.00    -0.550 OA
ENDBRANCH   8   9
ENDBRANCH   7   8
ENDBRANCH   6   7
ENDBRANCH   5   6
ENDBRANCH   4   5
ENDBRANCH   3   4
ENDBRANCH   2   3
ENDBRANCH   1   2
BRANCH   1  12
ATOM     12  C   UNL     1       2.240   7.248  19.584  1.00  0.00     0.000 C 
BRANCH  12  13
ATOM     13  C   UNL     1       1.924   8.657  19.055  1.00  0.00    -0.000 C 
BRANCH  13  14
ATOM     14  C   UNL     1       3.164   9.371  18.488  1.00  0.00    -0.000 C 
BRANCH  14  15
ATOM     15  C   UNL     1       3.377   9.082  16.993  1.00  0.00    -0.000 C 
BRANCH  15  16
ATOM     16  C   UNL     1       4.718   8.382  16.711  1.00  0.00    -0.000 C 
BRANCH  16  17
ATOM     17  C   UNL     1       4.734   7.691  15.329  1.00  0.00    -0.000 C 
BRANCH  17  18
ATOM     18  C   UNL     1       6.152   7.374  14.816  1.00  0.00    -0.000 C 
BRANCH  18  19
ATOM     19  C   UNL     1       6.677   8.343  13.744  1.00  0.00    -0.003 C 
ATOM     20  C   UNL     1       5.564   8.929  12.877  1.00  0.00     0.004 C 
ENDBRANCH  18  19
ENDBRANCH  17  18
ENDBRANCH  16  17
ENDBRANCH  15  16
ENDBRANCH  14  15
ENDBRANCH  13  14
ENDBRANCH  12  13
ENDBRANCH   1  12
TORSDOF 16
ENDMDL
MODEL 8
REMARK VINA RESULT:    -6.039      2.067      6.773
REMARK INTER + INTRA:         -13.161
REMARK INTER:                 -12.042
REMARK INTRA:                  -1.118
REMARK UNBOUND:                -1.472
REMARK SMILES CCCCCCCCCCCCCCCCCC(=O)[O-]
REMARK SMILES IDX 10 1 11 2 12 3 13 4 14 5 15 6 16 7 17 8 18 9 19 10 20 11
REMARK SMILES IDX 9 12 8 13 7 14 6 15 5 16 4 17 3 18 2 19 1 20
REMARK H PARENT
REMARK Flexibility Score: inf
ROOT
ATOM      1  C   UNL     1       5.413   8.430  13.912  1.00  0.00     0.000 C 
ENDROOT
BRANCH   1   2
ATOM      2  C   UNL     1       5.323   7.992  15.384  1.00  0.00     0.000 C 
BRANCH   2   3
ATOM      3  C   UNL     1       4.220   8.737  16.156  1.00  0.00     0.000 C 
BRANCH   3   4
ATOM      4  C   UNL     1       3.390   7.800  17.049  1.00  0.00     0.000 C 
BRANCH   4   5
ATOM      5  C   UNL     1       2.679   8.544  18.191  1.00  0.00     0.000 C 
BRANCH   5   6
ATOM      6  C   UNL     1       2.146   7.559  19.241  1.00  0.00     0.000 C 
BRANCH   6   7
ATOM      7  C   UNL     1       2.135   6.100  18.747  1.00  0.00     0.006 C 
BRANCH   7   8
ATOM      8  C   UNL     1       2.626   5.081  19.791  1.00  0.00     0.053 C 
BRANCH   8   9
ATOM      9  C   UNL     1       2.482   3.663  19.330  1.00  0.00     0.041 C 
ATOM     10  O   UNL     1       3.078   3.267  18.294  1.00  0.00    -0.550 OA
ATOM     11  O   UNL     1       1.662   2.785  20.028  1.00  0.00    -0.550 OA
ENDBRANCH   8   9
ENDBRANCH   7   8
ENDBRANCH   6   7
ENDBRANCH   5   6
ENDBRANCH   4   5
ENDBRANCH   3   4
ENDBRANCH   2   3
ENDBRANCH   1   2
BRANCH   1  12
ATOM     12  C   UNL     1       5.217   7.260  12.933  1.00  0.00     0.000 C 
BRANCH  12  13
ATOM     13  C   UNL     1       5.037   5.913  13.653  1.00  0.00    -0.000 C 
BRANCH  13  14
ATOM     14  C   UNL     1       4.133   4.940  12.875  1.00  0.00    -0.000 C 
BRANCH  14  15
ATOM     15  C   UNL     1       4.449   3.468  13.183  1.00  0.00    -0.000 C 
BRANCH  15  16
ATOM     16  C   UNL     1       4.018   3.054  14.601  1.00  0.00    -0.000 C 
BRANCH  16  17
ATOM     17  C   UNL     1       4.535   1.649  14.979  1.00  0.00    -0.000 C 
BRANCH  17  18
ATOM     18  C   UNL     1       3.451   0.555  14.912  1.00  0.00    -0.000 C 
BRANCH  18  19
ATOM     19  C   UNL     1       2.025   1.047  15.209  1.00  0.00    -0.003 C 
ATOM     20  C   UNL     1       0.952   0.040  14.799  1.00  0.00     0.004 C 
ENDBRANCH  18  19
ENDBRANCH  17  18
ENDBRANCH  16  17
ENDBRANCH  15  16
ENDBRANCH  14  15
ENDBRANCH  13  14
ENDBRANCH  12  13
ENDBRANCH   1  12
TORSDOF 16
ENDMDL
MODEL 9
REMARK VINA RESULT:    -6.002      3.552      7.439
REMARK INTER + INTRA:         -13.087
REMARK INTER:                 -11.533
REMARK INTRA:                  -1.555
REMARK UNBOUND:                -1.472
REMARK SMILES CCCCCCCCCCCCCCCCCC(=O)[O-]
REMARK SMILES IDX 10 1 11 2 12 3 13 4 14 5 15 6 16 7 17 8 18 9 19 10 20 11
REMARK SMILES IDX 9 12 8 13 7 14 6 15 5 16 4 17 3 18 2 19 1 20
REMARK H PARENT
REMARK Flexibility Score: inf
ROOT
ATOM      1  C   UNL     1       4.200   4.498  13.517  1.00  0.00     0.000 C 
ENDROOT
BRANCH   1   2
ATOM      2  C   UNL     1       4.732   5.818  12.934  1.00  0.00     0.000 C 
BRANCH   2   3
ATOM      3  C   UNL     1       5.716   6.529  13.879  1.00  0.00     0.000 C 
BRANCH   3   4
ATOM      4  C   UNL     1       5.818   8.037  13.599  1.00  0.00     0.000 C 
BRANCH   4   5
ATOM      5  C   UNL     1       4.857   8.867  14.464  1.00  0.00     0.000 C 
BRANCH   5   6
ATOM      6  C   UNL     1       4.600   8.179  15.813  1.00  0.00     0.000 C 
BRANCH   6   7
ATOM      7  C   UNL     1       3.733   9.023  16.765  1.00  0.00     0.006 C 
BRANCH   7   8
ATOM      8  C   UNL     1       3.015   8.203  17.852  1.00  0.00     0.053 C 
BRANCH   8   9
ATOM      9  C   UNL     1       2.282   9.063  18.837  1.00  0.00     0.041 C 
ATOM     10  O   UNL     1       2.236   8.740  20.054  1.00  0.00    -0.550 OA
ATOM     11  O   UNL     1       1.620  10.205  18.405  1.00  0.00    -0.550 OA
ENDBRANCH   8   9
ENDBRANCH   7   8
ENDBRANCH   6   7
ENDBRANCH   5   6
ENDBRANCH   4   5
ENDBRANCH   3   4
ENDBRANCH   2   3
ENDBRANCH   1   2
BRANCH   1  12
ATOM     12  C   UNL     1       4.977   3.271  13.010  1.00  0.00     0.000 C 
BRANCH  12  13
ATOM     13  C   UNL     1       4.236   1.951  13.283  1.00  0.00    -0.000 C 
BRANCH  13  14
ATOM     14  C   UNL     1       4.728   1.247  14.560  1.00  0.00    -0.000 C 
BRANCH  14  15
ATOM     15  C   UNL     1       3.582   0.920  15.531  1.00  0.00    -0.000 C 
BRANCH  15  16
ATOM     16  C   UNL     1       2.738   2.156  15.890  1.00  0.00    -0.000 C 
BRANCH  16  17
ATOM     17  C   UNL     1       3.383   2.994  17.015  1.00  0.00    -0.000 C 
BRANCH  17  18
ATOM     18  C   UNL     1       2.896   4.456  17.050  1.00  0.00    -0.000 C 
BRANCH  18  19
ATOM     19  C   UNL     1       2.011   4.807  18.257  1.00  0.00    -0.003 C 
ATOM     20  C   UNL     1       2.710   4.572  19.595  1.00  0.00     0.004 C 
ENDBRANCH  18  19
ENDBRANCH  17  18
ENDBRANCH  16  17
ENDBRANCH  15  16
ENDBRANCH  14  15
ENDBRANCH  13  14
ENDBRANCH  12  13
ENDBRANCH   1  12
TORSDOF 16
ENDMDL
