MODEL 1
REMARK VINA RESULT:    -3.165      0.000      0.000
REMARK INTER + INTRA:          -4.768
REMARK INTER:                  -4.275
REMARK INTRA:                  -0.493
REMARK UNBOUND:                -0.493
REMARK SMILES CCCCCCCC(C)=O
REMARK SMILES IDX 5 1 4 2 3 3 2 4 1 5 6 6 7 7 8 8 10 9 9 10
REMARK H PARENT
REMARK Flexibility Score: inf
ROOT
ATOM      1  C   UNL     1     162.701 171.501 169.344  1.00  0.00     0.000 C 
ENDROOT
BRANCH   1   2
ATOM      2  C   UNL     1     163.231 172.079 168.020  1.00  0.00     0.000 C 
BRANCH   2   3
ATOM      3  C   UNL     1     162.963 173.586 167.885  1.00  0.00    -0.000 C 
BRANCH   3   4
ATOM      4  C   UNL     1     163.375 174.138 166.512  1.00  0.00    -0.003 C 
ATOM      5  C   UNL     1     162.362 175.161 166.006  1.00  0.00     0.004 C 
ENDBRANCH   3   4
ENDBRANCH   2   3
ENDBRANCH   1   2
BRANCH   1   6
ATOM      6  C   UNL     1     161.522 172.307 169.913  1.00  0.00     0.008 C 
BRANCH   6   7
ATOM      7  C   UNL     1     160.224 171.491 169.972  1.00  0.00     0.075 C 
BRANCH   7   8
ATOM      8  C   UNL     1     159.259 171.950 168.910  1.00  0.00     0.129 C 
ATOM      9  O   UNL     1     158.446 171.160 168.454  1.00  0.00    -0.300 OA
ATOM     10  C   UNL     1     159.263 173.364 168.406  1.00  0.00     0.087 C 
ENDBRANCH   7   8
ENDBRANCH   6   7
ENDBRANCH   1   6
TORSDOF 6
ENDMDL
MODEL 2
REMARK VINA RESULT:    -3.069      8.160     10.086
REMARK INTER + INTRA:          -4.639
REMARK INTER:                  -4.410
REMARK INTRA:                  -0.229
REMARK UNBOUND:                -0.493
REMARK SMILES CCCCCCCC(C)=O
REMARK SMILES IDX 5 1 4 2 3 3 2 4 1 5 6 6 7 7 8 8 10 9 9 10
REMARK H PARENT
REMARK Flexibility Score: inf
ROOT
ATOM      1  C   UNL     1     167.937 166.387 170.304  1.00  0.00     0.000 C 
ENDROOT
BRANCH   1   2
ATOM      2  C   UNL     1     167.528 166.039 168.861  1.00  0.00     0.000 C 
BRANCH   2   3
ATOM      3  C   UNL     1     166.302 165.115 168.802  1.00  0.00    -0.000 C 
BRANCH   3   4
ATOM      4  C   UNL     1     164.982 165.872 169.012  1.00  0.00    -0.003 C 
ATOM      5  C   UNL     1     164.302 166.170 167.679  1.00  0.00     0.004 C 
ENDBRANCH   3   4
ENDBRANCH   2   3
ENDBRANCH   1   2
BRANCH   1   6
ATOM      6  C   UNL     1     169.166 167.309 170.365  1.00  0.00     0.008 C 
BRANCH   6   7
ATOM      7  C   UNL     1     169.789 167.553 168.983  1.00  0.00     0.075 C 
BRANCH   7   8
ATOM      8  C   UNL     1     170.679 168.767 169.009  1.00  0.00     0.129 C 
ATOM      9  O   UNL     1     170.493 169.666 168.202  1.00  0.00    -0.300 OA
ATOM     10  C   UNL     1     171.786 168.906 170.012  1.00  0.00     0.087 C 
ENDBRANCH   7   8
ENDBRANCH   6   7
ENDBRANCH   1   6
TORSDOF 6
ENDMDL
MODEL 3
REMARK VINA RESULT:    -3.062      8.286      9.222
REMARK INTER + INTRA:          -4.628
REMARK INTER:                  -4.462
REMARK INTRA:                  -0.166
REMARK UNBOUND:                -0.493
REMARK SMILES CCCCCCCC(C)=O
REMARK SMILES IDX 5 1 4 2 3 3 2 4 1 5 6 6 7 7 8 8 10 9 9 10
REMARK H PARENT
REMARK Flexibility Score: inf
ROOT
ATOM      1  C   UNL     1     163.242 164.648 169.874  1.00  0.00     0.000 C 
ENDROOT
BRANCH   1   2
ATOM      2  C   UNL     1     164.103 165.522 168.945  1.00  0.00     0.000 C 
BRANCH   2   3
ATOM      3  C   UNL     1     165.415 165.971 169.606  1.00  0.00    -0.000 C 
BRANCH   3   4
ATOM      4  C   UNL     1     166.607 165.087 169.212  1.00  0.00    -0.003 C 
ATOM      5  C   UNL     1     166.832 165.109 167.703  1.00  0.00     0.004 C 
ENDBRANCH   3   4
ENDBRANCH   2   3
ENDBRANCH   1   2
BRANCH   1   6
ATOM      6  C   UNL     1     161.980 164.112 169.179  1.00  0.00     0.008 C 
BRANCH   6   7
ATOM      7  C   UNL     1     161.312 162.975 169.966  1.00  0.00     0.075 C 
BRANCH   7   8
ATOM      8  C   UNL     1     160.432 162.150 169.064  1.00  0.00     0.129 C 
ATOM      9  O   UNL     1     160.908 161.645 168.058  1.00  0.00    -0.300 OA
ATOM     10  C   UNL     1     158.982 161.923 169.379  1.00  0.00     0.087 C 
ENDBRANCH   7   8
ENDBRANCH   6   7
ENDBRANCH   1   6
TORSDOF 6
ENDMDL
MODEL 4
REMARK VINA RESULT:    -3.037      2.093      4.160
REMARK INTER + INTRA:          -4.594
REMARK INTER:                  -4.020
REMARK INTRA:                  -0.575
REMARK UNBOUND:                -0.493
REMARK SMILES CCCCCCCC(C)=O
REMARK SMILES IDX 5 1 4 2 3 3 2 4 1 5 6 6 7 7 8 8 10 9 9 10
REMARK H PARENT
REMARK Flexibility Score: inf
ROOT
ATOM      1  C   UNL     1     162.412 171.357 169.618  1.00  0.00     0.000 C 
ENDROOT
BRANCH   1   2
ATOM      2  C   UNL     1     161.177 172.152 170.076  1.00  0.00     0.000 C 
BRANCH   2   3
ATOM      3  C   UNL     1     159.876 171.342 169.957  1.00  0.00    -0.000 C 
BRANCH   3   4
ATOM      4  C   UNL     1     159.023 171.771 168.753  1.00  0.00    -0.003 C 
ATOM      5  C   UNL     1     159.205 173.256 168.453  1.00  0.00     0.004 C 
ENDBRANCH   3   4
ENDBRANCH   2   3
ENDBRANCH   1   2
BRANCH   1   6
ATOM      6  C   UNL     1     163.139 172.021 168.437  1.00  0.00     0.008 C 
BRANCH   6   7
ATOM      7  C   UNL     1     163.034 173.552 168.467  1.00  0.00     0.075 C 
BRANCH   7   8
ATOM      8  C   UNL     1     163.027 174.111 167.068  1.00  0.00     0.129 C 
ATOM      9  O   UNL     1     163.924 173.808 166.295  1.00  0.00    -0.300 OA
ATOM     10  C   UNL     1     161.935 175.025 166.595  1.00  0.00     0.087 C 
ENDBRANCH   7   8
ENDBRANCH   6   7
ENDBRANCH   1   6
TORSDOF 6
ENDMDL
MODEL 5
REMARK VINA RESULT:    -2.998     15.485     17.280
REMARK INTER + INTRA:          -4.542
REMARK INTER:                  -3.808
REMARK INTRA:                  -0.734
REMARK UNBOUND:                -0.493
REMARK SMILES CCCCCCCC(C)=O
REMARK SMILES IDX 5 1 4 2 3 3 2 4 1 5 6 6 7 7 8 8 10 9 9 10
REMARK H PARENT
REMARK Flexibility Score: inf
ROOT
ATOM      1  C   UNL     1     169.454 159.815 170.646  1.00  0.00     0.000 C 
ENDROOT
BRANCH   1   2
ATOM      2  C   UNL     1     168.736 159.672 169.292  1.00  0.00     0.000 C 
BRANCH   2   3
ATOM      3  C   UNL     1     168.082 158.294 169.113  1.00  0.00    -0.000 C 
BRANCH   3   4
ATOM      4  C   UNL     1     168.878 157.381 168.168  1.00  0.00    -0.003 C 
ATOM      5  C   UNL     1     169.419 156.162 168.909  1.00  0.00     0.004 C 
ENDBRANCH   3   4
ENDBRANCH   2   3
ENDBRANCH   1   2
BRANCH   1   6
ATOM      6  C   UNL     1     170.957 160.097 170.492  1.00  0.00     0.008 C 
BRANCH   6   7
ATOM      7  C   UNL     1     171.761 158.836 170.145  1.00  0.00     0.075 C 
BRANCH   7   8
ATOM      8  C   UNL     1     172.388 158.964 168.781  1.00  0.00     0.129 C 
ATOM      9  O   UNL     1     172.706 160.069 168.367  1.00  0.00    -0.300 OA
ATOM     10  C   UNL     1     172.643 157.762 167.920  1.00  0.00     0.087 C 
ENDBRANCH   7   8
ENDBRANCH   6   7
ENDBRANCH   1   6
TORSDOF 6
ENDMDL
MODEL 6
REMARK VINA RESULT:    -2.982      1.360      2.074
REMARK INTER + INTRA:          -4.521
REMARK INTER:                  -3.825
REMARK INTRA:                  -0.696
REMARK UNBOUND:                -0.493
REMARK SMILES CCCCCCCC(C)=O
REMARK SMILES IDX 5 1 4 2 3 3 2 4 1 5 6 6 7 7 8 8 10 9 9 10
REMARK H PARENT
REMARK Flexibility Score: inf
ROOT
ATOM      1  C   UNL     1     161.477 170.952 171.366  1.00  0.00     0.000 C 
ENDROOT
BRANCH   1   2
ATOM      2  C   UNL     1     162.480 171.876 170.652  1.00  0.00     0.000 C 
BRANCH   2   3
ATOM      3  C   UNL     1     163.032 171.258 169.358  1.00  0.00    -0.000 C 
BRANCH   3   4
ATOM      4  C   UNL     1     163.018 172.245 168.181  1.00  0.00    -0.003 C 
ATOM      5  C   UNL     1     162.722 173.664 168.658  1.00  0.00     0.004 C 
ENDBRANCH   3   4
ENDBRANCH   2   3
ENDBRANCH   1   2
BRANCH   1   6
ATOM      6  C   UNL     1     160.127 170.866 170.636  1.00  0.00     0.008 C 
BRANCH   6   7
ATOM      7  C   UNL     1     159.554 172.248 170.293  1.00  0.00     0.075 C 
BRANCH   7   8
ATOM      8  C   UNL     1     158.984 172.256 168.899  1.00  0.00     0.129 C 
ATOM      9  O   UNL     1     158.529 171.223 168.429  1.00  0.00    -0.300 OA
ATOM     10  C   UNL     1     158.951 173.509 168.073  1.00  0.00     0.087 C 
ENDBRANCH   7   8
ENDBRANCH   6   7
ENDBRANCH   1   6
TORSDOF 6
ENDMDL
MODEL 7
REMARK VINA RESULT:    -2.980      2.234      4.115
REMARK INTER + INTRA:          -4.517
REMARK INTER:                  -3.884
REMARK INTRA:                  -0.633
REMARK UNBOUND:                -0.493
REMARK SMILES CCCCCCCC(C)=O
REMARK SMILES IDX 5 1 4 2 3 3 2 4 1 5 6 6 7 7 8 8 10 9 9 10
REMARK H PARENT
REMARK Flexibility Score: inf
ROOT
ATOM      1  C   UNL     1     161.366 171.864 170.777  1.00  0.00     0.000 C 
ENDROOT
BRANCH   1   2
ATOM      2  C   UNL     1     160.136 170.964 170.564  1.00  0.00     0.000 C 
BRANCH   2   3
ATOM      3  C   UNL     1     158.927 171.737 170.014  1.00  0.00    -0.000 C 
BRANCH   3   4
ATOM      4  C   UNL     1     158.924 171.812 168.480  1.00  0.00    -0.003 C 
ATOM      5  C   UNL     1     158.563 173.215 168.001  1.00  0.00     0.004 C 
ENDBRANCH   3   4
ENDBRANCH   2   3
ENDBRANCH   1   2
BRANCH   1   6
ATOM      6  C   UNL     1     162.599 171.376 169.998  1.00  0.00     0.008 C 
BRANCH   6   7
ATOM      7  C   UNL     1     162.710 172.018 168.608  1.00  0.00     0.075 C 
BRANCH   7   8
ATOM      8  C   UNL     1     162.904 173.507 168.724  1.00  0.00     0.129 C 
ATOM      9  O   UNL     1     163.781 173.944 169.456  1.00  0.00    -0.300 OA
ATOM     10  C   UNL     1     162.052 174.472 167.952  1.00  0.00     0.087 C 
ENDBRANCH   7   8
ENDBRANCH   6   7
ENDBRANCH   1   6
TORSDOF 6
ENDMDL
MODEL 8
REMARK VINA RESULT:    -2.916     15.361     17.123
REMARK INTER + INTRA:          -4.431
REMARK INTER:                  -3.725
REMARK INTRA:                  -0.706
REMARK UNBOUND:                -0.493
REMARK SMILES CCCCCCCC(C)=O
REMARK SMILES IDX 5 1 4 2 3 3 2 4 1 5 6 6 7 7 8 8 10 9 9 10
REMARK H PARENT
REMARK Flexibility Score: inf
ROOT
ATOM      1  C   UNL     1     169.547 157.008 167.965  1.00  0.00     0.000 C 
ENDROOT
BRANCH   1   2
ATOM      2  C   UNL     1     168.254 157.598 168.555  1.00  0.00     0.000 C 
BRANCH   2   3
ATOM      3  C   UNL     1     168.090 159.092 168.239  1.00  0.00    -0.000 C 
BRANCH   3   4
ATOM      4  C   UNL     1     168.214 159.976 169.489  1.00  0.00    -0.003 C 
ATOM      5  C   UNL     1     167.980 159.166 170.760  1.00  0.00     0.004 C 
ENDBRANCH   3   4
ENDBRANCH   2   3
ENDBRANCH   1   2
BRANCH   1   6
ATOM      6  C   UNL     1     170.732 157.080 168.942  1.00  0.00     0.008 C 
BRANCH   6   7
ATOM      7  C   UNL     1     171.952 157.789 168.339  1.00  0.00     0.075 C 
BRANCH   7   8
ATOM      8  C   UNL     1     172.167 159.127 168.996  1.00  0.00     0.129 C 
ATOM      9  O   UNL     1     172.704 160.027 168.366  1.00  0.00    -0.300 OA
ATOM     10  C   UNL     1     171.726 159.387 170.407  1.00  0.00     0.087 C 
ENDBRANCH   7   8
ENDBRANCH   6   7
ENDBRANCH   1   6
TORSDOF 6
ENDMDL
MODEL 9
REMARK VINA RESULT:    -2.905      0.970      2.875
REMARK INTER + INTRA:          -4.417
REMARK INTER:                  -3.793
REMARK INTRA:                  -0.624
REMARK UNBOUND:                -0.493
REMARK SMILES CCCCCCCC(C)=O
REMARK SMILES IDX 5 1 4 2 3 3 2 4 1 5 6 6 7 7 8 8 10 9 9 10
REMARK H PARENT
REMARK Flexibility Score: inf
ROOT
ATOM      1  C   UNL     1     161.236 174.960 167.374  1.00  0.00     0.000 C 
ENDROOT
BRANCH   1   2
ATOM      2  C   UNL     1     162.583 174.227 167.249  1.00  0.00     0.000 C 
BRANCH   2   3
ATOM      3  C   UNL     1     162.977 173.492 168.540  1.00  0.00    -0.000 C 
BRANCH   3   4
ATOM      4  C   UNL     1     163.188 171.986 168.320  1.00  0.00    -0.003 C 
ATOM      5  C   UNL     1     162.968 171.207 169.614  1.00  0.00     0.004 C 
ENDBRANCH   3   4
ENDBRANCH   2   3
ENDBRANCH   1   2
BRANCH   1   6
ATOM      6  C   UNL     1     160.351 174.386 168.494  1.00  0.00     0.008 C 
BRANCH   6   7
ATOM      7  C   UNL     1     159.224 173.493 167.955  1.00  0.00     0.075 C 
BRANCH   7   8
ATOM      8  C   UNL     1     159.033 172.289 168.839  1.00  0.00     0.129 C 
ATOM      9  O   UNL     1     158.476 171.297 168.391  1.00  0.00    -0.300 OA
ATOM     10  C   UNL     1     159.520 172.272 170.258  1.00  0.00     0.087 C 
ENDBRANCH   7   8
ENDBRANCH   6   7
ENDBRANCH   1   6
TORSDOF 6
ENDMDL
