MODEL 1
REMARK VINA RESULT:    -5.390      0.000      0.000
REMARK INTER + INTRA:          -6.576
REMARK INTER:                  -6.493
REMARK INTRA:                  -0.083
REMARK UNBOUND:                -0.083
REMARK SMILES OCCc1ccc(O)c(O)c1
REMARK SMILES IDX 3 1 4 2 5 3 6 4 7 5 11 6 9 7 8 8 10 10 2 12 1 13
REMARK H PARENT 8 9 10 11 1 14
REMARK Flexibility Score: inf
ROOT
ATOM      1  C   UNL     1      11.552  -3.658  19.770  1.00  0.00     0.064 C 
ENDROOT
BRANCH   1   2
ATOM      2  C   UNL     1      10.355  -4.574  19.740  1.00  0.00    -0.042 A 
ATOM      3  C   UNL     1       9.057  -4.041  19.752  1.00  0.00     0.008 A 
ATOM      4  C   UNL     1       7.947  -4.889  19.753  1.00  0.00     0.050 A 
ATOM      5  C   UNL     1       8.121  -6.280  19.750  1.00  0.00     0.157 A 
ATOM      6  C   UNL     1      10.528  -5.967  19.748  1.00  0.00     0.054 A 
ATOM      7  C   UNL     1       9.419  -6.820  19.750  1.00  0.00     0.157 A 
BRANCH   5   8
ATOM      8  O   UNL     1       7.012  -7.125  19.750  1.00  0.00    -0.504 OA
ATOM      9  H   UNL     1       6.698  -7.589  18.905  1.00  0.00     0.293 HD
ENDBRANCH   5   8
BRANCH   7  10
ATOM     10  O   UNL     1       9.625  -8.200  19.753  1.00  0.00    -0.504 OA
ATOM     11  H   UNL     1      10.478  -8.617  19.398  1.00  0.00     0.293 HD
ENDBRANCH   7  10
ENDBRANCH   1   2
BRANCH   1  12
ATOM     12  C   UNL     1      11.495  -2.632  18.634  1.00  0.00     0.161 C 
BRANCH  12  13
ATOM     13  O   UNL     1      12.251  -3.060  17.533  1.00  0.00    -0.396 OA
ATOM     14  H   UNL     1      11.617  -3.160  16.776  1.00  0.00     0.210 HD
ENDBRANCH  12  13
ENDBRANCH   1  12
TORSDOF 5
ENDMDL
MODEL 2
REMARK VINA RESULT:    -5.359     11.331     13.052
REMARK INTER + INTRA:          -6.538
REMARK INTER:                  -6.452
REMARK INTRA:                  -0.086
REMARK UNBOUND:                -0.083
REMARK SMILES OCCc1ccc(O)c(O)c1
REMARK SMILES IDX 3 1 4 2 5 3 6 4 7 5 11 6 9 7 8 8 10 10 2 12 1 13
REMARK H PARENT 8 9 10 11 1 14
REMARK Flexibility Score: inf
ROOT
ATOM      1  C   UNL     1       5.891   5.247   9.633  1.00  0.00     0.064 C 
ENDROOT
BRANCH   1   2
ATOM      2  C   UNL     1       6.618   4.045  10.179  1.00  0.00    -0.042 A 
ATOM      3  C   UNL     1       7.629   4.206  11.139  1.00  0.00     0.008 A 
ATOM      4  C   UNL     1       8.322   3.095  11.625  1.00  0.00     0.050 A 
ATOM      5  C   UNL     1       8.020   1.811  11.151  1.00  0.00     0.157 A 
ATOM      6  C   UNL     1       6.324   2.759   9.697  1.00  0.00     0.054 A 
ATOM      7  C   UNL     1       7.017   1.644  10.181  1.00  0.00     0.157 A 
BRANCH   5   8
ATOM      8  O   UNL     1       8.713   0.703  11.638  1.00  0.00    -0.504 OA
ATOM      9  H   UNL     1       9.695   0.557  11.429  1.00  0.00     0.293 HD
ENDBRANCH   5   8
BRANCH   7  10
ATOM     10  O   UNL     1       6.697   0.380   9.686  1.00  0.00    -0.504 OA
ATOM     11  H   UNL     1       7.124   0.008   8.845  1.00  0.00     0.293 HD
ENDBRANCH   7  10
ENDBRANCH   1   2
BRANCH   1  12
ATOM     12  C   UNL     1       6.304   6.527  10.367  1.00  0.00     0.161 C 
BRANCH  12  13
ATOM     13  O   UNL     1       6.583   7.559   9.460  1.00  0.00    -0.396 OA
ATOM     14  H   UNL     1       7.258   8.143   9.894  1.00  0.00     0.210 HD
ENDBRANCH  12  13
ENDBRANCH   1  12
TORSDOF 5
ENDMDL
MODEL 3
REMARK VINA RESULT:    -5.252      1.266      4.779
REMARK INTER + INTRA:          -6.410
REMARK INTER:                  -6.344
REMARK INTRA:                  -0.066
REMARK UNBOUND:                -0.083
REMARK SMILES OCCc1ccc(O)c(O)c1
REMARK SMILES IDX 3 1 4 2 5 3 6 4 7 5 11 6 9 7 8 8 10 10 2 12 1 13
REMARK H PARENT 8 9 10 11 1 14
REMARK Flexibility Score: inf
ROOT
ATOM      1  C   UNL     1      10.782  -6.004  19.844  1.00  0.00     0.064 C 
ENDROOT
BRANCH   1   2
ATOM      2  C   UNL     1      10.854  -4.547  19.466  1.00  0.00    -0.042 A 
ATOM      3  C   UNL     1       9.770  -3.694  19.727  1.00  0.00     0.008 A 
ATOM      4  C   UNL     1       9.826  -2.350  19.352  1.00  0.00     0.050 A 
ATOM      5  C   UNL     1      10.960  -1.843  18.704  1.00  0.00     0.157 A 
ATOM      6  C   UNL     1      11.986  -4.040  18.807  1.00  0.00     0.054 A 
ATOM      7  C   UNL     1      12.044  -2.694  18.429  1.00  0.00     0.157 A 
BRANCH   5   8
ATOM      8  O   UNL     1      11.013  -0.500  18.330  1.00  0.00    -0.504 OA
ATOM      9  H   UNL     1      11.883  -0.062  18.050  1.00  0.00     0.293 HD
ENDBRANCH   5   8
BRANCH   7  10
ATOM     10  O   UNL     1      13.185  -2.222  17.780  1.00  0.00    -0.504 OA
ATOM     11  H   UNL     1      13.779  -2.828  17.226  1.00  0.00     0.293 HD
ENDBRANCH   7  10
ENDBRANCH   1   2
BRANCH   1  12
ATOM     12  C   UNL     1       9.332  -6.500  19.871  1.00  0.00     0.161 C 
BRANCH  12  13
ATOM     13  O   UNL     1       9.280  -7.900  19.809  1.00  0.00    -0.396 OA
ATOM     14  H   UNL     1       9.093  -8.134  18.863  1.00  0.00     0.210 HD
ENDBRANCH  12  13
ENDBRANCH   1  12
TORSDOF 5
ENDMDL
MODEL 4
REMARK VINA RESULT:    -5.243      0.899      2.098
REMARK INTER + INTRA:          -6.399
REMARK INTER:                  -6.310
REMARK INTRA:                  -0.088
REMARK UNBOUND:                -0.083
REMARK SMILES OCCc1ccc(O)c(O)c1
REMARK SMILES IDX 3 1 4 2 5 3 6 4 7 5 11 6 9 7 8 8 10 10 2 12 1 13
REMARK H PARENT 8 9 10 11 1 14
REMARK Flexibility Score: inf
ROOT
ATOM      1  C   UNL     1      11.056  -2.463  19.714  1.00  0.00     0.064 C 
ENDROOT
BRANCH   1   2
ATOM      2  C   UNL     1      10.570  -3.889  19.766  1.00  0.00    -0.042 A 
ATOM      3  C   UNL     1      11.489  -4.949  19.765  1.00  0.00     0.008 A 
ATOM      4  C   UNL     1      11.040  -6.272  19.785  1.00  0.00     0.050 A 
ATOM      5  C   UNL     1       9.666  -6.551  19.796  1.00  0.00     0.157 A 
ATOM      6  C   UNL     1       9.194  -4.170  19.766  1.00  0.00     0.054 A 
ATOM      7  C   UNL     1       8.740  -5.494  19.785  1.00  0.00     0.157 A 
BRANCH   5   8
ATOM      8  O   UNL     1       9.220  -7.871  19.816  1.00  0.00    -0.504 OA
ATOM      9  H   UNL     1       8.301  -8.126  19.472  1.00  0.00     0.293 HD
ENDBRANCH   5   8
BRANCH   7  10
ATOM     10  O   UNL     1       7.367  -5.739  19.790  1.00  0.00    -0.504 OA
ATOM     11  H   UNL     1       6.958  -6.524  19.297  1.00  0.00     0.293 HD
ENDBRANCH   7  10
ENDBRANCH   1   2
BRANCH   1  12
ATOM     12  C   UNL     1      10.884  -1.867  18.313  1.00  0.00     0.161 C 
BRANCH  12  13
ATOM     13  O   UNL     1      11.853  -2.368  17.433  1.00  0.00    -0.396 OA
ATOM     14  H   UNL     1      11.416  -3.091  16.911  1.00  0.00     0.210 HD
ENDBRANCH  12  13
ENDBRANCH   1  12
TORSDOF 5
ENDMDL
MODEL 5
REMARK VINA RESULT:    -5.238      9.865     11.978
REMARK INTER + INTRA:          -6.394
REMARK INTER:                  -6.344
REMARK INTRA:                  -0.050
REMARK UNBOUND:                -0.083
REMARK SMILES OCCc1ccc(O)c(O)c1
REMARK SMILES IDX 3 1 4 2 5 3 6 4 7 5 11 6 9 7 8 8 10 10 2 12 1 13
REMARK H PARENT 8 9 10 11 1 14
REMARK Flexibility Score: inf
ROOT
ATOM      1  C   UNL     1       9.014   0.371  12.163  1.00  0.00     0.064 C 
ENDROOT
BRANCH   1   2
ATOM      2  C   UNL     1       8.269   1.453  11.424  1.00  0.00    -0.042 A 
ATOM      3  C   UNL     1       7.367   1.118  10.403  1.00  0.00     0.008 A 
ATOM      4  C   UNL     1       6.697   2.121   9.698  1.00  0.00     0.050 A 
ATOM      5  C   UNL     1       6.926   3.470  10.000  1.00  0.00     0.157 A 
ATOM      6  C   UNL     1       8.506   2.805  11.718  1.00  0.00     0.054 A 
ATOM      7  C   UNL     1       7.837   3.813  11.014  1.00  0.00     0.157 A 
BRANCH   5   8
ATOM      8  O   UNL     1       6.256   4.470   9.296  1.00  0.00    -0.504 OA
ATOM      9  H   UNL     1       5.284   4.368   9.025  1.00  0.00     0.293 HD
ENDBRANCH   5   8
BRANCH   7  10
ATOM     10  O   UNL     1       8.091   5.146  11.335  1.00  0.00    -0.504 OA
ATOM     11  H   UNL     1       7.771   5.910  10.752  1.00  0.00     0.293 HD
ENDBRANCH   7  10
ENDBRANCH   1   2
BRANCH   1  12
ATOM     12  C   UNL     1      10.297  -0.024  11.426  1.00  0.00     0.161 C 
BRANCH  12  13
ATOM     13  O   UNL     1      11.137  -0.784  12.252  1.00  0.00    -0.396 OA
ATOM     14  H   UNL     1      10.920  -0.530  13.187  1.00  0.00     0.210 HD
ENDBRANCH  12  13
ENDBRANCH   1  12
TORSDOF 5
ENDMDL
MODEL 6
REMARK VINA RESULT:    -4.859     11.228     12.954
REMARK INTER + INTRA:          -5.936
REMARK INTER:                  -5.853
REMARK INTRA:                  -0.084
REMARK UNBOUND:                -0.083
REMARK SMILES OCCc1ccc(O)c(O)c1
REMARK SMILES IDX 3 1 4 2 5 3 6 4 7 5 11 6 9 7 8 8 10 10 2 12 1 13
REMARK H PARENT 8 9 10 11 1 14
REMARK Flexibility Score: inf
ROOT
ATOM      1  C   UNL     1       7.416   5.988  11.111  1.00  0.00     0.064 C 
ENDROOT
BRANCH   1   2
ATOM      2  C   UNL     1       7.417   4.505  10.845  1.00  0.00    -0.042 A 
ATOM      3  C   UNL     1       6.588   3.966   9.849  1.00  0.00     0.008 A 
ATOM      4  C   UNL     1       6.567   2.587   9.621  1.00  0.00     0.050 A 
ATOM      5  C   UNL     1       7.368   1.732  10.389  1.00  0.00     0.157 A 
ATOM      6  C   UNL     1       8.210   3.645  11.621  1.00  0.00     0.054 A 
ATOM      7  C   UNL     1       8.191   2.264  11.396  1.00  0.00     0.157 A 
BRANCH   5   8
ATOM      8  O   UNL     1       7.346   0.356  10.159  1.00  0.00    -0.504 OA
ATOM      9  H   UNL     1       7.200  -0.024   9.230  1.00  0.00     0.293 HD
ENDBRANCH   5   8
BRANCH   7  10
ATOM     10  O   UNL     1       8.996   1.439  12.181  1.00  0.00    -0.504 OA
ATOM     11  H   UNL     1       9.685   1.812  12.823  1.00  0.00     0.293 HD
ENDBRANCH   7  10
ENDBRANCH   1   2
BRANCH   1  12
ATOM     12  C   UNL     1       6.288   6.690  10.347  1.00  0.00     0.161 C 
BRANCH  12  13
ATOM     13  O   UNL     1       6.739   7.887   9.774  1.00  0.00    -0.396 OA
ATOM     14  H   UNL     1       6.289   8.623  10.266  1.00  0.00     0.210 HD
ENDBRANCH  12  13
ENDBRANCH   1  12
TORSDOF 5
ENDMDL
MODEL 7
REMARK VINA RESULT:    -4.849      2.187      3.163
REMARK INTER + INTRA:          -5.924
REMARK INTER:                  -5.851
REMARK INTRA:                  -0.074
REMARK UNBOUND:                -0.083
REMARK SMILES OCCc1ccc(O)c(O)c1
REMARK SMILES IDX 3 1 4 2 5 3 6 4 7 5 11 6 9 7 8 8 10 10 2 12 1 13
REMARK H PARENT 8 9 10 11 1 14
REMARK Flexibility Score: inf
ROOT
ATOM      1  C   UNL     1       7.457  -2.740  19.663  1.00  0.00     0.064 C 
ENDROOT
BRANCH   1   2
ATOM      2  C   UNL     1       8.515  -3.811  19.726  1.00  0.00    -0.042 A 
ATOM      3  C   UNL     1       9.872  -3.460  19.778  1.00  0.00     0.008 A 
ATOM      4  C   UNL     1      10.855  -4.453  19.808  1.00  0.00     0.050 A 
ATOM      5  C   UNL     1      10.494  -5.807  19.778  1.00  0.00     0.157 A 
ATOM      6  C   UNL     1       8.154  -5.167  19.685  1.00  0.00     0.054 A 
ATOM      7  C   UNL     1       9.136  -6.164  19.714  1.00  0.00     0.157 A 
BRANCH   5   8
ATOM      8  O   UNL     1      11.476  -6.796  19.808  1.00  0.00    -0.504 OA
ATOM      9  H   UNL     1      12.438  -6.581  20.049  1.00  0.00     0.293 HD
ENDBRANCH   5   8
BRANCH   7  10
ATOM     10  O   UNL     1       8.744  -7.502  19.677  1.00  0.00    -0.504 OA
ATOM     11  H   UNL     1       8.095  -7.891  20.352  1.00  0.00     0.293 HD
ENDBRANCH   7  10
ENDBRANCH   1   2
BRANCH   1  12
ATOM     12  C   UNL     1       8.031  -1.421  19.134  1.00  0.00     0.161 C 
BRANCH  12  13
ATOM     13  O   UNL     1       7.173  -0.846  18.186  1.00  0.00    -0.396 OA
ATOM     14  H   UNL     1       6.281  -0.776  18.616  1.00  0.00     0.210 HD
ENDBRANCH  12  13
ENDBRANCH   1  12
TORSDOF 5
ENDMDL
MODEL 8
REMARK VINA RESULT:    -4.794      2.226      2.969
REMARK INTER + INTRA:          -5.858
REMARK INTER:                  -5.772
REMARK INTRA:                  -0.086
REMARK UNBOUND:                -0.083
REMARK SMILES OCCc1ccc(O)c(O)c1
REMARK SMILES IDX 3 1 4 2 5 3 6 4 7 5 11 6 9 7 8 8 10 10 2 12 1 13
REMARK H PARENT 8 9 10 11 1 14
REMARK Flexibility Score: inf
ROOT
ATOM      1  C   UNL     1       8.261  -2.420  19.739  1.00  0.00     0.064 C 
ENDROOT
BRANCH   1   2
ATOM      2  C   UNL     1       8.561  -3.897  19.725  1.00  0.00    -0.042 A 
ATOM      3  C   UNL     1       7.513  -4.830  19.682  1.00  0.00     0.008 A 
ATOM      4  C   UNL     1       7.789  -6.200  19.698  1.00  0.00     0.050 A 
ATOM      5  C   UNL     1       9.114  -6.653  19.766  1.00  0.00     0.157 A 
ATOM      6  C   UNL     1       9.887  -4.352  19.804  1.00  0.00     0.054 A 
ATOM      7  C   UNL     1      10.167  -5.723  19.821  1.00  0.00     0.157 A 
BRANCH   5   8
ATOM      8  O   UNL     1       9.387  -8.020  19.780  1.00  0.00    -0.504 OA
ATOM      9  H   UNL     1       8.650  -8.707  19.893  1.00  0.00     0.293 HD
ENDBRANCH   5   8
BRANCH   7  10
ATOM     10  O   UNL     1      11.495  -6.142  19.894  1.00  0.00    -0.504 OA
ATOM     11  H   UNL     1      11.774  -7.089  19.661  1.00  0.00     0.293 HD
ENDBRANCH   7  10
ENDBRANCH   1   2
BRANCH   1  12
ATOM     12  C   UNL     1       6.815  -2.142  19.316  1.00  0.00     0.161 C 
BRANCH  12  13
ATOM     13  O   UNL     1       6.773  -1.327  18.175  1.00  0.00    -0.396 OA
ATOM     14  H   UNL     1       7.271  -0.499  18.402  1.00  0.00     0.210 HD
ENDBRANCH  12  13
ENDBRANCH   1  12
TORSDOF 5
ENDMDL
