MODEL 1
REMARK VINA RESULT:    -4.643      0.000      0.000
REMARK INTER + INTRA:          -5.880
REMARK INTER:                  -7.087
REMARK INTRA:                   1.206
REMARK UNBOUND:                 1.206
REMARK SMILES CC1=CCC[C@H](C)C(=O)C[C@@H](C(C)C)C(=O)C1
REMARK SMILES IDX 8 1 9 2 6 3 7 4 5 5 4 6 3 7 2 8 1 9 10 11 11 12 15 13 16 14
REMARK SMILES IDX 17 15 12 17 13 18 14 19
REMARK H PARENT
REMARK Flexibility Score: 70.00
ROOT
ATOM      1  C   UNL     1     108.245  49.173  64.717  1.00  0.00     0.136 C 
ATOM      2  O   UNL     1     107.205  49.081  65.355  1.00  0.00    -0.299 OA
ENDROOT
BRANCH   1   3
ATOM      3  C   UNL     1     109.249  48.038  64.738  1.00  0.00     0.053 C 
ATOM      4  C   UNL     1     109.499  47.614  66.188  1.00  0.00     0.016 C 
BRANCH   3   5
ATOM      5  C   UNL     1     108.800  46.822  63.894  1.00  0.00     0.015 C 
BRANCH   5   6
ATOM      6  C   UNL     1     109.517  46.707  62.536  1.00  0.00     0.028 C 
BRANCH   6   7
ATOM      7  C   UNL     1     110.251  47.980  62.187  1.00  0.00    -0.028 C 
ATOM      8  C   UNL     1     109.739  49.014  61.482  1.00  0.00    -0.070 CG0
ATOM      9  C   UNL     1     110.625  50.211  61.239  1.00  0.00     0.039 C 
ATOM     10  G   UNL     1     108.326  49.021  60.928  1.00  0.00     0.000 G0
ENDBRANCH   6   7
ENDBRANCH   5   6
ENDBRANCH   3   5
ENDBRANCH   1   3
BRANCH   1  11
ATOM     11  C   UNL     1     108.541  50.451  63.971  1.00  0.00     0.087 C 
BRANCH  11  12
ATOM     12  C   UNL     1     107.515  50.710  62.842  1.00  0.00     0.066 C 
BRANCH  12  13
ATOM     13  C   UNL     1     107.323  49.458  62.000  1.00  0.00     0.140 C 
ATOM     14  O   UNL     1     106.359  48.734  62.198  1.00  0.00    -0.299 OA
BRANCH  13  15
ATOM     15  C   UNL     1     108.320  49.065  60.939  1.00  0.00     0.106 CG0
ATOM     16  G   UNL     1     109.741  49.021  61.470  1.00  0.00     0.000 G0
ENDBRANCH  13  15
ENDBRANCH  12  13
BRANCH  12  17
ATOM     17  C   UNL     1     107.862  51.938  61.944  1.00  0.00    -0.006 C 
ATOM     18  C   UNL     1     108.671  53.033  62.662  1.00  0.00     0.008 C 
ATOM     19  C   UNL     1     106.603  52.550  61.311  1.00  0.00     0.008 C 
ENDBRANCH  12  17
ENDBRANCH  11  12
ENDBRANCH   1  11
TORSDOF 1
ENDMDL
MODEL 2
REMARK VINA RESULT:    -4.505      2.067      4.314
REMARK INTER + INTRA:          -5.669
REMARK INTER:                  -6.512
REMARK INTRA:                   0.843
REMARK UNBOUND:                 1.206
REMARK SMILES CC1=CCC[C@H](C)C(=O)C[C@@H](C(C)C)C(=O)C1
REMARK SMILES IDX 8 1 9 2 6 3 7 4 5 5 4 6 3 7 2 8 1 9 10 11 11 12 15 13 16 14
REMARK SMILES IDX 17 15 12 17 13 18 14 19
REMARK H PARENT
REMARK Flexibility Score: 70.00
ROOT
ATOM      1  C   UNL     1     109.475  47.750  61.787  1.00  0.00     0.136 C 
ATOM      2  O   UNL     1     109.842  46.662  61.365  1.00  0.00    -0.299 OA
ENDROOT
BRANCH   1   3
ATOM      3  C   UNL     1     108.369  48.504  61.078  1.00  0.00     0.053 C 
ATOM      4  C   UNL     1     108.052  47.804  59.753  1.00  0.00     0.016 C 
BRANCH   3   5
ATOM      5  C   UNL     1     107.086  48.634  61.934  1.00  0.00     0.015 C 
BRANCH   5   6
ATOM      6  C   UNL     1     106.694  50.090  62.251  1.00  0.00     0.028 C 
BRANCH   6   7
ATOM      7  C   UNL     1     107.526  51.072  61.460  1.00  0.00    -0.028 C 
ATOM      8  C   UNL     1     108.505  51.858  61.964  1.00  0.00    -0.070 CG0
ATOM      9  C   UNL     1     109.234  52.774  61.014  1.00  0.00     0.039 C 
ATOM     10  G   UNL     1     108.893  51.859  63.431  1.00  0.00     0.000 G0
ENDBRANCH   6   7
ENDBRANCH   5   6
ENDBRANCH   3   5
ENDBRANCH   1   3
BRANCH   1  11
ATOM     11  C   UNL     1     110.185  48.357  62.974  1.00  0.00     0.087 C 
BRANCH  11  12
ATOM     12  C   UNL     1     109.252  49.281  63.791  1.00  0.00     0.066 C 
BRANCH  12  13
ATOM     13  C   UNL     1     109.785  50.705  63.797  1.00  0.00     0.140 C 
ATOM     14  O   UNL     1     110.942  50.921  64.126  1.00  0.00    -0.299 OA
BRANCH  13  15
ATOM     15  C   UNL     1     108.902  51.875  63.439  1.00  0.00     0.106 CG0
ATOM     16  G   UNL     1     108.495  51.864  61.977  1.00  0.00     0.000 G0
ENDBRANCH  13  15
ENDBRANCH  12  13
BRANCH  12  17
ATOM     17  C   UNL     1     108.984  48.780  65.244  1.00  0.00    -0.006 C 
ATOM     18  C   UNL     1     109.501  47.358  65.525  1.00  0.00     0.008 C 
ATOM     19  C   UNL     1     107.494  48.874  65.609  1.00  0.00     0.008 C 
ENDBRANCH  12  17
ENDBRANCH  11  12
ENDBRANCH   1  11
TORSDOF 1
ENDMDL
MODEL 3
REMARK VINA RESULT:    -4.375      2.065      3.665
REMARK INTER + INTRA:          -5.471
REMARK INTER:                  -7.260
REMARK INTRA:                   1.790
REMARK UNBOUND:                 1.206
REMARK SMILES CC1=CCC[C@H](C)C(=O)C[C@@H](C(C)C)C(=O)C1
REMARK SMILES IDX 8 1 9 2 6 3 7 4 5 5 4 6 3 7 2 8 1 9 10 11 11 12 15 13 16 14
REMARK SMILES IDX 17 15 12 17 13 18 14 19
REMARK H PARENT
REMARK Flexibility Score: 70.00
ROOT
ATOM      1  C   UNL     1     109.752  47.164  63.231  1.00  0.00     0.136 C 
ATOM      2  O   UNL     1     109.640  46.091  62.652  1.00  0.00    -0.299 OA
ENDROOT
BRANCH   1   3
ATOM      3  C   UNL     1     108.911  47.456  64.456  1.00  0.00     0.053 C 
ATOM      4  C   UNL     1     109.500  46.713  65.659  1.00  0.00     0.016 C 
BRANCH   3   5
ATOM      5  C   UNL     1     108.800  48.968  64.763  1.00  0.00     0.015 C 
BRANCH   5   6
ATOM      6  C   UNL     1     107.390  49.547  64.542  1.00  0.00     0.028 C 
BRANCH   6   7
ATOM      7  C   UNL     1     107.444  51.007  64.160  1.00  0.00    -0.028 C 
ATOM      8  C   UNL     1     108.515  51.643  63.634  1.00  0.00    -0.070 CG0
ATOM      9  C   UNL     1     108.378  53.109  63.308  1.00  0.00     0.039 C 
ATOM     10  G   UNL     1     109.838  50.950  63.362  1.00  0.00     0.000 G0
ENDBRANCH   6   7
ENDBRANCH   5   6
ENDBRANCH   3   5
ENDBRANCH   1   3
BRANCH   1  11
ATOM     11  C   UNL     1     110.685  48.209  62.668  1.00  0.00     0.087 C 
BRANCH  11  12
ATOM     12  C   UNL     1     110.018  49.026  61.535  1.00  0.00     0.066 C 
BRANCH  12  13
ATOM     13  C   UNL     1     109.968  50.501  61.900  1.00  0.00     0.140 C 
ATOM     14  O   UNL     1     110.054  51.348  61.024  1.00  0.00    -0.299 OA
BRANCH  13  15
ATOM     15  C   UNL     1     109.848  50.951  63.335  1.00  0.00     0.106 CG0
ATOM     16  G   UNL     1     108.520  51.630  63.618  1.00  0.00     0.000 G0
ENDBRANCH  13  15
ENDBRANCH  12  13
BRANCH  12  17
ATOM     17  C   UNL     1     108.605  48.503  61.129  1.00  0.00    -0.006 C 
ATOM     18  C   UNL     1     108.617  47.500  59.962  1.00  0.00     0.008 C 
ATOM     19  C   UNL     1     107.644  49.659  60.813  1.00  0.00     0.008 C 
ENDBRANCH  12  17
ENDBRANCH  11  12
ENDBRANCH   1  11
TORSDOF 1
ENDMDL
MODEL 4
REMARK VINA RESULT:    -4.330      1.595      4.226
REMARK INTER + INTRA:          -5.402
REMARK INTER:                  -6.101
REMARK INTRA:                   0.698
REMARK UNBOUND:                 1.206
REMARK SMILES CC1=CCC[C@H](C)C(=O)C[C@@H](C(C)C)C(=O)C1
REMARK SMILES IDX 8 1 9 2 6 3 7 4 5 5 4 6 3 7 2 8 1 9 10 11 11 12 15 13 16 14
REMARK SMILES IDX 17 15 12 17 13 18 14 19
REMARK H PARENT
REMARK Flexibility Score: 70.00
ROOT
ATOM      1  C   UNL     1     109.773  50.812  63.292  1.00  0.00     0.136 C 
ATOM      2  O   UNL     1     110.675  50.815  62.465  1.00  0.00    -0.299 OA
ENDROOT
BRANCH   1   3
ATOM      3  C   UNL     1     108.749  51.928  63.301  1.00  0.00     0.053 C 
ATOM      4  C   UNL     1     109.287  53.098  64.131  1.00  0.00     0.016 C 
BRANCH   3   5
ATOM      5  C   UNL     1     108.372  52.409  61.880  1.00  0.00     0.015 C 
BRANCH   5   6
ATOM      6  C   UNL     1     107.319  51.527  61.182  1.00  0.00     0.028 C 
BRANCH   6   7
ATOM      7  C   UNL     1     107.937  50.267  60.623  1.00  0.00    -0.028 C 
ATOM      8  C   UNL     1     107.718  49.014  61.081  1.00  0.00    -0.070 CG0
ATOM      9  C   UNL     1     108.421  47.874  60.387  1.00  0.00     0.039 C 
ATOM     10  G   UNL     1     106.807  48.709  62.256  1.00  0.00     0.000 G0
ENDBRANCH   6   7
ENDBRANCH   5   6
ENDBRANCH   3   5
ENDBRANCH   1   3
BRANCH   1  11
ATOM     11  C   UNL     1     109.739  49.724  64.338  1.00  0.00     0.087 C 
BRANCH  11  12
ATOM     12  C   UNL     1     108.861  48.529  63.898  1.00  0.00     0.066 C 
BRANCH  12  13
ATOM     13  C   UNL     1     107.447  48.992  63.584  1.00  0.00     0.140 C 
ATOM     14  O   UNL     1     106.798  49.584  64.433  1.00  0.00    -0.299 OA
BRANCH  13  15
ATOM     15  C   UNL     1     106.806  48.707  62.249  1.00  0.00     0.106 CG0
ATOM     16  G   UNL     1     107.737  49.001  61.086  1.00  0.00     0.000 G0
ENDBRANCH  13  15
ENDBRANCH  12  13
BRANCH  12  17
ATOM     17  C   UNL     1     108.847  47.347  64.917  1.00  0.00    -0.006 C 
ATOM     18  C   UNL     1     109.529  47.666  66.259  1.00  0.00     0.008 C 
ATOM     19  C   UNL     1     109.456  46.072  64.313  1.00  0.00     0.008 C 
ENDBRANCH  12  17
ENDBRANCH  11  12
ENDBRANCH   1  11
TORSDOF 1
ENDMDL
MODEL 5
REMARK VINA RESULT:    -4.302      1.819      3.442
REMARK INTER + INTRA:          -5.359
REMARK INTER:                  -6.648
REMARK INTRA:                   1.289
REMARK UNBOUND:                 1.206
REMARK SMILES CC1=CCC[C@H](C)C(=O)C[C@@H](C(C)C)C(=O)C1
REMARK SMILES IDX 8 1 9 2 6 3 7 4 5 5 4 6 3 7 2 8 1 9 10 11 11 12 15 13 16 14
REMARK SMILES IDX 17 15 12 17 13 18 14 19
REMARK H PARENT
REMARK Flexibility Score: 70.00
ROOT
ATOM      1  C   UNL     1     109.945  49.510  61.945  1.00  0.00     0.136 C 
ATOM      2  O   UNL     1     110.562  50.064  61.045  1.00  0.00    -0.299 OA
ENDROOT
BRANCH   1   3
ATOM      3  C   UNL     1     109.194  48.223  61.668  1.00  0.00     0.053 C 
ATOM      4  C   UNL     1     108.702  48.231  60.217  1.00  0.00     0.016 C 
BRANCH   3   5
ATOM      5  C   UNL     1     110.045  46.960  61.937  1.00  0.00     0.015 C 
BRANCH   5   6
ATOM      6  C   UNL     1     109.451  46.025  63.007  1.00  0.00     0.028 C 
BRANCH   6   7
ATOM      7  C   UNL     1     109.685  46.558  64.401  1.00  0.00    -0.028 C 
ATOM      8  C   UNL     1     108.947  47.513  65.011  1.00  0.00    -0.070 CG0
ATOM      9  C   UNL     1     109.330  47.913  66.414  1.00  0.00     0.039 C 
ATOM     10  G   UNL     1     107.764  48.195  64.349  1.00  0.00     0.000 G0
ENDBRANCH   6   7
ENDBRANCH   5   6
ENDBRANCH   3   5
ENDBRANCH   1   3
BRANCH   1  11
ATOM     11  C   UNL     1     109.887  50.159  63.306  1.00  0.00     0.087 C 
BRANCH  11  12
ATOM     12  C   UNL     1     108.464  50.664  63.643  1.00  0.00     0.066 C 
BRANCH  12  13
ATOM     13  C   UNL     1     107.769  49.704  64.595  1.00  0.00     0.140 C 
ATOM     14  O   UNL     1     107.213  50.133  65.595  1.00  0.00    -0.299 OA
BRANCH  13  15
ATOM     15  C   UNL     1     107.779  48.214  64.354  1.00  0.00     0.106 CG0
ATOM     16  G   UNL     1     108.952  47.528  65.029  1.00  0.00     0.000 G0
ENDBRANCH  13  15
ENDBRANCH  12  13
BRANCH  12  17
ATOM     17  C   UNL     1     107.580  50.942  62.388  1.00  0.00    -0.006 C 
ATOM     18  C   UNL     1     107.713  52.370  61.830  1.00  0.00     0.008 C 
ATOM     19  C   UNL     1     106.101  50.623  62.656  1.00  0.00     0.008 C 
ENDBRANCH  12  17
ENDBRANCH  11  12
ENDBRANCH   1  11
TORSDOF 1
ENDMDL
MODEL 6
REMARK VINA RESULT:    -4.118      1.411      4.148
REMARK INTER + INTRA:          -5.079
REMARK INTER:                  -5.957
REMARK INTRA:                   0.878
REMARK UNBOUND:                 1.206
REMARK SMILES CC1=CCC[C@H](C)C(=O)C[C@@H](C(C)C)C(=O)C1
REMARK SMILES IDX 8 1 9 2 6 3 7 4 5 5 4 6 3 7 2 8 1 9 10 11 11 12 15 13 16 14
REMARK SMILES IDX 17 15 12 17 13 18 14 19
REMARK H PARENT
REMARK Flexibility Score: 70.00
ROOT
ATOM      1  C   UNL     1     107.643  49.584  64.700  1.00  0.00     0.136 C 
ATOM      2  O   UNL     1     107.240  49.492  65.851  1.00  0.00    -0.299 OA
ENDROOT
BRANCH   1   3
ATOM      3  C   UNL     1     107.761  50.946  64.045  1.00  0.00     0.053 C 
ATOM      4  C   UNL     1     109.235  51.229  63.737  1.00  0.00     0.016 C 
BRANCH   3   5
ATOM      5  C   UNL     1     106.912  51.068  62.757  1.00  0.00     0.015 C 
BRANCH   5   6
ATOM      6  C   UNL     1     107.744  51.066  61.461  1.00  0.00     0.028 C 
BRANCH   6   7
ATOM      7  C   UNL     1     107.638  49.744  60.738  1.00  0.00    -0.028 C 
ATOM      8  C   UNL     1     108.566  48.760  60.757  1.00  0.00    -0.070 CG0
ATOM      9  C   UNL     1     108.280  47.502  59.976  1.00  0.00     0.039 C 
ATOM     10  G   UNL     1     109.873  48.870  61.521  1.00  0.00     0.000 G0
ENDBRANCH   6   7
ENDBRANCH   5   6
ENDBRANCH   3   5
ENDBRANCH   1   3
BRANCH   1  11
ATOM     11  C   UNL     1     107.953  48.326  63.925  1.00  0.00     0.087 C 
BRANCH  11  12
ATOM     12  C   UNL     1     109.460  47.981  63.966  1.00  0.00     0.066 C 
BRANCH  12  13
ATOM     13  C   UNL     1     109.998  47.777  62.559  1.00  0.00     0.140 C 
ATOM     14  O   UNL     1     110.571  46.737  62.270  1.00  0.00    -0.299 OA
BRANCH  13  15
ATOM     15  C   UNL     1     109.873  48.851  61.507  1.00  0.00     0.106 CG0
ATOM     16  G   UNL     1     108.563  48.764  60.746  1.00  0.00     0.000 G0
ENDBRANCH  13  15
ENDBRANCH  12  13
BRANCH  12  17
ATOM     17  C   UNL     1     109.803  46.761  64.876  1.00  0.00    -0.006 C 
ATOM     18  C   UNL     1     109.095  45.456  64.473  1.00  0.00     0.008 C 
ATOM     19  C   UNL     1     109.530  47.066  66.358  1.00  0.00     0.008 C 
ENDBRANCH  12  17
ENDBRANCH  11  12
ENDBRANCH   1  11
TORSDOF 1
ENDMDL
MODEL 7
REMARK VINA RESULT:    -3.971      2.003      4.062
REMARK INTER + INTRA:          -4.854
REMARK INTER:                  -6.606
REMARK INTRA:                   1.751
REMARK UNBOUND:                 1.206
REMARK SMILES CC1=CCC[C@H](C)C(=O)C[C@@H](C(C)C)C(=O)C1
REMARK SMILES IDX 8 1 9 2 6 3 7 4 5 5 4 6 3 7 2 8 1 9 10 11 11 12 15 13 16 14
REMARK SMILES IDX 17 15 12 17 13 18 14 19
REMARK H PARENT
REMARK Flexibility Score: 70.00
ROOT
ATOM      1  C   UNL     1     109.101  51.407  62.198  1.00  0.00     0.136 C 
ATOM      2  O   UNL     1     109.913  51.615  61.307  1.00  0.00    -0.299 OA
ENDROOT
BRANCH   1   3
ATOM      3  C   UNL     1     107.617  51.460  61.898  1.00  0.00     0.053 C 
ATOM      4  C   UNL     1     107.255  52.861  61.394  1.00  0.00     0.016 C 
BRANCH   3   5
ATOM      5  C   UNL     1     107.173  50.391  60.871  1.00  0.00     0.015 C 
BRANCH   5   6
ATOM      6  C   UNL     1     107.174  48.955  61.428  1.00  0.00     0.028 C 
BRANCH   6   7
ATOM      7  C   UNL     1     108.025  48.035  60.584  1.00  0.00    -0.028 C 
ATOM      8  C   UNL     1     109.136  47.388  61.003  1.00  0.00    -0.070 CG0
ATOM      9  C   UNL     1     109.853  46.502  60.015  1.00  0.00     0.039 C 
ATOM     10  G   UNL     1     109.689  47.517  62.411  1.00  0.00     0.000 G0
ENDBRANCH   6   7
ENDBRANCH   5   6
ENDBRANCH   3   5
ENDBRANCH   1   3
BRANCH   1  11
ATOM     11  C   UNL     1     109.596  51.169  63.604  1.00  0.00     0.087 C 
BRANCH  11  12
ATOM     12  C   UNL     1     109.712  49.661  63.927  1.00  0.00     0.066 C 
BRANCH  12  13
ATOM     13  C   UNL     1     110.205  48.893  62.711  1.00  0.00     0.140 C 
ATOM     14  O   UNL     1     111.001  49.413  61.943  1.00  0.00    -0.299 OA
BRANCH  13  15
ATOM     15  C   UNL     1     109.705  47.503  62.404  1.00  0.00     0.106 CG0
ATOM     16  G   UNL     1     109.138  47.389  61.001  1.00  0.00     0.000 G0
ENDBRANCH  13  15
ENDBRANCH  12  13
BRANCH  12  17
ATOM     17  C   UNL     1     108.399  49.033  64.488  1.00  0.00    -0.006 C 
ATOM     18  C   UNL     1     107.361  50.066  64.962  1.00  0.00     0.008 C 
ATOM     19  C   UNL     1     108.688  48.030  65.615  1.00  0.00     0.008 C 
ENDBRANCH  12  17
ENDBRANCH  11  12
ENDBRANCH   1  11
TORSDOF 1
ENDMDL
MODEL 8
REMARK VINA RESULT:    -3.769      1.526      3.295
REMARK INTER + INTRA:          -4.546
REMARK INTER:                  -5.164
REMARK INTRA:                   0.617
REMARK UNBOUND:                 1.206
REMARK SMILES CC1=CCC[C@H](C)C(=O)C[C@@H](C(C)C)C(=O)C1
REMARK SMILES IDX 8 1 9 2 6 3 7 4 5 5 4 6 3 7 2 8 1 9 10 11 11 12 15 13 16 14
REMARK SMILES IDX 17 15 12 17 13 18 14 19
REMARK H PARENT
REMARK Flexibility Score: 70.00
ROOT
ATOM      1  C   UNL     1     107.796  48.749  61.054  1.00  0.00     0.136 C 
ATOM      2  O   UNL     1     106.830  48.178  61.541  1.00  0.00    -0.299 OA
ENDROOT
BRANCH   1   3
ATOM      3  C   UNL     1     109.065  47.975  60.759  1.00  0.00     0.053 C 
ATOM      4  C   UNL     1     110.260  48.932  60.802  1.00  0.00     0.016 C 
BRANCH   3   5
ATOM      5  C   UNL     1     109.289  46.795  61.734  1.00  0.00     0.015 C 
BRANCH   5   6
ATOM      6  C   UNL     1     109.996  47.194  63.043  1.00  0.00     0.028 C 
BRANCH   6   7
ATOM      7  C   UNL     1     109.010  47.368  64.174  1.00  0.00    -0.028 C 
ATOM      8  C   UNL     1     108.606  48.551  64.690  1.00  0.00    -0.070 CG0
ATOM      9  C   UNL     1     107.605  48.525  65.818  1.00  0.00     0.039 C 
ATOM     10  G   UNL     1     109.116  49.890  64.189  1.00  0.00     0.000 G0
ENDBRANCH   6   7
ENDBRANCH   5   6
ENDBRANCH   3   5
ENDBRANCH   1   3
BRANCH   1  11
ATOM     11  C   UNL     1     107.729  50.239  60.818  1.00  0.00     0.087 C 
BRANCH  11  12
ATOM     12  C   UNL     1     108.526  51.027  61.883  1.00  0.00     0.066 C 
BRANCH  12  13
ATOM     13  C   UNL     1     108.120  50.593  63.283  1.00  0.00     0.140 C 
ATOM     14  O   UNL     1     106.991  50.825  63.688  1.00  0.00    -0.299 OA
BRANCH  13  15
ATOM     15  C   UNL     1     109.095  49.908  64.206  1.00  0.00     0.106 CG0
ATOM     16  G   UNL     1     108.587  48.561  64.687  1.00  0.00     0.000 G0
ENDBRANCH  13  15
ENDBRANCH  12  13
BRANCH  12  17
ATOM     17  C   UNL     1     108.424  52.577  61.728  1.00  0.00    -0.006 C 
ATOM     18  C   UNL     1     107.042  53.073  61.268  1.00  0.00     0.008 C 
ATOM     19  C   UNL     1     109.513  53.125  60.792  1.00  0.00     0.008 C 
ENDBRANCH  12  17
ENDBRANCH  11  12
ENDBRANCH   1  11
TORSDOF 1
ENDMDL
MODEL 9
REMARK VINA RESULT:    -3.486      2.141      4.686
REMARK INTER + INTRA:          -4.114
REMARK INTER:                  -5.511
REMARK INTRA:                   1.397
REMARK UNBOUND:                 1.206
REMARK SMILES CC1=CCC[C@H](C)C(=O)C[C@@H](C(C)C)C(=O)C1
REMARK SMILES IDX 8 1 9 2 6 3 7 4 5 5 4 6 3 7 2 8 1 9 10 11 11 12 15 13 16 14
REMARK SMILES IDX 17 15 12 17 13 18 14 19
REMARK H PARENT
REMARK Flexibility Score: 70.00
ROOT
ATOM      1  C   UNL     1     108.536  51.148  61.317  1.00  0.00     0.136 C 
ATOM      2  O   UNL     1     109.520  51.807  61.011  1.00  0.00    -0.299 OA
ENDROOT
BRANCH   1   3
ATOM      3  C   UNL     1     107.517  51.714  62.286  1.00  0.00     0.053 C 
ATOM      4  C   UNL     1     106.505  52.565  61.512  1.00  0.00     0.016 C 
BRANCH   3   5
ATOM      5  C   UNL     1     106.785  50.617  63.096  1.00  0.00     0.015 C 
BRANCH   5   6
ATOM      6  C   UNL     1     107.182  50.573  64.583  1.00  0.00     0.028 C 
BRANCH   6   7
ATOM      7  C   UNL     1     107.627  49.190  64.997  1.00  0.00    -0.028 C 
ATOM      8  C   UNL     1     108.854  48.663  64.781  1.00  0.00    -0.070 CG0
ATOM      9  C   UNL     1     109.117  47.262  65.274  1.00  0.00     0.039 C 
ATOM     10  G   UNL     1     109.964  49.411  64.066  1.00  0.00     0.000 G0
ENDBRANCH   6   7
ENDBRANCH   5   6
ENDBRANCH   3   5
ENDBRANCH   1   3
BRANCH   1  11
ATOM     11  C   UNL     1     108.389  49.748  60.773  1.00  0.00     0.087 C 
BRANCH  11  12
ATOM     12  C   UNL     1     108.736  48.678  61.836  1.00  0.00     0.066 C 
BRANCH  12  13
ATOM     13  C   UNL     1     110.000  49.065  62.588  1.00  0.00     0.140 C 
ATOM     14  O   UNL     1     111.074  49.085  62.006  1.00  0.00    -0.299 OA
BRANCH  13  15
ATOM     15  C   UNL     1     109.967  49.395  64.060  1.00  0.00     0.106 CG0
ATOM     16  G   UNL     1     108.857  48.662  64.791  1.00  0.00     0.000 G0
ENDBRANCH  13  15
ENDBRANCH  12  13
BRANCH  12  17
ATOM     17  C   UNL     1     108.851  47.232  61.261  1.00  0.00    -0.006 C 
ATOM     18  C   UNL     1     109.727  46.288  62.102  1.00  0.00     0.008 C 
ATOM     19  C   UNL     1     109.342  47.240  59.804  1.00  0.00     0.008 C 
ENDBRANCH  12  17
ENDBRANCH  11  12
ENDBRANCH   1  11
TORSDOF 1
ENDMDL
