MODEL 1
REMARK VINA RESULT:    -7.218      0.000      0.000
REMARK INTER + INTRA:          -9.267
REMARK INTER:                  -8.906
REMARK INTRA:                  -0.362
REMARK UNBOUND:                -0.362
REMARK SMILES Oc1cc(O)c2cc(O)c(-c3cc(O)c(O)c(O)c3)[o+]c2c1
REMARK SMILES IDX 10 1 20 2 21 3 22 4 2 5 3 6 4 7 6 8 7 9 8 10 11 11 12 12
REMARK SMILES IDX 13 13 19 14 15 15 17 16 14 17 16 19 18 21 9 23 1 25 5 27
REMARK H PARENT 14 18 16 20 18 22 9 24 1 26 5 28
REMARK Flexibility Score: inf
ROOT
ATOM      1  C   UNL     1     128.202 -11.909 193.138  1.00  0.00     0.402 A 
ATOM      2  O   UNL     1     128.939 -12.954 193.502  1.00  0.00    -0.202 OA
ATOM      3  C   UNL     1     129.925 -12.879 194.389  1.00  0.00     0.368 A 
ATOM      4  C   UNL     1     130.647 -14.033 194.704  1.00  0.00     0.162 A 
ATOM      5  C   UNL     1     131.689 -13.983 195.630  1.00  0.00     0.128 A 
ATOM      6  C   UNL     1     132.015 -12.770 196.247  1.00  0.00     0.093 A 
ATOM      7  C   UNL     1     131.307 -11.598 195.949  1.00  0.00     0.136 A 
ATOM      8  C   UNL     1     130.244 -11.647 195.009  1.00  0.00     0.125 A 
ATOM      9  C   UNL     1     129.473 -10.527 194.659  1.00  0.00     0.078 A 
ATOM     10  C   UNL     1     128.438 -10.653 193.728  1.00  0.00     0.223 A 
ENDROOT
BRANCH   1  11
ATOM     11  C   UNL     1     127.137 -12.118 192.131  1.00  0.00     0.091 A 
ATOM     12  C   UNL     1     125.799 -12.318 192.510  1.00  0.00     0.068 A 
ATOM     13  C   UNL     1     124.801 -12.492 191.541  1.00  0.00     0.162 A 
ATOM     14  C   UNL     1     127.457 -12.060 190.766  1.00  0.00     0.068 A 
ATOM     15  C   UNL     1     125.135 -12.455 190.176  1.00  0.00     0.200 A 
ATOM     16  C   UNL     1     126.469 -12.234 189.791  1.00  0.00     0.162 A 
BRANCH  13  17
ATOM     17  O   UNL     1     123.478 -12.695 191.929  1.00  0.00    -0.504 OA
ATOM     18  H   UNL     1     122.742 -12.853 191.250  1.00  0.00     0.293 HD
ENDBRANCH  13  17
BRANCH  15  19
ATOM     19  O   UNL     1     124.155 -12.630 189.198  1.00  0.00    -0.502 OA
ATOM     20  H   UNL     1     124.272 -13.275 188.426  1.00  0.00     0.293 HD
ENDBRANCH  15  19
BRANCH  16  21
ATOM     21  O   UNL     1     126.831 -12.185 188.446  1.00  0.00    -0.504 OA
ATOM     22  H   UNL     1     126.168 -12.362 187.702  1.00  0.00     0.293 HD
ENDBRANCH  16  21
ENDBRANCH   1  11
BRANCH  10  23
ATOM     23  O   UNL     1     127.639  -9.552 193.417  1.00  0.00    -0.500 OA
ATOM     24  H   UNL     1     127.095  -9.072 194.123  1.00  0.00     0.294 HD
ENDBRANCH  10  23
BRANCH   5  25
ATOM     25  O   UNL     1     132.396 -15.145 195.931  1.00  0.00    -0.507 OA
ATOM     26  H   UNL     1     132.526 -15.453 196.888  1.00  0.00     0.293 HD
ENDBRANCH   5  25
BRANCH   7  27
ATOM     27  O   UNL     1     131.696 -10.427 196.604  1.00  0.00    -0.507 OA
ATOM     28  H   UNL     1     131.080  -9.856 197.165  1.00  0.00     0.293 HD
ENDBRANCH   7  27
TORSDOF 7
ENDMDL
MODEL 2
REMARK VINA RESULT:    -7.172      0.088      1.795
REMARK INTER + INTRA:          -9.211
REMARK INTER:                  -8.855
REMARK INTRA:                  -0.357
REMARK UNBOUND:                -0.362
REMARK SMILES Oc1cc(O)c2cc(O)c(-c3cc(O)c(O)c(O)c3)[o+]c2c1
REMARK SMILES IDX 10 1 20 2 21 3 22 4 2 5 3 6 4 7 6 8 7 9 8 10 11 11 12 12
REMARK SMILES IDX 13 13 19 14 15 15 17 16 14 17 16 19 18 21 9 23 1 25 5 27
REMARK H PARENT 14 18 16 20 18 22 9 24 1 26 5 28
REMARK Flexibility Score: inf
ROOT
ATOM      1  C   UNL     1     128.221 -11.921 193.111  1.00  0.00     0.402 A 
ATOM      2  O   UNL     1     128.957 -12.969 193.470  1.00  0.00    -0.202 OA
ATOM      3  C   UNL     1     129.938 -12.899 194.364  1.00  0.00     0.368 A 
ATOM      4  C   UNL     1     130.659 -14.055 194.674  1.00  0.00     0.162 A 
ATOM      5  C   UNL     1     131.695 -14.012 195.607  1.00  0.00     0.128 A 
ATOM      6  C   UNL     1     132.015 -12.804 196.236  1.00  0.00     0.093 A 
ATOM      7  C   UNL     1     131.309 -11.630 195.943  1.00  0.00     0.136 A 
ATOM      8  C   UNL     1     130.252 -11.672 194.996  1.00  0.00     0.125 A 
ATOM      9  C   UNL     1     129.481 -10.550 194.650  1.00  0.00     0.078 A 
ATOM     10  C   UNL     1     128.452 -10.670 193.712  1.00  0.00     0.223 A 
ENDROOT
BRANCH   1  11
ATOM     11  C   UNL     1     127.162 -12.123 192.095  1.00  0.00     0.091 A 
ATOM     12  C   UNL     1     127.462 -12.160 190.723  1.00  0.00     0.068 A 
ATOM     13  C   UNL     1     126.449 -12.375 189.778  1.00  0.00     0.162 A 
ATOM     14  C   UNL     1     125.840 -12.342 192.511  1.00  0.00     0.068 A 
ATOM     15  C   UNL     1     125.124 -12.570 190.202  1.00  0.00     0.200 A 
ATOM     16  C   UNL     1     124.822 -12.556 191.575  1.00  0.00     0.162 A 
BRANCH  13  17
ATOM     17  O   UNL     1     126.757 -12.403 188.418  1.00  0.00    -0.504 OA
ATOM     18  H   UNL     1     126.501 -11.641 187.800  1.00  0.00     0.293 HD
ENDBRANCH  13  17
BRANCH  15  19
ATOM     19  O   UNL     1     124.103 -12.782 189.274  1.00  0.00    -0.502 OA
ATOM     20  H   UNL     1     123.329 -12.137 189.166  1.00  0.00     0.293 HD
ENDBRANCH  15  19
BRANCH  16  21
ATOM     21  O   UNL     1     123.519 -12.754 192.028  1.00  0.00    -0.504 OA
ATOM     22  H   UNL     1     123.225 -13.619 192.463  1.00  0.00     0.293 HD
ENDBRANCH  16  21
ENDBRANCH   1  11
BRANCH  10  23
ATOM     23  O   UNL     1     127.653  -9.567 193.405  1.00  0.00    -0.500 OA
ATOM     24  H   UNL     1     127.712  -9.101 192.508  1.00  0.00     0.294 HD
ENDBRANCH  10  23
BRANCH   5  25
ATOM     25  O   UNL     1     132.402 -15.176 195.903  1.00  0.00    -0.507 OA
ATOM     26  H   UNL     1     133.363 -15.300 195.608  1.00  0.00     0.293 HD
ENDBRANCH   5  25
BRANCH   7  27
ATOM     27  O   UNL     1     131.692 -10.464 196.610  1.00  0.00    -0.507 OA
ATOM     28  H   UNL     1     132.514  -9.923 196.386  1.00  0.00     0.293 HD
ENDBRANCH   7  27
TORSDOF 7
ENDMDL
MODEL 3
REMARK VINA RESULT:    -7.025      1.850      2.849
REMARK INTER + INTRA:          -9.029
REMARK INTER:                  -8.675
REMARK INTRA:                  -0.354
REMARK UNBOUND:                -0.362
REMARK SMILES Oc1cc(O)c2cc(O)c(-c3cc(O)c(O)c(O)c3)[o+]c2c1
REMARK SMILES IDX 10 1 20 2 21 3 22 4 2 5 3 6 4 7 6 8 7 9 8 10 11 11 12 12
REMARK SMILES IDX 13 13 19 14 15 15 17 16 14 17 16 19 18 21 9 23 1 25 5 27
REMARK H PARENT 14 18 16 20 18 22 9 24 1 26 5 28
REMARK Flexibility Score: inf
ROOT
ATOM      1  C   UNL     1     128.679 -10.942 192.029  1.00  0.00     0.402 A 
ATOM      2  O   UNL     1     129.755 -11.582 192.480  1.00  0.00    -0.202 OA
ATOM      3  C   UNL     1     130.270 -11.380 193.688  1.00  0.00     0.368 A 
ATOM      4  C   UNL     1     131.406 -12.098 194.071  1.00  0.00     0.162 A 
ATOM      5  C   UNL     1     131.970 -11.906 195.332  1.00  0.00     0.128 A 
ATOM      6  C   UNL     1     131.397 -10.988 196.219  1.00  0.00     0.093 A 
ATOM      7  C   UNL     1     130.259 -10.255 195.859  1.00  0.00     0.136 A 
ATOM      8  C   UNL     1     129.680 -10.451 194.578  1.00  0.00     0.125 A 
ATOM      9  C   UNL     1     128.533  -9.771 194.137  1.00  0.00     0.078 A 
ATOM     10  C   UNL     1     128.018 -10.021 192.862  1.00  0.00     0.223 A 
ENDROOT
BRANCH   1  11
ATOM     11  C   UNL     1     128.206 -11.247 190.659  1.00  0.00     0.091 A 
ATOM     12  C   UNL     1     128.812 -10.671 189.530  1.00  0.00     0.068 A 
ATOM     13  C   UNL     1     128.364 -10.990 188.240  1.00  0.00     0.162 A 
ATOM     14  C   UNL     1     127.167 -12.173 190.478  1.00  0.00     0.068 A 
ATOM     15  C   UNL     1     127.309 -11.901 188.069  1.00  0.00     0.200 A 
ATOM     16  C   UNL     1     126.713 -12.496 189.195  1.00  0.00     0.162 A 
BRANCH  13  17
ATOM     17  O   UNL     1     128.970 -10.407 187.128  1.00  0.00    -0.504 OA
ATOM     18  H   UNL     1     128.474 -10.294 186.251  1.00  0.00     0.293 HD
ENDBRANCH  13  17
BRANCH  15  19
ATOM     19  O   UNL     1     126.848 -12.226 186.793  1.00  0.00    -0.502 OA
ATOM     20  H   UNL     1     127.149 -11.724 185.966  1.00  0.00     0.293 HD
ENDBRANCH  15  19
BRANCH  16  21
ATOM     21  O   UNL     1     125.668 -13.409 189.058  1.00  0.00    -0.504 OA
ATOM     22  H   UNL     1     125.826 -14.370 188.783  1.00  0.00     0.293 HD
ENDBRANCH  16  21
ENDBRANCH   1  11
BRANCH  10  23
ATOM     23  O   UNL     1     126.849  -9.383 192.443  1.00  0.00    -0.500 OA
ATOM     24  H   UNL     1     126.325  -9.707 191.639  1.00  0.00     0.294 HD
ENDBRANCH  10  23
BRANCH   5  25
ATOM     25  O   UNL     1     133.103 -12.632 195.695  1.00  0.00    -0.507 OA
ATOM     26  H   UNL     1     133.401 -12.699 196.662  1.00  0.00     0.293 HD
ENDBRANCH   5  25
BRANCH   7  27
ATOM     27  O   UNL     1     129.749  -9.355 196.799  1.00  0.00    -0.507 OA
ATOM     28  H   UNL     1     129.146  -8.577 196.575  1.00  0.00     0.293 HD
ENDBRANCH   7  27
TORSDOF 7
ENDMDL
MODEL 4
REMARK VINA RESULT:    -6.959      1.827      7.127
REMARK INTER + INTRA:          -8.948
REMARK INTER:                  -8.563
REMARK INTRA:                  -0.385
REMARK UNBOUND:                -0.362
REMARK SMILES Oc1cc(O)c2cc(O)c(-c3cc(O)c(O)c(O)c3)[o+]c2c1
REMARK SMILES IDX 10 1 20 2 21 3 22 4 2 5 3 6 4 7 6 8 7 9 8 10 11 11 12 12
REMARK SMILES IDX 13 13 19 14 15 15 17 16 14 17 16 19 18 21 9 23 1 25 5 27
REMARK H PARENT 14 18 16 20 18 22 9 24 1 26 5 28
REMARK Flexibility Score: inf
ROOT
ATOM      1  C   UNL     1     129.084 -11.670 193.154  1.00  0.00     0.402 A 
ATOM      2  O   UNL     1     129.601 -11.283 191.992  1.00  0.00    -0.202 OA
ATOM      3  C   UNL     1     128.862 -10.904 190.955  1.00  0.00     0.368 A 
ATOM      4  C   UNL     1     129.498 -10.517 189.772  1.00  0.00     0.162 A 
ATOM      5  C   UNL     1     128.748 -10.116 188.666  1.00  0.00     0.128 A 
ATOM      6  C   UNL     1     127.350 -10.102 188.740  1.00  0.00     0.093 A 
ATOM      7  C   UNL     1     126.688 -10.486 189.914  1.00  0.00     0.136 A 
ATOM      8  C   UNL     1     127.449 -10.891 191.042  1.00  0.00     0.125 A 
ATOM      9  C   UNL     1     126.872 -11.279 192.262  1.00  0.00     0.078 A 
ATOM     10  C   UNL     1     127.688 -11.661 193.331  1.00  0.00     0.223 A 
ENDROOT
BRANCH   1  11
ATOM     11  C   UNL     1     130.012 -12.079 194.233  1.00  0.00     0.091 A 
ATOM     12  C   UNL     1     130.354 -13.428 194.432  1.00  0.00     0.068 A 
ATOM     13  C   UNL     1     131.252 -13.793 195.444  1.00  0.00     0.162 A 
ATOM     14  C   UNL     1     130.610 -11.098 195.039  1.00  0.00     0.068 A 
ATOM     15  C   UNL     1     131.829 -12.806 196.261  1.00  0.00     0.200 A 
ATOM     16  C   UNL     1     131.507 -11.454 196.052  1.00  0.00     0.162 A 
BRANCH  13  17
ATOM     17  O   UNL     1     131.579 -15.135 195.636  1.00  0.00    -0.504 OA
ATOM     18  H   UNL     1     132.518 -15.482 195.479  1.00  0.00     0.293 HD
ENDBRANCH  13  17
BRANCH  15  19
ATOM     19  O   UNL     1     132.722 -13.153 197.275  1.00  0.00    -0.502 OA
ATOM     20  H   UNL     1     133.116 -14.083 197.353  1.00  0.00     0.293 HD
ENDBRANCH  15  19
BRANCH  16  21
ATOM     21  O   UNL     1     132.067 -10.450 196.840  1.00  0.00    -0.504 OA
ATOM     22  H   UNL     1     132.449 -10.636 197.759  1.00  0.00     0.293 HD
ENDBRANCH  16  21
ENDBRANCH   1  11
BRANCH  10  23
ATOM     23  O   UNL     1     127.117 -11.998 194.560  1.00  0.00    -0.500 OA
ATOM     24  H   UNL     1     126.411 -12.720 194.639  1.00  0.00     0.294 HD
ENDBRANCH  10  23
BRANCH   5  25
ATOM     25  O   UNL     1     129.400  -9.733 187.496  1.00  0.00    -0.507 OA
ATOM     26  H   UNL     1     129.675  -8.771 187.333  1.00  0.00     0.293 HD
ENDBRANCH   5  25
BRANCH   7  27
ATOM     27  O   UNL     1     125.292 -10.448 189.907  1.00  0.00    -0.507 OA
ATOM     28  H   UNL     1     124.727 -10.402 189.071  1.00  0.00     0.293 HD
ENDBRANCH   7  27
TORSDOF 7
ENDMDL
MODEL 5
REMARK VINA RESULT:    -6.889      1.710      7.418
REMARK INTER + INTRA:          -8.862
REMARK INTER:                  -8.758
REMARK INTRA:                  -0.104
REMARK UNBOUND:                -0.362
REMARK SMILES Oc1cc(O)c2cc(O)c(-c3cc(O)c(O)c(O)c3)[o+]c2c1
REMARK SMILES IDX 10 1 20 2 21 3 22 4 2 5 3 6 4 7 6 8 7 9 8 10 11 11 12 12
REMARK SMILES IDX 13 13 19 14 15 15 17 16 14 17 16 19 18 21 9 23 1 25 5 27
REMARK H PARENT 14 18 16 20 18 22 9 24 1 26 5 28
REMARK Flexibility Score: inf
ROOT
ATOM      1  C   UNL     1     128.458 -12.348 193.192  1.00  0.00     0.402 A 
ATOM      2  O   UNL     1     127.846 -11.417 192.466  1.00  0.00    -0.202 OA
ATOM      3  C   UNL     1     126.926 -11.695 191.548  1.00  0.00     0.368 A 
ATOM      4  C   UNL     1     126.341 -10.647 190.833  1.00  0.00     0.162 A 
ATOM      5  C   UNL     1     125.374 -10.909 189.863  1.00  0.00     0.128 A 
ATOM      6  C   UNL     1     124.988 -12.228 189.602  1.00  0.00     0.093 A 
ATOM      7  C   UNL     1     125.559 -13.297 190.304  1.00  0.00     0.136 A 
ATOM      8  C   UNL     1     126.542 -13.033 191.295  1.00  0.00     0.125 A 
ATOM      9  C   UNL     1     127.158 -14.039 192.057  1.00  0.00     0.078 A 
ATOM     10  C   UNL     1     128.114 -13.702 193.019  1.00  0.00     0.223 A 
ENDROOT
BRANCH   1  11
ATOM     11  C   UNL     1     129.474 -11.913 194.177  1.00  0.00     0.091 A 
ATOM     12  C   UNL     1     130.753 -12.495 194.216  1.00  0.00     0.068 A 
ATOM     13  C   UNL     1     131.709 -12.054 195.142  1.00  0.00     0.162 A 
ATOM     14  C   UNL     1     129.178 -10.858 195.055  1.00  0.00     0.068 A 
ATOM     15  C   UNL     1     131.396 -11.013 196.031  1.00  0.00     0.200 A 
ATOM     16  C   UNL     1     130.125 -10.412 195.982  1.00  0.00     0.162 A 
BRANCH  13  17
ATOM     17  O   UNL     1     132.972 -12.643 195.175  1.00  0.00    -0.504 OA
ATOM     18  H   UNL     1     133.514 -12.786 194.331  1.00  0.00     0.293 HD
ENDBRANCH  13  17
BRANCH  15  19
ATOM     19  O   UNL     1     132.334 -10.564 196.961  1.00  0.00    -0.502 OA
ATOM     20  H   UNL     1     132.501 -11.046 197.836  1.00  0.00     0.293 HD
ENDBRANCH  15  19
BRANCH  16  21
ATOM     21  O   UNL     1     129.786  -9.372 196.846  1.00  0.00    -0.504 OA
ATOM     22  H   UNL     1     129.541  -9.535 197.815  1.00  0.00     0.293 HD
ENDBRANCH  16  21
ENDBRANCH   1  11
BRANCH  10  23
ATOM     23  O   UNL     1     128.690 -14.696 193.811  1.00  0.00    -0.500 OA
ATOM     24  H   UNL     1     128.180 -15.139 194.565  1.00  0.00     0.294 HD
ENDBRANCH  10  23
BRANCH   5  25
ATOM     25  O   UNL     1     124.802  -9.850 189.160  1.00  0.00    -0.507 OA
ATOM     26  H   UNL     1     124.614  -9.913 188.166  1.00  0.00     0.293 HD
ENDBRANCH   5  25
BRANCH   7  27
ATOM     27  O   UNL     1     125.124 -14.585 189.983  1.00  0.00    -0.507 OA
ATOM     28  H   UNL     1     125.397 -15.089 189.153  1.00  0.00     0.293 HD
ENDBRANCH   7  27
TORSDOF 7
ENDMDL
MODEL 6
REMARK VINA RESULT:    -6.844      1.548      7.119
REMARK INTER + INTRA:          -8.805
REMARK INTER:                  -8.572
REMARK INTRA:                  -0.234
REMARK UNBOUND:                -0.362
REMARK SMILES Oc1cc(O)c2cc(O)c(-c3cc(O)c(O)c(O)c3)[o+]c2c1
REMARK SMILES IDX 10 1 20 2 21 3 22 4 2 5 3 6 4 7 6 8 7 9 8 10 11 11 12 12
REMARK SMILES IDX 13 13 19 14 15 15 17 16 14 17 16 19 18 21 9 23 1 25 5 27
REMARK H PARENT 14 18 16 20 18 22 9 24 1 26 5 28
REMARK Flexibility Score: inf
ROOT
ATOM      1  C   UNL     1     127.891 -11.853 192.799  1.00  0.00     0.402 A 
ATOM      2  O   UNL     1     128.149 -11.593 191.521  1.00  0.00    -0.202 OA
ATOM      3  C   UNL     1     127.304 -11.873 190.535  1.00  0.00     0.368 A 
ATOM      4  C   UNL     1     127.665 -11.565 189.221  1.00  0.00     0.162 A 
ATOM      5  C   UNL     1     126.798 -11.849 188.165  1.00  0.00     0.128 A 
ATOM      6  C   UNL     1     125.560 -12.448 188.422  1.00  0.00     0.093 A 
ATOM      7  C   UNL     1     125.174 -12.768 189.730  1.00  0.00     0.136 A 
ATOM      8  C   UNL     1     126.052 -12.477 190.807  1.00  0.00     0.125 A 
ATOM      9  C   UNL     1     125.744 -12.750 192.150  1.00  0.00     0.078 A 
ATOM     10  C   UNL     1     126.658 -12.429 193.157  1.00  0.00     0.223 A 
ENDROOT
BRANCH   1  11
ATOM     11  C   UNL     1     128.919 -11.504 193.807  1.00  0.00     0.091 A 
ATOM     12  C   UNL     1     128.691 -10.506 194.770  1.00  0.00     0.068 A 
ATOM     13  C   UNL     1     129.668 -10.205 195.729  1.00  0.00     0.162 A 
ATOM     14  C   UNL     1     130.125 -12.220 193.840  1.00  0.00     0.068 A 
ATOM     15  C   UNL     1     130.882 -10.912 195.740  1.00  0.00     0.200 A 
ATOM     16  C   UNL     1     131.106 -11.926 194.793  1.00  0.00     0.162 A 
BRANCH  13  17
ATOM     17  O   UNL     1     129.432  -9.209 196.676  1.00  0.00    -0.504 OA
ATOM     18  H   UNL     1     128.947  -9.404 197.544  1.00  0.00     0.293 HD
ENDBRANCH  13  17
BRANCH  15  19
ATOM     19  O   UNL     1     131.866 -10.623 196.686  1.00  0.00    -0.502 OA
ATOM     20  H   UNL     1     132.476 -11.336 197.067  1.00  0.00     0.293 HD
ENDBRANCH  15  19
BRANCH  16  21
ATOM     21  O   UNL     1     132.297 -12.651 194.782  1.00  0.00    -0.504 OA
ATOM     22  H   UNL     1     133.092 -12.389 195.350  1.00  0.00     0.293 HD
ENDBRANCH  16  21
ENDBRANCH   1  11
BRANCH  10  23
ATOM     23  O   UNL     1     126.332 -12.654 194.495  1.00  0.00    -0.500 OA
ATOM     24  H   UNL     1     126.562 -13.523 194.961  1.00  0.00     0.294 HD
ENDBRANCH  10  23
BRANCH   5  25
ATOM     25  O   UNL     1     127.177 -11.533 186.862  1.00  0.00    -0.507 OA
ATOM     26  H   UNL     1     127.752 -12.161 186.311  1.00  0.00     0.293 HD
ENDBRANCH   5  25
BRANCH   7  27
ATOM     27  O   UNL     1     123.924 -13.367 189.904  1.00  0.00    -0.507 OA
ATOM     28  H   UNL     1     123.329 -13.673 189.148  1.00  0.00     0.293 HD
ENDBRANCH   7  27
TORSDOF 7
ENDMDL
MODEL 7
REMARK VINA RESULT:    -6.842      1.548      2.763
REMARK INTER + INTRA:          -8.803
REMARK INTER:                  -8.568
REMARK INTRA:                  -0.236
REMARK UNBOUND:                -0.362
REMARK SMILES Oc1cc(O)c2cc(O)c(-c3cc(O)c(O)c(O)c3)[o+]c2c1
REMARK SMILES IDX 10 1 20 2 21 3 22 4 2 5 3 6 4 7 6 8 7 9 8 10 11 11 12 12
REMARK SMILES IDX 13 13 19 14 15 15 17 16 14 17 16 19 18 21 9 23 1 25 5 27
REMARK H PARENT 14 18 16 20 18 22 9 24 1 26 5 28
REMARK Flexibility Score: inf
ROOT
ATOM      1  C   UNL     1     129.033 -12.668 193.646  1.00  0.00     0.402 A 
ATOM      2  O   UNL     1     129.769 -11.781 194.310  1.00  0.00    -0.202 OA
ATOM      3  C   UNL     1     130.707 -12.122 195.187  1.00  0.00     0.368 A 
ATOM      4  C   UNL     1     131.426 -11.118 195.839  1.00  0.00     0.162 A 
ATOM      5  C   UNL     1     132.416 -11.447 196.766  1.00  0.00     0.128 A 
ATOM      6  C   UNL     1     132.690 -12.790 197.046  1.00  0.00     0.093 A 
ATOM      7  C   UNL     1     131.983 -13.816 196.407  1.00  0.00     0.136 A 
ATOM      8  C   UNL     1     130.977 -13.485 195.461  1.00  0.00     0.125 A 
ATOM      9  C   UNL     1     130.228 -14.446 194.762  1.00  0.00     0.078 A 
ATOM     10  C   UNL     1     129.258 -14.043 193.841  1.00  0.00     0.223 A 
ENDROOT
BRANCH   1  11
ATOM     11  C   UNL     1     128.011 -12.163 192.701  1.00  0.00     0.091 A 
ATOM     12  C   UNL     1     126.644 -12.431 192.890  1.00  0.00     0.068 A 
ATOM     13  C   UNL     1     125.689 -11.924 191.997  1.00  0.00     0.162 A 
ATOM     14  C   UNL     1     128.404 -11.351 191.627  1.00  0.00     0.068 A 
ATOM     15  C   UNL     1     126.095 -11.131 190.911  1.00  0.00     0.200 A 
ATOM     16  C   UNL     1     127.459 -10.842 190.731  1.00  0.00     0.162 A 
BRANCH  13  17
ATOM     17  O   UNL     1     124.336 -12.202 192.191  1.00  0.00    -0.504 OA
ATOM     18  H   UNL     1     123.974 -12.472 193.098  1.00  0.00     0.293 HD
ENDBRANCH  13  17
BRANCH  15  19
ATOM     19  O   UNL     1     125.157 -10.622 190.011  1.00  0.00    -0.502 OA
ATOM     20  H   UNL     1     125.428 -10.192 189.135  1.00  0.00     0.293 HD
ENDBRANCH  15  19
BRANCH  16  21
ATOM     21  O   UNL     1     127.893 -10.052 189.667  1.00  0.00    -0.504 OA
ATOM     22  H   UNL     1     128.051 -10.433 188.743  1.00  0.00     0.293 HD
ENDBRANCH  16  21
ENDBRANCH   1  11
BRANCH  10  23
ATOM     23  O   UNL     1     128.548 -14.997 193.110  1.00  0.00    -0.500 OA
ATOM     24  H   UNL     1     128.990 -15.552 192.388  1.00  0.00     0.294 HD
ENDBRANCH  10  23
BRANCH   5  25
ATOM     25  O   UNL     1     133.123 -10.430 197.405  1.00  0.00    -0.507 OA
ATOM     26  H   UNL     1     134.008 -10.092 197.045  1.00  0.00     0.293 HD
ENDBRANCH   5  25
BRANCH   7  27
ATOM     27  O   UNL     1     132.312 -15.131 196.744  1.00  0.00    -0.507 OA
ATOM     28  H   UNL     1     132.150 -15.546 197.650  1.00  0.00     0.293 HD
ENDBRANCH   7  27
TORSDOF 7
ENDMDL
MODEL 8
REMARK VINA RESULT:    -6.558      3.222      8.772
REMARK INTER + INTRA:          -8.454
REMARK INTER:                  -8.128
REMARK INTRA:                  -0.326
REMARK UNBOUND:                -0.362
REMARK SMILES Oc1cc(O)c2cc(O)c(-c3cc(O)c(O)c(O)c3)[o+]c2c1
REMARK SMILES IDX 10 1 20 2 21 3 22 4 2 5 3 6 4 7 6 8 7 9 8 10 11 11 12 12
REMARK SMILES IDX 13 13 19 14 15 15 17 16 14 17 16 19 18 21 9 23 1 25 5 27
REMARK H PARENT 14 18 16 20 18 22 9 24 1 26 5 28
REMARK Flexibility Score: inf
ROOT
ATOM      1  C   UNL     1     125.103 -13.509 189.546  1.00  0.00     0.402 A 
ATOM      2  O   UNL     1     123.803 -13.784 189.607  1.00  0.00    -0.202 OA
ATOM      3  C   UNL     1     123.109 -14.262 188.580  1.00  0.00     0.368 A 
ATOM      4  C   UNL     1     121.745 -14.517 188.739  1.00  0.00     0.162 A 
ATOM      5  C   UNL     1     120.992 -15.017 187.677  1.00  0.00     0.128 A 
ATOM      6  C   UNL     1     121.604 -15.263 186.444  1.00  0.00     0.093 A 
ATOM      7  C   UNL     1     122.970 -15.015 186.257  1.00  0.00     0.136 A 
ATOM      8  C   UNL     1     123.740 -14.509 187.337  1.00  0.00     0.125 A 
ATOM      9  C   UNL     1     125.116 -14.244 187.245  1.00  0.00     0.078 A 
ATOM     10  C   UNL     1     125.810 -13.751 188.354  1.00  0.00     0.223 A 
ENDROOT
BRANCH   1  11
ATOM     11  C   UNL     1     125.763 -12.970 190.758  1.00  0.00     0.091 A 
ATOM     12  C   UNL     1     126.580 -13.777 191.567  1.00  0.00     0.068 A 
ATOM     13  C   UNL     1     127.214 -13.243 192.697  1.00  0.00     0.162 A 
ATOM     14  C   UNL     1     125.618 -11.610 191.076  1.00  0.00     0.068 A 
ATOM     15  C   UNL     1     127.045 -11.886 193.021  1.00  0.00     0.200 A 
ATOM     16  C   UNL     1     126.246 -11.069 192.202  1.00  0.00     0.162 A 
BRANCH  13  17
ATOM     17  O   UNL     1     128.017 -14.055 193.496  1.00  0.00    -0.504 OA
ATOM     18  H   UNL     1     128.496 -13.692 194.313  1.00  0.00     0.293 HD
ENDBRANCH  13  17
BRANCH  15  19
ATOM     19  O   UNL     1     127.666 -11.339 194.144  1.00  0.00    -0.502 OA
ATOM     20  H   UNL     1     127.197 -11.268 195.040  1.00  0.00     0.293 HD
ENDBRANCH  15  19
BRANCH  16  21
ATOM     21  O   UNL     1     126.064  -9.717 192.492  1.00  0.00    -0.504 OA
ATOM     22  H   UNL     1     126.732  -9.189 193.039  1.00  0.00     0.293 HD
ENDBRANCH  16  21
ENDBRANCH   1  11
BRANCH  10  23
ATOM     23  O   UNL     1     127.186 -13.535 188.279  1.00  0.00    -0.500 OA
ATOM     24  H   UNL     1     127.625 -13.184 187.437  1.00  0.00     0.294 HD
ENDBRANCH  10  23
BRANCH   5  25
ATOM     25  O   UNL     1     119.632 -15.265 187.857  1.00  0.00    -0.507 OA
ATOM     26  H   UNL     1     119.028 -14.596 188.321  1.00  0.00     0.293 HD
ENDBRANCH   5  25
BRANCH   7  27
ATOM     27  O   UNL     1     123.506 -15.283 184.995  1.00  0.00    -0.507 OA
ATOM     28  H   UNL     1     123.631 -14.592 184.270  1.00  0.00     0.293 HD
ENDBRANCH   7  27
TORSDOF 7
ENDMDL
