MODEL 1
REMARK VINA RESULT:    -4.131      0.000      0.000
REMARK INTER + INTRA:          -4.131
REMARK INTER:                  -4.131
REMARK INTRA:                   0.000
REMARK UNBOUND:                 0.000
REMARK SMILES CC(C)=C1CC[C@H](C)CC1=O
REMARK SMILES IDX 8 1 7 2 6 3 5 4 4 5 2 6 1 7 3 8 10 9 11 10 9 11
REMARK H PARENT
REMARK Flexibility Score: inf
ROOT
ATOM      1  C   UNL     1      96.310  10.330  76.488  1.00  0.00     0.008 C 
ATOM      2  C   UNL     1      97.107   9.308  77.305  1.00  0.00    -0.006 C 
ATOM      3  C   UNL     1      97.487   8.098  76.437  1.00  0.00     0.008 C 
ATOM      4  C   UNL     1      98.195   7.017  77.264  1.00  0.00     0.039 C 
ATOM      5  C   UNL     1      99.377   7.566  78.050  1.00  0.00    -0.006 C 
ATOM      6  C   UNL     1     100.477   6.797  78.307  1.00  0.00    -0.070 C 
ATOM      7  C   UNL     1     100.557   5.363  77.838  1.00  0.00     0.039 C 
ATOM      8  C   UNL     1     101.680   7.348  79.038  1.00  0.00     0.039 C 
ATOM      9  C   UNL     1      99.211   8.939  78.613  1.00  0.00     0.159 C 
ATOM     10  O   UNL     1      99.756   9.272  79.699  1.00  0.00    -0.295 OA
ATOM     11  C   UNL     1      98.373   9.953  77.889  1.00  0.00     0.084 C 
ENDROOT
TORSDOF 0
ENDMDL
MODEL 2
REMARK VINA RESULT:    -4.082      1.737      3.879
REMARK INTER + INTRA:          -4.082
REMARK INTER:                  -4.082
REMARK INTRA:                   0.000
REMARK UNBOUND:                 0.000
REMARK SMILES CC(C)=C1CC[C@H](C)CC1=O
REMARK SMILES IDX 8 1 7 2 6 3 5 4 4 5 2 6 1 7 3 8 10 9 11 10 9 11
REMARK H PARENT
REMARK Flexibility Score: inf
ROOT
ATOM      1  C   UNL     1     101.104   9.956  79.915  1.00  0.00     0.008 C 
ATOM      2  C   UNL     1      99.966   9.122  79.317  1.00  0.00    -0.006 C 
ATOM      3  C   UNL     1      99.024  10.008  78.485  1.00  0.00     0.008 C 
ATOM      4  C   UNL     1      97.822   9.211  77.964  1.00  0.00     0.039 C 
ATOM      5  C   UNL     1      98.237   7.946  77.225  1.00  0.00    -0.006 C 
ATOM      6  C   UNL     1      97.497   7.455  76.188  1.00  0.00    -0.070 C 
ATOM      7  C   UNL     1      96.224   8.137  75.741  1.00  0.00     0.039 C 
ATOM      8  C   UNL     1      97.928   6.232  75.411  1.00  0.00     0.039 C 
ATOM      9  C   UNL     1      99.423   7.223  77.776  1.00  0.00     0.159 C 
ATOM     10  O   UNL     1      99.519   5.970  77.701  1.00  0.00    -0.295 OA
ATOM     11  C   UNL     1     100.528   7.990  78.443  1.00  0.00     0.084 C 
ENDROOT
TORSDOF 0
ENDMDL
MODEL 3
REMARK VINA RESULT:    -4.033      1.682      4.603
REMARK INTER + INTRA:          -4.033
REMARK INTER:                  -4.033
REMARK INTRA:                   0.000
REMARK UNBOUND:                 0.000
REMARK SMILES CC(C)=C1CC[C@H](C)CC1=O
REMARK SMILES IDX 8 1 7 2 6 3 5 4 4 5 2 6 1 7 3 8 10 9 11 10 9 11
REMARK H PARENT
REMARK Flexibility Score: inf
ROOT
ATOM      1  C   UNL     1     101.821   7.241  78.850  1.00  0.00     0.008 C 
ATOM      2  C   UNL     1     100.327   7.503  78.628  1.00  0.00    -0.006 C 
ATOM      3  C   UNL     1     100.071   8.997  78.373  1.00  0.00     0.008 C 
ATOM      4  C   UNL     1      98.571   9.294  78.251  1.00  0.00     0.039 C 
ATOM      5  C   UNL     1      97.881   8.400  77.231  1.00  0.00    -0.006 C 
ATOM      6  C   UNL     1      96.813   8.845  76.505  1.00  0.00    -0.070 C 
ATOM      7  C   UNL     1      96.260  10.239  76.697  1.00  0.00     0.039 C 
ATOM      8  C   UNL     1      96.154   7.987  75.449  1.00  0.00     0.039 C 
ATOM      9  C   UNL     1      98.365   6.989  77.160  1.00  0.00     0.159 C 
ATOM     10  O   UNL     1      97.585   6.043  76.868  1.00  0.00    -0.295 OA
ATOM     11  C   UNL     1      99.804   6.672  77.448  1.00  0.00     0.084 C 
ENDROOT
TORSDOF 0
ENDMDL
MODEL 4
REMARK VINA RESULT:    -4.011      1.868      3.854
REMARK INTER + INTRA:          -4.011
REMARK INTER:                  -4.011
REMARK INTRA:                   0.000
REMARK UNBOUND:                 0.000
REMARK SMILES CC(C)=C1CC[C@H](C)CC1=O
REMARK SMILES IDX 8 1 7 2 6 3 5 4 4 5 2 6 1 7 3 8 10 9 11 10 9 11
REMARK H PARENT
REMARK Flexibility Score: inf
ROOT
ATOM      1  C   UNL     1     100.021   4.708  75.770  1.00  0.00     0.008 C 
ATOM      2  C   UNL     1      99.724   5.633  76.955  1.00  0.00    -0.006 C 
ATOM      3  C   UNL     1     101.017   5.978  77.710  1.00  0.00     0.008 C 
ATOM      4  C   UNL     1     100.727   6.820  78.960  1.00  0.00     0.039 C 
ATOM      5  C   UNL     1      99.884   8.049  78.652  1.00  0.00    -0.006 C 
ATOM      6  C   UNL     1     100.028   9.205  79.365  1.00  0.00    -0.070 C 
ATOM      7  C   UNL     1     101.017   9.305  80.504  1.00  0.00     0.039 C 
ATOM      8  C   UNL     1      99.237  10.450  79.033  1.00  0.00     0.039 C 
ATOM      9  C   UNL     1      98.826   7.877  77.612  1.00  0.00     0.159 C 
ATOM     10  O   UNL     1      97.741   8.515  77.670  1.00  0.00    -0.295 OA
ATOM     11  C   UNL     1      99.038   6.921  76.474  1.00  0.00     0.084 C 
ENDROOT
TORSDOF 0
ENDMDL
MODEL 5
REMARK VINA RESULT:    -4.009      2.034      3.729
REMARK INTER + INTRA:          -4.009
REMARK INTER:                  -4.009
REMARK INTRA:                   0.000
REMARK UNBOUND:                 0.000
REMARK SMILES CC(C)=C1CC[C@H](C)CC1=O
REMARK SMILES IDX 8 1 7 2 6 3 5 4 4 5 2 6 1 7 3 8 10 9 11 10 9 11
REMARK H PARENT
REMARK Flexibility Score: inf
ROOT
ATOM      1  C   UNL     1     100.752   9.147  79.862  1.00  0.00     0.008 C 
ATOM      2  C   UNL     1     100.356   8.233  78.698  1.00  0.00    -0.006 C 
ATOM      3  C   UNL     1     100.728   6.773  79.005  1.00  0.00     0.008 C 
ATOM      4  C   UNL     1     100.433   5.859  77.808  1.00  0.00     0.039 C 
ATOM      5  C   UNL     1      99.005   6.004  77.301  1.00  0.00    -0.006 C 
ATOM      6  C   UNL     1      98.337   4.949  76.749  1.00  0.00    -0.070 C 
ATOM      7  C   UNL     1      98.995   3.595  76.601  1.00  0.00     0.039 C 
ATOM      8  C   UNL     1      96.901   5.065  76.292  1.00  0.00     0.039 C 
ATOM      9  C   UNL     1      98.432   7.383  77.338  1.00  0.00     0.159 C 
ATOM     10  O   UNL     1      97.602   7.770  76.474  1.00  0.00    -0.295 OA
ATOM     11  C   UNL     1      98.851   8.343  78.414  1.00  0.00     0.084 C 
ENDROOT
TORSDOF 0
ENDMDL
MODEL 6
REMARK VINA RESULT:    -3.846      1.745      3.085
REMARK INTER + INTRA:          -3.846
REMARK INTER:                  -3.846
REMARK INTRA:                   0.000
REMARK UNBOUND:                 0.000
REMARK SMILES CC(C)=C1CC[C@H](C)CC1=O
REMARK SMILES IDX 8 1 7 2 6 3 5 4 4 5 2 6 1 7 3 8 10 9 11 10 9 11
REMARK H PARENT
REMARK Flexibility Score: inf
ROOT
ATOM      1  C   UNL     1      97.397   4.870  75.131  1.00  0.00     0.008 C 
ATOM      2  C   UNL     1      97.910   5.541  76.409  1.00  0.00    -0.006 C 
ATOM      3  C   UNL     1      99.373   5.150  76.678  1.00  0.00     0.008 C 
ATOM      4  C   UNL     1      99.871   5.730  78.008  1.00  0.00     0.039 C 
ATOM      5  C   UNL     1      99.639   7.230  78.113  1.00  0.00    -0.006 C 
ATOM      6  C   UNL     1     100.494   8.033  78.812  1.00  0.00    -0.070 C 
ATOM      7  C   UNL     1     101.697   7.462  79.528  1.00  0.00     0.039 C 
ATOM      8  C   UNL     1     100.306   9.532  78.878  1.00  0.00     0.039 C 
ATOM      9  C   UNL     1      98.373   7.743  77.510  1.00  0.00     0.159 C 
ATOM     10  O   UNL     1      97.770   8.736  77.997  1.00  0.00    -0.295 OA
ATOM     11  C   UNL     1      97.787   7.068  76.303  1.00  0.00     0.084 C 
ENDROOT
TORSDOF 0
ENDMDL
MODEL 7
REMARK VINA RESULT:    -3.768      1.443      4.098
REMARK INTER + INTRA:          -3.768
REMARK INTER:                  -3.768
REMARK INTRA:                   0.000
REMARK UNBOUND:                 0.000
REMARK SMILES CC(C)=C1CC[C@H](C)CC1=O
REMARK SMILES IDX 8 1 7 2 6 3 5 4 4 5 2 6 1 7 3 8 10 9 11 10 9 11
REMARK H PARENT
REMARK Flexibility Score: inf
ROOT
ATOM      1  C   UNL     1      99.622   3.027  77.173  1.00  0.00     0.008 C 
ATOM      2  C   UNL     1      99.721   4.554  77.104  1.00  0.00    -0.006 C 
ATOM      3  C   UNL     1      98.329   5.179  76.913  1.00  0.00     0.008 C 
ATOM      4  C   UNL     1      98.419   6.701  76.739  1.00  0.00     0.039 C 
ATOM      5  C   UNL     1      99.213   7.369  77.853  1.00  0.00    -0.006 C 
ATOM      6  C   UNL     1      98.915   8.633  78.277  1.00  0.00    -0.070 C 
ATOM      7  C   UNL     1      97.796   9.429  77.643  1.00  0.00     0.039 C 
ATOM      8  C   UNL     1      99.658   9.287  79.419  1.00  0.00     0.039 C 
ATOM      9  C   UNL     1     100.393   6.611  78.365  1.00  0.00     0.159 C 
ATOM     10  O   UNL     1     101.421   7.206  78.785  1.00  0.00    -0.295 OA
ATOM     11  C   UNL     1     100.376   5.110  78.378  1.00  0.00     0.084 C 
ENDROOT
TORSDOF 0
ENDMDL
MODEL 8
REMARK VINA RESULT:    -3.749      9.374     10.452
REMARK INTER + INTRA:          -3.749
REMARK INTER:                  -3.749
REMARK INTRA:                   0.000
REMARK UNBOUND:                 0.000
REMARK SMILES CC(C)=C1CC[C@H](C)CC1=O
REMARK SMILES IDX 8 1 7 2 6 3 5 4 4 5 2 6 1 7 3 8 10 9 11 10 9 11
REMARK H PARENT
REMARK Flexibility Score: inf
ROOT
ATOM      1  C   UNL     1      96.016   7.810  69.890  1.00  0.00     0.008 C 
ATOM      2  C   UNL     1      96.354   6.610  68.999  1.00  0.00    -0.006 C 
ATOM      3  C   UNL     1      97.799   6.709  68.483  1.00  0.00     0.008 C 
ATOM      4  C   UNL     1      98.122   5.570  67.507  1.00  0.00     0.039 C 
ATOM      5  C   UNL     1      97.800   4.199  68.084  1.00  0.00    -0.006 C 
ATOM      6  C   UNL     1      98.532   3.097  67.745  1.00  0.00    -0.070 C 
ATOM      7  C   UNL     1      99.682   3.189  66.768  1.00  0.00     0.039 C 
ATOM      8  C   UNL     1      98.258   1.740  68.353  1.00  0.00     0.039 C 
ATOM      9  C   UNL     1      96.579   4.116  68.940  1.00  0.00     0.159 C 
ATOM     10  O   UNL     1      95.875   3.072  68.978  1.00  0.00    -0.295 OA
ATOM     11  C   UNL     1      96.161   5.296  69.770  1.00  0.00     0.084 C 
ENDROOT
TORSDOF 0
ENDMDL
MODEL 9
REMARK VINA RESULT:    -3.721      1.918      4.764
REMARK INTER + INTRA:          -3.721
REMARK INTER:                  -3.721
REMARK INTRA:                   0.000
REMARK UNBOUND:                 0.000
REMARK SMILES CC(C)=C1CC[C@H](C)CC1=O
REMARK SMILES IDX 8 1 7 2 6 3 5 4 4 5 2 6 1 7 3 8 10 9 11 10 9 11
REMARK H PARENT
REMARK Flexibility Score: inf
ROOT
ATOM      1  C   UNL     1     100.355   2.217  77.922  1.00  0.00     0.008 C 
ATOM      2  C   UNL     1     100.083   3.608  77.340  1.00  0.00    -0.006 C 
ATOM      3  C   UNL     1      98.679   3.670  76.718  1.00  0.00     0.008 C 
ATOM      4  C   UNL     1      98.428   5.023  76.039  1.00  0.00     0.039 C 
ATOM      5  C   UNL     1      98.710   6.200  76.963  1.00  0.00    -0.006 C 
ATOM      6  C   UNL     1      98.006   7.366  76.862  1.00  0.00    -0.070 C 
ATOM      7  C   UNL     1      96.929   7.543  75.817  1.00  0.00     0.039 C 
ATOM      8  C   UNL     1      98.239   8.521  77.809  1.00  0.00     0.039 C 
ATOM      9  C   UNL     1      99.868   6.041  77.894  1.00  0.00     0.159 C 
ATOM     10  O   UNL     1     100.568   7.028  78.242  1.00  0.00    -0.295 OA
ATOM     11  C   UNL     1     100.223   4.683  78.428  1.00  0.00     0.084 C 
ENDROOT
TORSDOF 0
ENDMDL
