MODEL 1
REMARK VINA RESULT:    -6.964      0.000      0.000
REMARK INTER + INTRA:          -8.451
REMARK INTER:                  -8.185
REMARK INTRA:                  -0.265
REMARK UNBOUND:                -0.265
REMARK SMILES O=c1cc(-c2ccc(O)c(O)c2)oc2cc(O)cc(O)c12
REMARK SMILES IDX 4 1 3 2 2 3 1 4 21 5 19 6 18 7 16 8 15 9 14 10 13 11 5 12
REMARK SMILES IDX 6 13 7 14 8 15 12 16 10 17 9 18 11 20 20 22 17 24
REMARK H PARENT 9 19 11 21 20 23 17 25
REMARK Flexibility Score: inf
ROOT
ATOM      1  C   UNL     1      18.889  25.399  40.655  1.00  0.00     0.138 A 
ATOM      2  C   UNL     1      18.771  26.349  39.626  1.00  0.00     0.100 A 
ATOM      3  C   UNL     1      19.028  25.969  38.308  1.00  0.00     0.197 A 
ATOM      4  O   UNL     1      18.919  26.828  37.392  1.00  0.00    -0.289 OA
ATOM      5  C   UNL     1      19.400  24.639  38.028  1.00  0.00     0.107 A 
ATOM      6  C   UNL     1      19.679  24.173  36.721  1.00  0.00     0.134 A 
ATOM      7  C   UNL     1      20.037  22.830  36.525  1.00  0.00     0.093 A 
ATOM      8  C   UNL     1      20.120  21.949  37.605  1.00  0.00     0.123 A 
ATOM      9  C   UNL     1      19.845  22.405  38.899  1.00  0.00     0.094 A 
ATOM     10  C   UNL     1      19.487  23.739  39.117  1.00  0.00     0.146 A 
ATOM     11  O   UNL     1      19.232  24.149  40.355  1.00  0.00    -0.456 OA
ENDROOT
BRANCH   1  12
ATOM     12  C   UNL     1      18.626  25.747  42.074  1.00  0.00     0.021 A 
ATOM     13  C   UNL     1      17.534  25.205  42.780  1.00  0.00     0.016 A 
ATOM     14  C   UNL     1      17.307  25.559  44.112  1.00  0.00     0.051 A 
ATOM     15  C   UNL     1      18.156  26.463  44.761  1.00  0.00     0.157 A 
ATOM     16  C   UNL     1      19.467  26.665  42.729  1.00  0.00     0.062 A 
ATOM     17  C   UNL     1      19.241  27.019  44.064  1.00  0.00     0.158 A 
BRANCH  15  18
ATOM     18  O   UNL     1      17.926  26.811  46.091  1.00  0.00    -0.504 OA
ATOM     19  H   UNL     1      17.208  26.356  46.641  1.00  0.00     0.293 HD
ENDBRANCH  15  18
BRANCH  17  20
ATOM     20  O   UNL     1      20.104  27.925  44.679  1.00  0.00    -0.504 OA
ATOM     21  H   UNL     1      20.754  27.643  45.403  1.00  0.00     0.293 HD
ENDBRANCH  17  20
ENDBRANCH   1  12
BRANCH   6  22
ATOM     22  O   UNL     1      19.604  25.028  35.622  1.00  0.00    -0.507 OA
ATOM     23  H   UNL     1      19.487  24.676  34.679  1.00  0.00     0.293 HD
ENDBRANCH   6  22
BRANCH   8  24
ATOM     24  O   UNL     1      20.477  20.621  37.383  1.00  0.00    -0.508 OA
ATOM     25  H   UNL     1      20.370  19.916  38.103  1.00  0.00     0.293 HD
ENDBRANCH   8  24
TORSDOF 5
ENDMDL
MODEL 2
REMARK VINA RESULT:    -6.960     12.183     15.405
REMARK INTER + INTRA:          -8.446
REMARK INTER:                  -8.152
REMARK INTRA:                  -0.294
REMARK UNBOUND:                -0.265
REMARK SMILES O=c1cc(-c2ccc(O)c(O)c2)oc2cc(O)cc(O)c12
REMARK SMILES IDX 4 1 3 2 2 3 1 4 21 5 19 6 18 7 16 8 15 9 14 10 13 11 5 12
REMARK SMILES IDX 6 13 7 14 8 15 12 16 10 17 9 18 11 20 20 22 17 24
REMARK H PARENT 9 19 11 21 20 23 17 25
REMARK Flexibility Score: inf
ROOT
ATOM      1  C   UNL     1      28.923  23.275  49.768  1.00  0.00     0.138 A 
ATOM      2  C   UNL     1      30.149  22.694  50.136  1.00  0.00     0.100 A 
ATOM      3  C   UNL     1      30.365  22.331  51.466  1.00  0.00     0.197 A 
ATOM      4  O   UNL     1      31.467  21.811  51.786  1.00  0.00    -0.289 OA
ATOM      5  C   UNL     1      29.350  22.548  52.420  1.00  0.00     0.107 A 
ATOM      6  C   UNL     1      29.489  22.210  53.787  1.00  0.00     0.134 A 
ATOM      7  C   UNL     1      28.428  22.454  54.673  1.00  0.00     0.093 A 
ATOM      8  C   UNL     1      27.237  23.025  54.220  1.00  0.00     0.123 A 
ATOM      9  C   UNL     1      27.096  23.361  52.869  1.00  0.00     0.094 A 
ATOM     10  C   UNL     1      28.140  23.128  51.969  1.00  0.00     0.146 A 
ATOM     11  O   UNL     1      27.983  23.457  50.692  1.00  0.00    -0.456 OA
ENDROOT
BRANCH   1  12
ATOM     12  C   UNL     1      28.638  23.680  48.368  1.00  0.00     0.021 A 
ATOM     13  C   UNL     1      29.578  24.390  47.596  1.00  0.00     0.016 A 
ATOM     14  C   UNL     1      29.276  24.766  46.285  1.00  0.00     0.051 A 
ATOM     15  C   UNL     1      28.033  24.450  45.724  1.00  0.00     0.157 A 
ATOM     16  C   UNL     1      27.386  23.378  47.802  1.00  0.00     0.062 A 
ATOM     17  C   UNL     1      27.083  23.753  46.489  1.00  0.00     0.158 A 
BRANCH  15  18
ATOM     18  O   UNL     1      27.738  24.826  44.415  1.00  0.00    -0.504 OA
ATOM     19  H   UNL     1      27.026  25.517  44.209  1.00  0.00     0.293 HD
ENDBRANCH  15  18
BRANCH  17  20
ATOM     20  O   UNL     1      25.834  23.426  45.962  1.00  0.00    -0.504 OA
ATOM     21  H   UNL     1      25.493  23.827  45.097  1.00  0.00     0.293 HD
ENDBRANCH  17  20
ENDBRANCH   1  12
BRANCH   6  22
ATOM     22  O   UNL     1      30.665  21.637  54.270  1.00  0.00    -0.507 OA
ATOM     23  H   UNL     1      31.103  21.960  55.124  1.00  0.00     0.293 HD
ENDBRANCH   6  22
BRANCH   8  24
ATOM     24  O   UNL     1      26.199  23.256  55.119  1.00  0.00    -0.508 OA
ATOM     25  H   UNL     1      25.253  23.430  54.803  1.00  0.00     0.293 HD
ENDBRANCH   8  24
TORSDOF 5
ENDMDL
MODEL 3
REMARK VINA RESULT:    -6.855      1.810      7.052
REMARK INTER + INTRA:          -8.323
REMARK INTER:                  -8.055
REMARK INTRA:                  -0.268
REMARK UNBOUND:                -0.265
REMARK SMILES O=c1cc(-c2ccc(O)c(O)c2)oc2cc(O)cc(O)c12
REMARK SMILES IDX 4 1 3 2 2 3 1 4 21 5 19 6 18 7 16 8 15 9 14 10 13 11 5 12
REMARK SMILES IDX 6 13 7 14 8 15 12 16 10 17 9 18 11 20 20 22 17 24
REMARK H PARENT 9 19 11 21 20 23 17 25
REMARK Flexibility Score: inf
ROOT
ATOM      1  C   UNL     1      18.667  25.064  40.772  1.00  0.00     0.138 A 
ATOM      2  C   UNL     1      19.751  25.944  40.931  1.00  0.00     0.100 A 
ATOM      3  C   UNL     1      19.890  26.655  42.124  1.00  0.00     0.197 A 
ATOM      4  O   UNL     1      20.866  27.441  42.257  1.00  0.00    -0.289 OA
ATOM      5  C   UNL     1      18.944  26.477  43.153  1.00  0.00     0.107 A 
ATOM      6  C   UNL     1      19.011  27.159  44.392  1.00  0.00     0.134 A 
ATOM      7  C   UNL     1      18.032  26.922  45.369  1.00  0.00     0.093 A 
ATOM      8  C   UNL     1      16.992  26.020  45.132  1.00  0.00     0.123 A 
ATOM      9  C   UNL     1      16.922  25.343  43.909  1.00  0.00     0.094 A 
ATOM     10  C   UNL     1      17.886  25.565  42.922  1.00  0.00     0.146 A 
ATOM     11  O   UNL     1      17.797  24.912  41.768  1.00  0.00    -0.456 OA
ENDROOT
BRANCH   1  12
ATOM     12  C   UNL     1      18.470  24.282  39.526  1.00  0.00     0.021 A 
ATOM     13  C   UNL     1      17.264  24.335  38.801  1.00  0.00     0.016 A 
ATOM     14  C   UNL     1      17.104  23.579  37.637  1.00  0.00     0.051 A 
ATOM     15  C   UNL     1      18.137  22.753  37.181  1.00  0.00     0.157 A 
ATOM     16  C   UNL     1      19.499  23.439  39.068  1.00  0.00     0.062 A 
ATOM     17  C   UNL     1      19.341  22.682  37.901  1.00  0.00     0.158 A 
BRANCH  15  18
ATOM     18  O   UNL     1      17.974  22.003  36.017  1.00  0.00    -0.504 OA
ATOM     19  H   UNL     1      18.522  21.168  35.843  1.00  0.00     0.293 HD
ENDBRANCH  15  18
BRANCH  17  20
ATOM     20  O   UNL     1      20.389  21.867  37.477  1.00  0.00    -0.504 OA
ATOM     21  H   UNL     1      20.938  22.082  36.653  1.00  0.00     0.293 HD
ENDBRANCH  17  20
ENDBRANCH   1  12
BRANCH   6  22
ATOM     22  O   UNL     1      20.038  28.065  44.658  1.00  0.00    -0.507 OA
ATOM     23  H   UNL     1      20.979  27.921  44.312  1.00  0.00     0.293 HD
ENDBRANCH   6  22
BRANCH   8  24
ATOM     24  O   UNL     1      16.033  25.802  46.118  1.00  0.00    -0.508 OA
ATOM     25  H   UNL     1      16.046  24.969  46.695  1.00  0.00     0.293 HD
ENDBRANCH   8  24
TORSDOF 5
ENDMDL
MODEL 4
REMARK VINA RESULT:    -6.855     10.955     14.263
REMARK INTER + INTRA:          -8.322
REMARK INTER:                  -8.022
REMARK INTRA:                  -0.300
REMARK UNBOUND:                -0.265
REMARK SMILES O=c1cc(-c2ccc(O)c(O)c2)oc2cc(O)cc(O)c12
REMARK SMILES IDX 4 1 3 2 2 3 1 4 21 5 19 6 18 7 16 8 15 9 14 10 13 11 5 12
REMARK SMILES IDX 6 13 7 14 8 15 12 16 10 17 9 18 11 20 20 22 17 24
REMARK H PARENT 9 19 11 21 20 23 17 25
REMARK Flexibility Score: inf
ROOT
ATOM      1  C   UNL     1      27.444  23.591  49.920  1.00  0.00     0.138 A 
ATOM      2  C   UNL     1      27.886  24.289  51.057  1.00  0.00     0.100 A 
ATOM      3  C   UNL     1      27.433  23.903  52.319  1.00  0.00     0.197 A 
ATOM      4  O   UNL     1      27.836  24.534  53.333  1.00  0.00    -0.289 OA
ATOM      5  C   UNL     1      26.541  22.818  52.436  1.00  0.00     0.107 A 
ATOM      6  C   UNL     1      26.034  22.363  53.676  1.00  0.00     0.134 A 
ATOM      7  C   UNL     1      25.153  21.271  53.708  1.00  0.00     0.093 A 
ATOM      8  C   UNL     1      24.773  20.627  52.528  1.00  0.00     0.123 A 
ATOM      9  C   UNL     1      25.273  21.072  51.300  1.00  0.00     0.094 A 
ATOM     10  C   UNL     1      26.150  22.159  51.245  1.00  0.00     0.146 A 
ATOM     11  O   UNL     1      26.609  22.565  50.066  1.00  0.00    -0.456 OA
ENDROOT
BRANCH   1  12
ATOM     12  C   UNL     1      27.894  23.957  48.553  1.00  0.00     0.021 A 
ATOM     13  C   UNL     1      29.207  24.398  48.299  1.00  0.00     0.016 A 
ATOM     14  C   UNL     1      29.598  24.745  47.003  1.00  0.00     0.051 A 
ATOM     15  C   UNL     1      28.688  24.667  45.943  1.00  0.00     0.157 A 
ATOM     16  C   UNL     1      26.981  23.894  47.485  1.00  0.00     0.062 A 
ATOM     17  C   UNL     1      27.372  24.240  46.186  1.00  0.00     0.158 A 
BRANCH  15  18
ATOM     18  O   UNL     1      29.083  25.012  44.652  1.00  0.00    -0.504 OA
ATOM     19  H   UNL     1      29.485  24.329  44.020  1.00  0.00     0.293 HD
ENDBRANCH  15  18
BRANCH  17  20
ATOM     20  O   UNL     1      26.439  24.155  45.154  1.00  0.00    -0.504 OA
ATOM     21  H   UNL     1      26.712  24.180  44.178  1.00  0.00     0.293 HD
ENDBRANCH  17  20
ENDBRANCH   1  12
BRANCH   6  22
ATOM     22  O   UNL     1      26.395  22.986  54.872  1.00  0.00    -0.507 OA
ATOM     23  H   UNL     1      25.981  23.864  55.161  1.00  0.00     0.293 HD
ENDBRANCH   6  22
BRANCH   8  24
ATOM     24  O   UNL     1      23.899  19.544  52.587  1.00  0.00    -0.508 OA
ATOM     25  H   UNL     1      24.052  18.709  52.035  1.00  0.00     0.293 HD
ENDBRANCH   8  24
TORSDOF 5
ENDMDL
MODEL 5
REMARK VINA RESULT:    -6.839      2.165      7.747
REMARK INTER + INTRA:          -8.303
REMARK INTER:                  -8.040
REMARK INTRA:                  -0.263
REMARK UNBOUND:                -0.265
REMARK SMILES O=c1cc(-c2ccc(O)c(O)c2)oc2cc(O)cc(O)c12
REMARK SMILES IDX 4 1 3 2 2 3 1 4 21 5 19 6 18 7 16 8 15 9 14 10 13 11 5 12
REMARK SMILES IDX 6 13 7 14 8 15 12 16 10 17 9 18 11 20 20 22 17 24
REMARK H PARENT 9 19 11 21 20 23 17 25
REMARK Flexibility Score: inf
ROOT
ATOM      1  C   UNL     1      17.903  24.291  42.517  1.00  0.00     0.138 A 
ATOM      2  C   UNL     1      17.039  23.472  43.264  1.00  0.00     0.100 A 
ATOM      3  C   UNL     1      16.535  23.934  44.481  1.00  0.00     0.197 A 
ATOM      4  O   UNL     1      15.761  23.193  45.143  1.00  0.00    -0.289 OA
ATOM      5  C   UNL     1      16.897  25.216  44.941  1.00  0.00     0.107 A 
ATOM      6  C   UNL     1      16.433  25.760  46.162  1.00  0.00     0.134 A 
ATOM      7  C   UNL     1      16.836  27.048  46.547  1.00  0.00     0.093 A 
ATOM      8  C   UNL     1      17.690  27.799  45.737  1.00  0.00     0.123 A 
ATOM      9  C   UNL     1      18.152  27.266  44.529  1.00  0.00     0.094 A 
ATOM     10  C   UNL     1      17.764  25.985  44.127  1.00  0.00     0.146 A 
ATOM     11  O   UNL     1      18.217  25.500  42.976  1.00  0.00    -0.456 OA
ENDROOT
BRANCH   1  12
ATOM     12  C   UNL     1      18.468  23.851  41.216  1.00  0.00     0.021 A 
ATOM     13  C   UNL     1      17.903  24.252  39.990  1.00  0.00     0.016 A 
ATOM     14  C   UNL     1      18.450  23.813  38.782  1.00  0.00     0.051 A 
ATOM     15  C   UNL     1      19.563  22.964  38.775  1.00  0.00     0.157 A 
ATOM     16  C   UNL     1      19.578  22.987  41.201  1.00  0.00     0.062 A 
ATOM     17  C   UNL     1      20.128  22.548  39.991  1.00  0.00     0.158 A 
BRANCH  15  18
ATOM     18  O   UNL     1      20.107  22.531  37.567  1.00  0.00    -0.504 OA
ATOM     19  H   UNL     1      19.933  21.599  37.210  1.00  0.00     0.293 HD
ENDBRANCH  15  18
BRANCH  17  20
ATOM     20  O   UNL     1      21.234  21.700  40.019  1.00  0.00    -0.504 OA
ATOM     21  H   UNL     1      21.157  20.708  39.829  1.00  0.00     0.293 HD
ENDBRANCH  17  20
ENDBRANCH   1  12
BRANCH   6  22
ATOM     22  O   UNL     1      15.578  25.034  46.992  1.00  0.00    -0.507 OA
ATOM     23  H   UNL     1      15.397  24.049  46.841  1.00  0.00     0.293 HD
ENDBRANCH   6  22
BRANCH   8  24
ATOM     24  O   UNL     1      18.075  29.075  46.142  1.00  0.00    -0.508 OA
ATOM     25  H   UNL     1      19.033  29.284  46.397  1.00  0.00     0.293 HD
ENDBRANCH   8  24
TORSDOF 5
ENDMDL
MODEL 6
REMARK VINA RESULT:    -6.731      1.757      1.762
REMARK INTER + INTRA:          -8.178
REMARK INTER:                  -7.887
REMARK INTRA:                  -0.290
REMARK UNBOUND:                -0.265
REMARK SMILES O=c1cc(-c2ccc(O)c(O)c2)oc2cc(O)cc(O)c12
REMARK SMILES IDX 4 1 3 2 2 3 1 4 21 5 19 6 18 7 16 8 15 9 14 10 13 11 5 12
REMARK SMILES IDX 6 13 7 14 8 15 12 16 10 17 9 18 11 20 20 22 17 24
REMARK H PARENT 9 19 11 21 20 23 17 25
REMARK Flexibility Score: inf
ROOT
ATOM      1  C   UNL     1      17.723  25.030  40.763  1.00  0.00     0.138 A 
ATOM      2  C   UNL     1      16.604  25.221  39.934  1.00  0.00     0.100 A 
ATOM      3  C   UNL     1      16.532  24.552  38.712  1.00  0.00     0.197 A 
ATOM      4  O   UNL     1      15.525  24.729  37.976  1.00  0.00    -0.289 OA
ATOM      5  C   UNL     1      17.581  23.692  38.327  1.00  0.00     0.107 A 
ATOM      6  C   UNL     1      17.587  22.978  37.105  1.00  0.00     0.134 A 
ATOM      7  C   UNL     1      18.668  22.137  36.799  1.00  0.00     0.093 A 
ATOM      8  C   UNL     1      19.736  21.996  37.687  1.00  0.00     0.123 A 
ATOM      9  C   UNL     1      19.735  22.700  38.896  1.00  0.00     0.094 A 
ATOM     10  C   UNL     1      18.669  23.544  39.221  1.00  0.00     0.146 A 
ATOM     11  O   UNL     1      18.691  24.204  40.374  1.00  0.00    -0.456 OA
ENDROOT
BRANCH   1  12
ATOM     12  C   UNL     1      17.852  25.714  42.074  1.00  0.00     0.021 A 
ATOM     13  C   UNL     1      16.792  25.745  43.001  1.00  0.00     0.016 A 
ATOM     14  C   UNL     1      16.940  26.407  44.223  1.00  0.00     0.051 A 
ATOM     15  C   UNL     1      18.140  27.054  44.539  1.00  0.00     0.157 A 
ATOM     16  C   UNL     1      19.051  26.378  42.393  1.00  0.00     0.062 A 
ATOM     17  C   UNL     1      19.200  27.040  43.617  1.00  0.00     0.158 A 
BRANCH  15  18
ATOM     18  O   UNL     1      18.284  27.710  45.760  1.00  0.00    -0.504 OA
ATOM     19  H   UNL     1      17.530  28.257  46.159  1.00  0.00     0.293 HD
ENDBRANCH  15  18
BRANCH  17  20
ATOM     20  O   UNL     1      20.408  27.677  43.898  1.00  0.00    -0.504 OA
ATOM     21  H   UNL     1      21.298  27.300  43.597  1.00  0.00     0.293 HD
ENDBRANCH  17  20
ENDBRANCH   1  12
BRANCH   6  22
ATOM     22  O   UNL     1      16.534  23.097  36.198  1.00  0.00    -0.507 OA
ATOM     23  H   UNL     1      16.030  23.968  36.079  1.00  0.00     0.293 HD
ENDBRANCH   6  22
BRANCH   8  24
ATOM     24  O   UNL     1      20.796  21.154  37.359  1.00  0.00    -0.508 OA
ATOM     25  H   UNL     1      21.617  21.081  37.948  1.00  0.00     0.293 HD
ENDBRANCH   8  24
TORSDOF 5
ENDMDL
MODEL 7
REMARK VINA RESULT:    -6.536      1.108      2.594
REMARK INTER + INTRA:          -7.948
REMARK INTER:                  -7.684
REMARK INTRA:                  -0.263
REMARK UNBOUND:                -0.265
REMARK SMILES O=c1cc(-c2ccc(O)c(O)c2)oc2cc(O)cc(O)c12
REMARK SMILES IDX 4 1 3 2 2 3 1 4 21 5 19 6 18 7 16 8 15 9 14 10 13 11 5 12
REMARK SMILES IDX 6 13 7 14 8 15 12 16 10 17 9 18 11 20 20 22 17 24
REMARK H PARENT 9 19 11 21 20 23 17 25
REMARK Flexibility Score: inf
ROOT
ATOM      1  C   UNL     1      18.857  24.965  40.903  1.00  0.00     0.138 A 
ATOM      2  C   UNL     1      19.496  23.713  40.892  1.00  0.00     0.100 A 
ATOM      3  C   UNL     1      19.829  23.123  39.672  1.00  0.00     0.197 A 
ATOM      4  O   UNL     1      20.402  22.000  39.673  1.00  0.00    -0.289 OA
ATOM      5  C   UNL     1      19.522  23.791  38.470  1.00  0.00     0.107 A 
ATOM      6  C   UNL     1      19.823  23.262  37.192  1.00  0.00     0.134 A 
ATOM      7  C   UNL     1      19.490  23.993  36.041  1.00  0.00     0.093 A 
ATOM      8  C   UNL     1      18.864  25.237  36.144  1.00  0.00     0.123 A 
ATOM      9  C   UNL     1      18.565  25.765  37.405  1.00  0.00     0.094 A 
ATOM     10  C   UNL     1      18.887  25.052  38.563  1.00  0.00     0.146 A 
ATOM     11  O   UNL     1      18.591  25.573  39.750  1.00  0.00    -0.456 OA
ENDROOT
BRANCH   1  12
ATOM     12  C   UNL     1      18.481  25.641  42.170  1.00  0.00     0.021 A 
ATOM     13  C   UNL     1      17.196  25.505  42.729  1.00  0.00     0.016 A 
ATOM     14  C   UNL     1      16.868  26.163  43.918  1.00  0.00     0.051 A 
ATOM     15  C   UNL     1      17.811  26.970  44.565  1.00  0.00     0.157 A 
ATOM     16  C   UNL     1      19.419  26.465  42.819  1.00  0.00     0.062 A 
ATOM     17  C   UNL     1      19.093  27.122  44.011  1.00  0.00     0.158 A 
BRANCH  15  18
ATOM     18  O   UNL     1      17.481  27.621  45.752  1.00  0.00    -0.504 OA
ATOM     19  H   UNL     1      17.496  27.139  46.643  1.00  0.00     0.293 HD
ENDBRANCH  15  18
BRANCH  17  20
ATOM     20  O   UNL     1      20.054  27.922  44.628  1.00  0.00    -0.504 OA
ATOM     21  H   UNL     1      19.873  28.887  44.874  1.00  0.00     0.293 HD
ENDBRANCH  17  20
ENDBRANCH   1  12
BRANCH   6  22
ATOM     22  O   UNL     1      20.448  22.022  37.057  1.00  0.00    -0.507 OA
ATOM     23  H   UNL     1      21.456  21.936  37.004  1.00  0.00     0.293 HD
ENDBRANCH   6  22
BRANCH   8  24
ATOM     24  O   UNL     1      18.545  25.943  34.987  1.00  0.00    -0.508 OA
ATOM     25  H   UNL     1      18.321  26.931  35.013  1.00  0.00     0.293 HD
ENDBRANCH   8  24
TORSDOF 5
ENDMDL
MODEL 8
REMARK VINA RESULT:    -6.407      5.314      6.187
REMARK INTER + INTRA:          -7.796
REMARK INTER:                  -7.520
REMARK INTRA:                  -0.276
REMARK UNBOUND:                -0.265
REMARK SMILES O=c1cc(-c2ccc(O)c(O)c2)oc2cc(O)cc(O)c12
REMARK SMILES IDX 4 1 3 2 2 3 1 4 21 5 19 6 18 7 16 8 15 9 14 10 13 11 5 12
REMARK SMILES IDX 6 13 7 14 8 15 12 16 10 17 9 18 11 20 20 22 17 24
REMARK H PARENT 9 19 11 21 20 23 17 25
REMARK Flexibility Score: inf
ROOT
ATOM      1  C   UNL     1      16.490  24.621  44.421  1.00  0.00     0.138 A 
ATOM      2  C   UNL     1      15.188  24.688  43.897  1.00  0.00     0.100 A 
ATOM      3  C   UNL     1      14.506  23.508  43.598  1.00  0.00     0.197 A 
ATOM      4  O   UNL     1      13.339  23.579  43.128  1.00  0.00    -0.289 OA
ATOM      5  C   UNL     1      15.131  22.266  43.830  1.00  0.00     0.107 A 
ATOM      6  C   UNL     1      14.511  21.024  43.554  1.00  0.00     0.134 A 
ATOM      7  C   UNL     1      15.200  19.830  43.819  1.00  0.00     0.093 A 
ATOM      8  C   UNL     1      16.490  19.855  44.353  1.00  0.00     0.123 A 
ATOM      9  C   UNL     1      17.107  21.080  44.627  1.00  0.00     0.094 A 
ATOM     10  C   UNL     1      16.440  22.281  44.370  1.00  0.00     0.146 A 
ATOM     11  O   UNL     1      17.047  23.432  44.637  1.00  0.00    -0.456 OA
ENDROOT
BRANCH   1  12
ATOM     12  C   UNL     1      17.262  25.844  44.759  1.00  0.00     0.021 A 
ATOM     13  C   UNL     1      16.813  26.759  45.729  1.00  0.00     0.016 A 
ATOM     14  C   UNL     1      17.556  27.907  46.017  1.00  0.00     0.051 A 
ATOM     15  C   UNL     1      18.753  28.165  45.339  1.00  0.00     0.157 A 
ATOM     16  C   UNL     1      18.460  26.117  44.072  1.00  0.00     0.062 A 
ATOM     17  C   UNL     1      19.206  27.265  44.361  1.00  0.00     0.158 A 
BRANCH  15  18
ATOM     18  O   UNL     1      19.493  29.310  45.632  1.00  0.00    -0.504 OA
ATOM     19  H   UNL     1      19.710  29.997  44.920  1.00  0.00     0.293 HD
ENDBRANCH  15  18
BRANCH  17  20
ATOM     20  O   UNL     1      20.392  27.494  43.665  1.00  0.00    -0.504 OA
ATOM     21  H   UNL     1      21.296  27.477  44.121  1.00  0.00     0.293 HD
ENDBRANCH  17  20
ENDBRANCH   1  12
BRANCH   6  22
ATOM     22  O   UNL     1      13.223  20.967  43.022  1.00  0.00    -0.507 OA
ATOM     23  H   UNL     1      12.614  20.174  43.183  1.00  0.00     0.293 HD
ENDBRANCH   6  22
BRANCH   8  24
ATOM     24  O   UNL     1      17.151  18.655  44.607  1.00  0.00    -0.508 OA
ATOM     25  H   UNL     1      16.736  17.934  45.185  1.00  0.00     0.293 HD
ENDBRANCH   8  24
TORSDOF 5
ENDMDL
MODEL 9
REMARK VINA RESULT:    -6.342      3.831      5.871
REMARK INTER + INTRA:          -7.720
REMARK INTER:                  -7.456
REMARK INTRA:                  -0.263
REMARK UNBOUND:                -0.265
REMARK SMILES O=c1cc(-c2ccc(O)c(O)c2)oc2cc(O)cc(O)c12
REMARK SMILES IDX 4 1 3 2 2 3 1 4 21 5 19 6 18 7 16 8 15 9 14 10 13 11 5 12
REMARK SMILES IDX 6 13 7 14 8 15 12 16 10 17 9 18 11 20 20 22 17 24
REMARK H PARENT 9 19 11 21 20 23 17 25
REMARK Flexibility Score: inf
ROOT
ATOM      1  C   UNL     1      17.174  24.549  42.645  1.00  0.00     0.138 A 
ATOM      2  C   UNL     1      15.848  24.967  42.440  1.00  0.00     0.100 A 
ATOM      3  C   UNL     1      14.804  24.062  42.636  1.00  0.00     0.197 A 
ATOM      4  O   UNL     1      13.619  24.446  42.450  1.00  0.00    -0.289 OA
ATOM      5  C   UNL     1      15.095  22.743  43.039  1.00  0.00     0.107 A 
ATOM      6  C   UNL     1      14.097  21.764  43.259  1.00  0.00     0.134 A 
ATOM      7  C   UNL     1      14.468  20.473  43.665  1.00  0.00     0.093 A 
ATOM      8  C   UNL     1      15.812  20.145  43.857  1.00  0.00     0.123 A 
ATOM      9  C   UNL     1      16.802  21.110  43.641  1.00  0.00     0.094 A 
ATOM     10  C   UNL     1      16.454  22.401  43.235  1.00  0.00     0.146 A 
ATOM     11  O   UNL     1      17.413  23.299  43.035  1.00  0.00    -0.456 OA
ENDROOT
BRANCH   1  12
ATOM     12  C   UNL     1      18.323  25.469  42.453  1.00  0.00     0.021 A 
ATOM     13  C   UNL     1      19.025  25.534  41.233  1.00  0.00     0.016 A 
ATOM     14  C   UNL     1      20.110  26.402  41.086  1.00  0.00     0.051 A 
ATOM     15  C   UNL     1      20.518  27.214  42.151  1.00  0.00     0.157 A 
ATOM     16  C   UNL     1      18.748  26.278  43.523  1.00  0.00     0.062 A 
ATOM     17  C   UNL     1      19.834  27.149  43.376  1.00  0.00     0.158 A 
BRANCH  15  18
ATOM     18  O   UNL     1      21.599  28.080  41.998  1.00  0.00    -0.504 OA
ATOM     19  H   UNL     1      22.555  27.753  42.071  1.00  0.00     0.293 HD
ENDBRANCH  15  18
BRANCH  17  20
ATOM     20  O   UNL     1      20.217  27.941  44.457  1.00  0.00    -0.504 OA
ATOM     21  H   UNL     1      21.025  27.720  45.027  1.00  0.00     0.293 HD
ENDBRANCH  17  20
ENDBRANCH   1  12
BRANCH   6  22
ATOM     22  O   UNL     1      12.746  22.061  43.077  1.00  0.00    -0.507 OA
ATOM     23  H   UNL     1      12.088  21.367  42.742  1.00  0.00     0.293 HD
ENDBRANCH   6  22
BRANCH   8  24
ATOM     24  O   UNL     1      16.154  18.856  44.261  1.00  0.00    -0.508 OA
ATOM     25  H   UNL     1      15.604  18.353  44.947  1.00  0.00     0.293 HD
ENDBRANCH   8  24
TORSDOF 5
ENDMDL
