MODEL 1
REMARK VINA RESULT:    -4.168      0.000      0.000
REMARK INTER + INTRA:          -7.995
REMARK INTER:                  -6.604
REMARK INTRA:                  -1.390
REMARK UNBOUND:                -1.390
REMARK SMILES CCCCCCCCCCCC(=O)[O-]
REMARK SMILES IDX 7 1 8 2 9 3 10 4 11 5 12 6 13 7 14 8 6 9 5 10 4 11 3 12 2 13
REMARK SMILES IDX 1 14
REMARK H PARENT
REMARK Flexibility Score: inf
ROOT
ATOM      1  C   UNL     1     -16.180  44.485  30.053  1.00  0.00     0.000 C 
ENDROOT
BRANCH   1   2
ATOM      2  C   UNL     1     -17.128  45.002  31.146  1.00  0.00     0.000 C 
BRANCH   2   3
ATOM      3  C   UNL     1     -17.724  43.869  32.000  1.00  0.00     0.000 C 
BRANCH   3   4
ATOM      4  C   UNL     1     -17.378  42.472  31.447  1.00  0.00     0.006 C 
BRANCH   4   5
ATOM      5  C   UNL     1     -16.475  41.648  32.377  1.00  0.00     0.053 C 
BRANCH   5   6
ATOM      6  C   UNL     1     -17.182  40.460  32.952  1.00  0.00     0.041 C 
ATOM      7  O   UNL     1     -17.275  40.322  34.200  1.00  0.00    -0.550 OA
ATOM      8  O   UNL     1     -17.760  39.519  32.109  1.00  0.00    -0.550 OA
ENDBRANCH   5   6
ENDBRANCH   4   5
ENDBRANCH   3   4
ENDBRANCH   2   3
ENDBRANCH   1   2
BRANCH   1   9
ATOM      9  C   UNL     1     -14.710  44.844  30.322  1.00  0.00     0.000 C 
BRANCH   9  10
ATOM     10  C   UNL     1     -13.879  43.586  30.602  1.00  0.00    -0.000 C 
BRANCH  10  11
ATOM     11  C   UNL     1     -13.401  43.558  32.061  1.00  0.00    -0.000 C 
BRANCH  11  12
ATOM     12  C   UNL     1     -13.656  44.883  32.801  1.00  0.00    -0.000 C 
BRANCH  12  13
ATOM     13  C   UNL     1     -14.538  44.762  34.058  1.00  0.00    -0.003 C 
ATOM     14  C   UNL     1     -14.449  45.984  34.970  1.00  0.00     0.004 C 
ENDBRANCH  12  13
ENDBRANCH  11  12
ENDBRANCH  10  11
ENDBRANCH   9  10
ENDBRANCH   1   9
TORSDOF 10
ENDMDL
MODEL 2
REMARK VINA RESULT:    -4.083      1.315      1.731
REMARK INTER + INTRA:          -7.861
REMARK INTER:                  -6.467
REMARK INTRA:                  -1.394
REMARK UNBOUND:                -1.390
REMARK SMILES CCCCCCCCCCCC(=O)[O-]
REMARK SMILES IDX 7 1 8 2 9 3 10 4 11 5 12 6 13 7 14 8 6 9 5 10 4 11 3 12 2 13
REMARK SMILES IDX 1 14
REMARK H PARENT
REMARK Flexibility Score: inf
ROOT
ATOM      1  C   UNL     1     -17.051  44.898  30.696  1.00  0.00     0.000 C 
ENDROOT
BRANCH   1   2
ATOM      2  C   UNL     1     -18.095  44.082  31.474  1.00  0.00     0.000 C 
BRANCH   2   3
ATOM      3  C   UNL     1     -17.634  43.735  32.900  1.00  0.00     0.000 C 
BRANCH   3   4
ATOM      4  C   UNL     1     -16.962  42.349  32.980  1.00  0.00     0.006 C 
BRANCH   4   5
ATOM      5  C   UNL     1     -17.924  41.183  32.707  1.00  0.00     0.053 C 
BRANCH   5   6
ATOM      6  C   UNL     1     -17.424  40.272  31.629  1.00  0.00     0.041 C 
ATOM      7  O   UNL     1     -16.659  40.713  30.733  1.00  0.00    -0.550 OA
ATOM      8  O   UNL     1     -17.784  38.930  31.630  1.00  0.00    -0.550 OA
ENDBRANCH   5   6
ENDBRANCH   4   5
ENDBRANCH   3   4
ENDBRANCH   2   3
ENDBRANCH   1   2
BRANCH   1   9
ATOM      9  C   UNL     1     -16.413  44.104  29.545  1.00  0.00     0.000 C 
BRANCH   9  10
ATOM     10  C   UNL     1     -14.990  43.661  29.907  1.00  0.00    -0.000 C 
BRANCH  10  11
ATOM     11  C   UNL     1     -14.174  44.836  30.465  1.00  0.00    -0.000 C 
BRANCH  11  12
ATOM     12  C   UNL     1     -13.407  44.476  31.751  1.00  0.00    -0.000 C 
BRANCH  12  13
ATOM     13  C   UNL     1     -14.056  44.980  33.053  1.00  0.00    -0.003 C 
ATOM     14  C   UNL     1     -13.860  44.021  34.227  1.00  0.00     0.004 C 
ENDBRANCH  12  13
ENDBRANCH  11  12
ENDBRANCH  10  11
ENDBRANCH   9  10
ENDBRANCH   1   9
TORSDOF 10
ENDMDL
MODEL 3
REMARK VINA RESULT:    -4.005      1.761      4.009
REMARK INTER + INTRA:          -7.736
REMARK INTER:                  -6.032
REMARK INTRA:                  -1.705
REMARK UNBOUND:                -1.390
REMARK SMILES CCCCCCCCCCCC(=O)[O-]
REMARK SMILES IDX 7 1 8 2 9 3 10 4 11 5 12 6 13 7 14 8 6 9 5 10 4 11 3 12 2 13
REMARK SMILES IDX 1 14
REMARK H PARENT
REMARK Flexibility Score: inf
ROOT
ATOM      1  C   UNL     1     -13.737  45.178  33.571  1.00  0.00     0.000 C 
ENDROOT
BRANCH   1   2
ATOM      2  C   UNL     1     -13.265  44.082  32.602  1.00  0.00     0.000 C 
BRANCH   2   3
ATOM      3  C   UNL     1     -13.394  44.499  31.126  1.00  0.00     0.000 C 
BRANCH   3   4
ATOM      4  C   UNL     1     -13.810  43.324  30.218  1.00  0.00     0.006 C 
BRANCH   4   5
ATOM      5  C   UNL     1     -14.391  42.128  30.987  1.00  0.00     0.053 C 
BRANCH   5   6
ATOM      6  C   UNL     1     -15.560  41.512  30.285  1.00  0.00     0.041 C 
ATOM      7  O   UNL     1     -16.430  40.879  30.939  1.00  0.00    -0.550 OA
ATOM      8  O   UNL     1     -15.703  41.659  28.910  1.00  0.00    -0.550 OA
ENDBRANCH   5   6
ENDBRANCH   4   5
ENDBRANCH   3   4
ENDBRANCH   2   3
ENDBRANCH   1   2
BRANCH   1   9
ATOM      9  C   UNL     1     -15.171  44.951  34.072  1.00  0.00     0.000 C 
BRANCH   9  10
ATOM     10  C   UNL     1     -15.475  43.454  34.209  1.00  0.00    -0.000 C 
BRANCH  10  11
ATOM     11  C   UNL     1     -16.848  43.115  33.612  1.00  0.00    -0.000 C 
BRANCH  11  12
ATOM     12  C   UNL     1     -17.529  44.327  32.950  1.00  0.00    -0.000 C 
BRANCH  12  13
ATOM     13  C   UNL     1     -17.881  44.138  31.463  1.00  0.00    -0.003 C 
ATOM     14  C   UNL     1     -17.052  45.026  30.536  1.00  0.00     0.004 C 
ENDBRANCH  12  13
ENDBRANCH  11  12
ENDBRANCH  10  11
ENDBRANCH   9  10
ENDBRANCH   1   9
TORSDOF 10
ENDMDL
MODEL 4
REMARK VINA RESULT:    -3.987      1.092      3.131
REMARK INTER + INTRA:          -7.707
REMARK INTER:                  -6.142
REMARK INTRA:                  -1.565
REMARK UNBOUND:                -1.390
REMARK SMILES CCCCCCCCCCCC(=O)[O-]
REMARK SMILES IDX 7 1 8 2 9 3 10 4 11 5 12 6 13 7 14 8 6 9 5 10 4 11 3 12 2 13
REMARK SMILES IDX 1 14
REMARK H PARENT
REMARK Flexibility Score: inf
ROOT
ATOM      1  C   UNL     1     -13.208  44.638  33.730  1.00  0.00     0.000 C 
ENDROOT
BRANCH   1   2
ATOM      2  C   UNL     1     -14.378  43.681  34.003  1.00  0.00     0.000 C 
BRANCH   2   3
ATOM      3  C   UNL     1     -15.750  44.361  33.845  1.00  0.00     0.000 C 
BRANCH   3   4
ATOM      4  C   UNL     1     -16.848  43.372  33.403  1.00  0.00     0.006 C 
BRANCH   4   5
ATOM      5  C   UNL     1     -16.298  42.066  32.810  1.00  0.00     0.053 C 
BRANCH   5   6
ATOM      6  C   UNL     1     -17.173  40.890  33.114  1.00  0.00     0.041 C 
ATOM      7  O   UNL     1     -17.784  40.300  32.185  1.00  0.00    -0.550 OA
ATOM      8  O   UNL     1     -17.291  40.430  34.420  1.00  0.00    -0.550 OA
ENDBRANCH   5   6
ENDBRANCH   4   5
ENDBRANCH   3   4
ENDBRANCH   2   3
ENDBRANCH   1   2
BRANCH   1   9
ATOM      9  C   UNL     1     -12.816  44.691  32.245  1.00  0.00     0.000 C 
BRANCH   9  10
ATOM     10  C   UNL     1     -12.893  43.298  31.608  1.00  0.00    -0.000 C 
BRANCH  10  11
ATOM     11  C   UNL     1     -13.713  43.332  30.310  1.00  0.00    -0.000 C 
BRANCH  11  12
ATOM     12  C   UNL     1     -14.724  44.493  30.270  1.00  0.00    -0.000 C 
BRANCH  12  13
ATOM     13  C   UNL     1     -16.115  44.120  29.727  1.00  0.00    -0.003 C 
ATOM     14  C   UNL     1     -17.202  45.112  30.138  1.00  0.00     0.004 C 
ENDBRANCH  12  13
ENDBRANCH  11  12
ENDBRANCH  10  11
ENDBRANCH   9  10
ENDBRANCH   1   9
TORSDOF 10
ENDMDL
MODEL 5
REMARK VINA RESULT:    -3.980      2.756      5.189
REMARK INTER + INTRA:          -7.698
REMARK INTER:                  -6.306
REMARK INTRA:                  -1.392
REMARK UNBOUND:                -1.390
REMARK SMILES CCCCCCCCCCCC(=O)[O-]
REMARK SMILES IDX 7 1 8 2 9 3 10 4 11 5 12 6 13 7 14 8 6 9 5 10 4 11 3 12 2 13
REMARK SMILES IDX 1 14
REMARK H PARENT
REMARK Flexibility Score: inf
ROOT
ATOM      1  C   UNL     1     -17.759  44.265  32.970  1.00  0.00     0.000 C 
ENDROOT
BRANCH   1   2
ATOM      2  C   UNL     1     -17.754  44.456  31.445  1.00  0.00     0.000 C 
BRANCH   2   3
ATOM      3  C   UNL     1     -16.623  43.674  30.753  1.00  0.00     0.000 C 
BRANCH   3   4
ATOM      4  C   UNL     1     -15.491  43.291  31.728  1.00  0.00     0.006 C 
BRANCH   4   5
ATOM      5  C   UNL     1     -14.178  44.045  31.473  1.00  0.00     0.053 C 
BRANCH   5   6
ATOM      6  C   UNL     1     -13.606  44.635  32.725  1.00  0.00     0.041 C 
ATOM      7  O   UNL     1     -14.350  45.255  33.529  1.00  0.00    -0.550 OA
ATOM      8  O   UNL     1     -12.257  44.476  33.016  1.00  0.00    -0.550 OA
ENDBRANCH   5   6
ENDBRANCH   4   5
ENDBRANCH   3   4
ENDBRANCH   2   3
ENDBRANCH   1   2
BRANCH   1   9
ATOM      9  C   UNL     1     -19.121  43.797  33.505  1.00  0.00     0.000 C 
BRANCH   9  10
ATOM     10  C   UNL     1     -19.153  42.273  33.671  1.00  0.00    -0.000 C 
BRANCH  10  11
ATOM     11  C   UNL     1     -17.855  41.764  34.316  1.00  0.00    -0.000 C 
BRANCH  11  12
ATOM     12  C   UNL     1     -17.229  40.584  33.551  1.00  0.00    -0.000 C 
BRANCH  12  13
ATOM     13  C   UNL     1     -17.853  40.303  32.172  1.00  0.00    -0.003 C 
ATOM     14  C   UNL     1     -16.967  39.434  31.281  1.00  0.00     0.004 C 
ENDBRANCH  12  13
ENDBRANCH  11  12
ENDBRANCH  10  11
ENDBRANCH   9  10
ENDBRANCH   1   9
TORSDOF 10
ENDMDL
MODEL 6
REMARK VINA RESULT:    -3.971      1.738      2.559
REMARK INTER + INTRA:          -7.684
REMARK INTER:                  -6.239
REMARK INTRA:                  -1.445
REMARK UNBOUND:                -1.390
REMARK SMILES CCCCCCCCCCCC(=O)[O-]
REMARK SMILES IDX 7 1 8 2 9 3 10 4 11 5 12 6 13 7 14 8 6 9 5 10 4 11 3 12 2 13
REMARK SMILES IDX 1 14
REMARK H PARENT
REMARK Flexibility Score: inf
ROOT
ATOM      1  C   UNL     1     -13.683  43.303  29.839  1.00  0.00     0.000 C 
ENDROOT
BRANCH   1   2
ATOM      2  C   UNL     1     -15.203  43.393  30.042  1.00  0.00     0.000 C 
BRANCH   2   3
ATOM      3  C   UNL     1     -15.668  44.808  30.430  1.00  0.00     0.000 C 
BRANCH   3   4
ATOM      4  C   UNL     1     -17.165  44.855  30.798  1.00  0.00     0.006 C 
BRANCH   4   5
ATOM      5  C   UNL     1     -17.775  43.472  31.069  1.00  0.00     0.053 C 
BRANCH   5   6
ATOM      6  C   UNL     1     -18.416  43.386  32.419  1.00  0.00     0.041 C 
ATOM      7  O   UNL     1     -18.510  44.413  33.141  1.00  0.00    -0.550 OA
ATOM      8  O   UNL     1     -18.933  42.177  32.869  1.00  0.00    -0.550 OA
ENDBRANCH   5   6
ENDBRANCH   4   5
ENDBRANCH   3   4
ENDBRANCH   2   3
ENDBRANCH   1   2
BRANCH   1   9
ATOM      9  C   UNL     1     -12.937  44.530  30.385  1.00  0.00     0.000 C 
BRANCH   9  10
ATOM     10  C   UNL     1     -12.019  44.141  31.551  1.00  0.00    -0.000 C 
BRANCH  10  11
ATOM     11  C   UNL     1     -12.834  43.866  32.823  1.00  0.00    -0.000 C 
BRANCH  11  12
ATOM     12  C   UNL     1     -13.454  45.140  33.425  1.00  0.00    -0.000 C 
BRANCH  12  13
ATOM     13  C   UNL     1     -14.857  44.952  34.031  1.00  0.00    -0.003 C 
ATOM     14  C   UNL     1     -15.298  43.490  34.072  1.00  0.00     0.004 C 
ENDBRANCH  12  13
ENDBRANCH  11  12
ENDBRANCH  10  11
ENDBRANCH   9  10
ENDBRANCH   1   9
TORSDOF 10
ENDMDL
MODEL 7
REMARK VINA RESULT:    -3.971      2.176      4.701
REMARK INTER + INTRA:          -7.683
REMARK INTER:                  -6.484
REMARK INTRA:                  -1.199
REMARK UNBOUND:                -1.390
REMARK SMILES CCCCCCCCCCCC(=O)[O-]
REMARK SMILES IDX 7 1 8 2 9 3 10 4 11 5 12 6 13 7 14 8 6 9 5 10 4 11 3 12 2 13
REMARK SMILES IDX 1 14
REMARK H PARENT
REMARK Flexibility Score: inf
ROOT
ATOM      1  C   UNL     1     -15.894  44.351  29.734  1.00  0.00     0.000 C 
ENDROOT
BRANCH   1   2
ATOM      2  C   UNL     1     -14.582  44.630  30.485  1.00  0.00     0.000 C 
BRANCH   2   3
ATOM      3  C   UNL     1     -13.891  43.342  30.969  1.00  0.00     0.000 C 
BRANCH   3   4
ATOM      4  C   UNL     1     -13.204  43.523  32.338  1.00  0.00     0.006 C 
BRANCH   4   5
ATOM      5  C   UNL     1     -13.374  44.930  32.930  1.00  0.00     0.053 C 
BRANCH   5   6
ATOM      6  C   UNL     1     -14.214  44.930  34.169  1.00  0.00     0.041 C 
ATOM      7  O   UNL     1     -14.283  45.962  34.887  1.00  0.00    -0.550 OA
ATOM      8  O   UNL     1     -14.941  43.798  34.517  1.00  0.00    -0.550 OA
ENDBRANCH   5   6
ENDBRANCH   4   5
ENDBRANCH   3   4
ENDBRANCH   2   3
ENDBRANCH   1   2
BRANCH   1   9
ATOM      9  C   UNL     1     -17.120  44.955  30.436  1.00  0.00     0.000 C 
BRANCH   9  10
ATOM     10  C   UNL     1     -17.186  44.513  31.903  1.00  0.00    -0.000 C 
BRANCH  10  11
ATOM     11  C   UNL     1     -18.553  43.892  32.229  1.00  0.00    -0.000 C 
BRANCH  11  12
ATOM     12  C   UNL     1     -18.454  42.415  32.652  1.00  0.00    -0.000 C 
BRANCH  12  13
ATOM     13  C   UNL     1     -17.080  41.763  32.407  1.00  0.00    -0.003 C 
ATOM     14  C   UNL     1     -17.176  40.429  31.668  1.00  0.00     0.004 C 
ENDBRANCH  12  13
ENDBRANCH  11  12
ENDBRANCH  10  11
ENDBRANCH   9  10
ENDBRANCH   1   9
TORSDOF 10
ENDMDL
MODEL 8
REMARK VINA RESULT:    -3.937      2.727      4.212
REMARK INTER + INTRA:          -7.629
REMARK INTER:                  -6.232
REMARK INTRA:                  -1.397
REMARK UNBOUND:                -1.390
REMARK SMILES CCCCCCCCCCCC(=O)[O-]
REMARK SMILES IDX 7 1 8 2 9 3 10 4 11 5 12 6 13 7 14 8 6 9 5 10 4 11 3 12 2 13
REMARK SMILES IDX 1 14
REMARK H PARENT
REMARK Flexibility Score: inf
ROOT
ATOM      1  C   UNL     1     -17.176  44.935  30.755  1.00  0.00     0.000 C 
ENDROOT
BRANCH   1   2
ATOM      2  C   UNL     1     -16.145  44.693  29.642  1.00  0.00     0.000 C 
BRANCH   2   3
ATOM      3  C   UNL     1     -14.967  43.817  30.104  1.00  0.00     0.000 C 
BRANCH   3   4
ATOM      4  C   UNL     1     -13.812  44.649  30.697  1.00  0.00     0.006 C 
BRANCH   4   5
ATOM      5  C   UNL     1     -12.438  43.974  30.567  1.00  0.00     0.053 C 
BRANCH   5   6
ATOM      6  C   UNL     1     -11.924  43.472  31.880  1.00  0.00     0.041 C 
ATOM      7  O   UNL     1     -12.559  42.587  32.511  1.00  0.00    -0.550 OA
ATOM      8  O   UNL     1     -10.729  43.962  32.393  1.00  0.00    -0.550 OA
ENDBRANCH   5   6
ENDBRANCH   4   5
ENDBRANCH   3   4
ENDBRANCH   2   3
ENDBRANCH   1   2
BRANCH   1   9
ATOM      9  C   UNL     1     -17.768  43.631  31.311  1.00  0.00     0.000 C 
BRANCH   9  10
ATOM     10  C   UNL     1     -17.636  43.575  32.838  1.00  0.00    -0.000 C 
BRANCH  10  11
ATOM     11  C   UNL     1     -16.470  42.667  33.256  1.00  0.00    -0.000 C 
BRANCH  11  12
ATOM     12  C   UNL     1     -15.474  43.367  34.199  1.00  0.00    -0.000 C 
BRANCH  12  13
ATOM     13  C   UNL     1     -15.361  44.890  34.003  1.00  0.00    -0.003 C 
ATOM     14  C   UNL     1     -13.959  45.426  34.293  1.00  0.00     0.004 C 
ENDBRANCH  12  13
ENDBRANCH  11  12
ENDBRANCH  10  11
ENDBRANCH   9  10
ENDBRANCH   1   9
TORSDOF 10
ENDMDL
MODEL 9
REMARK VINA RESULT:    -3.901      2.239      4.234
REMARK INTER + INTRA:          -7.572
REMARK INTER:                  -6.192
REMARK INTRA:                  -1.380
REMARK UNBOUND:                -1.390
REMARK SMILES CCCCCCCCCCCC(=O)[O-]
REMARK SMILES IDX 7 1 8 2 9 3 10 4 11 5 12 6 13 7 14 8 6 9 5 10 4 11 3 12 2 13
REMARK SMILES IDX 1 14
REMARK H PARENT
REMARK Flexibility Score: inf
ROOT
ATOM      1  C   UNL     1     -13.008  44.518  32.467  1.00  0.00     0.000 C 
ENDROOT
BRANCH   1   2
ATOM      2  C   UNL     1     -14.208  44.997  33.298  1.00  0.00     0.000 C 
BRANCH   2   3
ATOM      3  C   UNL     1     -14.744  43.910  34.247  1.00  0.00     0.000 C 
BRANCH   3   4
ATOM      4  C   UNL     1     -16.150  43.419  33.844  1.00  0.00     0.006 C 
BRANCH   4   5
ATOM      5  C   UNL     1     -17.056  44.531  33.294  1.00  0.00     0.053 C 
BRANCH   5   6
ATOM      6  C   UNL     1     -18.405  44.021  32.893  1.00  0.00     0.041 C 
ATOM      7  O   UNL     1     -18.626  43.687  31.700  1.00  0.00    -0.550 OA
ATOM      8  O   UNL     1     -19.410  43.890  33.844  1.00  0.00    -0.550 OA
ENDBRANCH   5   6
ENDBRANCH   4   5
ENDBRANCH   3   4
ENDBRANCH   2   3
ENDBRANCH   1   2
BRANCH   1   9
ATOM      9  C   UNL     1     -13.410  44.031  31.067  1.00  0.00     0.000 C 
BRANCH   9  10
ATOM     10  C   UNL     1     -14.469  44.952  30.448  1.00  0.00    -0.000 C 
BRANCH  10  11
ATOM     11  C   UNL     1     -15.639  44.137  29.877  1.00  0.00    -0.000 C 
BRANCH  11  12
ATOM     12  C   UNL     1     -15.572  42.646  30.254  1.00  0.00    -0.000 C 
BRANCH  12  13
ATOM     13  C   UNL     1     -15.500  41.679  29.058  1.00  0.00    -0.003 C 
ATOM     14  C   UNL     1     -15.292  42.395  27.724  1.00  0.00     0.004 C 
ENDBRANCH  12  13
ENDBRANCH  11  12
ENDBRANCH  10  11
ENDBRANCH   9  10
ENDBRANCH   1   9
TORSDOF 10
ENDMDL
