MODEL 1
REMARK VINA RESULT:    30.206      0.000      0.000
REMARK INTER + INTRA:          49.494
REMARK INTER:                  44.333
REMARK INTRA:                   5.162
REMARK UNBOUND:                 5.162
REMARK SMILES CC(C)(O)CC[C@H](O)[C@@](C)(O)[C@H]1CC[C@]2(O)C3=CC(=O)[C@@H]4C[C@H](O)[C@@H](O)C[C@]4(C)[C@@H]3CC[C@]12C
REMARK SMILES IDX 6 1 7 2 9 3 10 4 12 5 34 6 33 7 32 8 15 9 31 10 17 11 14 12
REMARK SMILES IDX 13 13 30 14 18 15 28 16 19 17 21 18 27 19 29 20 20 21 22 22
REMARK SMILES IDX 25 23 23 24 16 25 26 27 24 29 11 31 8 33 5 35 2 36 1 37 3 38
REMARK SMILES IDX 4 39
REMARK H PARENT 16 26 26 28 24 30 11 32 8 34 4 40
REMARK Flexibility Score: inf
ROOT
ATOM      1  C   UNL     1      17.992  -5.088  15.523  1.00  0.00     0.038 C 
ENDROOT
BRANCH   1   2
ATOM      2  C   UNL     1      17.817  -4.371  14.149  1.00  0.00     0.146 C 
BRANCH   2   3
ATOM      3  C   UNL     1      18.678  -4.987  12.966  1.00  0.00     0.091 C 
ATOM      4  C   UNL     1      18.795  -3.875  11.876  1.00  0.00     0.045 C 
BRANCH   3   5
ATOM      5  C   UNL     1      17.974  -6.310  12.379  1.00  0.00     0.032 C 
ATOM      6  C   UNL     1      16.130  -6.346  14.322  1.00  0.00     0.015 C 
ATOM      7  C   UNL     1      16.987  -7.152  13.299  1.00  0.00     0.006 C 
ATOM      8  C   UNL     1      15.995  -7.917  12.368  1.00  0.00     0.011 C 
ATOM      9  C   UNL     1      17.908  -8.198  13.999  1.00  0.00     0.092 C 
ATOM     10  C   UNL     1      15.044  -8.842  13.126  1.00  0.00     0.009 C 
ATOM     11  C   UNL     1      17.229  -9.531  14.360  1.00  0.00    -0.031 C 
ATOM     12  C   UNL     1      19.053  -8.453  12.992  1.00  0.00     0.041 C 
ATOM     13  C   UNL     1      18.955  -7.407  11.890  1.00  0.00     0.010 C 
ATOM     14  C   UNL     1      15.742  -9.820  14.125  1.00  0.00     0.025 C 
ATOM     15  C   UNL     1      17.972 -10.443  15.009  1.00  0.00     0.050 C 
ATOM     16  C   UNL     1      15.474 -11.346  13.807  1.00  0.00    -0.013 C 
ATOM     17  C   UNL     1      17.441 -11.745  15.416  1.00  0.00     0.159 C 
ATOM     18  C   UNL     1      16.081 -12.226  14.963  1.00  0.00     0.070 C 
ATOM     19  C   UNL     1      16.120 -11.720  12.432  1.00  0.00     0.042 C 
ATOM     20  C   UNL     1      13.932 -11.590  13.771  1.00  0.00     0.013 C 
ATOM     21  O   UNL     1      18.124 -12.449  16.209  1.00  0.00    -0.295 OA
ATOM     22  C   UNL     1      16.125 -13.736  14.610  1.00  0.00     0.047 C 
ATOM     23  C   UNL     1      16.152 -13.228  12.125  1.00  0.00     0.143 C 
ATOM     24  C   UNL     1      16.813 -14.021  13.263  1.00  0.00     0.143 C 
BRANCH   9  25
ATOM     25  O   UNL     1      18.485  -7.635  15.161  1.00  0.00    -0.385 OA
ATOM     26  H   UNL     1      18.499  -8.324  15.875  1.00  0.00     0.211 HD
ENDBRANCH   9  25
BRANCH  23  27
ATOM     27  O   UNL     1      14.851 -13.698  11.880  1.00  0.00    -0.390 OA
ATOM     28  H   UNL     1      14.347 -12.952  11.461  1.00  0.00     0.211 HD
ENDBRANCH  23  27
BRANCH  24  29
ATOM     29  O   UNL     1      18.181 -13.702  13.325  1.00  0.00    -0.390 OA
ATOM     30  H   UNL     1      18.291 -13.052  14.068  1.00  0.00     0.211 HD
ENDBRANCH  24  29
ENDBRANCH   3   5
BRANCH   3  31
ATOM     31  O   UNL     1      19.980  -5.301  13.405  1.00  0.00    -0.387 OA
ATOM     32  H   UNL     1      20.039  -6.273  13.603  1.00  0.00     0.211 HD
ENDBRANCH   3  31
ENDBRANCH   2   3
BRANCH   2  33
ATOM     33  O   UNL     1      16.457  -4.259  13.811  1.00  0.00    -0.390 OA
ATOM     34  H   UNL     1      16.242  -3.298  13.686  1.00  0.00     0.211 HD
ENDBRANCH   2  33
ENDBRANCH   1   2
BRANCH   1  35
ATOM     35  C   UNL     1      16.787  -4.938  16.482  1.00  0.00     0.037 C 
BRANCH  35  36
ATOM     36  C   UNL     1      16.968  -5.540  17.914  1.00  0.00     0.059 C 
ATOM     37  C   UNL     1      17.086  -4.410  18.962  1.00  0.00     0.042 C 
ATOM     38  C   UNL     1      15.735  -6.401  18.262  1.00  0.00     0.042 C 
BRANCH  36  39
ATOM     39  O   UNL     1      18.118  -6.353  17.952  1.00  0.00    -0.390 OA
ATOM     40  H   UNL     1      18.910  -5.780  17.776  1.00  0.00     0.211 HD
ENDBRANCH  36  39
ENDBRANCH  35  36
ENDBRANCH   1  35
TORSDOF 11
ENDMDL
MODEL 2
REMARK VINA RESULT:    31.577      2.611      7.930
REMARK INTER + INTRA:          51.507
REMARK INTER:                  46.291
REMARK INTRA:                   5.217
REMARK UNBOUND:                 5.162
REMARK SMILES CC(C)(O)CC[C@H](O)[C@@](C)(O)[C@H]1CC[C@]2(O)C3=CC(=O)[C@@H]4C[C@H](O)[C@@H](O)C[C@]4(C)[C@@H]3CC[C@]12C
REMARK SMILES IDX 6 1 7 2 9 3 10 4 12 5 34 6 33 7 32 8 15 9 31 10 17 11 14 12
REMARK SMILES IDX 13 13 30 14 18 15 28 16 19 17 21 18 27 19 29 20 20 21 22 22
REMARK SMILES IDX 25 23 23 24 16 25 26 27 24 29 11 31 8 33 5 35 2 36 1 37 3 38
REMARK SMILES IDX 4 39
REMARK H PARENT 16 26 26 28 24 30 11 32 8 34 4 40
REMARK Flexibility Score: inf
ROOT
ATOM      1  C   UNL     1      12.547 -12.760  14.181  1.00  0.00     0.038 C 
ENDROOT
BRANCH   1   2
ATOM      2  C   UNL     1      11.099 -12.820  13.603  1.00  0.00     0.146 C 
BRANCH   2   3
ATOM      3  C   UNL     1      10.391 -11.409  13.441  1.00  0.00     0.091 C 
ATOM      4  C   UNL     1      10.233 -11.164  11.907  1.00  0.00     0.045 C 
BRANCH   3   5
ATOM      5  C   UNL     1      11.269 -10.250  14.131  1.00  0.00     0.032 C 
ATOM      6  C   UNL     1      11.366  -8.805  11.876  1.00  0.00     0.015 C 
ATOM      7  C   UNL     1      12.049  -9.204  13.220  1.00  0.00     0.006 C 
ATOM      8  C   UNL     1      12.241  -7.894  14.047  1.00  0.00     0.011 C 
ATOM      9  C   UNL     1      13.449  -9.853  12.997  1.00  0.00     0.092 C 
ATOM     10  C   UNL     1      13.060  -6.832  13.316  1.00  0.00     0.009 C 
ATOM     11  C   UNL     1      14.607  -8.859  12.795  1.00  0.00    -0.031 C 
ATOM     12  C   UNL     1      13.702 -10.694  14.270  1.00  0.00     0.041 C 
ATOM     13  C   UNL     1      12.403 -10.757  15.060  1.00  0.00     0.010 C 
ATOM     14  C   UNL     1      14.423  -7.337  12.744  1.00  0.00     0.025 C 
ATOM     15  C   UNL     1      15.823  -9.374  12.551  1.00  0.00     0.050 C 
ATOM     16  C   UNL     1      15.677  -6.566  13.322  1.00  0.00    -0.013 C 
ATOM     17  C   UNL     1      17.004  -8.536  12.332  1.00  0.00     0.159 C 
ATOM     18  C   UNL     1      16.969  -7.041  12.559  1.00  0.00     0.070 C 
ATOM     19  C   UNL     1      15.809  -6.846  14.856  1.00  0.00     0.042 C 
ATOM     20  C   UNL     1      15.494  -5.038  13.060  1.00  0.00     0.013 C 
ATOM     21  O   UNL     1      18.052  -9.081  11.892  1.00  0.00    -0.295 OA
ATOM     22  C   UNL     1      18.280  -6.561  13.238  1.00  0.00     0.047 C 
ATOM     23  C   UNL     1      17.126  -6.363  15.488  1.00  0.00     0.143 C 
ATOM     24  C   UNL     1      18.348  -6.913  14.735  1.00  0.00     0.143 C 
BRANCH   9  25
ATOM     25  O   UNL     1      13.401 -10.746  11.902  1.00  0.00    -0.385 OA
ATOM     26  H   UNL     1      13.822 -11.603  12.171  1.00  0.00     0.211 HD
ENDBRANCH   9  25
BRANCH  23  27
ATOM     27  O   UNL     1      17.156  -4.959  15.528  1.00  0.00    -0.390 OA
ATOM     28  H   UNL     1      16.248  -4.658  15.798  1.00  0.00     0.211 HD
ENDBRANCH  23  27
BRANCH  24  29
ATOM     29  O   UNL     1      18.424  -8.305  14.917  1.00  0.00    -0.390 OA
ATOM     30  H   UNL     1      17.623  -8.571  15.440  1.00  0.00     0.211 HD
ENDBRANCH  24  29
ENDBRANCH   3   5
BRANCH   3  31
ATOM     31  O   UNL     1       9.103 -11.427  14.012  1.00  0.00    -0.387 OA
ATOM     32  H   UNL     1       9.173 -11.314  14.996  1.00  0.00     0.211 HD
ENDBRANCH   3  31
ENDBRANCH   2   3
BRANCH   2  33
ATOM     33  O   UNL     1      11.066 -13.569  12.414  1.00  0.00    -0.390 OA
ATOM     34  H   UNL     1      11.950 -14.002  12.289  1.00  0.00     0.211 HD
ENDBRANCH   2  33
ENDBRANCH   1   2
BRANCH   1  35
ATOM     35  C   UNL     1      13.288 -14.118  14.196  1.00  0.00     0.037 C 
BRANCH  35  36
ATOM     36  C   UNL     1      14.087 -14.481  12.902  1.00  0.00     0.059 C 
ATOM     37  C   UNL     1      14.158 -13.261  11.954  1.00  0.00     0.042 C 
ATOM     38  C   UNL     1      15.526 -14.882  13.289  1.00  0.00     0.042 C 
BRANCH  36  39
ATOM     39  O   UNL     1      13.471 -15.565  12.245  1.00  0.00    -0.390 OA
ATOM     40  H   UNL     1      13.924 -15.695  11.370  1.00  0.00     0.211 HD
ENDBRANCH  36  39
ENDBRANCH  35  36
ENDBRANCH   1  35
TORSDOF 11
ENDMDL
