MODEL 1
REMARK VINA RESULT:    89.498      0.000      0.000
REMARK INTER + INTRA:         100.687
REMARK INTER:                  99.962
REMARK INTRA:                   0.724
REMARK UNBOUND:                 0.724
REMARK SMILES CC1(C)CC[C@@]2(CO)CC=C3[C@]4(C)CC[C@@H]5C(C)(C)[C@@H](O)CC[C@]5(C)[C@H]4CC[C@@]3(C)[C@@H]2C1
REMARK SMILES IDX 1 1 2 2 4 3 5 4 6 5 9 6 10 7 11 8 12 9 14 10 15 11 16 12
REMARK SMILES IDX 17 13 20 14 22 15 23 16 24 17 26 18 27 19 28 20 29 21 31 22
REMARK SMILES IDX 32 23 30 24 25 25 18 26 19 27 13 28 3 29 7 30 8 31 21 33
REMARK H PARENT 8 32 21 34
REMARK Flexibility Score: inf
ROOT
ATOM      1  C   UNL     1     -20.617  22.257  -3.825  1.00  0.00     0.011 C 
ATOM      2  C   UNL     1     -20.512  23.007  -5.176  1.00  0.00    -0.035 C 
ATOM      3  C   UNL     1     -19.050  23.485  -5.356  1.00  0.00     0.007 C 
ATOM      4  C   UNL     1     -18.875  24.433  -6.549  1.00  0.00     0.010 C 
ATOM      5  C   UNL     1     -19.785  25.699  -6.458  1.00  0.00     0.001 C 
ATOM      6  C   UNL     1     -19.655  26.455  -7.802  1.00  0.00     0.037 C 
ATOM      7  C   UNL     1     -20.749  27.445  -8.067  1.00  0.00    -0.026 C 
ATOM      8  C   UNL     1     -22.012  27.368  -7.569  1.00  0.00    -0.062 C 
ATOM      9  C   UNL     1     -23.113  28.248  -8.228  1.00  0.00    -0.008 C 
ATOM     10  C   UNL     1     -22.608  29.731  -8.334  1.00  0.00     0.012 C 
ATOM     11  C   UNL     1     -23.657  30.817  -8.042  1.00  0.00     0.006 C 
ATOM     12  C   UNL     1     -25.052  30.460  -8.627  1.00  0.00     0.003 C 
ATOM     13  C   UNL     1     -26.041  31.718  -8.753  1.00  0.00    -0.006 C 
ATOM     14  C   UNL     1     -26.731  32.025  -7.389  1.00  0.00     0.120 C 
ATOM     15  C   UNL     1     -27.381  30.778  -6.771  1.00  0.00     0.033 C 
ATOM     16  C   UNL     1     -26.347  29.681  -6.538  1.00  0.00     0.010 C 
ATOM     17  C   UNL     1     -25.619  29.196  -7.839  1.00  0.00    -0.025 C 
ATOM     18  C   UNL     1     -24.428  28.212  -7.377  1.00  0.00     0.005 C 
ATOM     19  C   UNL     1     -24.873  26.757  -7.075  1.00  0.00     0.006 C 
ATOM     20  C   UNL     1     -23.746  25.788  -6.653  1.00  0.00     0.012 C 
ATOM     21  C   UNL     1     -22.340  26.419  -6.390  1.00  0.00    -0.008 C 
ATOM     22  C   UNL     1     -21.276  25.235  -6.320  1.00  0.00     0.008 C 
ATOM     23  C   UNL     1     -21.479  24.226  -5.143  1.00  0.00     0.011 C 
ATOM     24  C   UNL     1     -22.394  27.250  -5.062  1.00  0.00     0.016 C 
ATOM     25  C   UNL     1     -26.648  28.416  -8.715  1.00  0.00     0.012 C 
ATOM     26  C   UNL     1     -25.272  33.000  -9.194  1.00  0.00     0.014 C 
ATOM     27  C   UNL     1     -27.113  31.487  -9.872  1.00  0.00     0.014 C 
ATOM     28  C   UNL     1     -23.344  27.665  -9.650  1.00  0.00     0.016 C 
ATOM     29  C   UNL     1     -20.910  22.012  -6.295  1.00  0.00     0.011 C 
ENDROOT
BRANCH   5  30
ATOM     30  C   UNL     1     -19.310  26.627  -5.289  1.00  0.00     0.163 C 
BRANCH  30  31
ATOM     31  O   UNL     1     -19.074  25.902  -4.107  1.00  0.00    -0.396 OA
ATOM     32  H   UNL     1     -19.627  26.309  -3.393  1.00  0.00     0.210 HD
ENDBRANCH  30  31
ENDBRANCH   5  30
BRANCH  14  33
ATOM     33  O   UNL     1     -27.705  33.025  -7.554  1.00  0.00    -0.393 OA
ATOM     34  H   UNL     1     -27.323  33.710  -8.160  1.00  0.00     0.210 HD
ENDBRANCH  14  33
TORSDOF 3
ENDMDL
