MODEL 1
REMARK VINA RESULT:    -3.556      0.000      0.000
REMARK INTER + INTRA:          -4.400
REMARK INTER:                  -4.076
REMARK INTRA:                  -0.324
REMARK UNBOUND:                -0.324
REMARK SMILES COC(=O)c1ccccc1O
REMARK SMILES IDX 5 1 6 2 7 3 8 4 9 5 10 6 3 7 4 8 2 9 1 10 11 11
REMARK H PARENT 11 12
REMARK Flexibility Score: inf
ROOT
ATOM      1  C   UNL     1     114.824 118.454 120.088  1.00  0.00     0.101 A 
ATOM      2  C   UNL     1     114.513 117.322 119.310  1.00  0.00     0.019 A 
ATOM      3  C   UNL     1     114.379 117.424 117.924  1.00  0.00     0.001 A 
ATOM      4  C   UNL     1     114.553 118.655 117.292  1.00  0.00     0.004 A 
ATOM      5  C   UNL     1     114.862 119.788 118.045  1.00  0.00     0.047 A 
ATOM      6  C   UNL     1     114.999 119.700 119.439  1.00  0.00     0.130 A 
ENDROOT
BRANCH   1   7
ATOM      7  C   UNL     1     114.960 118.307 121.560  1.00  0.00     0.341 C 
ATOM      8  O   UNL     1     114.218 118.962 122.342  1.00  0.00    -0.246 OA
BRANCH   7   9
ATOM      9  O   UNL     1     115.920 117.435 122.085  1.00  0.00    -0.465 OA
ATOM     10  C   UNL     1     117.313 117.583 121.835  1.00  0.00     0.282 C 
ENDBRANCH   7   9
ENDBRANCH   1   7
BRANCH   6  11
ATOM     11  O   UNL     1     115.309 120.849 120.168  1.00  0.00    -0.507 OA
ATOM     12  H   UNL     1     115.828 121.616 119.759  1.00  0.00     0.293 HD
ENDBRANCH   6  11
TORSDOF 3
ENDMDL
MODEL 2
REMARK VINA RESULT:    -3.551      3.389      4.048
REMARK INTER + INTRA:          -4.394
REMARK INTER:                  -4.071
REMARK INTRA:                  -0.323
REMARK UNBOUND:                -0.324
REMARK SMILES COC(=O)c1ccccc1O
REMARK SMILES IDX 5 1 6 2 7 3 8 4 9 5 10 6 3 7 4 8 2 9 1 10 11 11
REMARK H PARENT 11 12
REMARK Flexibility Score: inf
ROOT
ATOM      1  C   UNL     1     114.744 114.808 120.159  1.00  0.00     0.101 A 
ATOM      2  C   UNL     1     115.891 114.500 119.402  1.00  0.00     0.019 A 
ATOM      3  C   UNL     1     115.822 114.398 118.011  1.00  0.00     0.001 A 
ATOM      4  C   UNL     1     114.610 114.601 117.353  1.00  0.00     0.004 A 
ATOM      5  C   UNL     1     113.462 114.907 118.084  1.00  0.00     0.047 A 
ATOM      6  C   UNL     1     113.516 115.012 119.483  1.00  0.00     0.130 A 
ENDROOT
BRANCH   1   7
ATOM      7  C   UNL     1     114.855 114.908 121.636  1.00  0.00     0.341 C 
ATOM      8  O   UNL     1     114.114 114.215 122.385  1.00  0.00    -0.246 OA
BRANCH   7   9
ATOM      9  O   UNL     1     115.791 115.781 122.204  1.00  0.00    -0.465 OA
ATOM     10  C   UNL     1     115.609 117.191 122.232  1.00  0.00     0.282 C 
ENDBRANCH   7   9
ENDBRANCH   1   7
BRANCH   6  11
ATOM     11  O   UNL     1     112.353 115.319 120.190  1.00  0.00    -0.507 OA
ATOM     12  H   UNL     1     111.755 116.092 119.923  1.00  0.00     0.293 HD
ENDBRANCH   6  11
TORSDOF 3
ENDMDL
MODEL 3
REMARK VINA RESULT:    -3.543      3.248      4.064
REMARK INTER + INTRA:          -4.384
REMARK INTER:                  -4.060
REMARK INTRA:                  -0.325
REMARK UNBOUND:                -0.324
REMARK SMILES COC(=O)c1ccccc1O
REMARK SMILES IDX 5 1 6 2 7 3 8 4 9 5 10 6 3 7 4 8 2 9 1 10 11 11
REMARK H PARENT 11 12
REMARK Flexibility Score: inf
ROOT
ATOM      1  C   UNL     1     118.481 118.368 120.092  1.00  0.00     0.101 A 
ATOM      2  C   UNL     1     117.331 118.674 119.340  1.00  0.00     0.019 A 
ATOM      3  C   UNL     1     117.400 118.801 117.951  1.00  0.00     0.001 A 
ATOM      4  C   UNL     1     118.615 118.624 117.291  1.00  0.00     0.004 A 
ATOM      5  C   UNL     1     119.766 118.320 118.018  1.00  0.00     0.047 A 
ATOM      6  C   UNL     1     119.712 118.190 119.414  1.00  0.00     0.130 A 
ENDROOT
BRANCH   1   7
ATOM      7  C   UNL     1     118.370 118.241 121.568  1.00  0.00     0.341 C 
ATOM      8  O   UNL     1     119.052 118.979 122.330  1.00  0.00    -0.246 OA
BRANCH   7   9
ATOM      9  O   UNL     1     117.500 117.292 122.118  1.00  0.00    -0.465 OA
ATOM     10  C   UNL     1     117.632 115.896 121.877  1.00  0.00     0.282 C 
ENDBRANCH   7   9
ENDBRANCH   1   7
BRANCH   6  11
ATOM     11  O   UNL     1     120.878 117.885 120.118  1.00  0.00    -0.507 OA
ATOM     12  H   UNL     1     121.406 117.040 119.933  1.00  0.00     0.293 HD
ENDBRANCH   6  11
TORSDOF 3
ENDMDL
MODEL 4
REMARK VINA RESULT:    -3.525      4.286      5.730
REMARK INTER + INTRA:          -4.364
REMARK INTER:                  -4.045
REMARK INTRA:                  -0.319
REMARK UNBOUND:                -0.324
REMARK SMILES COC(=O)c1ccccc1O
REMARK SMILES IDX 5 1 6 2 7 3 8 4 9 5 10 6 3 7 4 8 2 9 1 10 11 11
REMARK H PARENT 11 12
REMARK Flexibility Score: inf
ROOT
ATOM      1  C   UNL     1     118.335 114.705 120.100  1.00  0.00     0.101 A 
ATOM      2  C   UNL     1     118.650 115.856 119.353  1.00  0.00     0.019 A 
ATOM      3  C   UNL     1     118.793 115.788 117.965  1.00  0.00     0.001 A 
ATOM      4  C   UNL     1     118.625 114.573 117.302  1.00  0.00     0.004 A 
ATOM      5  C   UNL     1     118.312 113.422 118.024  1.00  0.00     0.047 A 
ATOM      6  C   UNL     1     118.165 113.475 119.420  1.00  0.00     0.130 A 
ENDROOT
BRANCH   1   7
ATOM      7  C   UNL     1     118.190 114.815 121.574  1.00  0.00     0.341 C 
ATOM      8  O   UNL     1     118.962 114.182 122.345  1.00  0.00    -0.246 OA
BRANCH   7   9
ATOM      9  O   UNL     1     117.187 115.629 122.114  1.00  0.00    -0.465 OA
ATOM     10  C   UNL     1     115.810 115.469 121.793  1.00  0.00     0.282 C 
ENDBRANCH   7   9
ENDBRANCH   1   7
BRANCH   6  11
ATOM     11  O   UNL     1     117.852 112.309 120.118  1.00  0.00    -0.507 OA
ATOM     12  H   UNL     1     118.300 111.424 119.907  1.00  0.00     0.293 HD
ENDBRANCH   6  11
TORSDOF 3
ENDMDL
MODEL 5
REMARK VINA RESULT:    -3.390      2.525      3.893
REMARK INTER + INTRA:          -4.209
REMARK INTER:                  -3.888
REMARK INTRA:                  -0.320
REMARK UNBOUND:                -0.324
REMARK SMILES COC(=O)c1ccccc1O
REMARK SMILES IDX 5 1 6 2 7 3 8 4 9 5 10 6 3 7 4 8 2 9 1 10 11 11
REMARK H PARENT 11 12
REMARK Flexibility Score: inf
ROOT
ATOM      1  C   UNL     1     116.429 116.911 121.215  1.00  0.00     0.101 A 
ATOM      2  C   UNL     1     115.401 117.602 120.543  1.00  0.00     0.019 A 
ATOM      3  C   UNL     1     114.342 116.908 119.954  1.00  0.00     0.001 A 
ATOM      4  C   UNL     1     114.290 115.517 120.025  1.00  0.00     0.004 A 
ATOM      5  C   UNL     1     115.298 114.814 120.686  1.00  0.00     0.047 A 
ATOM      6  C   UNL     1     116.369 115.498 121.282  1.00  0.00     0.130 A 
ENDROOT
BRANCH   1   7
ATOM      7  C   UNL     1     117.539 117.682 121.829  1.00  0.00     0.341 C 
ATOM      8  O   UNL     1     117.765 117.608 123.068  1.00  0.00    -0.246 OA
BRANCH   7   9
ATOM      9  O   UNL     1     118.344 118.500 121.026  1.00  0.00    -0.465 OA
ATOM     10  C   UNL     1     119.060 118.007 119.901  1.00  0.00     0.282 C 
ENDBRANCH   7   9
ENDBRANCH   1   7
BRANCH   6  11
ATOM     11  O   UNL     1     117.364 114.771 121.937  1.00  0.00    -0.507 OA
ATOM     12  H   UNL     1     118.249 114.557 121.491  1.00  0.00     0.293 HD
ENDBRANCH   6  11
TORSDOF 3
ENDMDL
MODEL 6
REMARK VINA RESULT:    -3.387      1.193      2.172
REMARK INTER + INTRA:          -4.206
REMARK INTER:                  -3.865
REMARK INTRA:                  -0.341
REMARK UNBOUND:                -0.324
REMARK SMILES COC(=O)c1ccccc1O
REMARK SMILES IDX 5 1 6 2 7 3 8 4 9 5 10 6 3 7 4 8 2 9 1 10 11 11
REMARK H PARENT 11 12
REMARK Flexibility Score: inf
ROOT
ATOM      1  C   UNL     1     114.740 118.446 120.671  1.00  0.00     0.101 A 
ATOM      2  C   UNL     1     115.067 119.642 120.003  1.00  0.00     0.019 A 
ATOM      3  C   UNL     1     115.069 119.703 118.608  1.00  0.00     0.001 A 
ATOM      4  C   UNL     1     114.745 118.573 117.857  1.00  0.00     0.004 A 
ATOM      5  C   UNL     1     114.418 117.379 118.500  1.00  0.00     0.047 A 
ATOM      6  C   UNL     1     114.412 117.304 119.902  1.00  0.00     0.130 A 
ENDROOT
BRANCH   1   7
ATOM      7  C   UNL     1     114.748 118.419 122.156  1.00  0.00     0.341 C 
ATOM      8  O   UNL     1     114.010 119.199 122.818  1.00  0.00    -0.246 OA
BRANCH   7   9
ATOM      9  O   UNL     1     115.583 117.519 122.828  1.00  0.00    -0.465 OA
ATOM     10  C   UNL     1     116.990 117.472 122.620  1.00  0.00     0.282 C 
ENDBRANCH   7   9
ENDBRANCH   1   7
BRANCH   6  11
ATOM     11  O   UNL     1     114.081 116.097 120.519  1.00  0.00    -0.507 OA
ATOM     12  H   UNL     1     114.503 115.220 120.236  1.00  0.00     0.293 HD
ENDBRANCH   6  11
TORSDOF 3
ENDMDL
MODEL 7
REMARK VINA RESULT:    -3.384      3.844      5.321
REMARK INTER + INTRA:          -4.203
REMARK INTER:                  -3.865
REMARK INTRA:                  -0.337
REMARK UNBOUND:                -0.324
REMARK SMILES COC(=O)c1ccccc1O
REMARK SMILES IDX 5 1 6 2 7 3 8 4 9 5 10 6 3 7 4 8 2 9 1 10 11 11
REMARK H PARENT 11 12
REMARK Flexibility Score: inf
ROOT
ATOM      1  C   UNL     1     118.842 116.265 119.481  1.00  0.00     0.101 A 
ATOM      2  C   UNL     1     118.858 115.841 118.138  1.00  0.00     0.019 A 
ATOM      3  C   UNL     1     118.501 114.533 117.799  1.00  0.00     0.001 A 
ATOM      4  C   UNL     1     118.124 113.630 118.792  1.00  0.00     0.004 A 
ATOM      5  C   UNL     1     118.102 114.031 120.127  1.00  0.00     0.047 A 
ATOM      6  C   UNL     1     118.458 115.341 120.483  1.00  0.00     0.130 A 
ENDROOT
BRANCH   1   7
ATOM      7  C   UNL     1     119.227 117.662 119.804  1.00  0.00     0.341 C 
ATOM      8  O   UNL     1     120.371 118.100 119.504  1.00  0.00    -0.246 OA
BRANCH   7   9
ATOM      9  O   UNL     1     118.311 118.502 120.449  1.00  0.00    -0.465 OA
ATOM     10  C   UNL     1     117.039 118.820 119.897  1.00  0.00     0.282 C 
ENDBRANCH   7   9
ENDBRANCH   1   7
BRANCH   6  11
ATOM     11  O   UNL     1     118.428 115.716 121.827  1.00  0.00    -0.507 OA
ATOM     12  H   UNL     1     118.989 116.483 122.179  1.00  0.00     0.293 HD
ENDBRANCH   6  11
TORSDOF 3
ENDMDL
MODEL 8
REMARK VINA RESULT:    -3.369      2.366      3.643
REMARK INTER + INTRA:          -4.184
REMARK INTER:                  -3.840
REMARK INTRA:                  -0.344
REMARK UNBOUND:                -0.324
REMARK SMILES COC(=O)c1ccccc1O
REMARK SMILES IDX 5 1 6 2 7 3 8 4 9 5 10 6 3 7 4 8 2 9 1 10 11 11
REMARK H PARENT 11 12
REMARK Flexibility Score: inf
ROOT
ATOM      1  C   UNL     1     116.957 118.864 119.508  1.00  0.00     0.101 A 
ATOM      2  C   UNL     1     117.359 118.870 118.158  1.00  0.00     0.019 A 
ATOM      3  C   UNL     1     118.656 118.493 117.799  1.00  0.00     0.001 A 
ATOM      4  C   UNL     1     119.570 118.107 118.778  1.00  0.00     0.004 A 
ATOM      5  C   UNL     1     119.191 118.095 120.120  1.00  0.00     0.047 A 
ATOM      6  C   UNL     1     117.892 118.470 120.496  1.00  0.00     0.130 A 
ENDROOT
BRANCH   1   7
ATOM      7  C   UNL     1     115.571 119.270 119.853  1.00  0.00     0.341 C 
ATOM      8  O   UNL     1     115.137 120.411 119.534  1.00  0.00    -0.246 OA
BRANCH   7   9
ATOM      9  O   UNL     1     114.738 118.379 120.539  1.00  0.00    -0.465 OA
ATOM     10  C   UNL     1     114.420 117.085 120.040  1.00  0.00     0.282 C 
ENDBRANCH   7   9
ENDBRANCH   1   7
BRANCH   6  11
ATOM     11  O   UNL     1     117.538 118.449 121.846  1.00  0.00    -0.507 OA
ATOM     12  H   UNL     1     116.593 118.241 122.146  1.00  0.00     0.293 HD
ENDBRANCH   6  11
TORSDOF 3
ENDMDL
MODEL 9
REMARK VINA RESULT:    -3.362      3.578      4.235
REMARK INTER + INTRA:          -4.176
REMARK INTER:                  -3.843
REMARK INTRA:                  -0.334
REMARK UNBOUND:                -0.324
REMARK SMILES COC(=O)c1ccccc1O
REMARK SMILES IDX 5 1 6 2 7 3 8 4 9 5 10 6 3 7 4 8 2 9 1 10 11 11
REMARK H PARENT 11 12
REMARK Flexibility Score: inf
ROOT
ATOM      1  C   UNL     1     114.751 114.752 120.707  1.00  0.00     0.101 A 
ATOM      2  C   UNL     1     113.569 115.136 120.045  1.00  0.00     0.019 A 
ATOM      3  C   UNL     1     113.507 115.156 118.649  1.00  0.00     0.001 A 
ATOM      4  C   UNL     1     114.622 114.793 117.894  1.00  0.00     0.004 A 
ATOM      5  C   UNL     1     115.802 114.409 118.531  1.00  0.00     0.047 A 
ATOM      6  C   UNL     1     115.878 114.385 119.932  1.00  0.00     0.130 A 
ENDROOT
BRANCH   1   7
ATOM      7  C   UNL     1     114.780 114.743 122.192  1.00  0.00     0.341 C 
ATOM      8  O   UNL     1     113.994 114.005 122.846  1.00  0.00    -0.246 OA
BRANCH   7   9
ATOM      9  O   UNL     1     115.690 115.561 122.872  1.00  0.00    -0.465 OA
ATOM     10  C   UNL     1     115.729 116.973 122.705  1.00  0.00     0.282 C 
ENDBRANCH   7   9
ENDBRANCH   1   7
BRANCH   6  11
ATOM     11  O   UNL     1     117.071 113.998 120.544  1.00  0.00    -0.507 OA
ATOM     12  H   UNL     1     117.484 113.087 120.378  1.00  0.00     0.293 HD
ENDBRANCH   6  11
TORSDOF 3
ENDMDL
