MODEL 1
REMARK VINA RESULT:    -4.115      0.000      0.000
REMARK INTER + INTRA:          -6.182
REMARK INTER:                  -5.558
REMARK INTRA:                  -0.624
REMARK UNBOUND:                -0.624
REMARK SMILES CCCCCCCC(=O)[O-]
REMARK SMILES IDX 5 1 6 2 7 3 8 4 9 5 10 6 4 7 3 8 2 9 1 10
REMARK H PARENT
REMARK Flexibility Score: inf
ROOT
ATOM      1  C   UNL     1      24.112  -6.221 -36.859  1.00  0.00     0.000 C 
ENDROOT
BRANCH   1   2
ATOM      2  C   UNL     1      22.714  -6.839 -37.037  1.00  0.00     0.006 C 
BRANCH   2   3
ATOM      3  C   UNL     1      21.804  -6.009 -37.952  1.00  0.00     0.053 C 
BRANCH   3   4
ATOM      4  C   UNL     1      21.978  -6.426 -39.378  1.00  0.00     0.041 C 
ATOM      5  O   UNL     1      21.773  -7.622 -39.717  1.00  0.00    -0.550 OA
ATOM      6  O   UNL     1      22.318  -5.486 -40.341  1.00  0.00    -0.550 OA
ENDBRANCH   3   4
ENDBRANCH   2   3
ENDBRANCH   1   2
BRANCH   1   7
ATOM      7  C   UNL     1      25.283  -7.130 -37.276  1.00  0.00     0.000 C 
BRANCH   7   8
ATOM      8  C   UNL     1      25.708  -6.925 -38.739  1.00  0.00    -0.000 C 
BRANCH   8   9
ATOM      9  C   UNL     1      25.314  -8.132 -39.598  1.00  0.00    -0.003 C 
ATOM     10  C   UNL     1      24.901  -9.316 -38.730  1.00  0.00     0.004 C 
ENDBRANCH   8   9
ENDBRANCH   7   8
ENDBRANCH   1   7
TORSDOF 6
ENDMDL
MODEL 2
REMARK VINA RESULT:    -4.016      2.411      4.629
REMARK INTER + INTRA:          -6.048
REMARK INTER:                  -5.786
REMARK INTRA:                  -0.262
REMARK UNBOUND:                -0.624
REMARK SMILES CCCCCCCC(=O)[O-]
REMARK SMILES IDX 5 1 6 2 7 3 8 4 9 5 10 6 4 7 3 8 2 9 1 10
REMARK H PARENT
REMARK Flexibility Score: inf
ROOT
ATOM      1  C   UNL     1      21.340  -5.231 -37.194  1.00  0.00     0.000 C 
ENDROOT
BRANCH   1   2
ATOM      2  C   UNL     1      22.627  -6.075 -37.195  1.00  0.00     0.006 C 
BRANCH   2   3
ATOM      3  C   UNL     1      22.366  -7.564 -37.454  1.00  0.00     0.053 C 
BRANCH   3   4
ATOM      4  C   UNL     1      22.651  -7.903 -38.882  1.00  0.00     0.041 C 
ATOM      5  O   UNL     1      23.670  -8.581 -39.181  1.00  0.00    -0.550 OA
ATOM      6  O   UNL     1      21.768  -7.513 -39.880  1.00  0.00    -0.550 OA
ENDBRANCH   3   4
ENDBRANCH   2   3
ENDBRANCH   1   2
BRANCH   1   7
ATOM      7  C   UNL     1      21.496  -3.806 -36.629  1.00  0.00     0.000 C 
BRANCH   7   8
ATOM      8  C   UNL     1      21.157  -2.715 -37.657  1.00  0.00    -0.000 C 
BRANCH   8   9
ATOM      9  C   UNL     1      20.503  -3.321 -38.904  1.00  0.00    -0.003 C 
ATOM     10  C   UNL     1      19.153  -2.672 -39.190  1.00  0.00     0.004 C 
ENDBRANCH   8   9
ENDBRANCH   7   8
ENDBRANCH   1   7
TORSDOF 6
ENDMDL
MODEL 3
REMARK VINA RESULT:    -3.995      2.079      3.668
REMARK INTER + INTRA:          -6.019
REMARK INTER:                  -5.483
REMARK INTRA:                  -0.536
REMARK UNBOUND:                -0.624
REMARK SMILES CCCCCCCC(=O)[O-]
REMARK SMILES IDX 5 1 6 2 7 3 8 4 9 5 10 6 4 7 3 8 2 9 1 10
REMARK H PARENT
REMARK Flexibility Score: inf
ROOT
ATOM      1  C   UNL     1      22.377  -7.057 -37.259  1.00  0.00     0.000 C 
ENDROOT
BRANCH   1   2
ATOM      2  C   UNL     1      22.757  -7.540 -38.670  1.00  0.00     0.006 C 
BRANCH   2   3
ATOM      3  C   UNL     1      21.984  -6.814 -39.779  1.00  0.00     0.053 C 
BRANCH   3   4
ATOM      4  C   UNL     1      22.543  -5.444 -39.994  1.00  0.00     0.041 C 
ATOM      5  O   UNL     1      23.790  -5.264 -40.013  1.00  0.00    -0.550 OA
ATOM      6  O   UNL     1      21.690  -4.372 -40.221  1.00  0.00    -0.550 OA
ENDBRANCH   3   4
ENDBRANCH   2   3
ENDBRANCH   1   2
BRANCH   1   7
ATOM      7  C   UNL     1      23.522  -6.403 -36.464  1.00  0.00     0.000 C 
BRANCH   7   8
ATOM      8  C   UNL     1      23.440  -4.868 -36.450  1.00  0.00    -0.000 C 
BRANCH   8   9
ATOM      9  C   UNL     1      21.981  -4.398 -36.456  1.00  0.00    -0.003 C 
ATOM     10  C   UNL     1      21.714  -3.413 -35.322  1.00  0.00     0.004 C 
ENDBRANCH   8   9
ENDBRANCH   7   8
ENDBRANCH   1   7
TORSDOF 6
ENDMDL
MODEL 4
REMARK VINA RESULT:    -3.966      1.491      2.256
REMARK INTER + INTRA:          -5.980
REMARK INTER:                  -5.339
REMARK INTRA:                  -0.642
REMARK UNBOUND:                -0.624
REMARK SMILES CCCCCCCC(=O)[O-]
REMARK SMILES IDX 5 1 6 2 7 3 8 4 9 5 10 6 4 7 3 8 2 9 1 10
REMARK H PARENT
REMARK Flexibility Score: inf
ROOT
ATOM      1  C   UNL     1      22.594  -5.350 -36.820  1.00  0.00     0.000 C 
ENDROOT
BRANCH   1   2
ATOM      2  C   UNL     1      21.236  -5.244 -37.537  1.00  0.00     0.006 C 
BRANCH   2   3
ATOM      3  C   UNL     1      21.232  -4.203 -38.663  1.00  0.00     0.053 C 
BRANCH   3   4
ATOM      4  C   UNL     1      22.227  -4.571 -39.718  1.00  0.00     0.041 C 
ATOM      5  O   UNL     1      21.989  -5.521 -40.509  1.00  0.00    -0.550 OA
ATOM      6  O   UNL     1      23.397  -3.836 -39.858  1.00  0.00    -0.550 OA
ENDBRANCH   3   4
ENDBRANCH   2   3
ENDBRANCH   1   2
BRANCH   1   7
ATOM      7  C   UNL     1      23.263  -6.735 -36.895  1.00  0.00     0.000 C 
BRANCH   7   8
ATOM      8  C   UNL     1      22.387  -7.786 -37.594  1.00  0.00    -0.000 C 
BRANCH   8   9
ATOM      9  C   UNL     1      23.122  -8.405 -38.789  1.00  0.00    -0.003 C 
ATOM     10  C   UNL     1      24.447  -7.697 -39.048  1.00  0.00     0.004 C 
ENDBRANCH   8   9
ENDBRANCH   7   8
ENDBRANCH   1   7
TORSDOF 6
ENDMDL
MODEL 5
REMARK VINA RESULT:    -3.960      2.200      3.046
REMARK INTER + INTRA:          -5.973
REMARK INTER:                  -5.547
REMARK INTRA:                  -0.426
REMARK UNBOUND:                -0.624
REMARK SMILES CCCCCCCC(=O)[O-]
REMARK SMILES IDX 5 1 6 2 7 3 8 4 9 5 10 6 4 7 3 8 2 9 1 10
REMARK H PARENT
REMARK Flexibility Score: inf
ROOT
ATOM      1  C   UNL     1      22.931  -5.093 -36.534  1.00  0.00     0.000 C 
ENDROOT
BRANCH   1   2
ATOM      2  C   UNL     1      21.462  -4.889 -36.947  1.00  0.00     0.006 C 
BRANCH   2   3
ATOM      3  C   UNL     1      21.174  -3.468 -37.450  1.00  0.00     0.053 C 
BRANCH   3   4
ATOM      4  C   UNL     1      20.731  -3.499 -38.878  1.00  0.00     0.041 C 
ATOM      5  O   UNL     1      21.534  -3.851 -39.782  1.00  0.00    -0.550 OA
ATOM      6  O   UNL     1      19.418  -3.186 -39.206  1.00  0.00    -0.550 OA
ENDBRANCH   3   4
ENDBRANCH   2   3
ENDBRANCH   1   2
BRANCH   1   7
ATOM      7  C   UNL     1      23.502  -6.492 -36.831  1.00  0.00     0.000 C 
BRANCH   7   8
ATOM      8  C   UNL     1      22.426  -7.497 -37.271  1.00  0.00    -0.000 C 
BRANCH   8   9
ATOM      9  C   UNL     1      22.756  -8.087 -38.647  1.00  0.00    -0.003 C 
ATOM     10  C   UNL     1      21.957  -7.398 -39.748  1.00  0.00     0.004 C 
ENDBRANCH   8   9
ENDBRANCH   7   8
ENDBRANCH   1   7
TORSDOF 6
ENDMDL
MODEL 6
REMARK VINA RESULT:    -3.956      1.995      4.012
REMARK INTER + INTRA:          -5.968
REMARK INTER:                  -5.472
REMARK INTRA:                  -0.496
REMARK UNBOUND:                -0.624
REMARK SMILES CCCCCCCC(=O)[O-]
REMARK SMILES IDX 5 1 6 2 7 3 8 4 9 5 10 6 4 7 3 8 2 9 1 10
REMARK H PARENT
REMARK Flexibility Score: inf
ROOT
ATOM      1  C   UNL     1      23.123  -4.908 -36.470  1.00  0.00     0.000 C 
ENDROOT
BRANCH   1   2
ATOM      2  C   UNL     1      23.530  -6.340 -36.862  1.00  0.00     0.006 C 
BRANCH   2   3
ATOM      3  C   UNL     1      22.333  -7.219 -37.247  1.00  0.00     0.053 C 
BRANCH   3   4
ATOM      4  C   UNL     1      22.572  -7.879 -38.567  1.00  0.00     0.041 C 
ATOM      5  O   UNL     1      21.878  -7.559 -39.569  1.00  0.00    -0.550 OA
ATOM      6  O   UNL     1      23.591  -8.811 -38.704  1.00  0.00    -0.550 OA
ENDBRANCH   3   4
ENDBRANCH   2   3
ENDBRANCH   1   2
BRANCH   1   7
ATOM      7  C   UNL     1      21.616  -4.610 -36.567  1.00  0.00     0.000 C 
BRANCH   7   8
ATOM      8  C   UNL     1      21.306  -3.355 -37.398  1.00  0.00    -0.000 C 
BRANCH   8   9
ATOM      9  C   UNL     1      20.599  -3.724 -38.707  1.00  0.00    -0.003 C 
ATOM     10  C   UNL     1      21.605  -4.051 -39.805  1.00  0.00     0.004 C 
ENDBRANCH   8   9
ENDBRANCH   7   8
ENDBRANCH   1   7
TORSDOF 6
ENDMDL
MODEL 7
REMARK VINA RESULT:    -3.953      1.853      2.660
REMARK INTER + INTRA:          -5.963
REMARK INTER:                  -5.413
REMARK INTRA:                  -0.550
REMARK UNBOUND:                -0.624
REMARK SMILES CCCCCCCC(=O)[O-]
REMARK SMILES IDX 5 1 6 2 7 3 8 4 9 5 10 6 4 7 3 8 2 9 1 10
REMARK H PARENT
REMARK Flexibility Score: inf
ROOT
ATOM      1  C   UNL     1      23.573  -6.412 -36.567  1.00  0.00     0.000 C 
ENDROOT
BRANCH   1   2
ATOM      2  C   UNL     1      23.901  -4.980 -37.024  1.00  0.00     0.006 C 
BRANCH   2   3
ATOM      3  C   UNL     1      24.850  -4.938 -38.228  1.00  0.00     0.053 C 
BRANCH   3   4
ATOM      4  C   UNL     1      24.171  -4.320 -39.408  1.00  0.00     0.041 C 
ATOM      5  O   UNL     1      23.166  -4.878 -39.924  1.00  0.00    -0.550 OA
ATOM      6  O   UNL     1      24.617  -3.105 -39.910  1.00  0.00    -0.550 OA
ENDBRANCH   3   4
ENDBRANCH   2   3
ENDBRANCH   1   2
BRANCH   1   7
ATOM      7  C   UNL     1      22.341  -7.045 -37.241  1.00  0.00     0.000 C 
BRANCH   7   8
ATOM      8  C   UNL     1      22.627  -8.439 -37.821  1.00  0.00    -0.000 C 
BRANCH   8   9
ATOM      9  C   UNL     1      23.483  -8.340 -39.089  1.00  0.00    -0.003 C 
ATOM     10  C   UNL     1      24.825  -9.041 -38.904  1.00  0.00     0.004 C 
ENDBRANCH   8   9
ENDBRANCH   7   8
ENDBRANCH   1   7
TORSDOF 6
ENDMDL
MODEL 8
REMARK VINA RESULT:    -3.925      1.971      3.527
REMARK INTER + INTRA:          -5.925
REMARK INTER:                  -5.445
REMARK INTRA:                  -0.480
REMARK UNBOUND:                -0.624
REMARK SMILES CCCCCCCC(=O)[O-]
REMARK SMILES IDX 5 1 6 2 7 3 8 4 9 5 10 6 4 7 3 8 2 9 1 10
REMARK H PARENT
REMARK Flexibility Score: inf
ROOT
ATOM      1  C   UNL     1      23.042  -5.187 -36.500  1.00  0.00     0.000 C 
ENDROOT
BRANCH   1   2
ATOM      2  C   UNL     1      23.498  -6.610 -36.868  1.00  0.00     0.006 C 
BRANCH   2   3
ATOM      3  C   UNL     1      22.353  -7.493 -37.379  1.00  0.00     0.053 C 
BRANCH   3   4
ATOM      4  C   UNL     1      22.622  -7.938 -38.781  1.00  0.00     0.041 C 
ATOM      5  O   UNL     1      23.597  -8.697 -39.029  1.00  0.00    -0.550 OA
ATOM      6  O   UNL     1      21.769  -7.555 -39.808  1.00  0.00    -0.550 OA
ENDBRANCH   3   4
ENDBRANCH   2   3
ENDBRANCH   1   2
BRANCH   1   7
ATOM      7  C   UNL     1      21.704  -4.750 -37.127  1.00  0.00     0.000 C 
BRANCH   7   8
ATOM      8  C   UNL     1      21.861  -3.591 -38.124  1.00  0.00    -0.000 C 
BRANCH   8   9
ATOM      9  C   UNL     1      22.582  -4.055 -39.395  1.00  0.00    -0.003 C 
ATOM     10  C   UNL     1      23.945  -3.384 -39.531  1.00  0.00     0.004 C 
ENDBRANCH   8   9
ENDBRANCH   7   8
ENDBRANCH   1   7
TORSDOF 6
ENDMDL
MODEL 9
REMARK VINA RESULT:    -3.892      1.966      2.718
REMARK INTER + INTRA:          -5.880
REMARK INTER:                  -5.424
REMARK INTRA:                  -0.456
REMARK UNBOUND:                -0.624
REMARK SMILES CCCCCCCC(=O)[O-]
REMARK SMILES IDX 5 1 6 2 7 3 8 4 9 5 10 6 4 7 3 8 2 9 1 10
REMARK H PARENT
REMARK Flexibility Score: inf
ROOT
ATOM      1  C   UNL     1      22.955  -7.911 -38.609  1.00  0.00     0.000 C 
ENDROOT
BRANCH   1   2
ATOM      2  C   UNL     1      22.396  -7.424 -37.260  1.00  0.00     0.006 C 
BRANCH   2   3
ATOM      3  C   UNL     1      22.960  -6.063 -36.833  1.00  0.00     0.053 C 
BRANCH   3   4
ATOM      4  C   UNL     1      21.892  -5.017 -36.880  1.00  0.00     0.041 C 
ATOM      5  O   UNL     1      21.957  -4.013 -36.123  1.00  0.00    -0.550 OA
ATOM      6  O   UNL     1      20.851  -5.126 -37.792  1.00  0.00    -0.550 OA
ENDBRANCH   3   4
ENDBRANCH   2   3
ENDBRANCH   1   2
BRANCH   1   7
ATOM      7  C   UNL     1      24.032  -9.007 -38.509  1.00  0.00     0.000 C 
BRANCH   7   8
ATOM      8  C   UNL     1      25.278  -8.699 -39.354  1.00  0.00    -0.000 C 
BRANCH   8   9
ATOM      9  C   UNL     1      25.582  -7.196 -39.357  1.00  0.00    -0.003 C 
ATOM     10  C   UNL     1      26.594  -6.836 -38.275  1.00  0.00     0.004 C 
ENDBRANCH   8   9
ENDBRANCH   7   8
ENDBRANCH   1   7
TORSDOF 6
ENDMDL
