MODEL 1
REMARK VINA RESULT:    -4.287      0.000      0.000
REMARK INTER + INTRA:          -9.268
REMARK INTER:                  -7.796
REMARK INTRA:                  -1.471
REMARK UNBOUND:                -1.471
REMARK SMILES CCCCCCCCCCCCCC[C@H](C)C(=O)[O-]
REMARK SMILES IDX 9 1 10 2 11 3 12 4 13 5 14 6 15 7 16 8 17 9 18 10 19 11 8 12
REMARK SMILES IDX 7 13 6 14 5 15 4 16 3 17 2 18 1 19
REMARK H PARENT
REMARK Flexibility Score: inf
ROOT
ATOM      1  C   UNL     1      13.942  21.107 -19.431  1.00  0.00     0.000 C 
ENDROOT
BRANCH   1   2
ATOM      2  C   UNL     1      13.963  22.600 -19.799  1.00  0.00     0.000 C 
BRANCH   2   3
ATOM      3  C   UNL     1      12.699  23.039 -20.562  1.00  0.00     0.000 C 
BRANCH   3   4
ATOM      4  C   UNL     1      11.989  21.857 -21.247  1.00  0.00     0.000 C 
BRANCH   4   5
ATOM      5  C   UNL     1      11.943  21.976 -22.783  1.00  0.00     0.001 C 
BRANCH   5   6
ATOM      6  C   UNL     1      13.304  21.686 -23.457  1.00  0.00     0.009 C 
BRANCH   6   7
ATOM      7  C   UNL     1      13.600  22.598 -24.668  1.00  0.00     0.032 C 
ATOM      8  C   UNL     1      12.883  23.951 -24.568  1.00  0.00     0.014 C 
BRANCH   7   9
ATOM      9  C   UNL     1      13.205  21.905 -25.944  1.00  0.00     0.044 C 
ATOM     10  O   UNL     1      12.880  20.687 -25.937  1.00  0.00    -0.550 OA
ATOM     11  O   UNL     1      13.195  22.609 -27.141  1.00  0.00    -0.550 OA
ENDBRANCH   7   9
ENDBRANCH   6   7
ENDBRANCH   5   6
ENDBRANCH   4   5
ENDBRANCH   3   4
ENDBRANCH   2   3
ENDBRANCH   1   2
BRANCH   1  12
ATOM     12  C   UNL     1      14.841  20.782 -18.225  1.00  0.00     0.000 C 
BRANCH  12  13
ATOM     13  C   UNL     1      16.327  20.657 -18.604  1.00  0.00    -0.000 C 
BRANCH  13  14
ATOM     14  C   UNL     1      17.307  20.602 -17.414  1.00  0.00    -0.000 C 
BRANCH  14  15
ATOM     15  C   UNL     1      17.286  19.286 -16.612  1.00  0.00    -0.000 C 
BRANCH  15  16
ATOM     16  C   UNL     1      17.474  18.008 -17.455  1.00  0.00    -0.000 C 
BRANCH  16  17
ATOM     17  C   UNL     1      16.279  17.033 -17.440  1.00  0.00    -0.000 C 
BRANCH  17  18
ATOM     18  C   UNL     1      15.521  16.917 -18.774  1.00  0.00    -0.003 C 
ATOM     19  C   UNL     1      16.383  17.279 -19.982  1.00  0.00     0.004 C 
ENDBRANCH  17  18
ENDBRANCH  16  17
ENDBRANCH  15  16
ENDBRANCH  14  15
ENDBRANCH  13  14
ENDBRANCH  12  13
ENDBRANCH   1  12
TORSDOF 14
ENDMDL
MODEL 2
REMARK VINA RESULT:    -4.238      1.413      2.148
REMARK INTER + INTRA:          -9.177
REMARK INTER:                  -7.467
REMARK INTRA:                  -1.710
REMARK UNBOUND:                -1.471
REMARK SMILES CCCCCCCCCCCCCC[C@H](C)C(=O)[O-]
REMARK SMILES IDX 9 1 10 2 11 3 12 4 13 5 14 6 15 7 16 8 17 9 18 10 19 11 8 12
REMARK SMILES IDX 7 13 6 14 5 15 4 16 3 17 2 18 1 19
REMARK H PARENT
REMARK Flexibility Score: inf
ROOT
ATOM      1  C   UNL     1      14.446  21.587 -18.942  1.00  0.00     0.000 C 
ENDROOT
BRANCH   1   2
ATOM      2  C   UNL     1      12.966  21.702 -18.544  1.00  0.00     0.000 C 
BRANCH   2   3
ATOM      3  C   UNL     1      12.035  21.868 -19.760  1.00  0.00     0.000 C 
BRANCH   3   4
ATOM      4  C   UNL     1      12.655  22.760 -20.852  1.00  0.00     0.000 C 
BRANCH   4   5
ATOM      5  C   UNL     1      12.264  22.337 -22.282  1.00  0.00     0.001 C 
BRANCH   5   6
ATOM      6  C   UNL     1      13.480  21.951 -23.156  1.00  0.00     0.009 C 
BRANCH   6   7
ATOM      7  C   UNL     1      13.598  22.785 -24.452  1.00  0.00     0.032 C 
ATOM      8  C   UNL     1      12.703  24.031 -24.427  1.00  0.00     0.014 C 
BRANCH   7   9
ATOM      9  C   UNL     1      13.254  21.935 -25.645  1.00  0.00     0.044 C 
ATOM     10  O   UNL     1      12.896  20.735 -25.495  1.00  0.00    -0.550 OA
ATOM     11  O   UNL     1      13.329  22.472 -26.923  1.00  0.00    -0.550 OA
ENDBRANCH   7   9
ENDBRANCH   6   7
ENDBRANCH   5   6
ENDBRANCH   4   5
ENDBRANCH   3   4
ENDBRANCH   2   3
ENDBRANCH   1   2
BRANCH   1  12
ATOM     12  C   UNL     1      15.274  20.787 -17.921  1.00  0.00     0.000 C 
BRANCH  12  13
ATOM     13  C   UNL     1      16.307  19.859 -18.584  1.00  0.00    -0.000 C 
BRANCH  13  14
ATOM     14  C   UNL     1      16.116  18.355 -18.302  1.00  0.00    -0.000 C 
BRANCH  14  15
ATOM     15  C   UNL     1      16.458  17.422 -19.481  1.00  0.00    -0.000 C 
BRANCH  15  16
ATOM     16  C   UNL     1      15.408  17.390 -20.609  1.00  0.00    -0.000 C 
BRANCH  16  17
ATOM     17  C   UNL     1      13.997  17.860 -20.202  1.00  0.00    -0.000 C 
BRANCH  17  18
ATOM     18  C   UNL     1      13.246  18.663 -21.280  1.00  0.00    -0.003 C 
ATOM     19  C   UNL     1      13.804  18.441 -22.685  1.00  0.00     0.004 C 
ENDBRANCH  17  18
ENDBRANCH  16  17
ENDBRANCH  15  16
ENDBRANCH  14  15
ENDBRANCH  13  14
ENDBRANCH  12  13
ENDBRANCH   1  12
TORSDOF 14
ENDMDL
MODEL 3
REMARK VINA RESULT:    -4.151      1.607      2.537
REMARK INTER + INTRA:          -9.020
REMARK INTER:                  -7.363
REMARK INTRA:                  -1.657
REMARK UNBOUND:                -1.471
REMARK SMILES CCCCCCCCCCCCCC[C@H](C)C(=O)[O-]
REMARK SMILES IDX 9 1 10 2 11 3 12 4 13 5 14 6 15 7 16 8 17 9 18 10 19 11 8 12
REMARK SMILES IDX 7 13 6 14 5 15 4 16 3 17 2 18 1 19
REMARK H PARENT
REMARK Flexibility Score: inf
ROOT
ATOM      1  C   UNL     1      12.590  21.562 -18.864  1.00  0.00     0.000 C 
ENDROOT
BRANCH   1   2
ATOM      2  C   UNL     1      12.174  22.749 -19.747  1.00  0.00     0.000 C 
BRANCH   2   3
ATOM      3  C   UNL     1      13.223  23.083 -20.824  1.00  0.00     0.000 C 
BRANCH   3   4
ATOM      4  C   UNL     1      12.648  22.985 -22.250  1.00  0.00     0.000 C 
BRANCH   4   5
ATOM      5  C   UNL     1      13.237  21.821 -23.071  1.00  0.00     0.001 C 
BRANCH   5   6
ATOM      6  C   UNL     1      12.185  20.757 -23.460  1.00  0.00     0.009 C 
BRANCH   6   7
ATOM      7  C   UNL     1      12.685  19.304 -23.286  1.00  0.00     0.032 C 
ATOM      8  C   UNL     1      13.952  19.222 -22.424  1.00  0.00     0.014 C 
BRANCH   7   9
ATOM      9  C   UNL     1      12.943  18.684 -24.633  1.00  0.00     0.044 C 
ATOM     10  O   UNL     1      12.802  19.361 -25.687  1.00  0.00    -0.550 OA
ATOM     11  O   UNL     1      13.342  17.357 -24.719  1.00  0.00    -0.550 OA
ENDBRANCH   7   9
ENDBRANCH   6   7
ENDBRANCH   5   6
ENDBRANCH   4   5
ENDBRANCH   3   4
ENDBRANCH   2   3
ENDBRANCH   1   2
BRANCH   1  12
ATOM     12  C   UNL     1      14.008  21.054 -19.183  1.00  0.00     0.000 C 
BRANCH  12  13
ATOM     13  C   UNL     1      14.952  21.116 -17.969  1.00  0.00    -0.000 C 
BRANCH  13  14
ATOM     14  C   UNL     1      16.384  21.599 -18.275  1.00  0.00    -0.000 C 
BRANCH  14  15
ATOM     15  C   UNL     1      17.506  20.776 -17.609  1.00  0.00    -0.000 C 
BRANCH  15  16
ATOM     16  C   UNL     1      17.019  19.592 -16.749  1.00  0.00    -0.000 C 
BRANCH  16  17
ATOM     17  C   UNL     1      17.591  18.216 -17.148  1.00  0.00    -0.000 C 
BRANCH  17  18
ATOM     18  C   UNL     1      16.553  17.211 -17.676  1.00  0.00    -0.003 C 
ATOM     19  C   UNL     1      15.780  17.733 -18.886  1.00  0.00     0.004 C 
ENDBRANCH  17  18
ENDBRANCH  16  17
ENDBRANCH  15  16
ENDBRANCH  14  15
ENDBRANCH  13  14
ENDBRANCH  12  13
ENDBRANCH   1  12
TORSDOF 14
ENDMDL
MODEL 4
REMARK VINA RESULT:    -4.117      2.967      5.481
REMARK INTER + INTRA:          -8.957
REMARK INTER:                  -7.116
REMARK INTRA:                  -1.841
REMARK UNBOUND:                -1.471
REMARK SMILES CCCCCCCCCCCCCC[C@H](C)C(=O)[O-]
REMARK SMILES IDX 9 1 10 2 11 3 12 4 13 5 14 6 15 7 16 8 17 9 18 10 19 11 8 12
REMARK SMILES IDX 7 13 6 14 5 15 4 16 3 17 2 18 1 19
REMARK H PARENT
REMARK Flexibility Score: inf
ROOT
ATOM      1  C   UNL     1      16.855  17.253 -16.014  1.00  0.00     0.000 C 
ENDROOT
BRANCH   1   2
ATOM      2  C   UNL     1      16.743  18.119 -17.279  1.00  0.00     0.000 C 
BRANCH   2   3
ATOM      3  C   UNL     1      17.013  19.610 -17.003  1.00  0.00     0.000 C 
BRANCH   3   4
ATOM      4  C   UNL     1      15.897  20.518 -17.555  1.00  0.00     0.000 C 
BRANCH   4   5
ATOM      5  C   UNL     1      15.541  20.225 -19.026  1.00  0.00     0.001 C 
BRANCH   5   6
ATOM      6  C   UNL     1      14.034  20.387 -19.331  1.00  0.00     0.009 C 
BRANCH   6   7
ATOM      7  C   UNL     1      13.510  21.824 -19.108  1.00  0.00     0.032 C 
ATOM      8  C   UNL     1      12.288  21.863 -18.182  1.00  0.00     0.014 C 
BRANCH   7   9
ATOM      9  C   UNL     1      13.169  22.459 -20.429  1.00  0.00     0.044 C 
ATOM     10  O   UNL     1      12.434  23.482 -20.477  1.00  0.00    -0.550 OA
ATOM     11  O   UNL     1      13.667  21.917 -21.607  1.00  0.00    -0.550 OA
ENDBRANCH   7   9
ENDBRANCH   6   7
ENDBRANCH   5   6
ENDBRANCH   4   5
ENDBRANCH   3   4
ENDBRANCH   2   3
ENDBRANCH   1   2
BRANCH   1  12
ATOM     12  C   UNL     1      16.981  18.093 -14.730  1.00  0.00     0.000 C 
BRANCH  12  13
ATOM     13  C   UNL     1      17.669  17.332 -13.584  1.00  0.00    -0.000 C 
BRANCH  13  14
ATOM     14  C   UNL     1      19.037  17.897 -13.147  1.00  0.00    -0.000 C 
BRANCH  14  15
ATOM     15  C   UNL     1      19.378  19.289 -13.713  1.00  0.00    -0.000 C 
BRANCH  15  16
ATOM     16  C   UNL     1      20.641  19.339 -14.597  1.00  0.00    -0.000 C 
BRANCH  16  17
ATOM     17  C   UNL     1      20.454  18.812 -16.034  1.00  0.00    -0.000 C 
BRANCH  17  18
ATOM     18  C   UNL     1      20.815  17.329 -16.231  1.00  0.00    -0.003 C 
ATOM     19  C   UNL     1      20.212  16.733 -17.503  1.00  0.00     0.004 C 
ENDBRANCH  17  18
ENDBRANCH  16  17
ENDBRANCH  15  16
ENDBRANCH  14  15
ENDBRANCH  13  14
ENDBRANCH  12  13
ENDBRANCH   1  12
TORSDOF 14
ENDMDL
MODEL 5
REMARK VINA RESULT:    -4.092      2.606      6.065
REMARK INTER + INTRA:          -8.912
REMARK INTER:                  -6.783
REMARK INTRA:                  -2.129
REMARK UNBOUND:                -1.471
REMARK SMILES CCCCCCCCCCCCCC[C@H](C)C(=O)[O-]
REMARK SMILES IDX 9 1 10 2 11 3 12 4 13 5 14 6 15 7 16 8 17 9 18 10 19 11 8 12
REMARK SMILES IDX 7 13 6 14 5 15 4 16 3 17 2 18 1 19
REMARK H PARENT
REMARK Flexibility Score: inf
ROOT
ATOM      1  C   UNL     1      17.431  19.797 -17.147  1.00  0.00     0.000 C 
ENDROOT
BRANCH   1   2
ATOM      2  C   UNL     1      16.730  18.429 -17.141  1.00  0.00     0.000 C 
BRANCH   2   3
ATOM      3  C   UNL     1      17.528  17.350 -17.896  1.00  0.00     0.000 C 
BRANCH   3   4
ATOM      4  C   UNL     1      16.724  16.732 -19.056  1.00  0.00     0.000 C 
BRANCH   4   5
ATOM      5  C   UNL     1      15.481  17.556 -19.447  1.00  0.00     0.001 C 
BRANCH   5   6
ATOM      6  C   UNL     1      15.700  18.424 -20.707  1.00  0.00     0.009 C 
BRANCH   6   7
ATOM      7  C   UNL     1      14.572  18.285 -21.755  1.00  0.00     0.032 C 
ATOM      8  C   UNL     1      13.225  18.803 -21.235  1.00  0.00     0.014 C 
BRANCH   7   9
ATOM      9  C   UNL     1      14.436  16.847 -22.178  1.00  0.00     0.044 C 
ATOM     10  O   UNL     1      13.345  16.235 -22.025  1.00  0.00    -0.550 OA
ATOM     11  O   UNL     1      15.519  16.185 -22.741  1.00  0.00    -0.550 OA
ENDBRANCH   7   9
ENDBRANCH   6   7
ENDBRANCH   5   6
ENDBRANCH   4   5
ENDBRANCH   3   4
ENDBRANCH   2   3
ENDBRANCH   1   2
BRANCH   1  12
ATOM     12  C   UNL     1      16.757  20.804 -18.096  1.00  0.00     0.000 C 
BRANCH  12  13
ATOM     13  C   UNL     1      15.243  20.932 -17.854  1.00  0.00    -0.000 C 
BRANCH  13  14
ATOM     14  C   UNL     1      14.442  21.553 -19.017  1.00  0.00    -0.000 C 
BRANCH  14  15
ATOM     15  C   UNL     1      12.922  21.656 -18.779  1.00  0.00    -0.000 C 
BRANCH  15  16
ATOM     16  C   UNL     1      12.188  22.655 -19.697  1.00  0.00    -0.000 C 
BRANCH  16  17
ATOM     17  C   UNL     1      12.975  23.090 -20.950  1.00  0.00    -0.000 C 
BRANCH  17  18
ATOM     18  C   UNL     1      12.451  22.512 -22.277  1.00  0.00    -0.003 C 
ATOM     19  C   UNL     1      13.572  22.113 -23.236  1.00  0.00     0.004 C 
ENDBRANCH  17  18
ENDBRANCH  16  17
ENDBRANCH  15  16
ENDBRANCH  14  15
ENDBRANCH  13  14
ENDBRANCH  12  13
ENDBRANCH   1  12
TORSDOF 14
ENDMDL
MODEL 6
REMARK VINA RESULT:    -4.068      1.485      2.355
REMARK INTER + INTRA:          -8.868
REMARK INTER:                  -8.070
REMARK INTRA:                  -0.798
REMARK UNBOUND:                -1.471
REMARK SMILES CCCCCCCCCCCCCC[C@H](C)C(=O)[O-]
REMARK SMILES IDX 9 1 10 2 11 3 12 4 13 5 14 6 15 7 16 8 17 9 18 10 19 11 8 12
REMARK SMILES IDX 7 13 6 14 5 15 4 16 3 17 2 18 1 19
REMARK H PARENT
REMARK Flexibility Score: inf
ROOT
ATOM      1  C   UNL     1      13.728  21.105 -19.248  1.00  0.00     0.000 C 
ENDROOT
BRANCH   1   2
ATOM      2  C   UNL     1      12.495  21.950 -18.886  1.00  0.00     0.000 C 
BRANCH   2   3
ATOM      3  C   UNL     1      11.995  22.805 -20.064  1.00  0.00     0.000 C 
BRANCH   3   4
ATOM      4  C   UNL     1      13.116  23.122 -21.073  1.00  0.00     0.000 C 
BRANCH   4   5
ATOM      5  C   UNL     1      12.673  22.982 -22.543  1.00  0.00     0.001 C 
BRANCH   5   6
ATOM      6  C   UNL     1      13.538  21.983 -23.346  1.00  0.00     0.009 C 
BRANCH   6   7
ATOM      7  C   UNL     1      12.761  21.258 -24.469  1.00  0.00     0.032 C 
ATOM      8  C   UNL     1      12.949  19.736 -24.420  1.00  0.00     0.014 C 
BRANCH   7   9
ATOM      9  C   UNL     1      13.190  21.782 -25.813  1.00  0.00     0.044 C 
ATOM     10  O   UNL     1      14.052  22.698 -25.898  1.00  0.00    -0.550 OA
ATOM     11  O   UNL     1      12.635  21.254 -26.971  1.00  0.00    -0.550 OA
ENDBRANCH   7   9
ENDBRANCH   6   7
ENDBRANCH   5   6
ENDBRANCH   4   5
ENDBRANCH   3   4
ENDBRANCH   2   3
ENDBRANCH   1   2
BRANCH   1  12
ATOM     12  C   UNL     1      14.753  21.032 -18.103  1.00  0.00     0.000 C 
BRANCH  12  13
ATOM     13  C   UNL     1      16.123  20.499 -18.559  1.00  0.00    -0.000 C 
BRANCH  13  14
ATOM     14  C   UNL     1      16.953  19.798 -17.465  1.00  0.00    -0.000 C 
BRANCH  14  15
ATOM     15  C   UNL     1      16.976  18.259 -17.548  1.00  0.00    -0.000 C 
BRANCH  15  16
ATOM     16  C   UNL     1      17.668  17.555 -16.364  1.00  0.00    -0.000 C 
BRANCH  16  17
ATOM     17  C   UNL     1      18.834  16.622 -16.749  1.00  0.00    -0.000 C 
BRANCH  17  18
ATOM     18  C   UNL     1      20.134  17.341 -17.150  1.00  0.00    -0.003 C 
ATOM     19  C   UNL     1      20.512  18.467 -16.189  1.00  0.00     0.004 C 
ENDBRANCH  17  18
ENDBRANCH  16  17
ENDBRANCH  15  16
ENDBRANCH  14  15
ENDBRANCH  13  14
ENDBRANCH  12  13
ENDBRANCH   1  12
TORSDOF 14
ENDMDL
MODEL 7
REMARK VINA RESULT:    -4.026     18.605     21.948
REMARK INTER + INTRA:          -8.793
REMARK INTER:                  -7.637
REMARK INTRA:                  -1.156
REMARK UNBOUND:                -1.471
REMARK SMILES CCCCCCCCCCCCCC[C@H](C)C(=O)[O-]
REMARK SMILES IDX 9 1 10 2 11 3 12 4 13 5 14 6 15 7 16 8 17 9 18 10 19 11 8 12
REMARK SMILES IDX 7 13 6 14 5 15 4 16 3 17 2 18 1 19
REMARK H PARENT
REMARK Flexibility Score: inf
ROOT
ATOM      1  C   UNL     1      29.455   6.129 -20.507  1.00  0.00     0.000 C 
ENDROOT
BRANCH   1   2
ATOM      2  C   UNL     1      29.804   5.648 -21.925  1.00  0.00     0.000 C 
BRANCH   2   3
ATOM      3  C   UNL     1      31.317   5.451 -22.128  1.00  0.00     0.000 C 
BRANCH   3   4
ATOM      4  C   UNL     1      31.637   4.194 -22.960  1.00  0.00     0.000 C 
BRANCH   4   5
ATOM      5  C   UNL     1      30.874   4.134 -24.297  1.00  0.00     0.001 C 
BRANCH   5   6
ATOM      6  C   UNL     1      31.805   3.981 -25.523  1.00  0.00     0.009 C 
BRANCH   6   7
ATOM      7  C   UNL     1      31.572   5.054 -26.611  1.00  0.00     0.032 C 
ATOM      8  C   UNL     1      30.724   6.227 -26.102  1.00  0.00     0.014 C 
BRANCH   7   9
ATOM      9  C   UNL     1      30.913   4.433 -27.814  1.00  0.00     0.044 C 
ATOM     10  O   UNL     1      31.563   4.256 -28.879  1.00  0.00    -0.550 OA
ATOM     11  O   UNL     1      29.580   4.048 -27.752  1.00  0.00    -0.550 OA
ENDBRANCH   7   9
ENDBRANCH   6   7
ENDBRANCH   5   6
ENDBRANCH   4   5
ENDBRANCH   3   4
ENDBRANCH   2   3
ENDBRANCH   1   2
BRANCH   1  12
ATOM     12  C   UNL     1      29.442   4.984 -19.479  1.00  0.00     0.000 C 
BRANCH  12  13
ATOM     13  C   UNL     1      29.426   5.487 -18.024  1.00  0.00    -0.000 C 
BRANCH  13  14
ATOM     14  C   UNL     1      30.108   6.851 -17.793  1.00  0.00    -0.000 C 
BRANCH  14  15
ATOM     15  C   UNL     1      29.731   7.552 -16.472  1.00  0.00    -0.000 C 
BRANCH  15  16
ATOM     16  C   UNL     1      28.244   7.938 -16.343  1.00  0.00    -0.000 C 
BRANCH  16  17
ATOM     17  C   UNL     1      27.605   8.514 -17.624  1.00  0.00    -0.000 C 
BRANCH  17  18
ATOM     18  C   UNL     1      26.237   7.912 -17.991  1.00  0.00    -0.003 C 
ATOM     19  C   UNL     1      25.374   7.605 -16.768  1.00  0.00     0.004 C 
ENDBRANCH  17  18
ENDBRANCH  16  17
ENDBRANCH  15  16
ENDBRANCH  14  15
ENDBRANCH  13  14
ENDBRANCH  12  13
ENDBRANCH   1  12
TORSDOF 14
ENDMDL
MODEL 8
REMARK VINA RESULT:    -4.001      1.495      2.295
REMARK INTER + INTRA:          -8.746
REMARK INTER:                  -7.652
REMARK INTRA:                  -1.094
REMARK UNBOUND:                -1.471
REMARK SMILES CCCCCCCCCCCCCC[C@H](C)C(=O)[O-]
REMARK SMILES IDX 9 1 10 2 11 3 12 4 13 5 14 6 15 7 16 8 17 9 18 10 19 11 8 12
REMARK SMILES IDX 7 13 6 14 5 15 4 16 3 17 2 18 1 19
REMARK H PARENT
REMARK Flexibility Score: inf
ROOT
ATOM      1  C   UNL     1      14.770  21.131 -18.961  1.00  0.00     0.000 C 
ENDROOT
BRANCH   1   2
ATOM      2  C   UNL     1      13.451  21.497 -18.261  1.00  0.00     0.000 C 
BRANCH   2   3
ATOM      3  C   UNL     1      12.261  21.560 -19.236  1.00  0.00     0.000 C 
BRANCH   3   4
ATOM      4  C   UNL     1      11.985  22.993 -19.730  1.00  0.00     0.000 C 
BRANCH   4   5
ATOM      5  C   UNL     1      12.668  23.319 -21.073  1.00  0.00     0.001 C 
BRANCH   5   6
ATOM      6  C   UNL     1      12.412  22.251 -22.161  1.00  0.00     0.009 C 
BRANCH   6   7
ATOM      7  C   UNL     1      13.250  22.463 -23.443  1.00  0.00     0.032 C 
ATOM      8  C   UNL     1      12.749  23.649 -24.278  1.00  0.00     0.014 C 
BRANCH   7   9
ATOM      9  C   UNL     1      13.239  21.211 -24.278  1.00  0.00     0.044 C 
ATOM     10  O   UNL     1      13.096  21.277 -25.528  1.00  0.00    -0.550 OA
ATOM     11  O   UNL     1      13.389  19.971 -23.670  1.00  0.00    -0.550 OA
ENDBRANCH   7   9
ENDBRANCH   6   7
ENDBRANCH   5   6
ENDBRANCH   4   5
ENDBRANCH   3   4
ENDBRANCH   2   3
ENDBRANCH   1   2
BRANCH   1  12
ATOM     12  C   UNL     1      14.834  19.647 -19.364  1.00  0.00     0.000 C 
BRANCH  12  13
ATOM     13  C   UNL     1      16.023  18.905 -18.729  1.00  0.00    -0.000 C 
BRANCH  13  14
ATOM     14  C   UNL     1      16.785  19.693 -17.643  1.00  0.00    -0.000 C 
BRANCH  14  15
ATOM     15  C   UNL     1      17.101  18.897 -16.361  1.00  0.00    -0.000 C 
BRANCH  15  16
ATOM     16  C   UNL     1      16.747  17.398 -16.423  1.00  0.00    -0.000 C 
BRANCH  16  17
ATOM     17  C   UNL     1      17.900  16.471 -16.858  1.00  0.00    -0.000 C 
BRANCH  17  18
ATOM     18  C   UNL     1      19.289  16.873 -16.329  1.00  0.00    -0.003 C 
ATOM     19  C   UNL     1      20.339  16.981 -17.433  1.00  0.00     0.004 C 
ENDBRANCH  17  18
ENDBRANCH  16  17
ENDBRANCH  15  16
ENDBRANCH  14  15
ENDBRANCH  13  14
ENDBRANCH  12  13
ENDBRANCH   1  12
TORSDOF 14
ENDMDL
MODEL 9
REMARK VINA RESULT:    -3.914     19.562     21.709
REMARK INTER + INTRA:          -8.589
REMARK INTER:                  -7.519
REMARK INTRA:                  -1.071
REMARK UNBOUND:                -1.471
REMARK SMILES CCCCCCCCCCCCCC[C@H](C)C(=O)[O-]
REMARK SMILES IDX 9 1 10 2 11 3 12 4 13 5 14 6 15 7 16 8 17 9 18 10 19 11 8 12
REMARK SMILES IDX 7 13 6 14 5 15 4 16 3 17 2 18 1 19
REMARK H PARENT
REMARK Flexibility Score: inf
ROOT
ATOM      1  C   UNL     1      28.559   6.754 -19.595  1.00  0.00     0.000 C 
ENDROOT
BRANCH   1   2
ATOM      2  C   UNL     1      28.905   6.021 -20.901  1.00  0.00     0.000 C 
BRANCH   2   3
ATOM      3  C   UNL     1      30.037   4.992 -20.721  1.00  0.00     0.000 C 
BRANCH   3   4
ATOM      4  C   UNL     1      31.122   5.121 -21.807  1.00  0.00     0.000 C 
BRANCH   4   5
ATOM      5  C   UNL     1      31.223   3.884 -22.722  1.00  0.00     0.001 C 
BRANCH   5   6
ATOM      6  C   UNL     1      31.705   4.223 -24.151  1.00  0.00     0.009 C 
BRANCH   6   7
ATOM      7  C   UNL     1      30.661   4.998 -24.986  1.00  0.00     0.032 C 
ATOM      8  C   UNL     1      29.303   4.283 -25.031  1.00  0.00     0.014 C 
BRANCH   7   9
ATOM      9  C   UNL     1      31.173   5.207 -26.386  1.00  0.00     0.044 C 
ATOM     10  O   UNL     1      31.633   4.240 -27.051  1.00  0.00    -0.550 OA
ATOM     11  O   UNL     1      31.139   6.474 -26.954  1.00  0.00    -0.550 OA
ENDBRANCH   7   9
ENDBRANCH   6   7
ENDBRANCH   5   6
ENDBRANCH   4   5
ENDBRANCH   3   4
ENDBRANCH   2   3
ENDBRANCH   1   2
BRANCH   1  12
ATOM     12  C   UNL     1      29.665   6.626 -18.532  1.00  0.00     0.000 C 
BRANCH  12  13
ATOM     13  C   UNL     1      29.216   5.826 -17.297  1.00  0.00    -0.000 C 
BRANCH  13  14
ATOM     14  C   UNL     1      29.412   6.541 -15.944  1.00  0.00    -0.000 C 
BRANCH  14  15
ATOM     15  C   UNL     1      28.123   7.099 -15.308  1.00  0.00    -0.000 C 
BRANCH  15  16
ATOM     16  C   UNL     1      26.952   7.306 -16.290  1.00  0.00    -0.000 C 
BRANCH  16  17
ATOM     17  C   UNL     1      25.769   6.333 -16.109  1.00  0.00    -0.000 C 
BRANCH  17  18
ATOM     18  C   UNL     1      25.520   5.878 -14.659  1.00  0.00    -0.003 C 
ATOM     19  C   UNL     1      25.567   4.360 -14.496  1.00  0.00     0.004 C 
ENDBRANCH  17  18
ENDBRANCH  16  17
ENDBRANCH  15  16
ENDBRANCH  14  15
ENDBRANCH  13  14
ENDBRANCH  12  13
ENDBRANCH   1  12
TORSDOF 14
ENDMDL
