MODEL 1
REMARK VINA RESULT:    -7.328      0.000      0.000
REMARK INTER + INTRA:          -7.771
REMARK INTER:                  -7.971
REMARK INTRA:                   0.200
REMARK UNBOUND:                 0.200
REMARK SMILES C[C@@H]1[C@H]2C3=CC[C@H]4[C@]5(C)CC[C@H](O)C(C)(C)[C@@H]5CC[C@]4(C)[C@]3(C)CC[C@]2(C(=O)[O-])CC[C@@H]1C
REMARK SMILES IDX 26 1 30 2 25 3 3 4 31 5 24 6 4 7 2 8 32 9 22 10 5 11 1 12
REMARK SMILES IDX 33 13 23 14 20 15 6 16 7 17 19 18 21 19 8 20 18 21 17 22
REMARK SMILES IDX 10 23 9 24 14 25 11 26 12 27 15 28 16 29 27 30 28 31 29 32
REMARK SMILES IDX 13 33
REMARK H PARENT 13 34
REMARK Flexibility Score: inf
ROOT
ATOM      1  C   UNL     1      -7.676  19.096  19.994  1.00  0.00     0.017 C 
ATOM      2  C   UNL     1      -7.864  19.395  18.483  1.00  0.00     0.014 C 
ATOM      3  C   UNL     1      -8.895  19.647  20.772  1.00  0.00     0.014 C 
ATOM      4  C   UNL     1      -7.684  17.542  20.158  1.00  0.00     0.030 C 
ATOM      5  C   UNL     1      -6.625  18.965  17.687  1.00  0.00     0.004 C 
ATOM      6  C   UNL     1      -8.698  19.501  22.292  1.00  0.00     0.013 C 
ATOM      7  C   UNL     1      -7.927  17.114  21.634  1.00  0.00    -0.063 C 
ATOM      8  C   UNL     1      -6.482  16.870  19.351  1.00  0.00    -0.003 C 
ATOM      9  C   UNL     1      -6.276  17.467  17.903  1.00  0.00    -0.011 C 
ATOM     10  C   UNL     1      -8.139  18.127  22.842  1.00  0.00    -0.006 C 
ATOM     11  C   UNL     1      -7.905  15.798  21.902  1.00  0.00    -0.027 C 
ATOM     12  C   UNL     1      -6.576  15.332  19.231  1.00  0.00     0.008 C 
ATOM     13  C   UNL     1      -6.907  16.643  16.722  1.00  0.00     0.008 C 
ATOM     14  C   UNL     1      -6.685  18.395  23.387  1.00  0.00     0.017 C 
ATOM     15  C   UNL     1      -9.105  17.525  24.075  1.00  0.00    -0.020 C 
ATOM     16  C   UNL     1      -7.886  15.338  23.298  1.00  0.00     0.032 C 
ATOM     17  C   UNL     1      -9.117  15.979  23.989  1.00  0.00     0.006 C 
ATOM     18  C   UNL     1     -10.640  17.906  24.054  1.00  0.00     0.008 C 
ATOM     19  C   UNL     1      -8.634  18.220  25.418  1.00  0.00     0.012 C 
ATOM     20  C   UNL     1      -9.738  15.095  25.177  1.00  0.00    -0.025 C 
ATOM     21  C   UNL     1     -11.622  16.933  24.847  1.00  0.00     0.005 C 
ATOM     22  C   UNL     1     -11.039  15.779  25.821  1.00  0.00     0.003 C 
ATOM     23  C   UNL     1     -10.150  13.726  24.459  1.00  0.00     0.010 C 
ATOM     24  C   UNL     1      -8.556  14.825  26.246  1.00  0.00     0.012 C 
ATOM     25  C   UNL     1     -12.141  14.786  26.447  1.00  0.00    -0.006 C 
ATOM     26  C   UNL     1     -11.646  13.449  24.330  1.00  0.00     0.033 C 
ATOM     27  C   UNL     1     -12.345  13.398  25.672  1.00  0.00     0.120 C 
ATOM     28  C   UNL     1     -11.764  14.503  27.912  1.00  0.00     0.014 C 
ATOM     29  C   UNL     1     -13.492  15.468  26.502  1.00  0.00     0.014 C 
ENDROOT
BRANCH   1  30
ATOM     30  C   UNL     1      -6.418  19.895  20.450  1.00  0.00     0.048 C 
ATOM     31  O   UNL     1      -5.297  19.308  20.751  1.00  0.00    -0.550 OA
ATOM     32  O   UNL     1      -6.511  21.286  20.520  1.00  0.00    -0.550 OA
ENDBRANCH   1  30
BRANCH  27  33
ATOM     33  O   UNL     1     -13.716  13.075  25.409  1.00  0.00    -0.393 OA
ATOM     34  H   UNL     1     -13.781  12.144  25.105  1.00  0.00     0.210 HD
ENDBRANCH  27  33
TORSDOF 2
ENDMDL
MODEL 2
REMARK VINA RESULT:    -6.725      3.836      6.876
REMARK INTER + INTRA:          -7.115
REMARK INTER:                  -7.310
REMARK INTRA:                   0.195
REMARK UNBOUND:                 0.200
REMARK SMILES C[C@@H]1[C@H]2C3=CC[C@H]4[C@]5(C)CC[C@H](O)C(C)(C)[C@@H]5CC[C@]4(C)[C@]3(C)CC[C@]2(C(=O)[O-])CC[C@@H]1C
REMARK SMILES IDX 26 1 30 2 25 3 3 4 31 5 24 6 4 7 2 8 32 9 22 10 5 11 1 12
REMARK SMILES IDX 33 13 23 14 20 15 6 16 7 17 19 18 21 19 8 20 18 21 17 22
REMARK SMILES IDX 10 23 9 24 14 25 11 26 12 27 15 28 16 29 27 30 28 31 29 32
REMARK SMILES IDX 13 33
REMARK H PARENT 13 34
REMARK Flexibility Score: inf
ROOT
ATOM      1  C   UNL     1      -5.661  13.260  19.577  1.00  0.00     0.017 C 
ATOM      2  C   UNL     1      -6.119  11.887  19.016  1.00  0.00     0.014 C 
ATOM      3  C   UNL     1      -5.738  14.316  18.449  1.00  0.00     0.014 C 
ATOM      4  C   UNL     1      -6.694  13.674  20.674  1.00  0.00     0.030 C 
ATOM      5  C   UNL     1      -5.951  10.786  20.072  1.00  0.00     0.004 C 
ATOM      6  C   UNL     1      -5.165  15.667  18.911  1.00  0.00     0.013 C 
ATOM      7  C   UNL     1      -6.603  15.190  21.015  1.00  0.00    -0.063 C 
ATOM      8  C   UNL     1      -6.722  12.618  21.870  1.00  0.00    -0.003 C 
ATOM      9  C   UNL     1      -6.707  11.112  21.390  1.00  0.00    -0.011 C 
ATOM     10  C   UNL     1      -5.582  16.205  20.339  1.00  0.00    -0.006 C 
ATOM     11  C   UNL     1      -7.414  15.649  21.983  1.00  0.00    -0.027 C 
ATOM     12  C   UNL     1      -7.901  12.799  22.853  1.00  0.00     0.008 C 
ATOM     13  C   UNL     1      -8.102  10.390  21.344  1.00  0.00     0.008 C 
ATOM     14  C   UNL     1      -4.304  16.144  21.258  1.00  0.00     0.017 C 
ATOM     15  C   UNL     1      -6.146  17.783  20.255  1.00  0.00    -0.020 C 
ATOM     16  C   UNL     1      -7.214  17.003  22.519  1.00  0.00     0.032 C 
ATOM     17  C   UNL     1      -7.267  17.969  21.307  1.00  0.00     0.006 C 
ATOM     18  C   UNL     1      -6.828  18.246  18.906  1.00  0.00     0.008 C 
ATOM     19  C   UNL     1      -4.879  18.734  20.302  1.00  0.00     0.012 C 
ATOM     20  C   UNL     1      -7.833  19.431  21.656  1.00  0.00    -0.025 C 
ATOM     21  C   UNL     1      -7.822  19.488  19.004  1.00  0.00     0.005 C 
ATOM     22  C   UNL     1      -7.917  20.370  20.358  1.00  0.00     0.003 C 
ATOM     23  C   UNL     1      -9.308  19.147  22.211  1.00  0.00     0.010 C 
ATOM     24  C   UNL     1      -6.907  20.038  22.833  1.00  0.00     0.012 C 
ATOM     25  C   UNL     1      -9.060  21.505  20.362  1.00  0.00    -0.006 C 
ATOM     26  C   UNL     1     -10.466  19.607  21.329  1.00  0.00     0.033 C 
ATOM     27  C   UNL     1     -10.440  21.098  21.068  1.00  0.00     0.120 C 
ATOM     28  C   UNL     1      -8.492  22.765  21.038  1.00  0.00     0.014 C 
ATOM     29  C   UNL     1      -9.391  21.921  18.943  1.00  0.00     0.014 C 
ENDROOT
BRANCH   1  30
ATOM     30  C   UNL     1      -4.163  13.096  19.977  1.00  0.00     0.048 C 
ATOM     31  O   UNL     1      -3.775  13.084  21.218  1.00  0.00    -0.550 OA
ATOM     32  O   UNL     1      -3.222  12.948  18.956  1.00  0.00    -0.550 OA
ENDBRANCH   1  30
BRANCH  27  33
ATOM     33  O   UNL     1     -11.602  21.398  20.287  1.00  0.00    -0.393 OA
ATOM     34  H   UNL     1     -12.372  20.900  20.639  1.00  0.00     0.210 HD
ENDBRANCH  27  33
TORSDOF 2
ENDMDL
MODEL 3
REMARK VINA RESULT:    -6.681      2.026      3.596
REMARK INTER + INTRA:          -7.067
REMARK INTER:                  -7.262
REMARK INTRA:                   0.195
REMARK UNBOUND:                 0.200
REMARK SMILES C[C@@H]1[C@H]2C3=CC[C@H]4[C@]5(C)CC[C@H](O)C(C)(C)[C@@H]5CC[C@]4(C)[C@]3(C)CC[C@]2(C(=O)[O-])CC[C@@H]1C
REMARK SMILES IDX 26 1 30 2 25 3 3 4 31 5 24 6 4 7 2 8 32 9 22 10 5 11 1 12
REMARK SMILES IDX 33 13 23 14 20 15 6 16 7 17 19 18 21 19 8 20 18 21 17 22
REMARK SMILES IDX 10 23 9 24 14 25 11 26 12 27 15 28 16 29 27 30 28 31 29 32
REMARK SMILES IDX 13 33
REMARK H PARENT 13 34
REMARK Flexibility Score: inf
ROOT
ATOM      1  C   UNL     1      -7.664  21.221  21.342  1.00  0.00     0.017 C 
ATOM      2  C   UNL     1      -7.812  22.749  21.113  1.00  0.00     0.014 C 
ATOM      3  C   UNL     1      -7.012  20.980  22.725  1.00  0.00     0.014 C 
ATOM      4  C   UNL     1      -9.108  20.625  21.399  1.00  0.00     0.030 C 
ATOM      5  C   UNL     1      -8.353  23.037  19.706  1.00  0.00     0.004 C 
ATOM      6  C   UNL     1      -6.714  19.486  22.947  1.00  0.00     0.013 C 
ATOM      7  C   UNL     1      -9.125  19.204  22.034  1.00  0.00    -0.063 C 
ATOM      8  C   UNL     1      -9.885  20.862  20.025  1.00  0.00    -0.003 C 
ATOM      9  C   UNL     1      -9.701  22.315  19.433  1.00  0.00    -0.011 C 
ATOM     10  C   UNL     1      -7.835  18.438  22.562  1.00  0.00    -0.006 C 
ATOM     11  C   UNL     1     -10.309  18.573  22.090  1.00  0.00    -0.027 C 
ATOM     12  C   UNL     1     -11.399  20.554  20.088  1.00  0.00     0.008 C 
ATOM     13  C   UNL     1     -10.865  23.330  19.724  1.00  0.00     0.008 C 
ATOM     14  C   UNL     1      -7.317  17.634  21.309  1.00  0.00     0.017 C 
ATOM     15  C   UNL     1      -8.141  17.380  23.827  1.00  0.00    -0.020 C 
ATOM     16  C   UNL     1     -10.360  17.149  22.450  1.00  0.00     0.032 C 
ATOM     17  C   UNL     1      -9.646  17.016  23.820  1.00  0.00     0.006 C 
ATOM     18  C   UNL     1      -7.897  17.908  25.298  1.00  0.00     0.008 C 
ATOM     19  C   UNL     1      -7.067  16.219  23.735  1.00  0.00     0.012 C 
ATOM     20  C   UNL     1     -10.209  15.828  24.743  1.00  0.00    -0.025 C 
ATOM     21  C   UNL     1      -8.682  17.152  26.461  1.00  0.00     0.005 C 
ATOM     22  C   UNL     1      -9.473  15.771  26.168  1.00  0.00     0.003 C 
ATOM     23  C   UNL     1     -11.751  16.204  24.949  1.00  0.00     0.010 C 
ATOM     24  C   UNL     1     -10.082  14.458  23.895  1.00  0.00     0.012 C 
ATOM     25  C   UNL     1     -10.333  15.194  27.401  1.00  0.00    -0.006 C 
ATOM     26  C   UNL     1     -12.164  16.632  26.356  1.00  0.00     0.033 C 
ATOM     27  C   UNL     1     -11.892  15.562  27.392  1.00  0.00     0.120 C 
ATOM     28  C   UNL     1     -10.168  13.665  27.436  1.00  0.00     0.014 C 
ATOM     29  C   UNL     1      -9.766  15.692  28.714  1.00  0.00     0.014 C 
ENDROOT
BRANCH   1  30
ATOM     30  C   UNL     1      -6.678  20.704  20.251  1.00  0.00     0.048 C 
ATOM     31  O   UNL     1      -7.071  19.960  19.260  1.00  0.00    -0.550 OA
ATOM     32  O   UNL     1      -5.335  21.071  20.351  1.00  0.00    -0.550 OA
ENDBRANCH   1  30
BRANCH  27  33
ATOM     33  O   UNL     1     -12.378  16.068  28.641  1.00  0.00    -0.393 OA
ATOM     34  H   UNL     1     -12.921  15.381  29.084  1.00  0.00     0.210 HD
ENDBRANCH  27  33
TORSDOF 2
ENDMDL
MODEL 4
REMARK VINA RESULT:    -6.498      4.465      8.283
REMARK INTER + INTRA:          -6.867
REMARK INTER:                  -7.067
REMARK INTRA:                   0.200
REMARK UNBOUND:                 0.200
REMARK SMILES C[C@@H]1[C@H]2C3=CC[C@H]4[C@]5(C)CC[C@H](O)C(C)(C)[C@@H]5CC[C@]4(C)[C@]3(C)CC[C@]2(C(=O)[O-])CC[C@@H]1C
REMARK SMILES IDX 26 1 30 2 25 3 3 4 31 5 24 6 4 7 2 8 32 9 22 10 5 11 1 12
REMARK SMILES IDX 33 13 23 14 20 15 6 16 7 17 19 18 21 19 8 20 18 21 17 22
REMARK SMILES IDX 10 23 9 24 14 25 11 26 12 27 15 28 16 29 27 30 28 31 29 32
REMARK SMILES IDX 13 33
REMARK H PARENT 13 34
REMARK Flexibility Score: inf
ROOT
ATOM      1  C   UNL     1      -5.811  11.053  21.437  1.00  0.00     0.017 C 
ATOM      2  C   UNL     1      -5.718   9.850  22.413  1.00  0.00     0.014 C 
ATOM      3  C   UNL     1      -7.002  11.948  21.853  1.00  0.00     0.014 C 
ATOM      4  C   UNL     1      -4.508  11.896  21.625  1.00  0.00     0.030 C 
ATOM      5  C   UNL     1      -4.617   8.876  21.970  1.00  0.00     0.004 C 
ATOM      6  C   UNL     1      -7.227  13.083  20.838  1.00  0.00     0.013 C 
ATOM      7  C   UNL     1      -4.653  13.328  21.033  1.00  0.00    -0.063 C 
ATOM      8  C   UNL     1      -3.209  11.043  21.260  1.00  0.00    -0.003 C 
ATOM      9  C   UNL     1      -3.234   9.571  21.834  1.00  0.00    -0.011 C 
ATOM     10  C   UNL     1      -5.963  13.879  20.318  1.00  0.00    -0.006 C 
ATOM     11  C   UNL     1      -3.575  14.128  21.094  1.00  0.00    -0.027 C 
ATOM     12  C   UNL     1      -1.875  11.702  21.678  1.00  0.00     0.008 C 
ATOM     13  C   UNL     1      -2.438   9.338  23.168  1.00  0.00     0.008 C 
ATOM     14  C   UNL     1      -5.764  13.508  18.799  1.00  0.00     0.017 C 
ATOM     15  C   UNL     1      -6.179  15.536  20.474  1.00  0.00    -0.020 C 
ATOM     16  C   UNL     1      -3.564  15.394  20.348  1.00  0.00     0.032 C 
ATOM     17  C   UNL     1      -4.815  16.187  20.808  1.00  0.00     0.006 C 
ATOM     18  C   UNL     1      -7.124  16.045  21.635  1.00  0.00     0.008 C 
ATOM     19  C   UNL     1      -6.975  16.024  19.194  1.00  0.00     0.012 C 
ATOM     20  C   UNL     1      -4.633  17.782  20.766  1.00  0.00    -0.025 C 
ATOM     21  C   UNL     1      -6.898  17.544  22.126  1.00  0.00     0.005 C 
ATOM     22  C   UNL     1      -5.936  18.552  21.302  1.00  0.00     0.003 C 
ATOM     23  C   UNL     1      -3.404  18.053  21.755  1.00  0.00     0.010 C 
ATOM     24  C   UNL     1      -4.225  18.182  19.254  1.00  0.00     0.012 C 
ATOM     25  C   UNL     1      -5.694  19.988  21.988  1.00  0.00    -0.006 C 
ATOM     26  C   UNL     1      -3.731  18.765  23.066  1.00  0.00     0.033 C 
ATOM     27  C   UNL     1      -4.349  20.129  22.848  1.00  0.00     0.120 C 
ATOM     28  C   UNL     1      -5.712  21.062  20.886  1.00  0.00     0.014 C 
ATOM     29  C   UNL     1      -6.848  20.332  22.907  1.00  0.00     0.014 C 
ENDROOT
BRANCH   1  30
ATOM     30  C   UNL     1      -6.127  10.458  20.031  1.00  0.00     0.048 C 
ATOM     31  O   UNL     1      -5.282  10.525  19.045  1.00  0.00    -0.550 OA
ATOM     32  O   UNL     1      -7.358   9.827  19.846  1.00  0.00    -0.550 OA
ENDBRANCH   1  30
BRANCH  27  33
ATOM     33  O   UNL     1      -4.547  20.703  24.145  1.00  0.00    -0.393 OA
ATOM     34  H   UNL     1      -4.028  20.199  24.809  1.00  0.00     0.210 HD
ENDBRANCH  27  33
TORSDOF 2
ENDMDL
MODEL 5
REMARK VINA RESULT:    -6.458      3.821      7.570
REMARK INTER + INTRA:          -6.824
REMARK INTER:                  -7.040
REMARK INTRA:                   0.215
REMARK UNBOUND:                 0.200
REMARK SMILES C[C@@H]1[C@H]2C3=CC[C@H]4[C@]5(C)CC[C@H](O)C(C)(C)[C@@H]5CC[C@]4(C)[C@]3(C)CC[C@]2(C(=O)[O-])CC[C@@H]1C
REMARK SMILES IDX 26 1 30 2 25 3 3 4 31 5 24 6 4 7 2 8 32 9 22 10 5 11 1 12
REMARK SMILES IDX 33 13 23 14 20 15 6 16 7 17 19 18 21 19 8 20 18 21 17 22
REMARK SMILES IDX 10 23 9 24 14 25 11 26 12 27 15 28 16 29 27 30 28 31 29 32
REMARK SMILES IDX 13 33
REMARK H PARENT 13 34
REMARK Flexibility Score: inf
ROOT
ATOM      1  C   UNL     1      -8.307  19.022  21.723  1.00  0.00     0.017 C 
ATOM      2  C   UNL     1      -9.705  19.661  21.939  1.00  0.00     0.014 C 
ATOM      3  C   UNL     1      -8.384  17.515  22.068  1.00  0.00     0.014 C 
ATOM      4  C   UNL     1      -7.983  19.134  20.198  1.00  0.00     0.030 C 
ATOM      5  C   UNL     1      -9.648  21.178  21.715  1.00  0.00     0.004 C 
ATOM      6  C   UNL     1      -6.993  16.859  22.005  1.00  0.00     0.013 C 
ATOM      7  C   UNL     1      -6.830  18.177  19.778  1.00  0.00    -0.063 C 
ATOM      8  C   UNL     1      -7.924  20.659  19.731  1.00  0.00    -0.003 C 
ATOM      9  C   UNL     1      -9.095  21.547  20.312  1.00  0.00    -0.011 C 
ATOM     10  C   UNL     1      -6.063  17.199  20.772  1.00  0.00    -0.006 C 
ATOM     11  C   UNL     1      -6.433  18.223  18.496  1.00  0.00    -0.027 C 
ATOM     12  C   UNL     1      -7.885  20.854  18.198  1.00  0.00     0.008 C 
ATOM     13  C   UNL     1     -10.316  21.790  19.354  1.00  0.00     0.008 C 
ATOM     14  C   UNL     1      -4.859  18.059  21.313  1.00  0.00     0.017 C 
ATOM     15  C   UNL     1      -5.482  15.805  20.042  1.00  0.00    -0.020 C 
ATOM     16  C   UNL     1      -5.202  17.531  18.088  1.00  0.00     0.032 C 
ATOM     17  C   UNL     1      -5.368  16.050  18.517  1.00  0.00     0.006 C 
ATOM     18  C   UNL     1      -6.373  14.502  20.139  1.00  0.00     0.008 C 
ATOM     19  C   UNL     1      -4.194  15.358  20.850  1.00  0.00     0.012 C 
ATOM     20  C   UNL     1      -4.603  15.002  17.571  1.00  0.00    -0.025 C 
ATOM     21  C   UNL     1      -6.121  13.387  19.029  1.00  0.00     0.005 C 
ATOM     22  C   UNL     1      -4.853  13.483  18.028  1.00  0.00     0.003 C 
ATOM     23  C   UNL     1      -5.255  15.243  16.129  1.00  0.00     0.010 C 
ATOM     24  C   UNL     1      -3.042  15.421  17.550  1.00  0.00     0.012 C 
ATOM     25  C   UNL     1      -4.801  12.365  16.871  1.00  0.00    -0.006 C 
ATOM     26  C   UNL     1      -6.134  14.120  15.584  1.00  0.00     0.033 C 
ATOM     27  C   UNL     1      -5.385  12.811  15.447  1.00  0.00     0.120 C 
ATOM     28  C   UNL     1      -3.343  11.904  16.704  1.00  0.00     0.014 C 
ATOM     29  C   UNL     1      -5.569  11.131  17.300  1.00  0.00     0.014 C 
ENDROOT
BRANCH   1  30
ATOM     30  C   UNL     1      -7.349  19.699  22.749  1.00  0.00     0.048 C 
ATOM     31  O   UNL     1      -6.458  20.576  22.389  1.00  0.00    -0.550 OA
ATOM     32  O   UNL     1      -7.472  19.350  24.095  1.00  0.00    -0.550 OA
ENDBRANCH   1  30
BRANCH  27  33
ATOM     33  O   UNL     1      -6.303  11.871  14.875  1.00  0.00    -0.393 OA
ATOM     34  H   UNL     1      -6.385  12.038  13.911  1.00  0.00     0.210 HD
ENDBRANCH  27  33
TORSDOF 2
ENDMDL
MODEL 6
REMARK VINA RESULT:    -6.352      4.656      7.122
REMARK INTER + INTRA:          -6.709
REMARK INTER:                  -6.928
REMARK INTRA:                   0.219
REMARK UNBOUND:                 0.200
REMARK SMILES C[C@@H]1[C@H]2C3=CC[C@H]4[C@]5(C)CC[C@H](O)C(C)(C)[C@@H]5CC[C@]4(C)[C@]3(C)CC[C@]2(C(=O)[O-])CC[C@@H]1C
REMARK SMILES IDX 26 1 30 2 25 3 3 4 31 5 24 6 4 7 2 8 32 9 22 10 5 11 1 12
REMARK SMILES IDX 33 13 23 14 20 15 6 16 7 17 19 18 21 19 8 20 18 21 17 22
REMARK SMILES IDX 10 23 9 24 14 25 11 26 12 27 15 28 16 29 27 30 28 31 29 32
REMARK SMILES IDX 13 33
REMARK H PARENT 13 34
REMARK Flexibility Score: inf
ROOT
ATOM      1  C   UNL     1      -7.949  21.124  20.500  1.00  0.00     0.017 C 
ATOM      2  C   UNL     1      -8.641  21.919  21.638  1.00  0.00     0.014 C 
ATOM      3  C   UNL     1      -6.462  20.904  20.870  1.00  0.00     0.014 C 
ATOM      4  C   UNL     1      -8.627  19.716  20.446  1.00  0.00     0.030 C 
ATOM      5  C   UNL     1     -10.090  22.255  21.261  1.00  0.00     0.004 C 
ATOM      6  C   UNL     1      -5.693  20.241  19.715  1.00  0.00     0.013 C 
ATOM      7  C   UNL     1      -7.768  18.688  19.655  1.00  0.00    -0.063 C 
ATOM      8  C   UNL     1     -10.183  19.837  20.111  1.00  0.00    -0.003 C 
ATOM      9  C   UNL     1     -10.917  20.989  20.905  1.00  0.00    -0.011 C 
ATOM     10  C   UNL     1      -6.368  19.017  18.975  1.00  0.00    -0.006 C 
ATOM     11  C   UNL     1      -8.277  17.454  19.502  1.00  0.00    -0.027 C 
ATOM     12  C   UNL     1     -10.981  18.528  20.310  1.00  0.00     0.008 C 
ATOM     13  C   UNL     1     -11.707  20.545  22.188  1.00  0.00     0.008 C 
ATOM     14  C   UNL     1      -6.743  19.493  17.520  1.00  0.00     0.017 C 
ATOM     15  C   UNL     1      -5.327  17.704  18.890  1.00  0.00    -0.020 C 
ATOM     16  C   UNL     1      -7.640  16.512  18.571  1.00  0.00     0.032 C 
ATOM     17  C   UNL     1      -6.155  16.401  19.005  1.00  0.00     0.006 C 
ATOM     18  C   UNL     1      -4.245  17.554  20.034  1.00  0.00     0.008 C 
ATOM     19  C   UNL     1      -4.404  17.922  17.621  1.00  0.00     0.012 C 
ATOM     20  C   UNL     1      -5.487  14.973  18.703  1.00  0.00    -0.025 C 
ATOM     21  C   UNL     1      -3.659  16.090  20.267  1.00  0.00     0.005 C 
ATOM     22  C   UNL     1      -3.969  14.895  19.220  1.00  0.00     0.003 C 
ATOM     23  C   UNL     1      -6.391  13.945  19.533  1.00  0.00     0.010 C 
ATOM     24  C   UNL     1      -5.643  14.693  17.119  1.00  0.00     0.012 C 
ATOM     25  C   UNL     1      -3.429  13.442  19.654  1.00  0.00    -0.006 C 
ATOM     26  C   UNL     1      -5.733  13.282  20.741  1.00  0.00     0.033 C 
ATOM     27  C   UNL     1      -4.500  12.487  20.367  1.00  0.00     0.120 C 
ATOM     28  C   UNL     1      -2.869  12.738  18.405  1.00  0.00     0.014 C 
ATOM     29  C   UNL     1      -2.255  13.580  20.602  1.00  0.00     0.014 C 
ENDROOT
BRANCH   1  30
ATOM     30  C   UNL     1      -7.997  22.032  19.234  1.00  0.00     0.048 C 
ATOM     31  O   UNL     1      -8.809  21.798  18.245  1.00  0.00    -0.550 OA
ATOM     32  O   UNL     1      -7.142  23.134  19.182  1.00  0.00    -0.550 OA
ENDBRANCH   1  30
BRANCH  27  33
ATOM     33  O   UNL     1      -4.024  11.877  21.572  1.00  0.00    -0.393 OA
ATOM     34  H   UNL     1      -3.394  11.157  21.350  1.00  0.00     0.210 HD
ENDBRANCH  27  33
TORSDOF 2
ENDMDL
MODEL 7
REMARK VINA RESULT:    -6.313      4.873      7.751
REMARK INTER + INTRA:          -6.666
REMARK INTER:                  -6.871
REMARK INTRA:                   0.204
REMARK UNBOUND:                 0.200
REMARK SMILES C[C@@H]1[C@H]2C3=CC[C@H]4[C@]5(C)CC[C@H](O)C(C)(C)[C@@H]5CC[C@]4(C)[C@]3(C)CC[C@]2(C(=O)[O-])CC[C@@H]1C
REMARK SMILES IDX 26 1 30 2 25 3 3 4 31 5 24 6 4 7 2 8 32 9 22 10 5 11 1 12
REMARK SMILES IDX 33 13 23 14 20 15 6 16 7 17 19 18 21 19 8 20 18 21 17 22
REMARK SMILES IDX 10 23 9 24 14 25 11 26 12 27 15 28 16 29 27 30 28 31 29 32
REMARK SMILES IDX 13 33
REMARK H PARENT 13 34
REMARK Flexibility Score: inf
ROOT
ATOM      1  C   UNL     1      -9.699  21.585  19.632  1.00  0.00     0.017 C 
ATOM      2  C   UNL     1     -10.866  22.403  19.017  1.00  0.00     0.014 C 
ATOM      3  C   UNL     1     -10.138  20.108  19.771  1.00  0.00     0.014 C 
ATOM      4  C   UNL     1      -8.521  21.626  18.605  1.00  0.00     0.030 C 
ATOM      5  C   UNL     1     -10.514  23.895  18.964  1.00  0.00     0.004 C 
ATOM      6  C   UNL     1      -9.070  19.276  20.503  1.00  0.00     0.013 C 
ATOM      7  C   UNL     1      -7.464  20.520  18.891  1.00  0.00    -0.063 C 
ATOM      8  C   UNL     1      -8.021  23.121  18.358  1.00  0.00    -0.003 C 
ATOM      9  C   UNL     1      -9.196  24.164  18.187  1.00  0.00    -0.011 C 
ATOM     10  C   UNL     1      -7.557  19.471  20.083  1.00  0.00    -0.006 C 
ATOM     11  C   UNL     1      -6.379  20.491  18.099  1.00  0.00    -0.027 C 
ATOM     12  C   UNL     1      -7.055  23.281  17.162  1.00  0.00     0.008 C 
ATOM     13  C   UNL     1      -9.569  24.544  16.709  1.00  0.00     0.008 C 
ATOM     14  C   UNL     1      -6.822  20.179  21.285  1.00  0.00     0.017 C 
ATOM     15  C   UNL     1      -6.820  18.000  19.756  1.00  0.00    -0.020 C 
ATOM     16  C   UNL     1      -5.237  19.638  18.458  1.00  0.00     0.032 C 
ATOM     17  C   UNL     1      -5.794  18.199  18.613  1.00  0.00     0.006 C 
ATOM     18  C   UNL     1      -7.736  16.824  19.226  1.00  0.00     0.008 C 
ATOM     19  C   UNL     1      -6.328  17.406  21.139  1.00  0.00     0.012 C 
ATOM     20  C   UNL     1      -4.743  17.044  18.241  1.00  0.00    -0.025 C 
ATOM     21  C   UNL     1      -7.003  15.665  18.414  1.00  0.00     0.005 C 
ATOM     22  C   UNL     1      -5.387  15.579  18.367  1.00  0.00     0.003 C 
ATOM     23  C   UNL     1      -4.376  17.339  16.712  1.00  0.00     0.010 C 
ATOM     24  C   UNL     1      -3.441  17.258  19.174  1.00  0.00     0.012 C 
ATOM     25  C   UNL     1      -4.786  14.441  17.399  1.00  0.00    -0.006 C 
ATOM     26  C   UNL     1      -4.878  16.329  15.684  1.00  0.00     0.033 C 
ATOM     27  C   UNL     1      -4.352  14.932  15.937  1.00  0.00     0.120 C 
ATOM     28  C   UNL     1      -3.579  13.794  18.100  1.00  0.00     0.014 C 
ATOM     29  C   UNL     1      -5.793  13.325  17.213  1.00  0.00     0.014 C 
ENDROOT
BRANCH   1  30
ATOM     30  C   UNL     1      -9.470  22.152  21.065  1.00  0.00     0.048 C 
ATOM     31  O   UNL     1      -8.371  22.762  21.400  1.00  0.00    -0.550 OA
ATOM     32  O   UNL     1     -10.492  22.003  22.004  1.00  0.00    -0.550 OA
ENDBRANCH   1  30
BRANCH  27  33
ATOM     33  O   UNL     1      -4.849  14.108  14.876  1.00  0.00    -0.393 OA
ATOM     34  H   UNL     1      -5.649  13.626  15.181  1.00  0.00     0.210 HD
ENDBRANCH  27  33
TORSDOF 2
ENDMDL
MODEL 8
REMARK VINA RESULT:    -6.278      4.511      6.695
REMARK INTER + INTRA:          -6.628
REMARK INTER:                  -6.822
REMARK INTRA:                   0.194
REMARK UNBOUND:                 0.200
REMARK SMILES C[C@@H]1[C@H]2C3=CC[C@H]4[C@]5(C)CC[C@H](O)C(C)(C)[C@@H]5CC[C@]4(C)[C@]3(C)CC[C@]2(C(=O)[O-])CC[C@@H]1C
REMARK SMILES IDX 26 1 30 2 25 3 3 4 31 5 24 6 4 7 2 8 32 9 22 10 5 11 1 12
REMARK SMILES IDX 33 13 23 14 20 15 6 16 7 17 19 18 21 19 8 20 18 21 17 22
REMARK SMILES IDX 10 23 9 24 14 25 11 26 12 27 15 28 16 29 27 30 28 31 29 32
REMARK SMILES IDX 13 33
REMARK H PARENT 13 34
REMARK Flexibility Score: inf
ROOT
ATOM      1  C   UNL     1      -5.899  19.292  21.910  1.00  0.00     0.017 C 
ATOM      2  C   UNL     1      -6.626  20.146  22.983  1.00  0.00     0.014 C 
ATOM      3  C   UNL     1      -5.028  18.228  22.617  1.00  0.00     0.014 C 
ATOM      4  C   UNL     1      -7.003  18.531  21.106  1.00  0.00     0.030 C 
ATOM      5  C   UNL     1      -7.415  21.286  22.328  1.00  0.00     0.004 C 
ATOM      6  C   UNL     1      -4.177  17.442  21.603  1.00  0.00     0.013 C 
ATOM      7  C   UNL     1      -6.415  17.340  20.297  1.00  0.00    -0.063 C 
ATOM      8  C   UNL     1      -7.988  19.549  20.370  1.00  0.00    -0.003 C 
ATOM      9  C   UNL     1      -8.429  20.771  21.270  1.00  0.00    -0.011 C 
ATOM     10  C   UNL     1      -4.876  16.937  20.276  1.00  0.00    -0.006 C 
ATOM     11  C   UNL     1      -7.267  16.642  19.528  1.00  0.00    -0.027 C 
ATOM     12  C   UNL     1      -9.261  18.895  19.786  1.00  0.00     0.008 C 
ATOM     13  C   UNL     1      -9.834  20.645  21.961  1.00  0.00     0.008 C 
ATOM     14  C   UNL     1      -4.271  17.766  19.080  1.00  0.00     0.017 C 
ATOM     15  C   UNL     1      -4.603  15.301  20.028  1.00  0.00    -0.020 C 
ATOM     16  C   UNL     1      -6.744  15.667  18.560  1.00  0.00     0.032 C 
ATOM     17  C   UNL     1      -5.857  14.681  19.363  1.00  0.00     0.006 C 
ATOM     18  C   UNL     1      -4.378  14.394  21.304  1.00  0.00     0.008 C 
ATOM     19  C   UNL     1      -3.201  15.166  19.303  1.00  0.00     0.012 C 
ATOM     20  C   UNL     1      -5.819  13.192  18.763  1.00  0.00    -0.025 C 
ATOM     21  C   UNL     1      -4.670  12.837  21.127  1.00  0.00     0.005 C 
ATOM     22  C   UNL     1      -4.931  12.202  19.662  1.00  0.00     0.003 C 
ATOM     23  C   UNL     1      -7.350  12.726  18.800  1.00  0.00     0.010 C 
ATOM     24  C   UNL     1      -5.312  13.303  17.232  1.00  0.00     0.012 C 
ATOM     25  C   UNL     1      -5.349  10.647  19.649  1.00  0.00    -0.006 C 
ATOM     26  C   UNL     1      -7.701  11.627  19.801  1.00  0.00     0.033 C 
ATOM     27  C   UNL     1      -6.922  10.352  19.560  1.00  0.00     0.120 C 
ATOM     28  C   UNL     1      -4.633   9.960  18.473  1.00  0.00     0.014 C 
ATOM     29  C   UNL     1      -4.836   9.956  20.895  1.00  0.00     0.014 C 
ENDROOT
BRANCH   1  30
ATOM     30  C   UNL     1      -4.946  20.261  21.147  1.00  0.00     0.048 C 
ATOM     31  O   UNL     1      -5.165  20.621  19.916  1.00  0.00    -0.550 OA
ATOM     32  O   UNL     1      -3.832  20.758  21.825  1.00  0.00    -0.550 OA
ENDBRANCH   1  30
BRANCH  27  33
ATOM     33  O   UNL     1      -7.389   9.398  20.522  1.00  0.00    -0.393 OA
ATOM     34  H   UNL     1      -8.351   9.526  20.670  1.00  0.00     0.210 HD
ENDBRANCH  27  33
TORSDOF 2
ENDMDL
MODEL 9
REMARK VINA RESULT:    -6.241      5.127      7.922
REMARK INTER + INTRA:          -6.588
REMARK INTER:                  -6.787
REMARK INTRA:                   0.199
REMARK UNBOUND:                 0.200
REMARK SMILES C[C@@H]1[C@H]2C3=CC[C@H]4[C@]5(C)CC[C@H](O)C(C)(C)[C@@H]5CC[C@]4(C)[C@]3(C)CC[C@]2(C(=O)[O-])CC[C@@H]1C
REMARK SMILES IDX 26 1 30 2 25 3 3 4 31 5 24 6 4 7 2 8 32 9 22 10 5 11 1 12
REMARK SMILES IDX 33 13 23 14 20 15 6 16 7 17 19 18 21 19 8 20 18 21 17 22
REMARK SMILES IDX 10 23 9 24 14 25 11 26 12 27 15 28 16 29 27 30 28 31 29 32
REMARK SMILES IDX 13 33
REMARK H PARENT 13 34
REMARK Flexibility Score: inf
ROOT
ATOM      1  C   UNL     1      -6.313  12.275  18.404  1.00  0.00     0.017 C 
ATOM      2  C   UNL     1      -6.782  10.913  18.980  1.00  0.00     0.014 C 
ATOM      3  C   UNL     1      -7.554  13.145  18.090  1.00  0.00     0.014 C 
ATOM      4  C   UNL     1      -5.512  12.999  19.534  1.00  0.00     0.030 C 
ATOM      5  C   UNL     1      -5.587   9.977  19.202  1.00  0.00     0.004 C 
ATOM      6  C   UNL     1      -7.153  14.454  17.387  1.00  0.00     0.013 C 
ATOM      7  C   UNL     1      -5.349  14.520  19.248  1.00  0.00    -0.063 C 
ATOM      8  C   UNL     1      -4.226  12.156  19.962  1.00  0.00    -0.003 C 
ATOM      9  C   UNL     1      -4.505  10.608  20.119  1.00  0.00    -0.011 C 
ATOM     10  C   UNL     1      -5.919  15.261  17.961  1.00  0.00    -0.006 C 
ATOM     11  C   UNL     1      -4.633  15.236  20.131  1.00  0.00    -0.027 C 
ATOM     12  C   UNL     1      -3.537  12.656  21.253  1.00  0.00     0.008 C 
ATOM     13  C   UNL     1      -4.748  10.097  21.584  1.00  0.00     0.008 C 
ATOM     14  C   UNL     1      -4.756  15.159  16.903  1.00  0.00     0.017 C 
ATOM     15  C   UNL     1      -6.311  16.872  18.220  1.00  0.00    -0.020 C 
ATOM     16  C   UNL     1      -4.237  16.613  19.803  1.00  0.00     0.032 C 
ATOM     17  C   UNL     1      -5.543  17.377  19.466  1.00  0.00     0.006 C 
ATOM     18  C   UNL     1      -7.818  17.214  18.552  1.00  0.00     0.008 C 
ATOM     19  C   UNL     1      -6.122  17.625  16.839  1.00  0.00     0.012 C 
ATOM     20  C   UNL     1      -5.501  18.942  19.826  1.00  0.00    -0.025 C 
ATOM     21  C   UNL     1      -8.080  18.587  19.319  1.00  0.00     0.005 C 
ATOM     22  C   UNL     1      -6.895  19.672  19.507  1.00  0.00     0.003 C 
ATOM     23  C   UNL     1      -5.232  18.963  21.404  1.00  0.00     0.010 C 
ATOM     24  C   UNL     1      -4.242  19.584  19.042  1.00  0.00     0.012 C 
ATOM     25  C   UNL     1      -7.266  20.946  20.419  1.00  0.00    -0.006 C 
ATOM     26  C   UNL     1      -6.383  19.444  22.284  1.00  0.00     0.033 C 
ATOM     27  C   UNL     1      -6.815  20.857  21.954  1.00  0.00     0.120 C 
ATOM     28  C   UNL     1      -6.648  22.200  19.776  1.00  0.00     0.014 C 
ATOM     29  C   UNL     1      -8.762  21.182  20.407  1.00  0.00     0.014 C 
ENDROOT
BRANCH   1  30
ATOM     30  C   UNL     1      -5.596  11.961  17.056  1.00  0.00     0.048 C 
ATOM     31  O   UNL     1      -4.308  12.076  16.913  1.00  0.00    -0.550 OA
ATOM     32  O   UNL     1      -6.375  11.532  15.980  1.00  0.00    -0.550 OA
ENDBRANCH   1  30
BRANCH  27  33
ATOM     33  O   UNL     1      -7.850  21.198  22.884  1.00  0.00    -0.393 OA
ATOM     34  H   UNL     1      -7.556  20.982  23.796  1.00  0.00     0.210 HD
ENDBRANCH  27  33
TORSDOF 2
ENDMDL
