MODEL 1
REMARK VINA RESULT:    -3.858      0.000      0.000
REMARK INTER + INTRA:         -12.362
REMARK INTER:                  -8.368
REMARK INTRA:                  -3.993
REMARK UNBOUND:                -3.993
REMARK SMILES CCCCCCCCCCCCCCCCCCCCCC(=O)[O-]
REMARK SMILES IDX 12 1 11 2 10 3 9 4 8 5 7 6 6 7 5 8 4 9 3 10 2 11 1 12 13 13
REMARK SMILES IDX 14 14 15 15 16 16 17 17 18 18 19 19 20 20 21 21 22 22 23 23
REMARK SMILES IDX 24 24
REMARK H PARENT
REMARK Flexibility Score: inf
ROOT
ATOM      1  C   UNL     1     173.987 171.804 156.890  1.00  0.00     0.000 C 
ENDROOT
BRANCH   1   2
ATOM      2  C   UNL     1     173.967 173.227 156.302  1.00  0.00     0.000 C 
BRANCH   2   3
ATOM      3  C   UNL     1     173.976 173.299 154.761  1.00  0.00     0.000 C 
BRANCH   3   4
ATOM      4  C   UNL     1     175.355 173.098 154.101  1.00  0.00    -0.000 C 
BRANCH   4   5
ATOM      5  C   UNL     1     175.640 174.018 152.899  1.00  0.00    -0.000 C 
BRANCH   5   6
ATOM      6  C   UNL     1     174.437 174.257 151.967  1.00  0.00    -0.000 C 
BRANCH   6   7
ATOM      7  C   UNL     1     174.691 173.830 150.505  1.00  0.00    -0.000 C 
BRANCH   7   8
ATOM      8  C   UNL     1     173.406 173.375 149.795  1.00  0.00    -0.000 C 
BRANCH   8   9
ATOM      9  C   UNL     1     172.174 173.634 150.671  1.00  0.00    -0.000 C 
BRANCH   9  10
ATOM     10  C   UNL     1     171.450 172.320 151.003  1.00  0.00    -0.000 C 
BRANCH  10  11
ATOM     11  C   UNL     1     171.386 172.049 152.514  1.00  0.00    -0.003 C 
ATOM     12  C   UNL     1     170.660 173.152 153.283  1.00  0.00     0.004 C 
ENDBRANCH  10  11
ENDBRANCH   9  10
ENDBRANCH   8   9
ENDBRANCH   7   8
ENDBRANCH   6   7
ENDBRANCH   5   6
ENDBRANCH   4   5
ENDBRANCH   3   4
ENDBRANCH   2   3
ENDBRANCH   1   2
BRANCH   1  13
ATOM     13  C   UNL     1     172.776 170.962 156.451  1.00  0.00     0.000 C 
BRANCH  13  14
ATOM     14  C   UNL     1     173.183 169.720 155.641  1.00  0.00     0.000 C 
BRANCH  14  15
ATOM     15  C   UNL     1     174.710 169.528 155.580  1.00  0.00     0.000 C 
BRANCH  15  16
ATOM     16  C   UNL     1     175.223 169.353 154.142  1.00  0.00     0.000 C 
BRANCH  16  17
ATOM     17  C   UNL     1     174.141 169.650 153.087  1.00  0.00     0.000 C 
BRANCH  17  18
ATOM     18  C   UNL     1     174.703 170.368 151.850  1.00  0.00     0.000 C 
BRANCH  18  19
ATOM     19  C   UNL     1     174.124 169.820 150.537  1.00  0.00     0.000 C 
BRANCH  19  20
ATOM     20  C   UNL     1     175.170 168.984 149.785  1.00  0.00     0.006 C 
BRANCH  20  21
ATOM     21  C   UNL     1     174.627 167.610 149.368  1.00  0.00     0.053 C 
BRANCH  21  22
ATOM     22  C   UNL     1     174.071 166.854 150.537  1.00  0.00     0.041 C 
ATOM     23  O   UNL     1     174.835 166.446 151.450  1.00  0.00    -0.550 OA
ATOM     24  O   UNL     1     172.709 166.579 150.604  1.00  0.00    -0.550 OA
ENDBRANCH  21  22
ENDBRANCH  20  21
ENDBRANCH  19  20
ENDBRANCH  18  19
ENDBRANCH  17  18
ENDBRANCH  16  17
ENDBRANCH  15  16
ENDBRANCH  14  15
ENDBRANCH  13  14
ENDBRANCH   1  13
TORSDOF 20
ENDMDL
MODEL 2
REMARK VINA RESULT:    -3.762      5.058      7.527
REMARK INTER + INTRA:         -12.154
REMARK INTER:                 -10.678
REMARK INTRA:                  -1.476
REMARK UNBOUND:                -3.993
REMARK SMILES CCCCCCCCCCCCCCCCCCCCCC(=O)[O-]
REMARK SMILES IDX 12 1 11 2 10 3 9 4 8 5 7 6 6 7 5 8 4 9 3 10 2 11 1 12 13 13
REMARK SMILES IDX 14 14 15 15 16 16 17 17 18 18 19 19 20 20 21 21 22 22 23 23
REMARK SMILES IDX 24 24
REMARK H PARENT
REMARK Flexibility Score: inf
ROOT
ATOM      1  C   UNL     1     173.324 166.011 150.768  1.00  0.00     0.000 C 
ENDROOT
BRANCH   1   2
ATOM      2  C   UNL     1     174.304 166.778 149.863  1.00  0.00     0.000 C 
BRANCH   2   3
ATOM      3  C   UNL     1     174.071 168.302 149.787  1.00  0.00     0.000 C 
BRANCH   3   4
ATOM      4  C   UNL     1     175.255 169.172 150.255  1.00  0.00    -0.000 C 
BRANCH   4   5
ATOM      5  C   UNL     1     174.919 170.659 150.479  1.00  0.00    -0.000 C 
BRANCH   5   6
ATOM      6  C   UNL     1     173.458 171.044 150.180  1.00  0.00    -0.000 C 
BRANCH   6   7
ATOM      7  C   UNL     1     173.249 172.559 149.961  1.00  0.00    -0.000 C 
BRANCH   7   8
ATOM      8  C   UNL     1     174.575 173.320 149.817  1.00  0.00    -0.000 C 
BRANCH   8   9
ATOM      9  C   UNL     1     174.829 174.216 151.035  1.00  0.00    -0.000 C 
BRANCH   9  10
ATOM     10  C   UNL     1     173.616 174.216 151.979  1.00  0.00    -0.000 C 
BRANCH  10  11
ATOM     11  C   UNL     1     173.971 173.728 153.392  1.00  0.00    -0.003 C 
ATOM     12  C   UNL     1     175.456 173.402 153.550  1.00  0.00     0.004 C 
ENDBRANCH  10  11
ENDBRANCH   9  10
ENDBRANCH   8   9
ENDBRANCH   7   8
ENDBRANCH   6   7
ENDBRANCH   5   6
ENDBRANCH   4   5
ENDBRANCH   3   4
ENDBRANCH   2   3
ENDBRANCH   1   2
BRANCH   1  13
ATOM     13  C   UNL     1     173.978 164.808 151.471  1.00  0.00     0.000 C 
BRANCH  13  14
ATOM     14  C   UNL     1     175.383 164.500 150.927  1.00  0.00     0.000 C 
BRANCH  14  15
ATOM     15  C   UNL     1     175.769 163.019 151.092  1.00  0.00     0.000 C 
BRANCH  15  16
ATOM     16  C   UNL     1     174.775 162.072 150.399  1.00  0.00     0.000 C 
BRANCH  16  17
ATOM     17  C   UNL     1     175.463 160.839 149.784  1.00  0.00     0.000 C 
BRANCH  17  18
ATOM     18  C   UNL     1     175.728 159.735 150.819  1.00  0.00     0.000 C 
BRANCH  18  19
ATOM     19  C   UNL     1     174.506 159.453 151.706  1.00  0.00     0.000 C 
BRANCH  19  20
ATOM     20  C   UNL     1     173.352 158.868 150.877  1.00  0.00     0.006 C 
BRANCH  20  21
ATOM     21  C   UNL     1     171.979 159.187 151.485  1.00  0.00     0.053 C 
BRANCH  21  22
ATOM     22  C   UNL     1     171.245 157.943 151.885  1.00  0.00     0.041 C 
ATOM     23  O   UNL     1     170.061 157.754 151.501  1.00  0.00    -0.550 OA
ATOM     24  O   UNL     1     171.863 157.002 152.702  1.00  0.00    -0.550 OA
ENDBRANCH  21  22
ENDBRANCH  20  21
ENDBRANCH  19  20
ENDBRANCH  18  19
ENDBRANCH  17  18
ENDBRANCH  16  17
ENDBRANCH  15  16
ENDBRANCH  14  15
ENDBRANCH  13  14
ENDBRANCH   1  13
TORSDOF 20
ENDMDL
MODEL 3
REMARK VINA RESULT:    -3.748      2.999      6.685
REMARK INTER + INTRA:         -12.123
REMARK INTER:                  -8.371
REMARK INTRA:                  -3.752
REMARK UNBOUND:                -3.993
REMARK SMILES CCCCCCCCCCCCCCCCCCCCCC(=O)[O-]
REMARK SMILES IDX 12 1 11 2 10 3 9 4 8 5 7 6 6 7 5 8 4 9 3 10 2 11 1 12 13 13
REMARK SMILES IDX 14 14 15 15 16 16 17 17 18 18 19 19 20 20 21 21 22 22 23 23
REMARK SMILES IDX 24 24
REMARK H PARENT
REMARK Flexibility Score: inf
ROOT
ATOM      1  C   UNL     1     171.580 171.270 152.209  1.00  0.00     0.000 C 
ENDROOT
BRANCH   1   2
ATOM      2  C   UNL     1     172.331 170.119 151.514  1.00  0.00     0.000 C 
BRANCH   2   3
ATOM      3  C   UNL     1     172.883 170.451 150.111  1.00  0.00     0.000 C 
BRANCH   3   4
ATOM      4  C   UNL     1     174.420 170.423 149.987  1.00  0.00    -0.000 C 
BRANCH   4   5
ATOM      5  C   UNL     1     175.064 169.042 150.213  1.00  0.00    -0.000 C 
BRANCH   5   6
ATOM      6  C   UNL     1     174.652 167.961 149.194  1.00  0.00    -0.000 C 
BRANCH   6   7
ATOM      7  C   UNL     1     173.718 166.880 149.780  1.00  0.00    -0.000 C 
BRANCH   7   8
ATOM      8  C   UNL     1     174.478 165.841 150.619  1.00  0.00    -0.000 C 
BRANCH   8   9
ATOM      9  C   UNL     1     173.717 165.517 151.911  1.00  0.00    -0.000 C 
BRANCH   9  10
ATOM     10  C   UNL     1     173.502 166.783 152.754  1.00  0.00    -0.000 C 
BRANCH  10  11
ATOM     11  C   UNL     1     174.808 167.308 153.369  1.00  0.00    -0.003 C 
ATOM     12  C   UNL     1     174.688 168.746 153.874  1.00  0.00     0.004 C 
ENDBRANCH  10  11
ENDBRANCH   9  10
ENDBRANCH   8   9
ENDBRANCH   7   8
ENDBRANCH   6   7
ENDBRANCH   5   6
ENDBRANCH   4   5
ENDBRANCH   3   4
ENDBRANCH   2   3
ENDBRANCH   1   2
BRANCH   1  13
ATOM     13  C   UNL     1     170.960 172.265 151.212  1.00  0.00     0.000 C 
BRANCH  13  14
ATOM     14  C   UNL     1     170.806 173.675 151.805  1.00  0.00     0.000 C 
BRANCH  14  15
ATOM     15  C   UNL     1     172.034 174.565 151.540  1.00  0.00     0.000 C 
BRANCH  15  16
ATOM     16  C   UNL     1     172.810 174.137 150.284  1.00  0.00     0.000 C 
BRANCH  16  17
ATOM     17  C   UNL     1     174.312 173.930 150.559  1.00  0.00     0.000 C 
BRANCH  17  18
ATOM     18  C   UNL     1     174.658 174.036 152.052  1.00  0.00     0.000 C 
BRANCH  18  19
ATOM     19  C   UNL     1     174.970 172.670 152.682  1.00  0.00     0.000 C 
BRANCH  19  20
ATOM     20  C   UNL     1     174.930 172.753 154.215  1.00  0.00     0.006 C 
BRANCH  20  21
ATOM     21  C   UNL     1     173.750 173.594 154.722  1.00  0.00     0.053 C 
BRANCH  21  22
ATOM     22  C   UNL     1     173.979 174.091 156.118  1.00  0.00     0.041 C 
ATOM     23  O   UNL     1     174.186 175.314 156.329  1.00  0.00    -0.550 OA
ATOM     24  O   UNL     1     173.987 173.196 157.182  1.00  0.00    -0.550 OA
ENDBRANCH  21  22
ENDBRANCH  20  21
ENDBRANCH  19  20
ENDBRANCH  18  19
ENDBRANCH  17  18
ENDBRANCH  16  17
ENDBRANCH  15  16
ENDBRANCH  14  15
ENDBRANCH  13  14
ENDBRANCH   1  13
TORSDOF 20
ENDMDL
MODEL 4
REMARK VINA RESULT:    -3.713      1.488      4.256
REMARK INTER + INTRA:         -12.048
REMARK INTER:                  -8.575
REMARK INTRA:                  -3.473
REMARK UNBOUND:                -3.993
REMARK SMILES CCCCCCCCCCCCCCCCCCCCCC(=O)[O-]
REMARK SMILES IDX 12 1 11 2 10 3 9 4 8 5 7 6 6 7 5 8 4 9 3 10 2 11 1 12 13 13
REMARK SMILES IDX 14 14 15 15 16 16 17 17 18 18 19 19 20 20 21 21 22 22 23 23
REMARK SMILES IDX 24 24
REMARK H PARENT
REMARK Flexibility Score: inf
ROOT
ATOM      1  C   UNL     1     170.396 172.835 151.472  1.00  0.00     0.000 C 
ENDROOT
BRANCH   1   2
ATOM      2  C   UNL     1     170.759 174.318 151.270  1.00  0.00     0.000 C 
BRANCH   2   3
ATOM      3  C   UNL     1     172.258 174.599 151.039  1.00  0.00     0.000 C 
BRANCH   3   4
ATOM      4  C   UNL     1     172.905 173.808 149.885  1.00  0.00    -0.000 C 
BRANCH   4   5
ATOM      5  C   UNL     1     174.395 173.469 150.085  1.00  0.00    -0.000 C 
BRANCH   5   6
ATOM      6  C   UNL     1     174.958 173.824 151.474  1.00  0.00    -0.000 C 
BRANCH   6   7
ATOM      7  C   UNL     1     174.982 172.632 152.456  1.00  0.00    -0.000 C 
BRANCH   7   8
ATOM      8  C   UNL     1     175.254 173.069 153.903  1.00  0.00    -0.000 C 
BRANCH   8   9
ATOM      9  C   UNL     1     174.968 171.926 154.884  1.00  0.00    -0.000 C 
BRANCH   9  10
ATOM     10  C   UNL     1     174.897 170.577 154.152  1.00  0.00    -0.000 C 
BRANCH  10  11
ATOM     11  C   UNL     1     174.943 169.381 155.116  1.00  0.00    -0.003 C 
ATOM     12  C   UNL     1     175.645 169.710 156.433  1.00  0.00     0.004 C 
ENDBRANCH  10  11
ENDBRANCH   9  10
ENDBRANCH   8   9
ENDBRANCH   7   8
ENDBRANCH   6   7
ENDBRANCH   5   6
ENDBRANCH   4   5
ENDBRANCH   3   4
ENDBRANCH   2   3
ENDBRANCH   1   2
BRANCH   1  13
ATOM     13  C   UNL     1     171.244 172.158 152.563  1.00  0.00     0.000 C 
BRANCH  13  14
ATOM     14  C   UNL     1     171.836 170.816 152.102  1.00  0.00     0.000 C 
BRANCH  14  15
ATOM     15  C   UNL     1     171.417 170.447 150.668  1.00  0.00     0.000 C 
BRANCH  15  16
ATOM     16  C   UNL     1     172.620 170.093 149.777  1.00  0.00     0.000 C 
BRANCH  16  17
ATOM     17  C   UNL     1     173.866 169.701 150.594  1.00  0.00     0.000 C 
BRANCH  17  18
ATOM     18  C   UNL     1     174.843 168.825 149.795  1.00  0.00     0.000 C 
BRANCH  18  19
ATOM     19  C   UNL     1     174.194 167.526 149.292  1.00  0.00     0.000 C 
BRANCH  19  20
ATOM     20  C   UNL     1     174.613 166.333 150.163  1.00  0.00     0.006 C 
BRANCH  20  21
ATOM     21  C   UNL     1     173.626 166.073 151.309  1.00  0.00     0.053 C 
BRANCH  21  22
ATOM     22  C   UNL     1     174.248 166.330 152.648  1.00  0.00     0.041 C 
ATOM     23  O   UNL     1     175.412 166.802 152.726  1.00  0.00    -0.550 OA
ATOM     24  O   UNL     1     173.549 166.025 153.811  1.00  0.00    -0.550 OA
ENDBRANCH  21  22
ENDBRANCH  20  21
ENDBRANCH  19  20
ENDBRANCH  18  19
ENDBRANCH  17  18
ENDBRANCH  16  17
ENDBRANCH  15  16
ENDBRANCH  14  15
ENDBRANCH  13  14
ENDBRANCH   1  13
TORSDOF 20
ENDMDL
MODEL 5
REMARK VINA RESULT:    -3.706      3.204      6.352
REMARK INTER + INTRA:         -12.031
REMARK INTER:                  -7.916
REMARK INTRA:                  -4.116
REMARK UNBOUND:                -3.993
REMARK SMILES CCCCCCCCCCCCCCCCCCCCCC(=O)[O-]
REMARK SMILES IDX 12 1 11 2 10 3 9 4 8 5 7 6 6 7 5 8 4 9 3 10 2 11 1 12 13 13
REMARK SMILES IDX 14 14 15 15 16 16 17 17 18 18 19 19 20 20 21 21 22 22 23 23
REMARK SMILES IDX 24 24
REMARK H PARENT
REMARK Flexibility Score: inf
ROOT
ATOM      1  C   UNL     1     173.711 171.969 150.139  1.00  0.00     0.000 C 
ENDROOT
BRANCH   1   2
ATOM      2  C   UNL     1     174.916 171.011 150.172  1.00  0.00     0.000 C 
BRANCH   2   3
ATOM      3  C   UNL     1     175.002 170.110 151.422  1.00  0.00     0.000 C 
BRANCH   3   4
ATOM      4  C   UNL     1     175.053 168.595 151.136  1.00  0.00    -0.000 C 
BRANCH   4   5
ATOM      5  C   UNL     1     175.017 168.214 149.644  1.00  0.00    -0.000 C 
BRANCH   5   6
ATOM      6  C   UNL     1     174.014 167.101 149.284  1.00  0.00    -0.000 C 
BRANCH   6   7
ATOM      7  C   UNL     1     172.853 167.578 148.384  1.00  0.00    -0.000 C 
BRANCH   7   8
ATOM      8  C   UNL     1     172.127 168.802 148.963  1.00  0.00    -0.000 C 
BRANCH   8   9
ATOM      9  C   UNL     1     171.109 168.382 150.030  1.00  0.00    -0.000 C 
BRANCH   9  10
ATOM     10  C   UNL     1     171.032 169.422 151.158  1.00  0.00    -0.000 C 
BRANCH  10  11
ATOM     11  C   UNL     1     171.704 168.937 152.452  1.00  0.00    -0.003 C 
ATOM     12  C   UNL     1     171.779 167.413 152.544  1.00  0.00     0.004 C 
ENDBRANCH  10  11
ENDBRANCH   9  10
ENDBRANCH   8   9
ENDBRANCH   7   8
ENDBRANCH   6   7
ENDBRANCH   5   6
ENDBRANCH   4   5
ENDBRANCH   3   4
ENDBRANCH   2   3
ENDBRANCH   1   2
BRANCH   1  13
ATOM     13  C   UNL     1     174.107 173.411 149.775  1.00  0.00     0.000 C 
BRANCH  13  14
ATOM     14  C   UNL     1     174.019 174.368 150.976  1.00  0.00     0.000 C 
BRANCH  14  15
ATOM     15  C   UNL     1     175.011 174.003 152.095  1.00  0.00     0.000 C 
BRANCH  15  16
ATOM     16  C   UNL     1     174.335 173.916 153.474  1.00  0.00     0.000 C 
BRANCH  16  17
ATOM     17  C   UNL     1     174.046 172.464 153.900  1.00  0.00     0.000 C 
BRANCH  17  18
ATOM     18  C   UNL     1     172.542 172.158 153.968  1.00  0.00     0.000 C 
BRANCH  18  19
ATOM     19  C   UNL     1     171.681 173.315 153.437  1.00  0.00     0.000 C 
BRANCH  19  20
ATOM     20  C   UNL     1     170.798 172.849 152.270  1.00  0.00     0.006 C 
BRANCH  20  21
ATOM     21  C   UNL     1     170.380 174.010 151.356  1.00  0.00     0.053 C 
BRANCH  21  22
ATOM     22  C   UNL     1     168.892 174.180 151.318  1.00  0.00     0.041 C 
ATOM     23  O   UNL     1     168.234 173.782 150.322  1.00  0.00    -0.550 OA
ATOM     24  O   UNL     1     168.235 174.802 152.374  1.00  0.00    -0.550 OA
ENDBRANCH  21  22
ENDBRANCH  20  21
ENDBRANCH  19  20
ENDBRANCH  18  19
ENDBRANCH  17  18
ENDBRANCH  16  17
ENDBRANCH  15  16
ENDBRANCH  14  15
ENDBRANCH  13  14
ENDBRANCH   1  13
TORSDOF 20
ENDMDL
MODEL 6
REMARK VINA RESULT:    -3.693      2.742      5.984
REMARK INTER + INTRA:         -12.003
REMARK INTER:                  -7.988
REMARK INTRA:                  -4.015
REMARK UNBOUND:                -3.993
REMARK SMILES CCCCCCCCCCCCCCCCCCCCCC(=O)[O-]
REMARK SMILES IDX 12 1 11 2 10 3 9 4 8 5 7 6 6 7 5 8 4 9 3 10 2 11 1 12 13 13
REMARK SMILES IDX 14 14 15 15 16 16 17 17 18 18 19 19 20 20 21 21 22 22 23 23
REMARK SMILES IDX 24 24
REMARK H PARENT
REMARK Flexibility Score: inf
ROOT
ATOM      1  C   UNL     1     174.004 167.604 148.982  1.00  0.00     0.000 C 
ENDROOT
BRANCH   1   2
ATOM      2  C   UNL     1     172.954 167.214 150.038  1.00  0.00     0.000 C 
BRANCH   2   3
ATOM      3  C   UNL     1     171.554 167.830 149.830  1.00  0.00     0.000 C 
BRANCH   3   4
ATOM      4  C   UNL     1     171.404 169.292 150.299  1.00  0.00    -0.000 C 
BRANCH   4   5
ATOM      5  C   UNL     1     170.635 169.472 151.622  1.00  0.00    -0.000 C 
BRANCH   5   6
ATOM      6  C   UNL     1     171.521 169.730 152.856  1.00  0.00    -0.000 C 
BRANCH   6   7
ATOM      7  C   UNL     1     171.956 171.203 153.011  1.00  0.00    -0.000 C 
BRANCH   7   8
ATOM      8  C   UNL     1     171.059 171.981 153.985  1.00  0.00    -0.000 C 
BRANCH   8   9
ATOM      9  C   UNL     1     170.611 173.314 153.372  1.00  0.00    -0.000 C 
BRANCH   9  10
ATOM     10  C   UNL     1     170.916 173.358 151.867  1.00  0.00    -0.000 C 
BRANCH  10  11
ATOM     11  C   UNL     1     169.665 173.642 151.021  1.00  0.00    -0.003 C 
ATOM     12  C   UNL     1     168.641 172.509 151.081  1.00  0.00     0.004 C 
ENDBRANCH  10  11
ENDBRANCH   9  10
ENDBRANCH   8   9
ENDBRANCH   7   8
ENDBRANCH   6   7
ENDBRANCH   5   6
ENDBRANCH   4   5
ENDBRANCH   3   4
ENDBRANCH   2   3
ENDBRANCH   1   2
BRANCH   1  13
ATOM     13  C   UNL     1     175.137 168.469 149.560  1.00  0.00     0.000 C 
BRANCH  13  14
ATOM     14  C   UNL     1     174.956 168.754 151.060  1.00  0.00     0.000 C 
BRANCH  14  15
ATOM     15  C   UNL     1     175.012 170.258 151.387  1.00  0.00     0.000 C 
BRANCH  15  16
ATOM     16  C   UNL     1     174.986 171.135 150.125  1.00  0.00     0.000 C 
BRANCH  16  17
ATOM     17  C   UNL     1     173.759 172.065 150.076  1.00  0.00     0.000 C 
BRANCH  17  18
ATOM     18  C   UNL     1     174.128 173.508 149.699  1.00  0.00     0.000 C 
BRANCH  18  19
ATOM     19  C   UNL     1     175.077 174.158 150.718  1.00  0.00     0.000 C 
BRANCH  19  20
ATOM     20  C   UNL     1     174.419 174.239 152.104  1.00  0.00     0.006 C 
BRANCH  20  21
ATOM     21  C   UNL     1     175.294 173.615 153.200  1.00  0.00     0.053 C 
BRANCH  21  22
ATOM     22  C   UNL     1     174.526 173.399 154.469  1.00  0.00     0.041 C 
ATOM     23  O   UNL     1     173.716 174.272 154.876  1.00  0.00    -0.550 OA
ATOM     24  O   UNL     1     174.723 172.241 155.213  1.00  0.00    -0.550 OA
ENDBRANCH  21  22
ENDBRANCH  20  21
ENDBRANCH  19  20
ENDBRANCH  18  19
ENDBRANCH  17  18
ENDBRANCH  16  17
ENDBRANCH  15  16
ENDBRANCH  14  15
ENDBRANCH  13  14
ENDBRANCH   1  13
TORSDOF 20
ENDMDL
MODEL 7
REMARK VINA RESULT:    -3.667      2.086      4.576
REMARK INTER + INTRA:         -11.947
REMARK INTER:                  -8.263
REMARK INTRA:                  -3.684
REMARK UNBOUND:                -3.993
REMARK SMILES CCCCCCCCCCCCCCCCCCCCCC(=O)[O-]
REMARK SMILES IDX 12 1 11 2 10 3 9 4 8 5 7 6 6 7 5 8 4 9 3 10 2 11 1 12 13 13
REMARK SMILES IDX 14 14 15 15 16 16 17 17 18 18 19 19 20 20 21 21 22 22 23 23
REMARK SMILES IDX 24 24
REMARK H PARENT
REMARK Flexibility Score: inf
ROOT
ATOM      1  C   UNL     1     172.727 171.745 150.080  1.00  0.00     0.000 C 
ENDROOT
BRANCH   1   2
ATOM      2  C   UNL     1     173.533 172.981 149.641  1.00  0.00     0.000 C 
BRANCH   2   3
ATOM      3  C   UNL     1     173.701 174.071 150.720  1.00  0.00     0.000 C 
BRANCH   3   4
ATOM      4  C   UNL     1     175.141 174.267 151.236  1.00  0.00    -0.000 C 
BRANCH   4   5
ATOM      5  C   UNL     1     175.293 174.229 152.769  1.00  0.00    -0.000 C 
BRANCH   5   6
ATOM      6  C   UNL     1     174.973 172.869 153.417  1.00  0.00    -0.000 C 
BRANCH   6   7
ATOM      7  C   UNL     1     173.965 172.959 154.584  1.00  0.00    -0.000 C 
BRANCH   7   8
ATOM      8  C   UNL     1     172.663 173.669 154.181  1.00  0.00    -0.000 C 
BRANCH   8   9
ATOM      9  C   UNL     1     171.714 172.705 153.460  1.00  0.00    -0.000 C 
BRANCH   9  10
ATOM     10  C   UNL     1     170.365 173.380 153.164  1.00  0.00    -0.000 C 
BRANCH  10  11
ATOM     11  C   UNL     1     170.215 173.768 151.685  1.00  0.00    -0.003 C 
ATOM     12  C   UNL     1     168.823 173.461 151.132  1.00  0.00     0.004 C 
ENDBRANCH  10  11
ENDBRANCH   9  10
ENDBRANCH   8   9
ENDBRANCH   7   8
ENDBRANCH   6   7
ENDBRANCH   5   6
ENDBRANCH   4   5
ENDBRANCH   3   4
ENDBRANCH   2   3
ENDBRANCH   1   2
BRANCH   1  13
ATOM     13  C   UNL     1     173.595 170.688 150.786  1.00  0.00     0.000 C 
BRANCH  13  14
ATOM     14  C   UNL     1     175.040 170.665 150.261  1.00  0.00     0.000 C 
BRANCH  14  15
ATOM     15  C   UNL     1     175.499 169.252 149.856  1.00  0.00     0.000 C 
BRANCH  15  16
ATOM     16  C   UNL     1     174.320 168.290 149.641  1.00  0.00     0.000 C 
BRANCH  16  17
ATOM     17  C   UNL     1     174.434 167.013 150.494  1.00  0.00     0.000 C 
BRANCH  17  18
ATOM     18  C   UNL     1     173.710 167.139 151.843  1.00  0.00     0.000 C 
BRANCH  18  19
ATOM     19  C   UNL     1     174.660 166.975 153.040  1.00  0.00     0.000 C 
BRANCH  19  20
ATOM     20  C   UNL     1     175.413 168.283 153.324  1.00  0.00     0.006 C 
BRANCH  20  21
ATOM     21  C   UNL     1     174.537 169.312 154.051  1.00  0.00     0.053 C 
BRANCH  21  22
ATOM     22  C   UNL     1     174.830 169.354 155.521  1.00  0.00     0.041 C 
ATOM     23  O   UNL     1     174.179 168.629 156.317  1.00  0.00    -0.550 OA
ATOM     24  O   UNL     1     175.808 170.212 156.011  1.00  0.00    -0.550 OA
ENDBRANCH  21  22
ENDBRANCH  20  21
ENDBRANCH  19  20
ENDBRANCH  18  19
ENDBRANCH  17  18
ENDBRANCH  16  17
ENDBRANCH  15  16
ENDBRANCH  14  15
ENDBRANCH  13  14
ENDBRANCH   1  13
TORSDOF 20
ENDMDL
MODEL 8
REMARK VINA RESULT:    -3.640      2.997      5.727
REMARK INTER + INTRA:         -11.890
REMARK INTER:                  -8.395
REMARK INTRA:                  -3.495
REMARK UNBOUND:                -3.993
REMARK SMILES CCCCCCCCCCCCCCCCCCCCCC(=O)[O-]
REMARK SMILES IDX 12 1 11 2 10 3 9 4 8 5 7 6 6 7 5 8 4 9 3 10 2 11 1 12 13 13
REMARK SMILES IDX 14 14 15 15 16 16 17 17 18 18 19 19 20 20 21 21 22 22 23 23
REMARK SMILES IDX 24 24
REMARK H PARENT
REMARK Flexibility Score: inf
ROOT
ATOM      1  C   UNL     1     174.592 167.165 149.584  1.00  0.00     0.000 C 
ENDROOT
BRANCH   1   2
ATOM      2  C   UNL     1     174.291 168.668 149.725  1.00  0.00     0.000 C 
BRANCH   2   3
ATOM      3  C   UNL     1     175.412 169.502 150.379  1.00  0.00     0.000 C 
BRANCH   3   4
ATOM      4  C   UNL     1     175.060 170.979 150.649  1.00  0.00    -0.000 C 
BRANCH   4   5
ATOM      5  C   UNL     1     173.690 171.429 150.105  1.00  0.00    -0.000 C 
BRANCH   5   6
ATOM      6  C   UNL     1     173.566 172.940 149.833  1.00  0.00    -0.000 C 
BRANCH   6   7
ATOM      7  C   UNL     1     174.674 173.783 150.502  1.00  0.00    -0.000 C 
BRANCH   7   8
ATOM      8  C   UNL     1     174.272 174.278 151.900  1.00  0.00    -0.000 C 
BRANCH   8   9
ATOM      9  C   UNL     1     175.322 173.881 152.945  1.00  0.00    -0.000 C 
BRANCH   9  10
ATOM     10  C   UNL     1     174.669 173.161 154.135  1.00  0.00    -0.000 C 
BRANCH  10  11
ATOM     11  C   UNL     1     175.134 171.703 154.267  1.00  0.00    -0.003 C 
ATOM     12  C   UNL     1     175.456 171.313 155.709  1.00  0.00     0.004 C 
ENDBRANCH  10  11
ENDBRANCH   9  10
ENDBRANCH   8   9
ENDBRANCH   7   8
ENDBRANCH   6   7
ENDBRANCH   5   6
ENDBRANCH   4   5
ENDBRANCH   3   4
ENDBRANCH   2   3
ENDBRANCH   1   2
BRANCH   1  13
ATOM     13  C   UNL     1     173.774 166.299 150.558  1.00  0.00     0.000 C 
BRANCH  13  14
ATOM     14  C   UNL     1     174.259 166.428 152.012  1.00  0.00     0.000 C 
BRANCH  14  15
ATOM     15  C   UNL     1     173.136 166.855 152.974  1.00  0.00     0.000 C 
BRANCH  15  16
ATOM     16  C   UNL     1     173.355 168.267 153.543  1.00  0.00     0.000 C 
BRANCH  16  17
ATOM     17  C   UNL     1     172.470 169.325 152.858  1.00  0.00     0.000 C 
BRANCH  17  18
ATOM     18  C   UNL     1     171.899 170.348 153.851  1.00  0.00     0.000 C 
BRANCH  18  19
ATOM     19  C   UNL     1     170.697 171.116 153.280  1.00  0.00     0.000 C 
BRANCH  19  20
ATOM     20  C   UNL     1     171.152 172.409 152.587  1.00  0.00     0.006 C 
BRANCH  20  21
ATOM     21  C   UNL     1     170.269 172.767 151.384  1.00  0.00     0.053 C 
BRANCH  21  22
ATOM     22  C   UNL     1     169.928 174.226 151.359  1.00  0.00     0.041 C 
ATOM     23  O   UNL     1     168.728 174.598 151.437  1.00  0.00    -0.550 OA
ATOM     24  O   UNL     1     170.936 175.174 151.224  1.00  0.00    -0.550 OA
ENDBRANCH  21  22
ENDBRANCH  20  21
ENDBRANCH  19  20
ENDBRANCH  18  19
ENDBRANCH  17  18
ENDBRANCH  16  17
ENDBRANCH  15  16
ENDBRANCH  14  15
ENDBRANCH  13  14
ENDBRANCH   1  13
TORSDOF 20
ENDMDL
MODEL 9
REMARK VINA RESULT:    -3.626      2.948      5.573
REMARK INTER + INTRA:         -11.860
REMARK INTER:                  -7.941
REMARK INTRA:                  -3.918
REMARK UNBOUND:                -3.993
REMARK SMILES CCCCCCCCCCCCCCCCCCCCCC(=O)[O-]
REMARK SMILES IDX 12 1 11 2 10 3 9 4 8 5 7 6 6 7 5 8 4 9 3 10 2 11 1 12 13 13
REMARK SMILES IDX 14 14 15 15 16 16 17 17 18 18 19 19 20 20 21 21 22 22 23 23
REMARK SMILES IDX 24 24
REMARK H PARENT
REMARK Flexibility Score: inf
ROOT
ATOM      1  C   UNL     1     175.031 170.128 151.335  1.00  0.00     0.000 C 
ENDROOT
BRANCH   1   2
ATOM      2  C   UNL     1     175.010 171.087 150.131  1.00  0.00     0.000 C 
BRANCH   2   3
ATOM      3  C   UNL     1     173.798 172.041 150.074  1.00  0.00     0.000 C 
BRANCH   3   4
ATOM      4  C   UNL     1     174.134 173.511 149.752  1.00  0.00    -0.000 C 
BRANCH   4   5
ATOM      5  C   UNL     1     175.014 174.220 150.800  1.00  0.00    -0.000 C 
BRANCH   5   6
ATOM      6  C   UNL     1     174.463 174.183 152.238  1.00  0.00    -0.000 C 
BRANCH   6   7
ATOM      7  C   UNL     1     175.386 173.452 153.237  1.00  0.00    -0.000 C 
BRANCH   7   8
ATOM      8  C   UNL     1     174.600 172.737 154.347  1.00  0.00    -0.000 C 
BRANCH   8   9
ATOM      9  C   UNL     1     175.427 171.600 154.960  1.00  0.00    -0.000 C 
BRANCH   9  10
ATOM     10  C   UNL     1     175.172 171.487 156.471  1.00  0.00    -0.000 C 
BRANCH  10  11
ATOM     11  C   UNL     1     174.050 170.493 156.805  1.00  0.00    -0.003 C 
ATOM     12  C   UNL     1     174.563 169.067 157.004  1.00  0.00     0.004 C 
ENDBRANCH  10  11
ENDBRANCH   9  10
ENDBRANCH   8   9
ENDBRANCH   7   8
ENDBRANCH   6   7
ENDBRANCH   5   6
ENDBRANCH   4   5
ENDBRANCH   3   4
ENDBRANCH   2   3
ENDBRANCH   1   2
BRANCH   1  13
ATOM     13  C   UNL     1     174.744 168.669 150.941  1.00  0.00     0.000 C 
BRANCH  13  14
ATOM     14  C   UNL     1     174.030 167.886 152.055  1.00  0.00     0.000 C 
BRANCH  14  15
ATOM     15  C   UNL     1     173.801 168.733 153.320  1.00  0.00     0.000 C 
BRANCH  15  16
ATOM     16  C   UNL     1     172.395 168.536 153.912  1.00  0.00     0.000 C 
BRANCH  16  17
ATOM     17  C   UNL     1     171.644 169.867 154.105  1.00  0.00     0.000 C 
BRANCH  17  18
ATOM     18  C   UNL     1     171.853 170.838 152.933  1.00  0.00     0.000 C 
BRANCH  18  19
ATOM     19  C   UNL     1     170.887 170.571 151.768  1.00  0.00     0.000 C 
BRANCH  19  20
ATOM     20  C   UNL     1     170.293 171.885 151.239  1.00  0.00     0.006 C 
BRANCH  20  21
ATOM     21  C   UNL     1     170.834 173.112 151.987  1.00  0.00     0.053 C 
BRANCH  21  22
ATOM     22  C   UNL     1     170.391 174.393 151.348  1.00  0.00     0.041 C 
ATOM     23  O   UNL     1     169.225 174.501 150.886  1.00  0.00    -0.550 OA
ATOM     24  O   UNL     1     171.276 175.460 151.243  1.00  0.00    -0.550 OA
ENDBRANCH  21  22
ENDBRANCH  20  21
ENDBRANCH  19  20
ENDBRANCH  18  19
ENDBRANCH  17  18
ENDBRANCH  16  17
ENDBRANCH  15  16
ENDBRANCH  14  15
ENDBRANCH  13  14
ENDBRANCH   1  13
TORSDOF 20
ENDMDL
