MODEL 1
REMARK VINA RESULT:    -5.725      0.000      0.000
REMARK INTER + INTRA:          -6.149
REMARK INTER:                  -6.060
REMARK INTRA:                  -0.090
REMARK UNBOUND:                -0.090
REMARK SMILES C=C(C)[C@@H]1CC=C(C)C(=O)C1
REMARK SMILES IDX 8 1 7 2 6 3 5 4 4 5 11 6 9 7 10 8 2 9 1 10 3 11
REMARK H PARENT
REMARK Flexibility Score: inf
ROOT
ATOM      1  C   UNL     1     -13.423 -41.243  41.368  1.00  0.00     0.048 C 
ATOM      2  C   UNL     1     -13.248 -40.179  40.319  1.00  0.00    -0.012 C 
ATOM      3  C   UNL     1     -13.174 -38.884  40.674  1.00  0.00    -0.019 C 
ATOM      4  C   UNL     1     -12.918 -37.792  39.670  1.00  0.00     0.036 C 
ATOM      5  C   UNL     1     -13.491 -38.162  38.288  1.00  0.00     0.025 C 
ATOM      6  C   UNL     1     -12.935 -39.523  37.825  1.00  0.00     0.089 C 
ATOM      7  C   UNL     1     -13.132 -40.566  38.891  1.00  0.00     0.158 C 
ATOM      8  O   UNL     1     -13.153 -41.783  38.563  1.00  0.00    -0.295 OA
ENDROOT
BRANCH   5   9
ATOM      9  C   UNL     1     -13.229 -37.071  37.259  1.00  0.00    -0.077 C 
ATOM     10  C   UNL     1     -14.013 -35.981  37.181  1.00  0.00     0.008 C 
ATOM     11  C   UNL     1     -12.073 -37.197  36.300  1.00  0.00     0.039 C 
ENDBRANCH   5   9
TORSDOF 1
ENDMDL
MODEL 2
REMARK VINA RESULT:    -5.607      1.635      2.211
REMARK INTER + INTRA:          -6.024
REMARK INTER:                  -5.929
REMARK INTRA:                  -0.095
REMARK UNBOUND:                -0.090
REMARK SMILES C=C(C)[C@@H]1CC=C(C)C(=O)C1
REMARK SMILES IDX 8 1 7 2 6 3 5 4 4 5 11 6 9 7 10 8 2 9 1 10 3 11
REMARK H PARENT
REMARK Flexibility Score: inf
ROOT
ATOM      1  C   UNL     1     -13.082 -40.692  41.391  1.00  0.00     0.048 C 
ATOM      2  C   UNL     1     -13.192 -39.692  40.274  1.00  0.00    -0.012 C 
ATOM      3  C   UNL     1     -13.048 -40.086  38.996  1.00  0.00    -0.019 C 
ATOM      4  C   UNL     1     -13.229 -39.137  37.841  1.00  0.00     0.036 C 
ATOM      5  C   UNL     1     -12.836 -37.699  38.234  1.00  0.00     0.025 C 
ATOM      6  C   UNL     1     -13.618 -37.254  39.484  1.00  0.00     0.089 C 
ATOM      7  C   UNL     1     -13.483 -38.270  40.585  1.00  0.00     0.158 C 
ATOM      8  O   UNL     1     -13.665 -37.910  41.779  1.00  0.00    -0.295 OA
ENDROOT
BRANCH   5   9
ATOM      9  C   UNL     1     -13.025 -36.727  37.077  1.00  0.00    -0.077 C 
ATOM     10  C   UNL     1     -14.124 -35.958  36.983  1.00  0.00     0.008 C 
ATOM     11  C   UNL     1     -11.971 -36.613  36.006  1.00  0.00     0.039 C 
ENDBRANCH   5   9
TORSDOF 1
ENDMDL
MODEL 3
REMARK VINA RESULT:    -5.601      1.552      4.289
REMARK INTER + INTRA:          -6.019
REMARK INTER:                  -5.926
REMARK INTRA:                  -0.092
REMARK UNBOUND:                -0.090
REMARK SMILES C=C(C)[C@@H]1CC=C(C)C(=O)C1
REMARK SMILES IDX 8 1 7 2 6 3 5 4 4 5 11 6 9 7 10 8 2 9 1 10 3 11
REMARK H PARENT
REMARK Flexibility Score: inf
ROOT
ATOM      1  C   UNL     1     -13.105 -36.003  36.516  1.00  0.00     0.048 C 
ATOM      2  C   UNL     1     -13.228 -36.951  37.677  1.00  0.00    -0.012 C 
ATOM      3  C   UNL     1     -13.719 -36.522  38.852  1.00  0.00    -0.019 C 
ATOM      4  C   UNL     1     -13.936 -37.451  40.017  1.00  0.00     0.036 C 
ATOM      5  C   UNL     1     -12.916 -38.606  40.004  1.00  0.00     0.025 C 
ATOM      6  C   UNL     1     -12.959 -39.344  38.652  1.00  0.00     0.089 C 
ATOM      7  C   UNL     1     -12.827 -38.371  37.513  1.00  0.00     0.158 C 
ATOM      8  O   UNL     1     -12.411 -38.785  36.397  1.00  0.00    -0.295 OA
ENDROOT
BRANCH   5   9
ATOM      9  C   UNL     1     -13.132 -39.560  41.171  1.00  0.00    -0.077 C 
ATOM     10  C   UNL     1     -12.974 -39.156  42.444  1.00  0.00     0.008 C 
ATOM     11  C   UNL     1     -13.528 -40.991  40.914  1.00  0.00     0.039 C 
ENDBRANCH   5   9
TORSDOF 1
ENDMDL
MODEL 4
REMARK VINA RESULT:    -5.570      2.276      4.825
REMARK INTER + INTRA:          -5.985
REMARK INTER:                  -5.890
REMARK INTRA:                  -0.095
REMARK UNBOUND:                -0.090
REMARK SMILES C=C(C)[C@@H]1CC=C(C)C(=O)C1
REMARK SMILES IDX 8 1 7 2 6 3 5 4 4 5 11 6 9 7 10 8 2 9 1 10 3 11
REMARK H PARENT
REMARK Flexibility Score: inf
ROOT
ATOM      1  C   UNL     1     -13.860 -36.000  36.845  1.00  0.00     0.048 C 
ATOM      2  C   UNL     1     -13.585 -36.900  38.018  1.00  0.00    -0.012 C 
ATOM      3  C   UNL     1     -12.801 -37.982  37.872  1.00  0.00    -0.019 C 
ATOM      4  C   UNL     1     -12.432 -38.867  39.033  1.00  0.00     0.036 C 
ATOM      5  C   UNL     1     -13.548 -38.884  40.096  1.00  0.00     0.025 C 
ATOM      6  C   UNL     1     -13.886 -37.448  40.539  1.00  0.00     0.089 C 
ATOM      7  C   UNL     1     -14.163 -36.575  39.346  1.00  0.00     0.158 C 
ATOM      8  O   UNL     1     -14.859 -35.534  39.494  1.00  0.00    -0.295 OA
ENDROOT
BRANCH   5   9
ATOM      9  C   UNL     1     -13.182 -39.766  41.282  1.00  0.00    -0.077 C 
ATOM     10  C   UNL     1     -12.813 -39.235  42.461  1.00  0.00     0.008 C 
ATOM     11  C   UNL     1     -13.227 -41.266  41.150  1.00  0.00     0.039 C 
ENDBRANCH   5   9
TORSDOF 1
ENDMDL
MODEL 5
REMARK VINA RESULT:    -5.552      2.763      3.953
REMARK INTER + INTRA:          -5.967
REMARK INTER:                  -5.870
REMARK INTRA:                  -0.097
REMARK UNBOUND:                -0.090
REMARK SMILES C=C(C)[C@@H]1CC=C(C)C(=O)C1
REMARK SMILES IDX 8 1 7 2 6 3 5 4 4 5 11 6 9 7 10 8 2 9 1 10 3 11
REMARK H PARENT
REMARK Flexibility Score: inf
ROOT
ATOM      1  C   UNL     1     -12.197 -39.994  35.865  1.00  0.00     0.048 C 
ATOM      2  C   UNL     1     -12.462 -38.667  36.521  1.00  0.00    -0.012 C 
ATOM      3  C   UNL     1     -13.131 -38.611  37.686  1.00  0.00    -0.019 C 
ATOM      4  C   UNL     1     -13.351 -37.315  38.421  1.00  0.00     0.036 C 
ATOM      5  C   UNL     1     -13.442 -36.128  37.441  1.00  0.00     0.025 C 
ATOM      6  C   UNL     1     -12.196 -36.083  36.537  1.00  0.00     0.089 C 
ATOM      7  C   UNL     1     -11.962 -37.421  35.890  1.00  0.00     0.158 C 
ATOM      8  O   UNL     1     -11.293 -37.478  34.822  1.00  0.00    -0.295 OA
ENDROOT
BRANCH   5   9
ATOM      9  C   UNL     1     -13.653 -34.809  38.172  1.00  0.00    -0.077 C 
ATOM     10  C   UNL     1     -12.814 -33.772  38.000  1.00  0.00     0.008 C 
ATOM     11  C   UNL     1     -14.818 -34.645  39.114  1.00  0.00     0.039 C 
ENDBRANCH   5   9
TORSDOF 1
ENDMDL
MODEL 6
REMARK VINA RESULT:    -5.542      2.104      4.620
REMARK INTER + INTRA:          -5.956
REMARK INTER:                  -5.859
REMARK INTRA:                  -0.096
REMARK UNBOUND:                -0.090
REMARK SMILES C=C(C)[C@@H]1CC=C(C)C(=O)C1
REMARK SMILES IDX 8 1 7 2 6 3 5 4 4 5 11 6 9 7 10 8 2 9 1 10 3 11
REMARK H PARENT
REMARK Flexibility Score: inf
ROOT
ATOM      1  C   UNL     1     -11.907 -37.984  35.916  1.00  0.00     0.048 C 
ATOM      2  C   UNL     1     -12.150 -38.601  37.266  1.00  0.00    -0.012 C 
ATOM      3  C   UNL     1     -13.132 -39.506  37.429  1.00  0.00    -0.019 C 
ATOM      4  C   UNL     1     -13.361 -40.210  38.740  1.00  0.00     0.036 C 
ATOM      5  C   UNL     1     -12.952 -39.319  39.930  1.00  0.00     0.025 C 
ATOM      6  C   UNL     1     -11.495 -38.846  39.768  1.00  0.00     0.089 C 
ATOM      7  C   UNL     1     -11.286 -38.227  38.413  1.00  0.00     0.158 C 
ATOM      8  O   UNL     1     -10.334 -37.416  38.248  1.00  0.00    -0.295 OA
ENDROOT
BRANCH   5   9
ATOM      9  C   UNL     1     -13.169 -40.024  41.261  1.00  0.00    -0.077 C 
ATOM     10  C   UNL     1     -13.604 -41.295  41.317  1.00  0.00     0.008 C 
ATOM     11  C   UNL     1     -12.898 -39.298  42.554  1.00  0.00     0.039 C 
ENDBRANCH   5   9
TORSDOF 1
ENDMDL
MODEL 7
REMARK VINA RESULT:    -5.492      2.192      4.430
REMARK INTER + INTRA:          -5.903
REMARK INTER:                  -5.810
REMARK INTRA:                  -0.093
REMARK UNBOUND:                -0.090
REMARK SMILES C=C(C)[C@@H]1CC=C(C)C(=O)C1
REMARK SMILES IDX 8 1 7 2 6 3 5 4 4 5 11 6 9 7 10 8 2 9 1 10 3 11
REMARK H PARENT
REMARK Flexibility Score: inf
ROOT
ATOM      1  C   UNL     1     -14.464 -36.117  39.795  1.00  0.00     0.048 C 
ATOM      2  C   UNL     1     -13.847 -37.486  39.708  1.00  0.00    -0.012 C 
ATOM      3  C   UNL     1     -13.613 -38.047  38.508  1.00  0.00    -0.019 C 
ATOM      4  C   UNL     1     -12.925 -39.379  38.369  1.00  0.00     0.036 C 
ATOM      5  C   UNL     1     -13.216 -40.286  39.580  1.00  0.00     0.025 C 
ATOM      6  C   UNL     1     -12.839 -39.568  40.889  1.00  0.00     0.089 C 
ATOM      7  C   UNL     1     -13.476 -38.207  40.951  1.00  0.00     0.158 C 
ATOM      8  O   UNL     1     -13.651 -37.661  42.074  1.00  0.00    -0.295 OA
ENDROOT
BRANCH   5   9
ATOM      9  C   UNL     1     -12.517 -41.633  39.457  1.00  0.00    -0.077 C 
ATOM     10  C   UNL     1     -12.722 -42.433  38.396  1.00  0.00     0.008 C 
ATOM     11  C   UNL     1     -11.572 -42.096  40.536  1.00  0.00     0.039 C 
ENDBRANCH   5   9
TORSDOF 1
ENDMDL
MODEL 8
REMARK VINA RESULT:    -5.446      2.189      4.595
REMARK INTER + INTRA:          -5.854
REMARK INTER:                  -5.759
REMARK INTRA:                  -0.095
REMARK UNBOUND:                -0.090
REMARK SMILES C=C(C)[C@@H]1CC=C(C)C(=O)C1
REMARK SMILES IDX 8 1 7 2 6 3 5 4 4 5 11 6 9 7 10 8 2 9 1 10 3 11
REMARK H PARENT
REMARK Flexibility Score: inf
ROOT
ATOM      1  C   UNL     1     -11.210 -35.988  38.110  1.00  0.00     0.048 C 
ATOM      2  C   UNL     1     -11.512 -37.259  38.855  1.00  0.00    -0.012 C 
ATOM      3  C   UNL     1     -10.572 -37.829  39.629  1.00  0.00    -0.019 C 
ATOM      4  C   UNL     1     -10.852 -39.055  40.456  1.00  0.00     0.036 C 
ATOM      5  C   UNL     1     -11.919 -39.945  39.789  1.00  0.00     0.025 C 
ATOM      6  C   UNL     1     -13.194 -39.129  39.504  1.00  0.00     0.089 C 
ATOM      7  C   UNL     1     -12.861 -37.870  38.753  1.00  0.00     0.158 C 
ATOM      8  O   UNL     1     -13.757 -37.309  38.065  1.00  0.00    -0.295 OA
ENDROOT
BRANCH   5   9
ATOM      9  C   UNL     1     -12.219 -41.184  40.621  1.00  0.00    -0.077 C 
ATOM     10  C   UNL     1     -13.330 -41.267  41.376  1.00  0.00     0.008 C 
ATOM     11  C   UNL     1     -11.264 -42.350  40.615  1.00  0.00     0.039 C 
ENDBRANCH   5   9
TORSDOF 1
ENDMDL
MODEL 9
REMARK VINA RESULT:    -5.417      2.382      4.551
REMARK INTER + INTRA:          -5.824
REMARK INTER:                  -5.732
REMARK INTRA:                  -0.091
REMARK UNBOUND:                -0.090
REMARK SMILES C=C(C)[C@@H]1CC=C(C)C(=O)C1
REMARK SMILES IDX 8 1 7 2 6 3 5 4 4 5 11 6 9 7 10 8 2 9 1 10 3 11
REMARK H PARENT
REMARK Flexibility Score: inf
ROOT
ATOM      1  C   UNL     1     -12.465 -34.132  37.642  1.00  0.00     0.048 C 
ATOM      2  C   UNL     1     -12.743 -35.609  37.690  1.00  0.00    -0.012 C 
ATOM      3  C   UNL     1     -13.579 -36.110  38.617  1.00  0.00    -0.019 C 
ATOM      4  C   UNL     1     -13.951 -37.568  38.655  1.00  0.00     0.036 C 
ATOM      5  C   UNL     1     -12.805 -38.450  38.120  1.00  0.00     0.025 C 
ATOM      6  C   UNL     1     -12.390 -37.989  36.710  1.00  0.00     0.089 C 
ATOM      7  C   UNL     1     -12.111 -36.511  36.695  1.00  0.00     0.158 C 
ATOM      8  O   UNL     1     -11.365 -36.035  35.796  1.00  0.00    -0.295 OA
ENDROOT
BRANCH   5   9
ATOM      9  C   UNL     1     -13.173 -39.927  38.142  1.00  0.00    -0.077 C 
ATOM     10  C   UNL     1     -13.283 -40.603  39.300  1.00  0.00     0.008 C 
ATOM     11  C   UNL     1     -13.421 -40.663  36.851  1.00  0.00     0.039 C 
ENDBRANCH   5   9
TORSDOF 1
ENDMDL
