MODEL 1
REMARK VINA RESULT:    -7.508      0.000      0.000
REMARK INTER + INTRA:          -9.353
REMARK INTER:                  -9.044
REMARK INTRA:                  -0.309
REMARK UNBOUND:                -0.309
REMARK SMILES O=c1c(O)c(-c2ccc(O)c(O)c2)oc2cc(O)cc(O)c12
REMARK SMILES IDX 5 1 3 2 2 3 1 4 22 5 20 6 19 7 17 8 16 9 15 10 14 11 6 12
REMARK SMILES IDX 7 13 8 14 9 15 13 16 11 17 10 18 12 20 4 22 21 24 18 26
REMARK H PARENT 10 19 12 21 4 23 21 25 18 27
REMARK Flexibility Score: inf
ROOT
ATOM      1  C   UNL     1      28.338   2.047  20.543  1.00  0.00     0.180 A 
ATOM      2  C   UNL     1      29.253   2.960  21.093  1.00  0.00     0.208 A 
ATOM      3  C   UNL     1      30.412   3.284  20.369  1.00  0.00     0.238 A 
ATOM      4  O   UNL     1      31.201   4.142  20.843  1.00  0.00    -0.285 OA
ATOM      5  C   UNL     1      30.648   2.679  19.111  1.00  0.00     0.111 A 
ATOM      6  C   UNL     1      31.808   2.902  18.309  1.00  0.00     0.134 A 
ATOM      7  C   UNL     1      31.875   2.353  17.023  1.00  0.00     0.093 A 
ATOM      8  C   UNL     1      30.855   1.535  16.536  1.00  0.00     0.123 A 
ATOM      9  C   UNL     1      29.745   1.260  17.335  1.00  0.00     0.094 A 
ATOM     10  C   UNL     1      29.632   1.825  18.608  1.00  0.00     0.146 A 
ATOM     11  O   UNL     1      28.554   1.548  19.331  1.00  0.00    -0.452 OA
ENDROOT
BRANCH   1  12
ATOM     12  C   UNL     1      27.106   1.638  21.256  1.00  0.00     0.025 A 
ATOM     13  C   UNL     1      27.051   0.440  21.991  1.00  0.00     0.016 A 
ATOM     14  C   UNL     1      25.871   0.062  22.637  1.00  0.00     0.051 A 
ATOM     15  C   UNL     1      24.728   0.866  22.547  1.00  0.00     0.157 A 
ATOM     16  C   UNL     1      25.951   2.429  21.153  1.00  0.00     0.062 A 
ATOM     17  C   UNL     1      24.766   2.050  21.801  1.00  0.00     0.158 A 
BRANCH  15  18
ATOM     18  O   UNL     1      23.549   0.492  23.190  1.00  0.00    -0.504 OA
ATOM     19  H   UNL     1      23.495  -0.351  23.751  1.00  0.00     0.293 HD
ENDBRANCH  15  18
BRANCH  17  20
ATOM     20  O   UNL     1      23.625   2.844  21.707  1.00  0.00    -0.504 OA
ATOM     21  H   UNL     1      23.686   3.851  21.613  1.00  0.00     0.293 HD
ENDBRANCH  17  20
ENDBRANCH   1  12
BRANCH   2  22
ATOM     22  O   UNL     1      28.990   3.561  22.327  1.00  0.00    -0.502 OA
ATOM     23  H   UNL     1      29.119   3.077  23.207  1.00  0.00     0.293 HD
ENDBRANCH   2  22
BRANCH   6  24
ATOM     24  O   UNL     1      32.923   3.628  18.736  1.00  0.00    -0.507 OA
ATOM     25  H   UNL     1      33.067   4.613  18.569  1.00  0.00     0.293 HD
ENDBRANCH   6  24
BRANCH   8  26
ATOM     26  O   UNL     1      30.963   0.991  15.257  1.00  0.00    -0.508 OA
ATOM     27  H   UNL     1      30.935   1.576  14.430  1.00  0.00     0.293 HD
ENDBRANCH   8  26
TORSDOF 6
ENDMDL
MODEL 2
REMARK VINA RESULT:    -7.367      4.602      6.971
REMARK INTER + INTRA:          -9.183
REMARK INTER:                  -8.861
REMARK INTRA:                  -0.323
REMARK UNBOUND:                -0.309
REMARK SMILES O=c1c(O)c(-c2ccc(O)c(O)c2)oc2cc(O)cc(O)c12
REMARK SMILES IDX 5 1 3 2 2 3 1 4 22 5 20 6 19 7 17 8 16 9 15 10 14 11 6 12
REMARK SMILES IDX 7 13 8 14 9 15 13 16 11 17 10 18 12 20 4 22 21 24 18 26
REMARK H PARENT 10 19 12 21 4 23 21 25 18 27
REMARK Flexibility Score: inf
ROOT
ATOM      1  C   UNL     1      31.309   4.462  18.429  1.00  0.00     0.180 A 
ATOM      2  C   UNL     1      31.540   4.514  19.814  1.00  0.00     0.208 A 
ATOM      3  C   UNL     1      31.477   5.755  20.469  1.00  0.00     0.238 A 
ATOM      4  O   UNL     1      31.631   5.788  21.718  1.00  0.00    -0.285 OA
ATOM      5  C   UNL     1      31.198   6.929  19.728  1.00  0.00     0.111 A 
ATOM      6  C   UNL     1      31.149   8.244  20.282  1.00  0.00     0.134 A 
ATOM      7  C   UNL     1      30.736   9.316  19.481  1.00  0.00     0.093 A 
ATOM      8  C   UNL     1      30.434   9.132  18.132  1.00  0.00     0.123 A 
ATOM      9  C   UNL     1      30.536   7.860  17.566  1.00  0.00     0.094 A 
ATOM     10  C   UNL     1      30.910   6.765  18.348  1.00  0.00     0.146 A 
ATOM     11  O   UNL     1      30.985   5.571  17.773  1.00  0.00    -0.452 OA
ENDROOT
BRANCH   1  12
ATOM     12  C   UNL     1      31.383   3.196  17.664  1.00  0.00     0.025 A 
ATOM     13  C   UNL     1      30.262   2.359  17.526  1.00  0.00     0.016 A 
ATOM     14  C   UNL     1      30.361   1.157  16.820  1.00  0.00     0.051 A 
ATOM     15  C   UNL     1      31.582   0.768  16.256  1.00  0.00     0.157 A 
ATOM     16  C   UNL     1      32.610   2.790  17.114  1.00  0.00     0.062 A 
ATOM     17  C   UNL     1      32.709   1.584  16.406  1.00  0.00     0.158 A 
BRANCH  15  18
ATOM     18  O   UNL     1      31.684  -0.430  15.551  1.00  0.00    -0.504 OA
ATOM     19  H   UNL     1      32.552  -0.952  15.513  1.00  0.00     0.293 HD
ENDBRANCH  15  18
BRANCH  17  20
ATOM     20  O   UNL     1      33.926   1.190  15.849  1.00  0.00    -0.504 OA
ATOM     21  H   UNL     1      34.343   0.294  16.069  1.00  0.00     0.293 HD
ENDBRANCH  17  20
ENDBRANCH   1  12
BRANCH   2  22
ATOM     22  O   UNL     1      31.792   3.340  20.529  1.00  0.00    -0.502 OA
ATOM     23  H   UNL     1      32.332   2.575  20.146  1.00  0.00     0.293 HD
ENDBRANCH   2  22
BRANCH   6  24
ATOM     24  O   UNL     1      31.519   8.552  21.594  1.00  0.00    -0.507 OA
ATOM     25  H   UNL     1      30.878   8.626  22.370  1.00  0.00     0.293 HD
ENDBRANCH   6  24
BRANCH   8  26
ATOM     26  O   UNL     1      30.041  10.224  17.361  1.00  0.00    -0.508 OA
ATOM     27  H   UNL     1      29.126  10.263  16.927  1.00  0.00     0.293 HD
ENDBRANCH   8  26
TORSDOF 6
ENDMDL
MODEL 3
REMARK VINA RESULT:    -7.282      4.148      6.922
REMARK INTER + INTRA:          -9.082
REMARK INTER:                  -8.872
REMARK INTRA:                  -0.210
REMARK UNBOUND:                -0.309
REMARK SMILES O=c1c(O)c(-c2ccc(O)c(O)c2)oc2cc(O)cc(O)c12
REMARK SMILES IDX 5 1 3 2 2 3 1 4 22 5 20 6 19 7 17 8 16 9 15 10 14 11 6 12
REMARK SMILES IDX 7 13 8 14 9 15 13 16 11 17 10 18 12 20 4 22 21 24 18 26
REMARK H PARENT 10 19 12 21 4 23 21 25 18 27
REMARK Flexibility Score: inf
ROOT
ATOM      1  C   UNL     1      31.092   6.204  18.011  1.00  0.00     0.180 A 
ATOM      2  C   UNL     1      32.361   5.834  17.535  1.00  0.00     0.208 A 
ATOM      3  C   UNL     1      32.615   4.483  17.249  1.00  0.00     0.238 A 
ATOM      4  O   UNL     1      33.736   4.166  16.772  1.00  0.00    -0.285 OA
ATOM      5  C   UNL     1      31.600   3.517  17.457  1.00  0.00     0.111 A 
ATOM      6  C   UNL     1      31.760   2.115  17.239  1.00  0.00     0.134 A 
ATOM      7  C   UNL     1      30.651   1.268  17.352  1.00  0.00     0.093 A 
ATOM      8  C   UNL     1      29.405   1.761  17.738  1.00  0.00     0.123 A 
ATOM      9  C   UNL     1      29.252   3.121  18.013  1.00  0.00     0.094 A 
ATOM     10  C   UNL     1      30.331   3.997  17.873  1.00  0.00     0.146 A 
ATOM     11  O   UNL     1      30.141   5.284  18.133  1.00  0.00    -0.452 OA
ENDROOT
BRANCH   1  12
ATOM     12  C   UNL     1      30.757   7.604  18.359  1.00  0.00     0.025 A 
ATOM     13  C   UNL     1      30.635   8.594  17.368  1.00  0.00     0.016 A 
ATOM     14  C   UNL     1      30.342   9.914  17.721  1.00  0.00     0.051 A 
ATOM     15  C   UNL     1      30.180  10.266  19.066  1.00  0.00     0.157 A 
ATOM     16  C   UNL     1      30.614   7.968  19.708  1.00  0.00     0.062 A 
ATOM     17  C   UNL     1      30.319   9.292  20.062  1.00  0.00     0.158 A 
BRANCH  15  18
ATOM     18  O   UNL     1      29.887  11.581  19.422  1.00  0.00    -0.504 OA
ATOM     19  H   UNL     1      28.964  11.851  19.745  1.00  0.00     0.293 HD
ENDBRANCH  15  18
BRANCH  17  20
ATOM     20  O   UNL     1      30.166   9.647  21.402  1.00  0.00    -0.504 OA
ATOM     21  H   UNL     1      30.921  10.069  21.928  1.00  0.00     0.293 HD
ENDBRANCH  17  20
ENDBRANCH   1  12
BRANCH   2  22
ATOM     22  O   UNL     1      33.340   6.807  17.317  1.00  0.00    -0.502 OA
ATOM     23  H   UNL     1      34.113   6.955  17.955  1.00  0.00     0.293 HD
ENDBRANCH   2  22
BRANCH   6  24
ATOM     24  O   UNL     1      32.982   1.506  16.938  1.00  0.00    -0.507 OA
ATOM     25  H   UNL     1      33.592   1.784  16.184  1.00  0.00     0.293 HD
ENDBRANCH   6  24
BRANCH   8  26
ATOM     26  O   UNL     1      28.327   0.886  17.856  1.00  0.00    -0.508 OA
ATOM     27  H   UNL     1      28.464  -0.103  18.025  1.00  0.00     0.293 HD
ENDBRANCH   8  26
TORSDOF 6
ENDMDL
MODEL 4
REMARK VINA RESULT:    -7.248      3.728      6.249
REMARK INTER + INTRA:          -9.040
REMARK INTER:                  -8.716
REMARK INTRA:                  -0.324
REMARK UNBOUND:                -0.309
REMARK SMILES O=c1c(O)c(-c2ccc(O)c(O)c2)oc2cc(O)cc(O)c12
REMARK SMILES IDX 5 1 3 2 2 3 1 4 22 5 20 6 19 7 17 8 16 9 15 10 14 11 6 12
REMARK SMILES IDX 7 13 8 14 9 15 13 16 11 17 10 18 12 20 4 22 21 24 18 26
REMARK H PARENT 10 19 12 21 4 23 21 25 18 27
REMARK Flexibility Score: inf
ROOT
ATOM      1  C   UNL     1      30.823   4.405  19.025  1.00  0.00     0.180 A 
ATOM      2  C   UNL     1      31.336   4.775  17.770  1.00  0.00     0.208 A 
ATOM      3  C   UNL     1      31.440   6.138  17.451  1.00  0.00     0.238 A 
ATOM      4  O   UNL     1      31.951   6.464  16.348  1.00  0.00    -0.285 OA
ATOM      5  C   UNL     1      31.016   7.114  18.386  1.00  0.00     0.111 A 
ATOM      6  C   UNL     1      31.038   8.522  18.152  1.00  0.00     0.134 A 
ATOM      7  C   UNL     1      30.718   9.400  19.195  1.00  0.00     0.093 A 
ATOM      8  C   UNL     1      30.313   8.921  20.441  1.00  0.00     0.123 A 
ATOM      9  C   UNL     1      30.229   7.545  20.661  1.00  0.00     0.094 A 
ATOM     10  C   UNL     1      30.578   6.645  19.651  1.00  0.00     0.146 A 
ATOM     11  O   UNL     1      30.495   5.345  19.905  1.00  0.00    -0.452 OA
ENDROOT
BRANCH   1  12
ATOM     12  C   UNL     1      30.660   2.988  19.424  1.00  0.00     0.025 A 
ATOM     13  C   UNL     1      29.443   2.310  19.233  1.00  0.00     0.016 A 
ATOM     14  C   UNL     1      29.304   0.980  19.639  1.00  0.00     0.051 A 
ATOM     15  C   UNL     1      30.372   0.314  20.253  1.00  0.00     0.157 A 
ATOM     16  C   UNL     1      31.720   2.321  20.059  1.00  0.00     0.062 A 
ATOM     17  C   UNL     1      31.581   0.986  20.466  1.00  0.00     0.158 A 
BRANCH  15  18
ATOM     18  O   UNL     1      30.237  -1.012  20.658  1.00  0.00    -0.504 OA
ATOM     19  H   UNL     1      29.341  -1.484  20.640  1.00  0.00     0.293 HD
ENDBRANCH  15  18
BRANCH  17  20
ATOM     20  O   UNL     1      32.641   0.323  21.084  1.00  0.00    -0.504 OA
ATOM     21  H   UNL     1      33.562   0.739  21.145  1.00  0.00     0.293 HD
ENDBRANCH  17  20
ENDBRANCH   1  12
BRANCH   2  22
ATOM     22  O   UNL     1      31.769   3.796  16.872  1.00  0.00    -0.502 OA
ATOM     23  H   UNL     1      31.928   3.989  15.891  1.00  0.00     0.293 HD
ENDBRANCH   2  22
BRANCH   6  24
ATOM     24  O   UNL     1      31.340   9.105  16.918  1.00  0.00    -0.507 OA
ATOM     25  H   UNL     1      30.776   9.013  16.086  1.00  0.00     0.293 HD
ENDBRANCH   6  24
BRANCH   8  26
ATOM     26  O   UNL     1      29.986   9.824  21.451  1.00  0.00    -0.508 OA
ATOM     27  H   UNL     1      30.055  10.825  21.308  1.00  0.00     0.293 HD
ENDBRANCH   8  26
TORSDOF 6
ENDMDL
MODEL 5
REMARK VINA RESULT:    -7.196      3.700      6.510
REMARK INTER + INTRA:          -8.977
REMARK INTER:                  -8.703
REMARK INTRA:                  -0.274
REMARK UNBOUND:                -0.309
REMARK SMILES O=c1c(O)c(-c2ccc(O)c(O)c2)oc2cc(O)cc(O)c12
REMARK SMILES IDX 5 1 3 2 2 3 1 4 22 5 20 6 19 7 17 8 16 9 15 10 14 11 6 12
REMARK SMILES IDX 7 13 8 14 9 15 13 16 11 17 10 18 12 20 4 22 21 24 18 26
REMARK H PARENT 10 19 12 21 4 23 21 25 18 27
REMARK Flexibility Score: inf
ROOT
ATOM      1  C   UNL     1      30.582   5.278  19.509  1.00  0.00     0.180 A 
ATOM      2  C   UNL     1      31.750   4.646  19.969  1.00  0.00     0.208 A 
ATOM      3  C   UNL     1      31.724   3.265  20.221  1.00  0.00     0.238 A 
ATOM      4  O   UNL     1      32.787   2.696  20.581  1.00  0.00    -0.285 OA
ATOM      5  C   UNL     1      30.526   2.535  20.023  1.00  0.00     0.111 A 
ATOM      6  C   UNL     1      30.375   1.141  20.284  1.00  0.00     0.134 A 
ATOM      7  C   UNL     1      29.183   0.497  19.929  1.00  0.00     0.093 A 
ATOM      8  C   UNL     1      28.115   1.209  19.382  1.00  0.00     0.123 A 
ATOM      9  C   UNL     1      28.231   2.585  19.179  1.00  0.00     0.094 A 
ATOM     10  C   UNL     1      29.421   3.248  19.489  1.00  0.00     0.146 A 
ATOM     11  O   UNL     1      29.493   4.555  19.270  1.00  0.00    -0.452 OA
ENDROOT
BRANCH   1  12
ATOM     12  C   UNL     1      30.525   6.734  19.245  1.00  0.00     0.025 A 
ATOM     13  C   UNL     1      30.602   7.244  17.937  1.00  0.00     0.016 A 
ATOM     14  C   UNL     1      30.569   8.623  17.715  1.00  0.00     0.051 A 
ATOM     15  C   UNL     1      30.474   9.511  18.793  1.00  0.00     0.157 A 
ATOM     16  C   UNL     1      30.450   7.630  20.324  1.00  0.00     0.062 A 
ATOM     17  C   UNL     1      30.418   9.014  20.101  1.00  0.00     0.158 A 
BRANCH  15  18
ATOM     18  O   UNL     1      30.441  10.887  18.574  1.00  0.00    -0.504 OA
ATOM     19  H   UNL     1      30.315  11.274  17.646  1.00  0.00     0.293 HD
ENDBRANCH  15  18
BRANCH  17  20
ATOM     20  O   UNL     1      30.330   9.901  21.173  1.00  0.00    -0.504 OA
ATOM     21  H   UNL     1      29.589   9.830  21.860  1.00  0.00     0.293 HD
ENDBRANCH  17  20
ENDBRANCH   1  12
BRANCH   2  22
ATOM     22  O   UNL     1      32.927   5.381  20.137  1.00  0.00    -0.502 OA
ATOM     23  H   UNL     1      33.144   5.872  20.996  1.00  0.00     0.293 HD
ENDBRANCH   2  22
BRANCH   6  24
ATOM     24  O   UNL     1      31.346   0.354  20.910  1.00  0.00    -0.507 OA
ATOM     25  H   UNL     1      31.694  -0.523  20.552  1.00  0.00     0.293 HD
ENDBRANCH   6  24
BRANCH   8  26
ATOM     26  O   UNL     1      26.939   0.538  19.055  1.00  0.00    -0.508 OA
ATOM     27  H   UNL     1      26.110   0.611  19.634  1.00  0.00     0.293 HD
ENDBRANCH   8  26
TORSDOF 6
ENDMDL
MODEL 6
REMARK VINA RESULT:    -7.175      1.400      3.021
REMARK INTER + INTRA:          -8.953
REMARK INTER:                  -8.667
REMARK INTRA:                  -0.286
REMARK UNBOUND:                -0.309
REMARK SMILES O=c1c(O)c(-c2ccc(O)c(O)c2)oc2cc(O)cc(O)c12
REMARK SMILES IDX 5 1 3 2 2 3 1 4 22 5 20 6 19 7 17 8 16 9 15 10 14 11 6 12
REMARK SMILES IDX 7 13 8 14 9 15 13 16 11 17 10 18 12 20 4 22 21 24 18 26
REMARK H PARENT 10 19 12 21 4 23 21 25 18 27
REMARK Flexibility Score: inf
ROOT
ATOM      1  C   UNL     1      27.973   2.263  20.317  1.00  0.00     0.180 A 
ATOM      2  C   UNL     1      28.280   1.659  19.085  1.00  0.00     0.208 A 
ATOM      3  C   UNL     1      29.328   2.182  18.312  1.00  0.00     0.238 A 
ATOM      4  O   UNL     1      29.633   1.604  17.236  1.00  0.00    -0.285 OA
ATOM      5  C   UNL     1      30.048   3.312  18.773  1.00  0.00     0.111 A 
ATOM      6  C   UNL     1      31.102   3.950  18.053  1.00  0.00     0.134 A 
ATOM      7  C   UNL     1      31.830   4.979  18.662  1.00  0.00     0.093 A 
ATOM      8  C   UNL     1      31.500   5.437  19.937  1.00  0.00     0.123 A 
ATOM      9  C   UNL     1      30.432   4.861  20.626  1.00  0.00     0.094 A 
ATOM     10  C   UNL     1      29.711   3.807  20.059  1.00  0.00     0.146 A 
ATOM     11  O   UNL     1      28.709   3.280  20.752  1.00  0.00    -0.452 OA
ENDROOT
BRANCH   1  12
ATOM     12  C   UNL     1      26.867   1.784  21.176  1.00  0.00     0.025 A 
ATOM     13  C   UNL     1      27.007   0.638  21.979  1.00  0.00     0.016 A 
ATOM     14  C   UNL     1      25.941   0.191  22.764  1.00  0.00     0.051 A 
ATOM     15  C   UNL     1      24.718   0.871  22.747  1.00  0.00     0.157 A 
ATOM     16  C   UNL     1      25.630   2.450  21.148  1.00  0.00     0.062 A 
ATOM     17  C   UNL     1      24.560   2.001  21.936  1.00  0.00     0.158 A 
BRANCH  15  18
ATOM     18  O   UNL     1      23.653   0.428  23.530  1.00  0.00    -0.504 OA
ATOM     19  H   UNL     1      23.514  -0.556  23.730  1.00  0.00     0.293 HD
ENDBRANCH  15  18
BRANCH  17  20
ATOM     20  O   UNL     1      23.339   2.673  21.916  1.00  0.00    -0.504 OA
ATOM     21  H   UNL     1      23.138   3.387  21.226  1.00  0.00     0.293 HD
ENDBRANCH  17  20
ENDBRANCH   1  12
BRANCH   2  22
ATOM     22  O   UNL     1      27.571   0.532  18.660  1.00  0.00    -0.502 OA
ATOM     23  H   UNL     1      26.913   0.046  19.256  1.00  0.00     0.293 HD
ENDBRANCH   2  22
BRANCH   6  24
ATOM     24  O   UNL     1      31.454   3.631  16.738  1.00  0.00    -0.507 OA
ATOM     25  H   UNL     1      31.463   4.287  15.970  1.00  0.00     0.293 HD
ENDBRANCH   6  24
BRANCH   8  26
ATOM     26  O   UNL     1      32.237   6.474  20.506  1.00  0.00    -0.508 OA
ATOM     27  H   UNL     1      33.167   6.320  20.879  1.00  0.00     0.293 HD
ENDBRANCH   8  26
TORSDOF 6
ENDMDL
MODEL 7
REMARK VINA RESULT:    -7.168      4.364      6.157
REMARK INTER + INTRA:          -8.944
REMARK INTER:                  -8.627
REMARK INTRA:                  -0.317
REMARK UNBOUND:                -0.309
REMARK SMILES O=c1c(O)c(-c2ccc(O)c(O)c2)oc2cc(O)cc(O)c12
REMARK SMILES IDX 5 1 3 2 2 3 1 4 22 5 20 6 19 7 17 8 16 9 15 10 14 11 6 12
REMARK SMILES IDX 7 13 8 14 9 15 13 16 11 17 10 18 12 20 4 22 21 24 18 26
REMARK H PARENT 10 19 12 21 4 23 21 25 18 27
REMARK Flexibility Score: inf
ROOT
ATOM      1  C   UNL     1      31.525   4.598  18.538  1.00  0.00     0.180 A 
ATOM      2  C   UNL     1      30.515   3.649  18.308  1.00  0.00     0.208 A 
ATOM      3  C   UNL     1      30.812   2.511  17.540  1.00  0.00     0.238 A 
ATOM      4  O   UNL     1      29.918   1.638  17.383  1.00  0.00    -0.285 OA
ATOM      5  C   UNL     1      32.110   2.345  16.999  1.00  0.00     0.111 A 
ATOM      6  C   UNL     1      32.510   1.252  16.173  1.00  0.00     0.134 A 
ATOM      7  C   UNL     1      33.853   1.122  15.802  1.00  0.00     0.093 A 
ATOM      8  C   UNL     1      34.798   2.080  16.172  1.00  0.00     0.123 A 
ATOM      9  C   UNL     1      34.406   3.184  16.929  1.00  0.00     0.094 A 
ATOM     10  C   UNL     1      33.080   3.322  17.346  1.00  0.00     0.146 A 
ATOM     11  O   UNL     1      32.751   4.382  18.073  1.00  0.00    -0.452 OA
ENDROOT
BRANCH   1  12
ATOM     12  C   UNL     1      31.283   5.834  19.317  1.00  0.00     0.025 A 
ATOM     13  C   UNL     1      31.537   5.890  20.699  1.00  0.00     0.016 A 
ATOM     14  C   UNL     1      31.279   7.060  21.418  1.00  0.00     0.051 A 
ATOM     15  C   UNL     1      30.749   8.184  20.771  1.00  0.00     0.157 A 
ATOM     16  C   UNL     1      30.732   6.958  18.679  1.00  0.00     0.062 A 
ATOM     17  C   UNL     1      30.472   8.132  19.400  1.00  0.00     0.158 A 
BRANCH  15  18
ATOM     18  O   UNL     1      30.490   9.352  21.485  1.00  0.00    -0.504 OA
ATOM     19  H   UNL     1      30.539   9.378  22.498  1.00  0.00     0.293 HD
ENDBRANCH  15  18
BRANCH  17  20
ATOM     20  O   UNL     1      29.938   9.250  18.761  1.00  0.00    -0.504 OA
ATOM     21  H   UNL     1      30.345   9.618  17.910  1.00  0.00     0.293 HD
ENDBRANCH  17  20
ENDBRANCH   1  12
BRANCH   2  22
ATOM     22  O   UNL     1      29.247   3.821  18.870  1.00  0.00    -0.502 OA
ATOM     23  H   UNL     1      28.394   3.636  18.355  1.00  0.00     0.293 HD
ENDBRANCH   2  22
BRANCH   6  24
ATOM     24  O   UNL     1      31.629   0.289  15.672  1.00  0.00    -0.507 OA
ATOM     25  H   UNL     1      30.742   0.050  16.088  1.00  0.00     0.293 HD
ENDBRANCH   6  24
BRANCH   8  26
ATOM     26  O   UNL     1      36.124   1.926  15.771  1.00  0.00    -0.508 OA
ATOM     27  H   UNL     1      36.524   1.010  15.606  1.00  0.00     0.293 HD
ENDBRANCH   8  26
TORSDOF 6
ENDMDL
MODEL 8
REMARK VINA RESULT:    -7.078      2.785      6.166
REMARK INTER + INTRA:          -8.835
REMARK INTER:                  -8.511
REMARK INTRA:                  -0.325
REMARK UNBOUND:                -0.309
REMARK SMILES O=c1c(O)c(-c2ccc(O)c(O)c2)oc2cc(O)cc(O)c12
REMARK SMILES IDX 5 1 3 2 2 3 1 4 22 5 20 6 19 7 17 8 16 9 15 10 14 11 6 12
REMARK SMILES IDX 7 13 8 14 9 15 13 16 11 17 10 18 12 20 4 22 21 24 18 26
REMARK H PARENT 10 19 12 21 4 23 21 25 18 27
REMARK Flexibility Score: inf
ROOT
ATOM      1  C   UNL     1      29.948   3.534  19.591  1.00  0.00     0.180 A 
ATOM      2  C   UNL     1      30.808   2.567  19.045  1.00  0.00     0.208 A 
ATOM      3  C   UNL     1      30.300   1.290  18.753  1.00  0.00     0.238 A 
ATOM      4  O   UNL     1      31.061   0.445  18.213  1.00  0.00    -0.285 OA
ATOM      5  C   UNL     1      28.942   0.993  19.025  1.00  0.00     0.111 A 
ATOM      6  C   UNL     1      28.331  -0.278  18.807  1.00  0.00     0.134 A 
ATOM      7  C   UNL     1      26.951  -0.422  18.990  1.00  0.00     0.093 A 
ATOM      8  C   UNL     1      26.170   0.641  19.445  1.00  0.00     0.123 A 
ATOM      9  C   UNL     1      26.768   1.873  19.719  1.00  0.00     0.094 A 
ATOM     10  C   UNL     1      28.137   2.057  19.511  1.00  0.00     0.146 A 
ATOM     11  O   UNL     1      28.664   3.246  19.773  1.00  0.00    -0.452 OA
ENDROOT
BRANCH   1  12
ATOM     12  C   UNL     1      30.415   4.893  19.948  1.00  0.00     0.025 A 
ATOM     13  C   UNL     1      30.845   5.200  21.251  1.00  0.00     0.016 A 
ATOM     14  C   UNL     1      31.259   6.495  21.571  1.00  0.00     0.051 A 
ATOM     15  C   UNL     1      31.237   7.504  20.600  1.00  0.00     0.157 A 
ATOM     16  C   UNL     1      30.376   5.914  18.984  1.00  0.00     0.062 A 
ATOM     17  C   UNL     1      30.792   7.215  19.305  1.00  0.00     0.158 A 
BRANCH  15  18
ATOM     18  O   UNL     1      31.651   8.797  20.916  1.00  0.00    -0.504 OA
ATOM     19  H   UNL     1      32.524   9.175  20.568  1.00  0.00     0.293 HD
ENDBRANCH  15  18
BRANCH  17  20
ATOM     20  O   UNL     1      30.764   8.222  18.342  1.00  0.00    -0.504 OA
ATOM     21  H   UNL     1      30.729   8.009  17.353  1.00  0.00     0.293 HD
ENDBRANCH  17  20
ENDBRANCH   1  12
BRANCH   2  22
ATOM     22  O   UNL     1      32.139   2.887  18.764  1.00  0.00    -0.502 OA
ATOM     23  H   UNL     1      32.817   3.080  19.490  1.00  0.00     0.293 HD
ENDBRANCH   2  22
BRANCH   6  24
ATOM     24  O   UNL     1      29.034  -1.429  18.440  1.00  0.00    -0.507 OA
ATOM     25  H   UNL     1      29.730  -1.884  19.011  1.00  0.00     0.293 HD
ENDBRANCH   6  24
BRANCH   8  26
ATOM     26  O   UNL     1      24.801   0.458  19.630  1.00  0.00    -0.508 OA
ATOM     27  H   UNL     1      24.136   0.665  18.895  1.00  0.00     0.293 HD
ENDBRANCH   8  26
TORSDOF 6
ENDMDL
MODEL 9
REMARK VINA RESULT:    -7.008      2.932      4.789
REMARK INTER + INTRA:          -8.752
REMARK INTER:                  -8.422
REMARK INTRA:                  -0.330
REMARK UNBOUND:                -0.309
REMARK SMILES O=c1c(O)c(-c2ccc(O)c(O)c2)oc2cc(O)cc(O)c12
REMARK SMILES IDX 5 1 3 2 2 3 1 4 22 5 20 6 19 7 17 8 16 9 15 10 14 11 6 12
REMARK SMILES IDX 7 13 8 14 9 15 13 16 11 17 10 18 12 20 4 22 21 24 18 26
REMARK H PARENT 10 19 12 21 4 23 21 25 18 27
REMARK Flexibility Score: inf
ROOT
ATOM      1  C   UNL     1      29.625   3.551  19.433  1.00  0.00     0.180 A 
ATOM      2  C   UNL     1      30.249   3.598  18.175  1.00  0.00     0.208 A 
ATOM      3  C   UNL     1      31.003   4.732  17.829  1.00  0.00     0.238 A 
ATOM      4  O   UNL     1      31.604   4.745  16.723  1.00  0.00    -0.285 OA
ATOM      5  C   UNL     1      31.110   5.810  18.741  1.00  0.00     0.111 A 
ATOM      6  C   UNL     1      31.813   7.025  18.480  1.00  0.00     0.134 A 
ATOM      7  C   UNL     1      31.963   7.969  19.502  1.00  0.00     0.093 A 
ATOM      8  C   UNL     1      31.380   7.774  20.754  1.00  0.00     0.123 A 
ATOM      9  C   UNL     1      30.638   6.617  21.001  1.00  0.00     0.094 A 
ATOM     10  C   UNL     1      30.503   5.640  20.013  1.00  0.00     0.146 A 
ATOM     11  O   UNL     1      29.799   4.550  20.291  1.00  0.00    -0.452 OA
ENDROOT
BRANCH   1  12
ATOM     12  C   UNL     1      28.795   2.401  19.859  1.00  0.00     0.025 A 
ATOM     13  C   UNL     1      27.433   2.318  19.520  1.00  0.00     0.016 A 
ATOM     14  C   UNL     1      26.663   1.235  19.954  1.00  0.00     0.051 A 
ATOM     15  C   UNL     1      27.237   0.230  20.741  1.00  0.00     0.157 A 
ATOM     16  C   UNL     1      29.360   1.400  20.666  1.00  0.00     0.062 A 
ATOM     17  C   UNL     1      28.588   0.313  21.100  1.00  0.00     0.158 A 
BRANCH  15  18
ATOM     18  O   UNL     1      26.472  -0.852  21.174  1.00  0.00    -0.504 OA
ATOM     19  H   UNL     1      25.969  -1.442  20.520  1.00  0.00     0.293 HD
ENDBRANCH  15  18
BRANCH  17  20
ATOM     20  O   UNL     1      29.155  -0.685  21.890  1.00  0.00    -0.504 OA
ATOM     21  H   UNL     1      28.844  -0.850  22.840  1.00  0.00     0.293 HD
ENDBRANCH  17  20
ENDBRANCH   1  12
BRANCH   2  22
ATOM     22  O   UNL     1      30.149   2.513  17.299  1.00  0.00    -0.502 OA
ATOM     23  H   UNL     1      29.339   1.905  17.276  1.00  0.00     0.293 HD
ENDBRANCH   2  22
BRANCH   6  24
ATOM     24  O   UNL     1      32.356   7.361  17.236  1.00  0.00    -0.507 OA
ATOM     25  H   UNL     1      31.822   7.472  16.387  1.00  0.00     0.293 HD
ENDBRANCH   6  24
BRANCH   8  26
ATOM     26  O   UNL     1      31.536   8.743  21.744  1.00  0.00    -0.508 OA
ATOM     27  H   UNL     1      30.761   9.321  22.045  1.00  0.00     0.293 HD
ENDBRANCH   8  26
TORSDOF 6
ENDMDL
