MODEL 1
REMARK VINA RESULT:    -3.333      0.000      0.000
REMARK INTER + INTRA:          -3.640
REMARK INTER:                  -3.626
REMARK INTRA:                  -0.014
REMARK UNBOUND:                -0.014
REMARK SMILES OCc1ccco1
REMARK SMILES IDX 2 1 3 2 5 3 6 4 4 5 7 6 1 7
REMARK H PARENT 1 8
REMARK Flexibility Score: inf
ROOT
ATOM      1  C   UNL     1       7.144 -18.330 -36.154  1.00  0.00     0.231 C 
ENDROOT
BRANCH   1   2
ATOM      2  C   UNL     1       8.394 -17.621 -36.567  1.00  0.00     0.129 A 
ATOM      3  C   UNL     1      10.502 -17.073 -36.844  1.00  0.00     0.042 A 
ATOM      4  C   UNL     1       9.664 -16.123 -37.393  1.00  0.00     0.195 A 
ATOM      5  C   UNL     1       9.682 -18.042 -36.307  1.00  0.00     0.048 A 
ATOM      6  O   UNL     1       8.412 -16.477 -37.209  1.00  0.00    -0.467 OA
ENDBRANCH   1   2
BRANCH   1   7
ATOM      7  O   UNL     1       7.221 -18.695 -34.803  1.00  0.00    -0.388 OA
ATOM      8  H   UNL     1       7.497 -17.881 -34.304  1.00  0.00     0.211 HD
ENDBRANCH   1   7
TORSDOF 2
ENDMDL
MODEL 2
REMARK VINA RESULT:    -3.132      7.529      7.854
REMARK INTER + INTRA:          -3.421
REMARK INTER:                  -3.400
REMARK INTRA:                  -0.021
REMARK UNBOUND:                -0.014
REMARK SMILES OCc1ccco1
REMARK SMILES IDX 2 1 3 2 5 3 6 4 4 5 7 6 1 7
REMARK H PARENT 1 8
REMARK Flexibility Score: inf
ROOT
ATOM      1  C   UNL     1       1.379 -13.939 -36.838  1.00  0.00     0.231 C 
ENDROOT
BRANCH   1   2
ATOM      2  C   UNL     1       2.343 -13.084 -36.079  1.00  0.00     0.129 A 
ATOM      3  C   UNL     1       3.323 -11.930 -34.489  1.00  0.00     0.042 A 
ATOM      4  C   UNL     1       4.013 -11.823 -35.680  1.00  0.00     0.195 A 
ATOM      5  C   UNL     1       2.241 -12.743 -34.745  1.00  0.00     0.048 A 
ATOM      6  O   UNL     1       3.402 -12.520 -36.610  1.00  0.00    -0.467 OA
ENDBRANCH   1   2
BRANCH   1   7
ATOM      7  O   UNL     1       1.941 -14.333 -38.059  1.00  0.00    -0.388 OA
ATOM      8  H   UNL     1       1.205 -14.330 -38.725  1.00  0.00     0.211 HD
ENDBRANCH   1   7
TORSDOF 2
ENDMDL
MODEL 3
REMARK VINA RESULT:    -3.000      7.593      7.829
REMARK INTER + INTRA:          -3.278
REMARK INTER:                  -3.265
REMARK INTRA:                  -0.012
REMARK UNBOUND:                -0.014
REMARK SMILES OCc1ccco1
REMARK SMILES IDX 2 1 3 2 5 3 6 4 4 5 7 6 1 7
REMARK H PARENT 1 8
REMARK Flexibility Score: inf
ROOT
ATOM      1  C   UNL     1       2.526 -13.567 -31.687  1.00  0.00     0.231 C 
ENDROOT
BRANCH   1   2
ATOM      2  C   UNL     1       3.359 -12.822 -32.680  1.00  0.00     0.129 A 
ATOM      3  C   UNL     1       4.995 -11.710 -33.633  1.00  0.00     0.042 A 
ATOM      4  C   UNL     1       3.912 -11.828 -34.482  1.00  0.00     0.195 A 
ATOM      5  C   UNL     1       4.638 -12.350 -32.466  1.00  0.00     0.048 A 
ATOM      6  O   UNL     1       2.951 -12.494 -33.883  1.00  0.00    -0.467 OA
ENDBRANCH   1   2
BRANCH   1   7
ATOM      7  O   UNL     1       2.848 -14.930 -31.713  1.00  0.00    -0.388 OA
ATOM      8  H   UNL     1       3.716 -15.008 -32.190  1.00  0.00     0.211 HD
ENDBRANCH   1   7
TORSDOF 2
ENDMDL
MODEL 4
REMARK VINA RESULT:    -2.994      8.387      8.949
REMARK INTER + INTRA:          -3.271
REMARK INTER:                  -3.257
REMARK INTRA:                  -0.014
REMARK UNBOUND:                -0.014
REMARK SMILES OCc1ccco1
REMARK SMILES IDX 2 1 3 2 5 3 6 4 4 5 7 6 1 7
REMARK H PARENT 1 8
REMARK Flexibility Score: inf
ROOT
ATOM      1  C   UNL     1       2.213 -13.749 -31.712  1.00  0.00     0.231 C 
ENDROOT
BRANCH   1   2
ATOM      2  C   UNL     1       3.188 -12.661 -31.393  1.00  0.00     0.129 A 
ATOM      3  C   UNL     1       4.880 -11.265 -31.490  1.00  0.00     0.042 A 
ATOM      4  C   UNL     1       4.176 -11.113 -30.312  1.00  0.00     0.195 A 
ATOM      5  C   UNL     1       4.244 -12.268 -32.189  1.00  0.00     0.048 A 
ATOM      6  O   UNL     1       3.174 -11.963 -30.282  1.00  0.00    -0.467 OA
ENDBRANCH   1   2
BRANCH   1   7
ATOM      7  O   UNL     1       2.866 -14.988 -31.740  1.00  0.00    -0.388 OA
ATOM      8  H   UNL     1       2.821 -15.312 -32.679  1.00  0.00     0.211 HD
ENDBRANCH   1   7
TORSDOF 2
ENDMDL
MODEL 5
REMARK VINA RESULT:    -2.993      6.929      7.914
REMARK INTER + INTRA:          -3.270
REMARK INTER:                  -3.251
REMARK INTRA:                  -0.020
REMARK UNBOUND:                -0.014
REMARK SMILES OCc1ccco1
REMARK SMILES IDX 2 1 3 2 5 3 6 4 4 5 7 6 1 7
REMARK H PARENT 1 8
REMARK Flexibility Score: inf
ROOT
ATOM      1  C   UNL     1       5.430 -11.679 -36.599  1.00  0.00     0.231 C 
ENDROOT
BRANCH   1   2
ATOM      2  C   UNL     1       4.244 -12.024 -35.756  1.00  0.00     0.129 A 
ATOM      3  C   UNL     1       2.895 -12.309 -34.047  1.00  0.00     0.042 A 
ATOM      4  C   UNL     1       2.329 -12.785 -35.213  1.00  0.00     0.195 A 
ATOM      5  C   UNL     1       4.135 -11.819 -34.396  1.00  0.00     0.048 A 
ATOM      6  O   UNL     1       3.159 -12.603 -36.215  1.00  0.00    -0.467 OA
ENDBRANCH   1   2
BRANCH   1   7
ATOM      7  O   UNL     1       5.031 -11.452 -37.923  1.00  0.00    -0.388 OA
ATOM      8  H   UNL     1       4.795 -12.338 -38.305  1.00  0.00     0.211 HD
ENDBRANCH   1   7
TORSDOF 2
ENDMDL
MODEL 6
REMARK VINA RESULT:    -2.882      9.054      9.816
REMARK INTER + INTRA:          -3.150
REMARK INTER:                  -3.136
REMARK INTRA:                  -0.014
REMARK UNBOUND:                -0.014
REMARK SMILES OCc1ccco1
REMARK SMILES IDX 2 1 3 2 5 3 6 4 4 5 7 6 1 7
REMARK H PARENT 1 8
REMARK Flexibility Score: inf
ROOT
ATOM      1  C   UNL     1       3.103 -13.577 -32.084  1.00  0.00     0.231 C 
ENDROOT
BRANCH   1   2
ATOM      2  C   UNL     1       3.062 -12.674 -30.893  1.00  0.00     0.129 A 
ATOM      3  C   UNL     1       2.490 -11.725 -28.997  1.00  0.00     0.042 A 
ATOM      4  C   UNL     1       3.537 -11.052 -29.594  1.00  0.00     0.195 A 
ATOM      5  C   UNL     1       2.179 -12.773 -29.836  1.00  0.00     0.048 A 
ATOM      6  O   UNL     1       3.853 -11.640 -30.726  1.00  0.00    -0.467 OA
ENDBRANCH   1   2
BRANCH   1   7
ATOM      7  O   UNL     1       2.841 -14.898 -31.696  1.00  0.00    -0.388 OA
ATOM      8  H   UNL     1       1.974 -15.150 -32.111  1.00  0.00     0.211 HD
ENDBRANCH   1   7
TORSDOF 2
ENDMDL
MODEL 7
REMARK VINA RESULT:    -2.873      5.849      6.639
REMARK INTER + INTRA:          -3.139
REMARK INTER:                  -3.125
REMARK INTRA:                  -0.015
REMARK UNBOUND:                -0.014
REMARK SMILES OCc1ccco1
REMARK SMILES IDX 2 1 3 2 5 3 6 4 4 5 7 6 1 7
REMARK H PARENT 1 8
REMARK Flexibility Score: inf
ROOT
ATOM      1  C   UNL     1      11.876 -21.035 -36.499  1.00  0.00     0.231 C 
ENDROOT
BRANCH   1   2
ATOM      2  C   UNL     1      12.785 -21.834 -35.620  1.00  0.00     0.129 A 
ATOM      3  C   UNL     1      13.595 -22.993 -33.940  1.00  0.00     0.042 A 
ATOM      4  C   UNL     1      14.553 -22.791 -34.914  1.00  0.00     0.195 A 
ATOM      5  C   UNL     1      12.451 -22.373 -34.394  1.00  0.00     0.048 A 
ATOM      6  O   UNL     1      14.040 -22.093 -35.902  1.00  0.00    -0.467 OA
ENDBRANCH   1   2
BRANCH   1   7
ATOM      7  O   UNL     1      11.126 -20.138 -35.728  1.00  0.00    -0.388 OA
ATOM      8  H   UNL     1      10.582 -19.602 -36.363  1.00  0.00     0.211 HD
ENDBRANCH   1   7
TORSDOF 2
ENDMDL
MODEL 8
REMARK VINA RESULT:    -2.808      9.575     10.047
REMARK INTER + INTRA:          -3.068
REMARK INTER:                  -3.053
REMARK INTRA:                  -0.015
REMARK UNBOUND:                -0.014
REMARK SMILES OCc1ccco1
REMARK SMILES IDX 2 1 3 2 5 3 6 4 4 5 7 6 1 7
REMARK H PARENT 1 8
REMARK Flexibility Score: inf
ROOT
ATOM      1  C   UNL     1       4.732  -9.611 -29.455  1.00  0.00     0.231 C 
ENDROOT
BRANCH   1   2
ATOM      2  C   UNL     1       4.427 -10.757 -30.366  1.00  0.00     0.129 A 
ATOM      3  C   UNL     1       3.526 -12.555 -31.248  1.00  0.00     0.042 A 
ATOM      4  C   UNL     1       4.608 -12.125 -31.991  1.00  0.00     0.195 A 
ATOM      5  C   UNL     1       3.410 -11.674 -30.195  1.00  0.00     0.048 A 
ATOM      6  O   UNL     1       5.126 -11.052 -31.437  1.00  0.00    -0.467 OA
ENDBRANCH   1   2
BRANCH   1   7
ATOM      7  O   UNL     1       5.855  -9.905 -28.671  1.00  0.00    -0.388 OA
ATOM      8  H   UNL     1       5.539 -10.480 -27.926  1.00  0.00     0.211 HD
ENDBRANCH   1   7
TORSDOF 2
ENDMDL
MODEL 9
REMARK VINA RESULT:    -2.799      9.080      9.808
REMARK INTER + INTRA:          -3.059
REMARK INTER:                  -3.046
REMARK INTRA:                  -0.013
REMARK UNBOUND:                -0.014
REMARK SMILES OCc1ccco1
REMARK SMILES IDX 2 1 3 2 5 3 6 4 4 5 7 6 1 7
REMARK H PARENT 1 8
REMARK Flexibility Score: inf
ROOT
ATOM      1  C   UNL     1       1.662 -12.596 -28.986  1.00  0.00     0.231 C 
ENDROOT
BRANCH   1   2
ATOM      2  C   UNL     1       2.516 -12.653 -30.212  1.00  0.00     0.129 A 
ATOM      3  C   UNL     1       4.047 -12.220 -31.725  1.00  0.00     0.042 A 
ATOM      4  C   UNL     1       3.230 -13.258 -32.127  1.00  0.00     0.195 A 
ATOM      5  C   UNL     1       3.585 -11.826 -30.489  1.00  0.00     0.048 A 
ATOM      6  O   UNL     1       2.324 -13.491 -31.204  1.00  0.00    -0.467 OA
ENDBRANCH   1   2
BRANCH   1   7
ATOM      7  O   UNL     1       2.154 -13.477 -28.015  1.00  0.00    -0.388 OA
ATOM      8  H   UNL     1       2.951 -13.919 -28.409  1.00  0.00     0.211 HD
ENDBRANCH   1   7
TORSDOF 2
ENDMDL
