MODEL 1
REMARK VINA RESULT:    -4.637      0.000      0.000
REMARK INTER + INTRA:          -4.772
REMARK INTER:                  -4.772
REMARK INTRA:                   0.000
REMARK UNBOUND:                 0.000
REMARK SMILES Nc1ncnc2nc[nH]c12
REMARK SMILES IDX 8 1 7 2 6 3 5 4 4 5 3 6 2 7 10 8 9 9 1 11
REMARK H PARENT 9 10 1 12 1 13
REMARK Flexibility Score: inf
ROOT
ATOM      1  C   UNL     1       4.058 -26.825 -27.060  1.00  0.00     0.199 A 
ATOM      2  N   UNL     1       4.861 -27.819 -26.593  1.00  0.00    -0.217 NA
ATOM      3  C   UNL     1       4.160 -28.922 -26.903  1.00  0.00     0.182 A 
ATOM      4  N   UNL     1       4.517 -30.204 -26.653  1.00  0.00    -0.215 NA
ATOM      5  C   UNL     1       3.667 -31.201 -27.047  1.00  0.00     0.226 A 
ATOM      6  N   UNL     1       2.486 -30.898 -27.677  1.00  0.00    -0.217 NA
ATOM      7  C   UNL     1       2.123 -29.606 -27.930  1.00  0.00     0.152 A 
ATOM      8  C   UNL     1       3.000 -28.604 -27.523  1.00  0.00     0.127 A 
ATOM      9  N   UNL     1       2.912 -27.273 -27.634  1.00  0.00    -0.340 N 
ATOM     10  H   UNL     1       2.149 -26.702 -28.060  1.00  0.00     0.168 HD
ENDROOT
BRANCH   7  11
ATOM     11  N   UNL     1       0.888 -29.316 -28.587  1.00  0.00    -0.382 N 
ATOM     12  H   UNL     1       0.038 -29.041 -28.049  1.00  0.00     0.158 HD
ATOM     13  H   UNL     1       0.824 -29.376 -29.627  1.00  0.00     0.158 HD
ENDBRANCH   7  11
TORSDOF 1
ENDMDL
MODEL 2
REMARK VINA RESULT:    -4.468     13.694     14.913
REMARK INTER + INTRA:          -4.599
REMARK INTER:                  -4.599
REMARK INTRA:                   0.000
REMARK UNBOUND:                 0.000
REMARK SMILES Nc1ncnc2nc[nH]c12
REMARK SMILES IDX 8 1 7 2 6 3 5 4 4 5 3 6 2 7 10 8 9 9 1 11
REMARK H PARENT 9 10 1 12 1 13
REMARK Flexibility Score: inf
ROOT
ATOM      1  C   UNL     1       6.621 -17.501 -38.968  1.00  0.00     0.199 A 
ATOM      2  N   UNL     1       6.528 -17.651 -37.618  1.00  0.00    -0.217 NA
ATOM      3  C   UNL     1       5.538 -18.551 -37.499  1.00  0.00     0.182 A 
ATOM      4  N   UNL     1       5.041 -19.057 -36.345  1.00  0.00    -0.215 NA
ATOM      5  C   UNL     1       4.027 -19.971 -36.425  1.00  0.00     0.226 A 
ATOM      6  N   UNL     1       3.534 -20.358 -37.645  1.00  0.00    -0.217 NA
ATOM      7  C   UNL     1       4.034 -19.849 -38.810  1.00  0.00     0.152 A 
ATOM      8  C   UNL     1       5.066 -18.920 -38.712  1.00  0.00     0.127 A 
ATOM      9  N   UNL     1       5.740 -18.264 -39.664  1.00  0.00    -0.340 N 
ATOM     10  H   UNL     1       5.625 -18.317 -40.700  1.00  0.00     0.168 HD
ENDROOT
BRANCH   7  11
ATOM     11  N   UNL     1       3.504 -20.267 -40.069  1.00  0.00    -0.382 N 
ATOM     12  H   UNL     1       2.560 -20.706 -40.143  1.00  0.00     0.158 HD
ATOM     13  H   UNL     1       4.062 -20.134 -40.941  1.00  0.00     0.158 HD
ENDBRANCH   7  11
TORSDOF 1
ENDMDL
MODEL 3
REMARK VINA RESULT:    -4.425      0.922      2.955
REMARK INTER + INTRA:          -4.555
REMARK INTER:                  -4.555
REMARK INTRA:                   0.000
REMARK UNBOUND:                 0.000
REMARK SMILES Nc1ncnc2nc[nH]c12
REMARK SMILES IDX 8 1 7 2 6 3 5 4 4 5 3 6 2 7 10 8 9 9 1 11
REMARK H PARENT 9 10 1 12 1 13
REMARK Flexibility Score: inf
ROOT
ATOM      1  C   UNL     1       1.223 -30.014 -28.321  1.00  0.00     0.199 A 
ATOM      2  N   UNL     1       2.138 -30.932 -27.906  1.00  0.00    -0.217 NA
ATOM      3  C   UNL     1       3.133 -30.155 -27.445  1.00  0.00     0.182 A 
ATOM      4  N   UNL     1       4.304 -30.574 -26.910  1.00  0.00    -0.215 NA
ATOM      5  C   UNL     1       5.199 -29.628 -26.493  1.00  0.00     0.226 A 
ATOM      6  N   UNL     1       4.908 -28.293 -26.618  1.00  0.00    -0.217 NA
ATOM      7  C   UNL     1       3.728 -27.868 -27.157  1.00  0.00     0.152 A 
ATOM      8  C   UNL     1       2.828 -28.843 -27.577  1.00  0.00     0.127 A 
ATOM      9  N   UNL     1       1.616 -28.728 -28.133  1.00  0.00    -0.340 N 
ATOM     10  H   UNL     1       1.086 -27.860 -28.371  1.00  0.00     0.168 HD
ENDROOT
BRANCH   7  11
ATOM     11  N   UNL     1       3.448 -26.472 -27.278  1.00  0.00    -0.382 N 
ATOM     12  H   UNL     1       4.022 -25.853 -27.890  1.00  0.00     0.158 HD
ATOM     13  H   UNL     1       2.653 -26.052 -26.748  1.00  0.00     0.158 HD
ENDBRANCH   7  11
TORSDOF 1
ENDMDL
MODEL 4
REMARK VINA RESULT:    -4.407     13.186     14.387
REMARK INTER + INTRA:          -4.536
REMARK INTER:                  -4.536
REMARK INTRA:                   0.000
REMARK UNBOUND:                 0.000
REMARK SMILES Nc1ncnc2nc[nH]c12
REMARK SMILES IDX 8 1 7 2 6 3 5 4 4 5 3 6 2 7 10 8 9 9 1 11
REMARK H PARENT 9 10 1 12 1 13
REMARK Flexibility Score: inf
ROOT
ATOM      1  C   UNL     1       2.656 -17.141 -37.652  1.00  0.00     0.199 A 
ATOM      2  N   UNL     1       3.117 -17.736 -36.518  1.00  0.00    -0.217 NA
ATOM      3  C   UNL     1       3.505 -18.942 -36.965  1.00  0.00     0.182 A 
ATOM      4  N   UNL     1       4.046 -19.940 -36.229  1.00  0.00    -0.215 NA
ATOM      5  C   UNL     1       4.381 -21.104 -36.865  1.00  0.00     0.226 A 
ATOM      6  N   UNL     1       4.169 -21.244 -38.214  1.00  0.00    -0.217 NA
ATOM      7  C   UNL     1       3.623 -20.238 -38.958  1.00  0.00     0.152 A 
ATOM      8  C   UNL     1       3.288 -19.061 -38.295  1.00  0.00     0.127 A 
ATOM      9  N   UNL     1       2.747 -17.926 -38.756  1.00  0.00    -0.340 N 
ATOM     10  H   UNL     1       2.460 -17.688 -39.731  1.00  0.00     0.168 HD
ENDROOT
BRANCH   7  11
ATOM     11  N   UNL     1       3.412 -20.408 -40.361  1.00  0.00    -0.382 N 
ATOM     12  H   UNL     1       3.790 -21.235 -40.872  1.00  0.00     0.158 HD
ATOM     13  H   UNL     1       2.867 -19.697 -40.897  1.00  0.00     0.158 HD
ENDBRANCH   7  11
TORSDOF 1
ENDMDL
MODEL 5
REMARK VINA RESULT:    -4.275     14.431     14.811
REMARK INTER + INTRA:          -4.400
REMARK INTER:                  -4.400
REMARK INTRA:                   0.000
REMARK UNBOUND:                 0.000
REMARK SMILES Nc1ncnc2nc[nH]c12
REMARK SMILES IDX 8 1 7 2 6 3 5 4 4 5 3 6 2 7 10 8 9 9 1 11
REMARK H PARENT 9 10 1 12 1 13
REMARK Flexibility Score: inf
ROOT
ATOM      1  C   UNL     1       1.058 -18.569 -36.903  1.00  0.00     0.199 A 
ATOM      2  N   UNL     1       2.108 -17.983 -36.265  1.00  0.00    -0.217 NA
ATOM      3  C   UNL     1       3.150 -18.362 -37.024  1.00  0.00     0.182 A 
ATOM      4  N   UNL     1       4.451 -18.046 -36.826  1.00  0.00    -0.215 NA
ATOM      5  C   UNL     1       5.376 -18.528 -37.711  1.00  0.00     0.226 A 
ATOM      6  N   UNL     1       4.984 -19.311 -38.768  1.00  0.00    -0.217 NA
ATOM      7  C   UNL     1       3.672 -19.632 -38.969  1.00  0.00     0.152 A 
ATOM      8  C   UNL     1       2.744 -19.133 -38.059  1.00  0.00     0.127 A 
ATOM      9  N   UNL     1       1.415 -19.279 -38.003  1.00  0.00    -0.340 N 
ATOM     10  H   UNL     1       0.788 -19.810 -38.648  1.00  0.00     0.168 HD
ENDROOT
BRANCH   7  11
ATOM     11  N   UNL     1       3.288 -20.449 -40.076  1.00  0.00    -0.382 N 
ATOM     12  H   UNL     1       2.294 -20.725 -40.230  1.00  0.00     0.158 HD
ATOM     13  H   UNL     1       4.009 -20.782 -40.754  1.00  0.00     0.158 HD
ENDBRANCH   7  11
TORSDOF 1
ENDMDL
MODEL 6
REMARK VINA RESULT:    -4.160     13.096     14.512
REMARK INTER + INTRA:          -4.282
REMARK INTER:                  -4.282
REMARK INTRA:                   0.000
REMARK UNBOUND:                 0.000
REMARK SMILES Nc1ncnc2nc[nH]c12
REMARK SMILES IDX 8 1 7 2 6 3 5 4 4 5 3 6 2 7 10 8 9 9 1 11
REMARK H PARENT 9 10 1 12 1 13
REMARK Flexibility Score: inf
ROOT
ATOM      1  C   UNL     1       4.167 -21.111 -36.073  1.00  0.00     0.199 A 
ATOM      2  N   UNL     1       4.612 -19.877 -35.712  1.00  0.00    -0.217 NA
ATOM      3  C   UNL     1       4.531 -19.196 -36.867  1.00  0.00     0.182 A 
ATOM      4  N   UNL     1       4.861 -17.897 -37.064  1.00  0.00    -0.215 NA
ATOM      5  C   UNL     1       4.709 -17.375 -38.319  1.00  0.00     0.226 A 
ATOM      6  N   UNL     1       4.236 -18.156 -39.344  1.00  0.00    -0.217 NA
ATOM      7  C   UNL     1       3.903 -19.466 -39.147  1.00  0.00     0.152 A 
ATOM      8  C   UNL     1       4.063 -19.981 -37.864  1.00  0.00     0.127 A 
ATOM      9  N   UNL     1       3.824 -21.207 -37.383  1.00  0.00    -0.340 N 
ATOM     10  H   UNL     1       3.460 -22.046 -37.885  1.00  0.00     0.168 HD
ENDROOT
BRANCH   7  11
ATOM     11  N   UNL     1       3.413 -20.259 -40.230  1.00  0.00    -0.382 N 
ATOM     12  H   UNL     1       3.276 -21.288 -40.132  1.00  0.00     0.158 HD
ATOM     13  H   UNL     1       3.182 -19.809 -41.143  1.00  0.00     0.158 HD
ENDBRANCH   7  11
TORSDOF 1
ENDMDL
MODEL 7
REMARK VINA RESULT:    -4.127     14.377     14.621
REMARK INTER + INTRA:          -4.248
REMARK INTER:                  -4.248
REMARK INTRA:                   0.000
REMARK UNBOUND:                 0.000
REMARK SMILES Nc1ncnc2nc[nH]c12
REMARK SMILES IDX 8 1 7 2 6 3 5 4 4 5 3 6 2 7 10 8 9 9 1 11
REMARK H PARENT 9 10 1 12 1 13
REMARK Flexibility Score: inf
ROOT
ATOM      1  C   UNL     1       4.293 -20.063 -38.694  1.00  0.00     0.199 A 
ATOM      2  N   UNL     1       4.841 -19.048 -37.972  1.00  0.00    -0.217 NA
ATOM      3  C   UNL     1       3.767 -18.519 -37.362  1.00  0.00     0.182 A 
ATOM      4  N   UNL     1       3.757 -17.465 -36.513  1.00  0.00    -0.215 NA
ATOM      5  C   UNL     1       2.558 -17.069 -35.988  1.00  0.00     0.226 A 
ATOM      6  N   UNL     1       1.402 -17.729 -36.320  1.00  0.00    -0.217 NA
ATOM      7  C   UNL     1       1.409 -18.792 -37.177  1.00  0.00     0.152 A 
ATOM      8  C   UNL     1       2.637 -19.183 -37.702  1.00  0.00     0.127 A 
ATOM      9  N   UNL     1       2.947 -20.171 -38.550  1.00  0.00    -0.340 N 
ATOM     10  H   UNL     1       2.313 -20.867 -39.001  1.00  0.00     0.168 HD
ENDROOT
BRANCH   7  11
ATOM     11  N   UNL     1       0.192 -19.464 -37.508  1.00  0.00    -0.382 N 
ATOM     12  H   UNL     1      -0.492 -19.745 -36.772  1.00  0.00     0.158 HD
ATOM     13  H   UNL     1      -0.029 -19.681 -38.504  1.00  0.00     0.158 HD
ENDBRANCH   7  11
TORSDOF 1
ENDMDL
MODEL 8
REMARK VINA RESULT:    -3.934     11.003     12.315
REMARK INTER + INTRA:          -4.049
REMARK INTER:                  -4.049
REMARK INTRA:                   0.000
REMARK UNBOUND:                 0.000
REMARK SMILES Nc1ncnc2nc[nH]c12
REMARK SMILES IDX 8 1 7 2 6 3 5 4 4 5 3 6 2 7 10 8 9 9 1 11
REMARK H PARENT 9 10 1 12 1 13
REMARK Flexibility Score: inf
ROOT
ATOM      1  C   UNL     1      12.997 -26.106 -29.073  1.00  0.00     0.199 A 
ATOM      2  N   UNL     1      12.997 -27.359 -28.543  1.00  0.00    -0.217 NA
ATOM      3  C   UNL     1      14.245 -27.781 -28.810  1.00  0.00     0.182 A 
ATOM      4  N   UNL     1      14.777 -28.984 -28.492  1.00  0.00    -0.215 NA
ATOM      5  C   UNL     1      16.074 -29.232 -28.848  1.00  0.00     0.226 A 
ATOM      6  N   UNL     1      16.807 -28.281 -29.511  1.00  0.00    -0.217 NA
ATOM      7  C   UNL     1      16.272 -27.066 -29.834  1.00  0.00     0.152 A 
ATOM      8  C   UNL     1      14.951 -26.829 -29.464  1.00  0.00     0.127 A 
ATOM      9  N   UNL     1      14.177 -25.752 -29.643  1.00  0.00    -0.340 N 
ATOM     10  H   UNL     1      14.413 -24.848 -30.109  1.00  0.00     0.168 HD
ENDROOT
BRANCH   7  11
ATOM     11  N   UNL     1      17.055 -26.091 -30.525  1.00  0.00    -0.382 N 
ATOM     12  H   UNL     1      17.913 -25.679 -30.097  1.00  0.00     0.158 HD
ATOM     13  H   UNL     1      16.773 -25.777 -31.480  1.00  0.00     0.158 HD
ENDBRANCH   7  11
TORSDOF 1
ENDMDL
MODEL 9
REMARK VINA RESULT:    -3.772     13.418     14.776
REMARK INTER + INTRA:          -3.882
REMARK INTER:                  -3.882
REMARK INTRA:                   0.000
REMARK UNBOUND:                 0.000
REMARK SMILES Nc1ncnc2nc[nH]c12
REMARK SMILES IDX 8 1 7 2 6 3 5 4 4 5 3 6 2 7 10 8 9 9 1 11
REMARK H PARENT 9 10 1 12 1 13
REMARK Flexibility Score: inf
ROOT
ATOM      1  C   UNL     1       2.166 -16.948 -37.235  1.00  0.00     0.199 A 
ATOM      2  N   UNL     1       1.960 -18.095 -36.531  1.00  0.00    -0.217 NA
ATOM      3  C   UNL     1       2.923 -18.900 -37.010  1.00  0.00     0.182 A 
ATOM      4  N   UNL     1       3.165 -20.180 -36.639  1.00  0.00    -0.215 NA
ATOM      5  C   UNL     1       4.198 -20.843 -37.242  1.00  0.00     0.226 A 
ATOM      6  N   UNL     1       4.962 -20.220 -38.196  1.00  0.00    -0.217 NA
ATOM      7  C   UNL     1       4.720 -18.929 -38.572  1.00  0.00     0.152 A 
ATOM      8  C   UNL     1       3.665 -18.268 -37.949  1.00  0.00     0.127 A 
ATOM      9  N   UNL     1       3.201 -17.023 -38.110  1.00  0.00    -0.340 N 
ATOM     10  H   UNL     1       3.546 -16.276 -38.753  1.00  0.00     0.168 HD
ENDROOT
BRANCH   7  11
ATOM     11  N   UNL     1       5.528 -18.301 -39.568  1.00  0.00    -0.382 N 
ATOM     12  H   UNL     1       5.413 -18.522 -40.581  1.00  0.00     0.158 HD
ATOM     13  H   UNL     1       6.253 -17.604 -39.289  1.00  0.00     0.158 HD
ENDBRANCH   7  11
TORSDOF 1
ENDMDL
