MODEL 1
REMARK VINA RESULT:    -0.884      0.000      0.000
REMARK INTER + INTRA:          -1.194
REMARK INTER:                  -1.194
REMARK INTRA:                   0.000
REMARK UNBOUND:                 0.000
REMARK SMILES O=C[C@@H](O)[C@@H](O)[C@H](O)CO
REMARK SMILES IDX 7 1 9 2 10 3 5 5 3 6 2 7 1 8 4 9 6 11 8 13
REMARK H PARENT 10 4 4 10 6 12 8 14
REMARK Flexibility Score: inf
ROOT
ATOM      1  C   UNL     1      -6.963  -3.669  19.675  1.00  0.00     0.171 C 
ENDROOT
BRANCH   1   2
ATOM      2  C   UNL     1      -6.417  -3.083  20.992  1.00  0.00     0.190 C 
BRANCH   2   3
ATOM      3  O   UNL     1      -6.114  -1.719  20.862  1.00  0.00    -0.394 OA
ATOM      4  H   UNL     1      -5.449  -1.502  21.566  1.00  0.00     0.210 HD
ENDBRANCH   2   3
ENDBRANCH   1   2
BRANCH   1   5
ATOM      5  C   UNL     1      -7.251  -5.202  19.721  1.00  0.00     0.181 C 
BRANCH   5   6
ATOM      6  C   UNL     1      -8.331  -5.637  20.750  1.00  0.00     0.209 C 
BRANCH   6   7
ATOM      7  C   UNL     1      -9.125  -6.823  20.265  1.00  0.00     0.258 C 
ATOM      8  O   UNL     1      -9.124  -7.877  20.883  1.00  0.00    -0.300 OA
ENDBRANCH   6   7
BRANCH   6   9
ATOM      9  O   UNL     1      -7.740  -5.899  21.998  1.00  0.00    -0.383 OA
ATOM     10  H   UNL     1      -8.452  -6.268  22.584  1.00  0.00     0.211 HD
ENDBRANCH   6   9
ENDBRANCH   5   6
BRANCH   5  11
ATOM     11  O   UNL     1      -7.622  -5.649  18.440  1.00  0.00    -0.387 OA
ATOM     12  H   UNL     1      -7.448  -4.909  17.803  1.00  0.00     0.211 HD
ENDBRANCH   5  11
ENDBRANCH   1   5
BRANCH   1  13
ATOM     13  O   UNL     1      -6.084  -3.367  18.619  1.00  0.00    -0.388 OA
ATOM     14  H   UNL     1      -5.161  -3.562  18.929  1.00  0.00     0.211 HD
ENDBRANCH   1  13
TORSDOF 8
ENDMDL
MODEL 2
REMARK VINA RESULT:    -0.569      0.770      4.309
REMARK INTER + INTRA:          -0.768
REMARK INTER:                  -0.408
REMARK INTRA:                  -0.360
REMARK UNBOUND:                 0.000
REMARK SMILES O=C[C@@H](O)[C@@H](O)[C@H](O)CO
REMARK SMILES IDX 7 1 9 2 10 3 5 5 3 6 2 7 1 8 4 9 6 11 8 13
REMARK H PARENT 10 4 4 10 6 12 8 14
REMARK Flexibility Score: inf
ROOT
ATOM      1  C   UNL     1      -8.090  -6.091  19.559  1.00  0.00     0.171 C 
ENDROOT
BRANCH   1   2
ATOM      2  C   UNL     1      -9.125  -6.858  20.406  1.00  0.00     0.190 C 
BRANCH   2   3
ATOM      3  O   UNL     1      -8.518  -7.524  21.482  1.00  0.00    -0.394 OA
ATOM      4  H   UNL     1      -7.549  -7.310  21.444  1.00  0.00     0.210 HD
ENDBRANCH   2   3
ENDBRANCH   1   2
BRANCH   1   5
ATOM      5  C   UNL     1      -7.157  -5.147  20.379  1.00  0.00     0.181 C 
BRANCH   5   6
ATOM      6  C   UNL     1      -7.001  -3.714  19.801  1.00  0.00     0.209 C 
BRANCH   6   7
ATOM      7  C   UNL     1      -6.138  -2.843  20.679  1.00  0.00     0.258 C 
ATOM      8  O   UNL     1      -6.515  -1.738  21.035  1.00  0.00    -0.300 OA
ENDBRANCH   6   7
BRANCH   6   9
ATOM      9  O   UNL     1      -6.497  -3.767  18.490  1.00  0.00    -0.383 OA
ATOM     10  H   UNL     1      -6.687  -4.678  18.143  1.00  0.00     0.211 HD
ENDBRANCH   6   9
ENDBRANCH   5   6
BRANCH   5  11
ATOM     11  O   UNL     1      -7.619  -5.066  21.705  1.00  0.00    -0.387 OA
ATOM     12  H   UNL     1      -8.499  -4.606  21.688  1.00  0.00     0.211 HD
ENDBRANCH   5  11
ENDBRANCH   1   5
BRANCH   1  13
ATOM     13  O   UNL     1      -8.745  -5.371  18.543  1.00  0.00    -0.388 OA
ATOM     14  H   UNL     1      -8.150  -5.362  17.748  1.00  0.00     0.211 HD
ENDBRANCH   1  13
TORSDOF 8
ENDMDL
MODEL 3
REMARK VINA RESULT:    -0.549      1.339      4.196
REMARK INTER + INTRA:          -0.741
REMARK INTER:                  -2.248
REMARK INTRA:                   1.507
REMARK UNBOUND:                 0.000
REMARK SMILES O=C[C@@H](O)[C@@H](O)[C@H](O)CO
REMARK SMILES IDX 7 1 9 2 10 3 5 5 3 6 2 7 1 8 4 9 6 11 8 13
REMARK H PARENT 10 4 4 10 6 12 8 14
REMARK Flexibility Score: inf
ROOT
ATOM      1  C   UNL     1      -8.927  -6.300  21.364  1.00  0.00     0.171 C 
ENDROOT
BRANCH   1   2
ATOM      2  C   UNL     1      -9.124  -7.759  21.820  1.00  0.00     0.190 C 
BRANCH   2   3
ATOM      3  O   UNL     1      -8.762  -7.932  23.165  1.00  0.00    -0.394 OA
ATOM      4  H   UNL     1      -9.425  -8.553  23.564  1.00  0.00     0.210 HD
ENDBRANCH   2   3
ENDBRANCH   1   2
BRANCH   1   5
ATOM      5  C   UNL     1      -9.095  -6.075  19.828  1.00  0.00     0.181 C 
BRANCH   5   6
ATOM      6  C   UNL     1      -8.013  -5.174  19.175  1.00  0.00     0.209 C 
BRANCH   6   7
ATOM      7  C   UNL     1      -7.140  -4.504  20.205  1.00  0.00     0.258 C 
ATOM      8  O   UNL     1      -6.645  -3.408  19.995  1.00  0.00    -0.300 OA
ENDBRANCH   6   7
BRANCH   6   9
ATOM      9  O   UNL     1      -7.241  -5.917  18.264  1.00  0.00    -0.383 OA
ATOM     10  H   UNL     1      -6.394  -5.419  18.127  1.00  0.00     0.211 HD
ENDBRANCH   6   9
ENDBRANCH   5   6
BRANCH   5  11
ATOM     11  O   UNL     1      -9.123  -7.319  19.172  1.00  0.00    -0.387 OA
ATOM     12  H   UNL     1      -9.959  -7.781  19.441  1.00  0.00     0.211 HD
ENDBRANCH   5  11
ENDBRANCH   1   5
BRANCH   1  13
ATOM     13  O   UNL     1      -7.672  -5.832  21.792  1.00  0.00    -0.388 OA
ATOM     14  H   UNL     1      -7.280  -6.522  22.390  1.00  0.00     0.211 HD
ENDBRANCH   1  13
TORSDOF 8
ENDMDL
MODEL 4
REMARK VINA RESULT:     0.007      0.834      1.713
REMARK INTER + INTRA:           0.010
REMARK INTER:                   0.410
REMARK INTRA:                  -0.400
REMARK UNBOUND:                 0.000
REMARK SMILES O=C[C@@H](O)[C@@H](O)[C@H](O)CO
REMARK SMILES IDX 7 1 9 2 10 3 5 5 3 6 2 7 1 8 4 9 6 11 8 13
REMARK H PARENT 10 4 4 10 6 12 8 14
REMARK Flexibility Score: inf
ROOT
ATOM      1  C   UNL     1      -7.213  -3.672  19.819  1.00  0.00     0.171 C 
ENDROOT
BRANCH   1   2
ATOM      2  C   UNL     1      -6.131  -3.020  20.701  1.00  0.00     0.190 C 
BRANCH   2   3
ATOM      3  O   UNL     1      -6.152  -1.621  20.593  1.00  0.00    -0.394 OA
ATOM      4  H   UNL     1      -5.714  -1.262  21.408  1.00  0.00     0.210 HD
ENDBRANCH   2   3
ENDBRANCH   1   2
BRANCH   1   5
ATOM      5  C   UNL     1      -7.956  -4.870  20.488  1.00  0.00     0.181 C 
BRANCH   5   6
ATOM      6  C   UNL     1      -8.312  -6.039  19.530  1.00  0.00     0.209 C 
BRANCH   6   7
ATOM      7  C   UNL     1      -9.125  -7.106  20.220  1.00  0.00     0.258 C 
ATOM      8  O   UNL     1      -9.024  -7.296  21.422  1.00  0.00    -0.300 OA
ENDBRANCH   6   7
BRANCH   6   9
ATOM      9  O   UNL     1      -8.978  -5.554  18.391  1.00  0.00    -0.383 OA
ATOM     10  H   UNL     1      -8.401  -5.756  17.609  1.00  0.00     0.211 HD
ENDBRANCH   6   9
ENDBRANCH   5   6
BRANCH   5  11
ATOM     11  O   UNL     1      -7.185  -5.363  21.556  1.00  0.00    -0.387 OA
ATOM     12  H   UNL     1      -7.795  -5.855  22.164  1.00  0.00     0.211 HD
ENDBRANCH   5  11
ENDBRANCH   1   5
BRANCH   1  13
ATOM     13  O   UNL     1      -6.653  -4.067  18.591  1.00  0.00    -0.388 OA
ATOM     14  H   UNL     1      -5.772  -4.485  18.781  1.00  0.00     0.211 HD
ENDBRANCH   1  13
TORSDOF 8
ENDMDL
MODEL 5
REMARK VINA RESULT:     0.056      1.199      4.214
REMARK INTER + INTRA:           0.076
REMARK INTER:                   0.078
REMARK INTRA:                  -0.003
REMARK UNBOUND:                 0.000
REMARK SMILES O=C[C@@H](O)[C@@H](O)[C@H](O)CO
REMARK SMILES IDX 7 1 9 2 10 3 5 5 3 6 2 7 1 8 4 9 6 11 8 13
REMARK H PARENT 10 4 4 10 6 12 8 14
REMARK Flexibility Score: inf
ROOT
ATOM      1  C   UNL     1      -8.423  -6.816  20.284  1.00  0.00     0.171 C 
ENDROOT
BRANCH   1   2
ATOM      2  C   UNL     1      -9.125  -6.989  21.646  1.00  0.00     0.190 C 
BRANCH   2   3
ATOM      3  O   UNL     1      -8.760  -8.196  22.263  1.00  0.00    -0.394 OA
ATOM      4  H   UNL     1      -9.583  -8.572  22.671  1.00  0.00     0.210 HD
ENDBRANCH   2   3
ENDBRANCH   1   2
BRANCH   1   5
ATOM      5  C   UNL     1      -8.218  -5.332  19.848  1.00  0.00     0.181 C 
BRANCH   5   6
ATOM      6  C   UNL     1      -6.896  -4.681  20.338  1.00  0.00     0.209 C 
BRANCH   6   7
ATOM      7  C   UNL     1      -6.640  -3.353  19.671  1.00  0.00     0.258 C 
ATOM      8  O   UNL     1      -6.370  -2.360  20.327  1.00  0.00    -0.300 OA
ENDBRANCH   6   7
BRANCH   6   9
ATOM      9  O   UNL     1      -6.903  -4.550  21.738  1.00  0.00    -0.383 OA
ATOM     10  H   UNL     1      -6.156  -5.104  22.085  1.00  0.00     0.211 HD
ENDBRANCH   6   9
ENDBRANCH   5   6
BRANCH   5  11
ATOM     11  O   UNL     1      -8.291  -5.240  18.447  1.00  0.00    -0.387 OA
ATOM     12  H   UNL     1      -9.220  -4.984  18.211  1.00  0.00     0.211 HD
ENDBRANCH   5  11
ENDBRANCH   1   5
BRANCH   1  13
ATOM     13  O   UNL     1      -9.125  -7.525  19.293  1.00  0.00    -0.388 OA
ATOM     14  H   UNL     1      -8.495  -8.175  18.883  1.00  0.00     0.211 HD
ENDBRANCH   1  13
TORSDOF 8
ENDMDL
MODEL 6
REMARK VINA RESULT:     0.304      1.448      2.195
REMARK INTER + INTRA:           0.411
REMARK INTER:                   0.707
REMARK INTRA:                  -0.296
REMARK UNBOUND:                 0.000
REMARK SMILES O=C[C@@H](O)[C@@H](O)[C@H](O)CO
REMARK SMILES IDX 7 1 9 2 10 3 5 5 3 6 2 7 1 8 4 9 6 11 8 13
REMARK H PARENT 10 4 4 10 6 12 8 14
REMARK Flexibility Score: inf
ROOT
ATOM      1  C   UNL     1      -6.675  -2.574  20.676  1.00  0.00     0.171 C 
ENDROOT
BRANCH   1   2
ATOM      2  C   UNL     1      -6.446  -1.661  21.897  1.00  0.00     0.190 C 
BRANCH   2   3
ATOM      3  O   UNL     1      -6.871  -0.347  21.644  1.00  0.00    -0.394 OA
ATOM      4  H   UNL     1      -6.214   0.256  22.079  1.00  0.00     0.210 HD
ENDBRANCH   2   3
ENDBRANCH   1   2
BRANCH   1   5
ATOM      5  C   UNL     1      -6.639  -4.101  20.995  1.00  0.00     0.181 C 
BRANCH   5   6
ATOM      6  C   UNL     1      -7.261  -5.014  19.904  1.00  0.00     0.209 C 
BRANCH   6   7
ATOM      7  C   UNL     1      -8.447  -5.787  20.424  1.00  0.00     0.258 C 
ATOM      8  O   UNL     1      -8.372  -6.438  21.454  1.00  0.00    -0.300 OA
ENDBRANCH   6   7
BRANCH   6   9
ATOM      9  O   UNL     1      -7.608  -4.257  18.771  1.00  0.00    -0.383 OA
ATOM     10  H   UNL     1      -8.369  -4.721  18.334  1.00  0.00     0.211 HD
ENDBRANCH   6   9
ENDBRANCH   5   6
BRANCH   5  11
ATOM     11  O   UNL     1      -5.312  -4.499  21.234  1.00  0.00    -0.387 OA
ATOM     12  H   UNL     1      -4.949  -3.917  21.951  1.00  0.00     0.211 HD
ENDBRANCH   5  11
ENDBRANCH   1   5
BRANCH   1  13
ATOM     13  O   UNL     1      -5.745  -2.262  19.667  1.00  0.00    -0.388 OA
ATOM     14  H   UNL     1      -5.676  -1.273  19.615  1.00  0.00     0.211 HD
ENDBRANCH   1  13
TORSDOF 8
ENDMDL
MODEL 7
REMARK VINA RESULT:     0.752      1.062      4.122
REMARK INTER + INTRA:           1.016
REMARK INTER:                   1.012
REMARK INTRA:                   0.004
REMARK UNBOUND:                 0.000
REMARK SMILES O=C[C@@H](O)[C@@H](O)[C@H](O)CO
REMARK SMILES IDX 7 1 9 2 10 3 5 5 3 6 2 7 1 8 4 9 6 11 8 13
REMARK H PARENT 10 4 4 10 6 12 8 14
REMARK Flexibility Score: inf
ROOT
ATOM      1  C   UNL     1      -7.299  -5.219  19.997  1.00  0.00     0.171 C 
ENDROOT
BRANCH   1   2
ATOM      2  C   UNL     1      -8.337  -5.492  21.104  1.00  0.00     0.190 C 
BRANCH   2   3
ATOM      3  O   UNL     1      -8.325  -6.839  21.499  1.00  0.00    -0.394 OA
ATOM      4  H   UNL     1      -9.231  -7.200  21.318  1.00  0.00     0.210 HD
ENDBRANCH   2   3
ENDBRANCH   1   2
BRANCH   1   5
ATOM      5  C   UNL     1      -7.078  -3.708  19.677  1.00  0.00     0.181 C 
BRANCH   5   6
ATOM      6  C   UNL     1      -6.181  -2.947  20.691  1.00  0.00     0.209 C 
BRANCH   6   7
ATOM      7  C   UNL     1      -6.945  -1.877  21.428  1.00  0.00     0.258 C 
ATOM      8  O   UNL     1      -6.441  -0.789  21.660  1.00  0.00    -0.300 OA
ENDBRANCH   6   7
BRANCH   6   9
ATOM      9  O   UNL     1      -5.581  -3.848  21.587  1.00  0.00    -0.383 OA
ATOM     10  H   UNL     1      -4.613  -3.873  21.370  1.00  0.00     0.211 HD
ENDBRANCH   6   9
ENDBRANCH   5   6
BRANCH   5  11
ATOM     11  O   UNL     1      -6.538  -3.575  18.386  1.00  0.00    -0.387 OA
ATOM     12  H   UNL     1      -6.836  -2.701  18.024  1.00  0.00     0.211 HD
ENDBRANCH   5  11
ENDBRANCH   1   5
BRANCH   1  13
ATOM     13  O   UNL     1      -7.651  -5.920  18.830  1.00  0.00    -0.388 OA
ATOM     14  H   UNL     1      -7.096  -6.743  18.792  1.00  0.00     0.211 HD
ENDBRANCH   1  13
TORSDOF 8
ENDMDL
