MODEL 1
REMARK VINA RESULT:    -2.933      0.000      0.000
REMARK INTER + INTRA:          -3.731
REMARK INTER:                  -3.619
REMARK INTRA:                  -0.112
REMARK UNBOUND:                -0.112
REMARK SMILES CCCCCC(=O)[O-]
REMARK SMILES IDX 4 1 5 2 6 3 7 4 8 5 3 6 2 7 1 8
REMARK H PARENT
REMARK Flexibility Score: inf
ROOT
ATOM      1  C   UNL     1      -0.856 -10.658  39.994  1.00  0.00     0.006 C 
ENDROOT
BRANCH   1   2
ATOM      2  C   UNL     1      -1.619 -10.564  41.321  1.00  0.00     0.053 C 
BRANCH   2   3
ATOM      3  C   UNL     1      -1.480 -11.836  42.094  1.00  0.00     0.041 C 
ATOM      4  O   UNL     1      -0.544 -11.974  42.925  1.00  0.00    -0.550 OA
ATOM      5  O   UNL     1      -2.355 -12.890  41.862  1.00  0.00    -0.550 OA
ENDBRANCH   2   3
ENDBRANCH   1   2
BRANCH   1   6
ATOM      6  C   UNL     1      -0.458  -9.280  39.440  1.00  0.00     0.000 C 
BRANCH   6   7
ATOM      7  C   UNL     1      -1.378  -8.155  39.938  1.00  0.00    -0.003 C 
ATOM      8  C   UNL     1      -2.372  -7.741  38.857  1.00  0.00     0.004 C 
ENDBRANCH   6   7
ENDBRANCH   1   6
TORSDOF 4
ENDMDL
MODEL 2
REMARK VINA RESULT:    -2.916      1.169      1.840
REMARK INTER + INTRA:          -3.709
REMARK INTER:                  -3.588
REMARK INTRA:                  -0.122
REMARK UNBOUND:                -0.112
REMARK SMILES CCCCCC(=O)[O-]
REMARK SMILES IDX 4 1 5 2 6 3 7 4 8 5 3 6 2 7 1 8
REMARK H PARENT
REMARK Flexibility Score: inf
ROOT
ATOM      1  C   UNL     1      -1.365 -10.763  40.926  1.00  0.00     0.006 C 
ENDROOT
BRANCH   1   2
ATOM      2  C   UNL     1      -1.222 -11.557  42.231  1.00  0.00     0.053 C 
BRANCH   2   3
ATOM      3  C   UNL     1      -2.091 -12.774  42.199  1.00  0.00     0.041 C 
ATOM      4  O   UNL     1      -3.207 -12.740  41.616  1.00  0.00    -0.550 OA
ATOM      5  O   UNL     1      -1.690 -13.931  42.854  1.00  0.00    -0.550 OA
ENDBRANCH   2   3
ENDBRANCH   1   2
BRANCH   1   6
ATOM      6  C   UNL     1      -2.037  -9.396  41.136  1.00  0.00     0.000 C 
BRANCH   6   7
ATOM      7  C   UNL     1      -1.437  -8.300  40.242  1.00  0.00    -0.003 C 
ATOM      8  C   UNL     1      -0.419  -8.883  39.267  1.00  0.00     0.004 C 
ENDBRANCH   6   7
ENDBRANCH   1   6
TORSDOF 4
ENDMDL
MODEL 3
REMARK VINA RESULT:    -2.893      3.110      5.831
REMARK INTER + INTRA:          -3.681
REMARK INTER:                  -3.604
REMARK INTRA:                  -0.077
REMARK UNBOUND:                -0.112
REMARK SMILES CCCCCC(=O)[O-]
REMARK SMILES IDX 4 1 5 2 6 3 7 4 8 5 3 6 2 7 1 8
REMARK H PARENT
REMARK Flexibility Score: inf
ROOT
ATOM      1  C   UNL     1      -2.226 -14.063  42.633  1.00  0.00     0.006 C 
ENDROOT
BRANCH   1   2
ATOM      2  C   UNL     1      -2.595 -12.716  41.998  1.00  0.00     0.053 C 
BRANCH   2   3
ATOM      3  C   UNL     1      -1.550 -11.691  42.306  1.00  0.00     0.041 C 
ATOM      4  O   UNL     1      -0.521 -12.011  42.958  1.00  0.00    -0.550 OA
ATOM      5  O   UNL     1      -1.736 -10.371  41.916  1.00  0.00    -0.550 OA
ENDBRANCH   2   3
ENDBRANCH   1   2
BRANCH   1   6
ATOM      6  C   UNL     1      -3.460 -14.913  42.978  1.00  0.00     0.000 C 
BRANCH   6   7
ATOM      7  C   UNL     1      -3.148 -16.020  43.997  1.00  0.00    -0.003 C 
ATOM      8  C   UNL     1      -1.831 -16.715  43.666  1.00  0.00     0.004 C 
ENDBRANCH   6   7
ENDBRANCH   1   6
TORSDOF 4
ENDMDL
MODEL 4
REMARK VINA RESULT:    -2.876      1.995      2.967
REMARK INTER + INTRA:          -3.660
REMARK INTER:                  -3.450
REMARK INTRA:                  -0.210
REMARK UNBOUND:                -0.112
REMARK SMILES CCCCCC(=O)[O-]
REMARK SMILES IDX 4 1 5 2 6 3 7 4 8 5 3 6 2 7 1 8
REMARK H PARENT
REMARK Flexibility Score: inf
ROOT
ATOM      1  C   UNL     1      -2.304  -9.766  41.521  1.00  0.00     0.006 C 
ENDROOT
BRANCH   1   2
ATOM      2  C   UNL     1      -1.462 -10.977  41.099  1.00  0.00     0.053 C 
BRANCH   2   3
ATOM      3  C   UNL     1      -1.376 -11.967  42.216  1.00  0.00     0.041 C 
ATOM      4  O   UNL     1      -0.512 -11.828  43.121  1.00  0.00    -0.550 OA
ATOM      5  O   UNL     1      -2.218 -13.072  42.231  1.00  0.00    -0.550 OA
ENDBRANCH   2   3
ENDBRANCH   1   2
BRANCH   1   6
ATOM      6  C   UNL     1      -3.741  -9.825  40.979  1.00  0.00     0.000 C 
BRANCH   6   7
ATOM      7  C   UNL     1      -4.795  -9.604  42.074  1.00  0.00    -0.003 C 
ATOM      8  C   UNL     1      -4.873 -10.805  43.011  1.00  0.00     0.004 C 
ENDBRANCH   6   7
ENDBRANCH   1   6
TORSDOF 4
ENDMDL
MODEL 5
REMARK VINA RESULT:    -2.864      0.931      1.649
REMARK INTER + INTRA:          -3.646
REMARK INTER:                  -3.559
REMARK INTRA:                  -0.087
REMARK UNBOUND:                -0.112
REMARK SMILES CCCCCC(=O)[O-]
REMARK SMILES IDX 4 1 5 2 6 3 7 4 8 5 3 6 2 7 1 8
REMARK H PARENT
REMARK Flexibility Score: inf
ROOT
ATOM      1  C   UNL     1      -2.093  -9.477  40.815  1.00  0.00     0.006 C 
ENDROOT
BRANCH   1   2
ATOM      2  C   UNL     1      -1.268 -10.770  40.791  1.00  0.00     0.053 C 
BRANCH   2   3
ATOM      3  C   UNL     1      -1.580 -11.609  41.989  1.00  0.00     0.041 C 
ATOM      4  O   UNL     1      -2.770 -11.934  42.242  1.00  0.00    -0.550 OA
ATOM      5  O   UNL     1      -0.562 -11.993  42.853  1.00  0.00    -0.550 OA
ENDBRANCH   2   3
ENDBRANCH   1   2
BRANCH   1   6
ATOM      6  C   UNL     1      -1.345  -8.285  40.195  1.00  0.00     0.000 C 
BRANCH   6   7
ATOM      7  C   UNL     1      -1.972  -7.818  38.873  1.00  0.00    -0.003 C 
ATOM      8  C   UNL     1      -0.978  -7.937  37.722  1.00  0.00     0.004 C 
ENDBRANCH   6   7
ENDBRANCH   1   6
TORSDOF 4
ENDMDL
MODEL 6
REMARK VINA RESULT:    -2.787      2.852      5.487
REMARK INTER + INTRA:          -3.551
REMARK INTER:                  -3.509
REMARK INTRA:                  -0.042
REMARK UNBOUND:                -0.112
REMARK SMILES CCCCCC(=O)[O-]
REMARK SMILES IDX 4 1 5 2 6 3 7 4 8 5 3 6 2 7 1 8
REMARK H PARENT
REMARK Flexibility Score: inf
ROOT
ATOM      1  C   UNL     1      -2.308 -12.921  42.231  1.00  0.00     0.006 C 
ENDROOT
BRANCH   1   2
ATOM      2  C   UNL     1      -1.334 -11.736  42.253  1.00  0.00     0.053 C 
BRANCH   2   3
ATOM      3  C   UNL     1      -1.476 -10.920  41.008  1.00  0.00     0.041 C 
ATOM      4  O   UNL     1      -2.568 -10.349  40.746  1.00  0.00    -0.550 OA
ATOM      5  O   UNL     1      -0.419 -10.829  40.112  1.00  0.00    -0.550 OA
ENDBRANCH   2   3
ENDBRANCH   1   2
BRANCH   1   6
ATOM      6  C   UNL     1      -1.782 -14.136  43.010  1.00  0.00     0.000 C 
BRANCH   6   7
ATOM      7  C   UNL     1      -2.877 -15.174  43.296  1.00  0.00    -0.003 C 
ATOM      8  C   UNL     1      -2.275 -16.485  43.793  1.00  0.00     0.004 C 
ENDBRANCH   6   7
ENDBRANCH   1   6
TORSDOF 4
ENDMDL
MODEL 7
REMARK VINA RESULT:    -2.726      1.571      2.211
REMARK INTER + INTRA:          -3.475
REMARK INTER:                  -3.398
REMARK INTRA:                  -0.077
REMARK UNBOUND:                -0.112
REMARK SMILES CCCCCC(=O)[O-]
REMARK SMILES IDX 4 1 5 2 6 3 7 4 8 5 3 6 2 7 1 8
REMARK H PARENT
REMARK Flexibility Score: inf
ROOT
ATOM      1  C   UNL     1      -1.882  -8.488  40.344  1.00  0.00     0.006 C 
ENDROOT
BRANCH   1   2
ATOM      2  C   UNL     1      -2.287  -9.728  41.151  1.00  0.00     0.053 C 
BRANCH   2   3
ATOM      3  C   UNL     1      -1.252 -10.799  41.017  1.00  0.00     0.041 C 
ATOM      4  O   UNL     1      -1.071 -11.626  41.949  1.00  0.00    -0.550 OA
ATOM      5  O   UNL     1      -0.453 -10.855  39.882  1.00  0.00    -0.550 OA
ENDBRANCH   2   3
ENDBRANCH   1   2
BRANCH   1   6
ATOM      6  C   UNL     1      -2.903  -8.133  39.251  1.00  0.00     0.000 C 
BRANCH   6   7
ATOM      7  C   UNL     1      -2.254  -7.455  38.035  1.00  0.00    -0.003 C 
ATOM      8  C   UNL     1      -3.231  -6.504  37.351  1.00  0.00     0.004 C 
ENDBRANCH   6   7
ENDBRANCH   1   6
TORSDOF 4
ENDMDL
MODEL 8
REMARK VINA RESULT:    -2.718      3.059      4.601
REMARK INTER + INTRA:          -3.466
REMARK INTER:                  -3.397
REMARK INTRA:                  -0.069
REMARK UNBOUND:                -0.112
REMARK SMILES CCCCCC(=O)[O-]
REMARK SMILES IDX 4 1 5 2 6 3 7 4 8 5 3 6 2 7 1 8
REMARK H PARENT
REMARK Flexibility Score: inf
ROOT
ATOM      1  C   UNL     1      -1.899  -9.498  41.210  1.00  0.00     0.006 C 
ENDROOT
BRANCH   1   2
ATOM      2  C   UNL     1      -1.496  -8.529  40.091  1.00  0.00     0.053 C 
BRANCH   2   3
ATOM      3  C   UNL     1      -2.708  -8.042  39.362  1.00  0.00     0.041 C 
ATOM      4  O   UNL     1      -2.585  -7.276  38.370  1.00  0.00    -0.550 OA
ATOM      5  O   UNL     1      -3.975  -8.396  39.807  1.00  0.00    -0.550 OA
ENDBRANCH   2   3
ENDBRANCH   1   2
BRANCH   1   6
ATOM      6  C   UNL     1      -1.334 -10.913  41.001  1.00  0.00     0.000 C 
BRANCH   6   7
ATOM      7  C   UNL     1      -1.319 -11.740  42.295  1.00  0.00    -0.003 C 
ATOM      8  C   UNL     1      -2.272 -12.928  42.197  1.00  0.00     0.004 C 
ENDBRANCH   6   7
ENDBRANCH   1   6
TORSDOF 4
ENDMDL
MODEL 9
REMARK VINA RESULT:    -2.605      2.938      4.276
REMARK INTER + INTRA:          -3.326
REMARK INTER:                  -3.124
REMARK INTRA:                  -0.201
REMARK UNBOUND:                -0.112
REMARK SMILES CCCCCC(=O)[O-]
REMARK SMILES IDX 4 1 5 2 6 3 7 4 8 5 3 6 2 7 1 8
REMARK H PARENT
REMARK Flexibility Score: inf
ROOT
ATOM      1  C   UNL     1      -1.787  -9.110  41.180  1.00  0.00     0.006 C 
ENDROOT
BRANCH   1   2
ATOM      2  C   UNL     1      -1.690  -8.122  40.011  1.00  0.00     0.053 C 
BRANCH   2   3
ATOM      3  C   UNL     1      -0.755  -8.641  38.965  1.00  0.00     0.041 C 
ATOM      4  O   UNL     1       0.087  -9.532  39.253  1.00  0.00    -0.550 OA
ATOM      5  O   UNL     1      -0.781  -8.107  37.683  1.00  0.00    -0.550 OA
ENDBRANCH   2   3
ENDBRANCH   1   2
BRANCH   1   6
ATOM      6  C   UNL     1      -2.909 -10.144  40.991  1.00  0.00     0.000 C 
BRANCH   6   7
ATOM      7  C   UNL     1      -2.448 -11.577  41.295  1.00  0.00    -0.003 C 
ATOM      8  C   UNL     1      -1.171 -11.578  42.129  1.00  0.00     0.004 C 
ENDBRANCH   6   7
ENDBRANCH   1   6
TORSDOF 4
ENDMDL
