MODEL 1
REMARK VINA RESULT:    -6.827      0.000      0.000
REMARK INTER + INTRA:          -8.299
REMARK INTER:                  -8.025
REMARK INTRA:                  -0.275
REMARK UNBOUND:                -0.275
REMARK SMILES O=c1c(O)c(-c2ccc(O)cc2)oc2cc(O)cc(O)c12
REMARK SMILES IDX 5 1 3 2 2 3 1 4 21 5 19 6 18 7 16 8 15 9 14 10 13 11 6 12
REMARK SMILES IDX 7 13 8 14 9 15 12 16 11 17 10 18 4 20 20 22 17 24
REMARK H PARENT 10 19 4 21 20 23 17 25
REMARK Flexibility Score: inf
ROOT
ATOM      1  C   UNL     1       9.738  11.559 -16.131  1.00  0.00     0.180 A 
ATOM      2  C   UNL     1      10.277  10.336 -16.567  1.00  0.00     0.208 A 
ATOM      3  C   UNL     1       9.936   9.160 -15.882  1.00  0.00     0.238 A 
ATOM      4  O   UNL     1      10.379   8.062 -16.310  1.00  0.00    -0.285 OA
ATOM      5  C   UNL     1       9.076   9.221 -14.759  1.00  0.00     0.111 A 
ATOM      6  C   UNL     1       8.697   8.097 -13.965  1.00  0.00     0.134 A 
ATOM      7  C   UNL     1       7.738   8.255 -12.958  1.00  0.00     0.093 A 
ATOM      8  C   UNL     1       7.193   9.506 -12.672  1.00  0.00     0.123 A 
ATOM      9  C   UNL     1       7.599  10.622 -13.402  1.00  0.00     0.094 A 
ATOM     10  C   UNL     1       8.529  10.490 -14.438  1.00  0.00     0.146 A 
ATOM     11  O   UNL     1       8.882  11.576 -15.115  1.00  0.00    -0.452 OA
ENDROOT
BRANCH   1  12
ATOM     12  C   UNL     1      10.068  12.845 -16.786  1.00  0.00     0.021 A 
ATOM     13  C   UNL     1       9.344  13.251 -17.919  1.00  0.00     0.016 A 
ATOM     14  C   UNL     1       9.626  14.472 -18.540  1.00  0.00     0.047 A 
ATOM     15  C   UNL     1      10.624  15.309 -18.027  1.00  0.00     0.115 A 
ATOM     16  C   UNL     1      11.057  13.701 -16.265  1.00  0.00     0.016 A 
ATOM     17  C   UNL     1      11.336  14.921 -16.887  1.00  0.00     0.047 A 
BRANCH  15  18
ATOM     18  O   UNL     1      10.914  16.526 -18.637  1.00  0.00    -0.508 OA
ATOM     19  H   UNL     1      10.206  17.242 -18.757  1.00  0.00     0.293 HD
ENDBRANCH  15  18
ENDBRANCH   1  12
BRANCH   2  20
ATOM     20  O   UNL     1      11.106  10.296 -17.691  1.00  0.00    -0.502 OA
ATOM     21  H   UNL     1      11.943   9.725 -17.729  1.00  0.00     0.293 HD
ENDBRANCH   2  20
BRANCH   6  22
ATOM     22  O   UNL     1       9.250   6.820 -14.106  1.00  0.00    -0.507 OA
ATOM     23  H   UNL     1       9.378   6.343 -14.986  1.00  0.00     0.293 HD
ENDBRANCH   6  22
BRANCH   8  24
ATOM     24  O   UNL     1       6.251   9.628 -11.652  1.00  0.00    -0.508 OA
ATOM     25  H   UNL     1       5.420   9.049 -11.625  1.00  0.00     0.293 HD
ENDBRANCH   8  24
TORSDOF 5
ENDMDL
MODEL 2
REMARK VINA RESULT:    -6.646      3.579      6.467
REMARK INTER + INTRA:          -8.086
REMARK INTER:                  -7.850
REMARK INTRA:                  -0.235
REMARK UNBOUND:                -0.275
REMARK SMILES O=c1c(O)c(-c2ccc(O)cc2)oc2cc(O)cc(O)c12
REMARK SMILES IDX 5 1 3 2 2 3 1 4 21 5 19 6 18 7 16 8 15 9 14 10 13 11 6 12
REMARK SMILES IDX 7 13 8 14 9 15 12 16 11 17 10 18 4 20 20 22 17 24
REMARK H PARENT 10 19 4 21 20 23 17 25
REMARK Flexibility Score: inf
ROOT
ATOM      1  C   UNL     1       8.523  16.180 -19.093  1.00  0.00     0.180 A 
ATOM      2  C   UNL     1       8.496  15.809 -20.449  1.00  0.00     0.208 A 
ATOM      3  C   UNL     1       8.786  14.481 -20.798  1.00  0.00     0.238 A 
ATOM      4  O   UNL     1       8.707  14.143 -22.008  1.00  0.00    -0.285 OA
ATOM      5  C   UNL     1       9.116  13.543 -19.789  1.00  0.00     0.111 A 
ATOM      6  C   UNL     1       9.466  12.181 -20.033  1.00  0.00     0.134 A 
ATOM      7  C   UNL     1       9.647  11.311 -18.951  1.00  0.00     0.093 A 
ATOM      8  C   UNL     1       9.554  11.766 -17.636  1.00  0.00     0.123 A 
ATOM      9  C   UNL     1       9.270  13.109 -17.387  1.00  0.00     0.094 A 
ATOM     10  C   UNL     1       9.049  13.994 -18.446  1.00  0.00     0.146 A 
ATOM     11  O   UNL     1       8.772  15.262 -18.166  1.00  0.00    -0.452 OA
ENDROOT
BRANCH   1  12
ATOM     12  C   UNL     1       8.254  17.566 -18.649  1.00  0.00     0.021 A 
ATOM     13  C   UNL     1       9.234  18.555 -18.835  1.00  0.00     0.016 A 
ATOM     14  C   UNL     1       8.992  19.875 -18.442  1.00  0.00     0.047 A 
ATOM     15  C   UNL     1       7.762  20.226 -17.873  1.00  0.00     0.115 A 
ATOM     16  C   UNL     1       7.013  17.930 -18.094  1.00  0.00     0.016 A 
ATOM     17  C   UNL     1       6.774  19.251 -17.703  1.00  0.00     0.047 A 
BRANCH  15  18
ATOM     18  O   UNL     1       7.510  21.537 -17.477  1.00  0.00    -0.508 OA
ATOM     19  H   UNL     1       8.249  22.230 -17.437  1.00  0.00     0.293 HD
ENDBRANCH  15  18
ENDBRANCH   1  12
BRANCH   2  20
ATOM     20  O   UNL     1       8.146  16.745 -21.425  1.00  0.00    -0.502 OA
ATOM     21  H   UNL     1       7.286  16.680 -21.958  1.00  0.00     0.293 HD
ENDBRANCH   2  20
BRANCH   6  22
ATOM     22  O   UNL     1       9.675  11.644 -21.307  1.00  0.00    -0.507 OA
ATOM     23  H   UNL     1       9.148  10.881 -21.703  1.00  0.00     0.293 HD
ENDBRANCH   6  22
BRANCH   8  24
ATOM     24  O   UNL     1       9.754  10.876 -16.584  1.00  0.00    -0.508 OA
ATOM     25  H   UNL     1       9.890   9.885 -16.747  1.00  0.00     0.293 HD
ENDBRANCH   8  24
TORSDOF 5
ENDMDL
MODEL 3
REMARK VINA RESULT:    -6.525      2.773      7.227
REMARK INTER + INTRA:          -7.944
REMARK INTER:                  -7.676
REMARK INTRA:                  -0.268
REMARK UNBOUND:                -0.275
REMARK SMILES O=c1c(O)c(-c2ccc(O)cc2)oc2cc(O)cc(O)c12
REMARK SMILES IDX 5 1 3 2 2 3 1 4 21 5 19 6 18 7 16 8 15 9 14 10 13 11 6 12
REMARK SMILES IDX 7 13 8 14 9 15 12 16 11 17 10 18 4 20 20 22 17 24
REMARK H PARENT 10 19 4 21 20 23 17 25
REMARK Flexibility Score: inf
ROOT
ATOM      1  C   UNL     1       7.477   8.069 -14.680  1.00  0.00     0.180 A 
ATOM      2  C   UNL     1       7.087   8.505 -13.402  1.00  0.00     0.208 A 
ATOM      3  C   UNL     1       7.396   9.816 -13.006  1.00  0.00     0.238 A 
ATOM      4  O   UNL     1       6.996  10.218 -11.882  1.00  0.00    -0.285 OA
ATOM      5  C   UNL     1       8.106  10.669 -13.885  1.00  0.00     0.111 A 
ATOM      6  C   UNL     1       8.507  12.003 -13.572  1.00  0.00     0.134 A 
ATOM      7  C   UNL     1       9.090  12.799 -14.564  1.00  0.00     0.093 A 
ATOM      8  C   UNL     1       9.346  12.292 -15.838  1.00  0.00     0.123 A 
ATOM      9  C   UNL     1       9.011  10.971 -16.137  1.00  0.00     0.094 A 
ATOM     10  C   UNL     1       8.395  10.162 -15.178  1.00  0.00     0.146 A 
ATOM     11  O   UNL     1       8.084   8.914 -15.506  1.00  0.00    -0.452 OA
ENDROOT
BRANCH   1  12
ATOM     12  C   UNL     1       7.210   6.694 -15.160  1.00  0.00     0.021 A 
ATOM     13  C   UNL     1       6.174   6.473 -16.082  1.00  0.00     0.016 A 
ATOM     14  C   UNL     1       5.919   5.185 -16.565  1.00  0.00     0.047 A 
ATOM     15  C   UNL     1       6.706   4.106 -16.143  1.00  0.00     0.115 A 
ATOM     16  C   UNL     1       8.009   5.609 -14.756  1.00  0.00     0.016 A 
ATOM     17  C   UNL     1       7.752   4.323 -15.241  1.00  0.00     0.047 A 
BRANCH  15  18
ATOM     18  O   UNL     1       6.461   2.820 -16.616  1.00  0.00    -0.508 OA
ATOM     19  H   UNL     1       7.183   2.277 -17.076  1.00  0.00     0.293 HD
ENDBRANCH  15  18
ENDBRANCH   1  12
BRANCH   2  20
ATOM     20  O   UNL     1       6.368   7.654 -12.559  1.00  0.00    -0.502 OA
ATOM     21  H   UNL     1       6.660   6.702 -12.368  1.00  0.00     0.293 HD
ENDBRANCH   2  20
BRANCH   6  22
ATOM     22  O   UNL     1       8.383  12.578 -12.303  1.00  0.00    -0.507 OA
ATOM     23  H   UNL     1       9.091  12.547 -11.586  1.00  0.00     0.293 HD
ENDBRANCH   6  22
BRANCH   8  24
ATOM     24  O   UNL     1       9.941  13.108 -16.797  1.00  0.00    -0.508 OA
ATOM     25  H   UNL     1       9.390  13.713 -17.395  1.00  0.00     0.293 HD
ENDBRANCH   8  24
TORSDOF 5
ENDMDL
MODEL 4
REMARK VINA RESULT:    -6.322      1.880      7.207
REMARK INTER + INTRA:          -7.705
REMARK INTER:                  -7.417
REMARK INTRA:                  -0.288
REMARK UNBOUND:                -0.275
REMARK SMILES O=c1c(O)c(-c2ccc(O)cc2)oc2cc(O)cc(O)c12
REMARK SMILES IDX 5 1 3 2 2 3 1 4 21 5 19 6 18 7 16 8 15 9 14 10 13 11 6 12
REMARK SMILES IDX 7 13 8 14 9 15 12 16 11 17 10 18 4 20 20 22 17 24
REMARK H PARENT 10 19 4 21 20 23 17 25
REMARK Flexibility Score: inf
ROOT
ATOM      1  C   UNL     1       9.827  12.136 -17.059  1.00  0.00     0.180 A 
ATOM      2  C   UNL     1      10.510  13.239 -16.516  1.00  0.00     0.208 A 
ATOM      3  C   UNL     1      10.544  14.441 -17.239  1.00  0.00     0.238 A 
ATOM      4  O   UNL     1      11.110  15.440 -16.723  1.00  0.00    -0.285 OA
ATOM      5  C   UNL     1       9.911  14.522 -18.503  1.00  0.00     0.111 A 
ATOM      6  C   UNL     1       9.918  15.678 -19.340  1.00  0.00     0.134 A 
ATOM      7  C   UNL     1       9.149  15.687 -20.510  1.00  0.00     0.093 A 
ATOM      8  C   UNL     1       8.427  14.563 -20.907  1.00  0.00     0.123 A 
ATOM      9  C   UNL     1       8.461  13.407 -20.127  1.00  0.00     0.094 A 
ATOM     10  C   UNL     1       9.190  13.379 -18.935  1.00  0.00     0.146 A 
ATOM     11  O   UNL     1       9.188  12.263 -18.216  1.00  0.00    -0.452 OA
ENDROOT
BRANCH   1  12
ATOM     12  C   UNL     1       9.768  10.827 -16.368  1.00  0.00     0.021 A 
ATOM     13  C   UNL     1      10.766   9.870 -16.613  1.00  0.00     0.016 A 
ATOM     14  C   UNL     1      10.741   8.636 -15.956  1.00  0.00     0.047 A 
ATOM     15  C   UNL     1       9.726   8.350 -15.034  1.00  0.00     0.115 A 
ATOM     16  C   UNL     1       8.763  10.540 -15.427  1.00  0.00     0.016 A 
ATOM     17  C   UNL     1       8.741   9.306 -14.770  1.00  0.00     0.047 A 
BRANCH  15  18
ATOM     18  O   UNL     1       9.690   7.125 -14.374  1.00  0.00    -0.508 OA
ATOM     19  H   UNL     1       8.954   6.450 -14.548  1.00  0.00     0.293 HD
ENDBRANCH  15  18
ENDBRANCH   1  12
BRANCH   2  20
ATOM     20  O   UNL     1      11.108  13.144 -15.257  1.00  0.00    -0.502 OA
ATOM     21  H   UNL     1      11.506  13.946 -14.781  1.00  0.00     0.293 HD
ENDBRANCH   2  20
BRANCH   6  22
ATOM     22  O   UNL     1      10.679  16.823 -19.084  1.00  0.00    -0.507 OA
ATOM     23  H   UNL     1      11.540  16.836 -18.559  1.00  0.00     0.293 HD
ENDBRANCH   6  22
BRANCH   8  24
ATOM     24  O   UNL     1       7.685  14.602 -22.085  1.00  0.00    -0.508 OA
ATOM     25  H   UNL     1       8.078  14.960 -22.948  1.00  0.00     0.293 HD
ENDBRANCH   8  24
TORSDOF 5
ENDMDL
MODEL 5
REMARK VINA RESULT:    -6.262      2.537      3.723
REMARK INTER + INTRA:          -7.635
REMARK INTER:                  -8.021
REMARK INTRA:                   0.386
REMARK UNBOUND:                -0.275
REMARK SMILES O=c1c(O)c(-c2ccc(O)cc2)oc2cc(O)cc(O)c12
REMARK SMILES IDX 5 1 3 2 2 3 1 4 21 5 19 6 18 7 16 8 15 9 14 10 13 11 6 12
REMARK SMILES IDX 7 13 8 14 9 15 12 16 11 17 10 18 4 20 20 22 17 24
REMARK H PARENT 10 19 4 21 20 23 17 25
REMARK Flexibility Score: inf
ROOT
ATOM      1  C   UNL     1       9.112  13.295 -18.985  1.00  0.00     0.180 A 
ATOM      2  C   UNL     1       9.521  11.995 -19.330  1.00  0.00     0.208 A 
ATOM      3  C   UNL     1       9.704  11.047 -18.311  1.00  0.00     0.238 A 
ATOM      4  O   UNL     1      10.018   9.870 -18.630  1.00  0.00    -0.285 OA
ATOM      5  C   UNL     1       9.491  11.414 -16.959  1.00  0.00     0.111 A 
ATOM      6  C   UNL     1       9.686  10.545 -15.844  1.00  0.00     0.134 A 
ATOM      7  C   UNL     1       9.320  10.975 -14.563  1.00  0.00     0.093 A 
ATOM      8  C   UNL     1       8.829  12.262 -14.347  1.00  0.00     0.123 A 
ATOM      9  C   UNL     1       8.690  13.140 -15.423  1.00  0.00     0.094 A 
ATOM     10  C   UNL     1       9.013  12.727 -16.718  1.00  0.00     0.146 A 
ATOM     11  O   UNL     1       8.857  13.590 -17.716  1.00  0.00    -0.452 OA
ENDROOT
BRANCH   1  12
ATOM     12  C   UNL     1       8.922  14.357 -20.000  1.00  0.00     0.021 A 
ATOM     13  C   UNL     1       8.545  14.006 -21.307  1.00  0.00     0.016 A 
ATOM     14  C   UNL     1       8.340  14.994 -22.275  1.00  0.00     0.047 A 
ATOM     15  C   UNL     1       8.494  16.346 -21.944  1.00  0.00     0.115 A 
ATOM     16  C   UNL     1       9.056  15.718 -19.670  1.00  0.00     0.016 A 
ATOM     17  C   UNL     1       8.850  16.704 -20.640  1.00  0.00     0.047 A 
BRANCH  15  18
ATOM     18  O   UNL     1       8.294  17.339 -22.899  1.00  0.00    -0.508 OA
ATOM     19  H   UNL     1       8.602  18.293 -22.746  1.00  0.00     0.293 HD
ENDBRANCH  15  18
ENDBRANCH   1  12
BRANCH   2  20
ATOM     20  O   UNL     1       9.704  11.648 -20.670  1.00  0.00    -0.502 OA
ATOM     21  H   UNL     1       9.027  11.877 -21.389  1.00  0.00     0.293 HD
ENDBRANCH   2  20
BRANCH   6  22
ATOM     22  O   UNL     1      10.257   9.272 -15.935  1.00  0.00    -0.507 OA
ATOM     23  H   UNL     1      10.760   8.813 -15.191  1.00  0.00     0.293 HD
ENDBRANCH   6  22
BRANCH   8  24
ATOM     24  O   UNL     1       8.488  12.661 -13.057  1.00  0.00    -0.508 OA
ATOM     25  H   UNL     1       7.902  12.088 -12.461  1.00  0.00     0.293 HD
ENDBRANCH   8  24
TORSDOF 5
ENDMDL
MODEL 6
REMARK VINA RESULT:    -6.217      2.254      7.076
REMARK INTER + INTRA:          -7.583
REMARK INTER:                  -7.303
REMARK INTRA:                  -0.279
REMARK UNBOUND:                -0.275
REMARK SMILES O=c1c(O)c(-c2ccc(O)cc2)oc2cc(O)cc(O)c12
REMARK SMILES IDX 5 1 3 2 2 3 1 4 21 5 19 6 18 7 16 8 15 9 14 10 13 11 6 12
REMARK SMILES IDX 7 13 8 14 9 15 12 16 11 17 10 18 4 20 20 22 17 24
REMARK H PARENT 10 19 4 21 20 23 17 25
REMARK Flexibility Score: inf
ROOT
ATOM      1  C   UNL     1       9.189  11.745 -17.786  1.00  0.00     0.180 A 
ATOM      2  C   UNL     1       8.507  11.419 -18.971  1.00  0.00     0.208 A 
ATOM      3  C   UNL     1       8.291  12.421 -19.931  1.00  0.00     0.238 A 
ATOM      4  O   UNL     1       7.728  12.111 -21.013  1.00  0.00    -0.285 OA
ATOM      5  C   UNL     1       8.745  13.740 -19.687  1.00  0.00     0.111 A 
ATOM      6  C   UNL     1       8.545  14.842 -20.571  1.00  0.00     0.134 A 
ATOM      7  C   UNL     1       9.150  16.073 -20.288  1.00  0.00     0.093 A 
ATOM      8  C   UNL     1       9.892  16.260 -19.122  1.00  0.00     0.123 A 
ATOM      9  C   UNL     1      10.045  15.205 -18.221  1.00  0.00     0.094 A 
ATOM     10  C   UNL     1       9.482  13.955 -18.494  1.00  0.00     0.146 A 
ATOM     11  O   UNL     1       9.659  12.975 -17.616  1.00  0.00    -0.452 OA
ENDROOT
BRANCH   1  12
ATOM     12  C   UNL     1       9.432  10.750 -16.717  1.00  0.00     0.021 A 
ATOM     13  C   UNL     1       8.514  10.632 -15.660  1.00  0.00     0.016 A 
ATOM     14  C   UNL     1       8.713   9.684 -14.651  1.00  0.00     0.047 A 
ATOM     15  C   UNL     1       9.824   8.832 -14.695  1.00  0.00     0.115 A 
ATOM     16  C   UNL     1      10.535   9.879 -16.764  1.00  0.00     0.016 A 
ATOM     17  C   UNL     1      10.732   8.931 -15.755  1.00  0.00     0.047 A 
BRANCH  15  18
ATOM     18  O   UNL     1      10.034   7.886 -13.696  1.00  0.00    -0.508 OA
ATOM     19  H   UNL     1      10.163   6.904 -13.915  1.00  0.00     0.293 HD
ENDBRANCH  15  18
ENDBRANCH   1  12
BRANCH   2  20
ATOM     20  O   UNL     1       8.087  10.107 -19.202  1.00  0.00    -0.502 OA
ATOM     21  H   UNL     1       7.930   9.741 -20.134  1.00  0.00     0.293 HD
ENDBRANCH   2  20
BRANCH   6  22
ATOM     22  O   UNL     1       7.745  14.790 -21.716  1.00  0.00    -0.507 OA
ATOM     23  H   UNL     1       6.917  14.221 -21.814  1.00  0.00     0.293 HD
ENDBRANCH   6  22
BRANCH   8  24
ATOM     24  O   UNL     1      10.468  17.502 -18.865  1.00  0.00    -0.508 OA
ATOM     25  H   UNL     1      11.449  17.593 -18.627  1.00  0.00     0.293 HD
ENDBRANCH   8  24
TORSDOF 5
ENDMDL
MODEL 7
REMARK VINA RESULT:    -6.139      1.696      3.263
REMARK INTER + INTRA:          -7.490
REMARK INTER:                  -7.190
REMARK INTRA:                  -0.300
REMARK UNBOUND:                -0.275
REMARK SMILES O=c1c(O)c(-c2ccc(O)cc2)oc2cc(O)cc(O)c12
REMARK SMILES IDX 5 1 3 2 2 3 1 4 21 5 19 6 18 7 16 8 15 9 14 10 13 11 6 12
REMARK SMILES IDX 7 13 8 14 9 15 12 16 11 17 10 18 4 20 20 22 17 24
REMARK H PARENT 10 19 4 21 20 23 17 25
REMARK Flexibility Score: inf
ROOT
ATOM      1  C   UNL     1       8.665  11.392 -15.072  1.00  0.00     0.180 A 
ATOM      2  C   UNL     1       8.280  11.462 -13.722  1.00  0.00     0.208 A 
ATOM      3  C   UNL     1       7.724  10.326 -13.113  1.00  0.00     0.238 A 
ATOM      4  O   UNL     1       7.432  10.378 -11.889  1.00  0.00    -0.285 OA
ATOM      5  C   UNL     1       7.545   9.139 -13.864  1.00  0.00     0.111 A 
ATOM      6  C   UNL     1       6.955   7.942 -13.359  1.00  0.00     0.134 A 
ATOM      7  C   UNL     1       6.947   6.789 -14.153  1.00  0.00     0.093 A 
ATOM      8  C   UNL     1       7.448   6.805 -15.454  1.00  0.00     0.123 A 
ATOM      9  C   UNL     1       7.974   7.987 -15.979  1.00  0.00     0.094 A 
ATOM     10  C   UNL     1       8.028   9.145 -15.198  1.00  0.00     0.146 A 
ATOM     11  O   UNL     1       8.544  10.245 -15.731  1.00  0.00    -0.452 OA
ENDROOT
BRANCH   1  12
ATOM     12  C   UNL     1       9.234  12.554 -15.791  1.00  0.00     0.021 A 
ATOM     13  C   UNL     1      10.629  12.708 -15.864  1.00  0.00     0.016 A 
ATOM     14  C   UNL     1      11.188  13.787 -16.556  1.00  0.00     0.047 A 
ATOM     15  C   UNL     1      10.360  14.716 -17.198  1.00  0.00     0.115 A 
ATOM     16  C   UNL     1       8.410  13.482 -16.454  1.00  0.00     0.016 A 
ATOM     17  C   UNL     1       8.971  14.559 -17.146  1.00  0.00     0.047 A 
BRANCH  15  18
ATOM     18  O   UNL     1      10.905  15.795 -17.889  1.00  0.00    -0.508 OA
ATOM     19  H   UNL     1      11.291  15.687 -18.820  1.00  0.00     0.293 HD
ENDBRANCH  15  18
ENDBRANCH   1  12
BRANCH   2  20
ATOM     20  O   UNL     1       8.486  12.636 -12.993  1.00  0.00    -0.502 OA
ATOM     21  H   UNL     1       8.637  13.534 -13.438  1.00  0.00     0.293 HD
ENDBRANCH   2  20
BRANCH   6  22
ATOM     22  O   UNL     1       6.342   7.841 -12.106  1.00  0.00    -0.507 OA
ATOM     23  H   UNL     1       5.568   8.409 -11.798  1.00  0.00     0.293 HD
ENDBRANCH   6  22
BRANCH   8  24
ATOM     24  O   UNL     1       7.411   5.643 -16.221  1.00  0.00    -0.508 OA
ATOM     25  H   UNL     1       7.157   4.749 -15.817  1.00  0.00     0.293 HD
ENDBRANCH   8  24
TORSDOF 5
ENDMDL
MODEL 8
REMARK VINA RESULT:    -6.101      1.985      6.981
REMARK INTER + INTRA:          -7.446
REMARK INTER:                  -7.659
REMARK INTRA:                   0.213
REMARK UNBOUND:                -0.275
REMARK SMILES O=c1c(O)c(-c2ccc(O)cc2)oc2cc(O)cc(O)c12
REMARK SMILES IDX 5 1 3 2 2 3 1 4 21 5 19 6 18 7 16 8 15 9 14 10 13 11 6 12
REMARK SMILES IDX 7 13 8 14 9 15 12 16 11 17 10 18 4 20 20 22 17 24
REMARK H PARENT 10 19 4 21 20 23 17 25
REMARK Flexibility Score: inf
ROOT
ATOM      1  C   UNL     1       8.404  11.183 -14.716  1.00  0.00     0.180 A 
ATOM      2  C   UNL     1       8.823  12.471 -14.339  1.00  0.00     0.208 A 
ATOM      3  C   UNL     1       9.236  13.370 -15.335  1.00  0.00     0.238 A 
ATOM      4  O   UNL     1       9.558  14.539 -14.997  1.00  0.00    -0.285 OA
ATOM      5  C   UNL     1       9.241  12.966 -16.692  1.00  0.00     0.111 A 
ATOM      6  C   UNL     1       9.677  13.781 -17.779  1.00  0.00     0.134 A 
ATOM      7  C   UNL     1       9.516  13.325 -19.092  1.00  0.00     0.093 A 
ATOM      8  C   UNL     1       8.995  12.059 -19.357  1.00  0.00     0.123 A 
ATOM      9  C   UNL     1       8.620  11.230 -18.300  1.00  0.00     0.094 A 
ATOM     10  C   UNL     1       8.736  11.672 -16.979  1.00  0.00     0.146 A 
ATOM     11  O   UNL     1       8.358  10.856 -16.002  1.00  0.00    -0.452 OA
ENDROOT
BRANCH   1  12
ATOM     12  C   UNL     1       7.979  10.170 -13.722  1.00  0.00     0.021 A 
ATOM     13  C   UNL     1       7.174  10.559 -12.638  1.00  0.00     0.016 A 
ATOM     14  C   UNL     1       6.744   9.615 -11.701  1.00  0.00     0.047 A 
ATOM     15  C   UNL     1       7.099   8.268 -11.844  1.00  0.00     0.115 A 
ATOM     16  C   UNL     1       8.316   8.812 -13.869  1.00  0.00     0.016 A 
ATOM     17  C   UNL     1       7.884   7.870 -12.931  1.00  0.00     0.047 A 
BRANCH  15  18
ATOM     18  O   UNL     1       6.677   7.320 -10.916  1.00  0.00    -0.508 OA
ATOM     19  H   UNL     1       7.338   6.730 -10.423  1.00  0.00     0.293 HD
ENDBRANCH  15  18
ENDBRANCH   1  12
BRANCH   2  20
ATOM     20  O   UNL     1       8.789  12.856 -12.997  1.00  0.00    -0.502 OA
ATOM     21  H   UNL     1       8.535  13.793 -12.706  1.00  0.00     0.293 HD
ENDBRANCH   2  20
BRANCH   6  22
ATOM     22  O   UNL     1      10.297  15.025 -17.622  1.00  0.00    -0.507 OA
ATOM     23  H   UNL     1      11.157  15.179 -17.118  1.00  0.00     0.293 HD
ENDBRANCH   6  22
BRANCH   8  24
ATOM     24  O   UNL     1       8.862  11.632 -20.676  1.00  0.00    -0.508 OA
ATOM     25  H   UNL     1       9.519  10.981 -21.091  1.00  0.00     0.293 HD
ENDBRANCH   8  24
TORSDOF 5
ENDMDL
MODEL 9
REMARK VINA RESULT:    -6.030      1.839      2.722
REMARK INTER + INTRA:          -7.362
REMARK INTER:                  -7.150
REMARK INTRA:                  -0.212
REMARK UNBOUND:                -0.275
REMARK SMILES O=c1c(O)c(-c2ccc(O)cc2)oc2cc(O)cc(O)c12
REMARK SMILES IDX 5 1 3 2 2 3 1 4 21 5 19 6 18 7 16 8 15 9 14 10 13 11 6 12
REMARK SMILES IDX 7 13 8 14 9 15 12 16 11 17 10 18 4 20 20 22 17 24
REMARK H PARENT 10 19 4 21 20 23 17 25
REMARK Flexibility Score: inf
ROOT
ATOM      1  C   UNL     1       9.029  12.472 -18.185  1.00  0.00     0.180 A 
ATOM      2  C   UNL     1       9.628  11.297 -18.674  1.00  0.00     0.208 A 
ATOM      3  C   UNL     1       9.761  10.194 -17.816  1.00  0.00     0.238 A 
ATOM      4  O   UNL     1      10.248   9.128 -18.275  1.00  0.00    -0.285 OA
ATOM      5  C   UNL     1       9.310  10.283 -16.477  1.00  0.00     0.111 A 
ATOM      6  C   UNL     1       9.432   9.241 -15.510  1.00  0.00     0.134 A 
ATOM      7  C   UNL     1       8.834   9.392 -14.253  1.00  0.00     0.093 A 
ATOM      8  C   UNL     1       8.175  10.571 -13.905  1.00  0.00     0.123 A 
ATOM      9  C   UNL     1       8.102  11.620 -14.822  1.00  0.00     0.094 A 
ATOM     10  C   UNL     1       8.658  11.485 -16.097  1.00  0.00     0.146 A 
ATOM     11  O   UNL     1       8.557  12.502 -16.944  1.00  0.00    -0.452 OA
ENDROOT
BRANCH   1  12
ATOM     12  C   UNL     1       8.876  13.685 -19.020  1.00  0.00     0.021 A 
ATOM     13  C   UNL     1       9.739  14.776 -18.820  1.00  0.00     0.016 A 
ATOM     14  C   UNL     1       9.625  15.923 -19.612  1.00  0.00     0.047 A 
ATOM     15  C   UNL     1       8.659  15.987 -20.624  1.00  0.00     0.115 A 
ATOM     16  C   UNL     1       7.920  13.750 -20.050  1.00  0.00     0.016 A 
ATOM     17  C   UNL     1       7.810  14.898 -20.841  1.00  0.00     0.047 A 
BRANCH  15  18
ATOM     18  O   UNL     1       8.536  17.124 -21.418  1.00  0.00    -0.508 OA
ATOM     19  H   UNL     1       7.655  17.620 -21.501  1.00  0.00     0.293 HD
ENDBRANCH  15  18
ENDBRANCH   1  12
BRANCH   2  20
ATOM     20  O   UNL     1      10.045  11.223 -20.005  1.00  0.00    -0.502 OA
ATOM     21  H   UNL     1      10.378  10.363 -20.424  1.00  0.00     0.293 HD
ENDBRANCH   2  20
BRANCH   6  22
ATOM     22  O   UNL     1      10.148   8.058 -15.722  1.00  0.00    -0.507 OA
ATOM     23  H   UNL     1       9.749   7.132 -15.694  1.00  0.00     0.293 HD
ENDBRANCH   6  22
BRANCH   8  24
ATOM     24  O   UNL     1       7.605  10.693 -12.640  1.00  0.00    -0.508 OA
ATOM     25  H   UNL     1       7.529   9.900 -12.014  1.00  0.00     0.293 HD
ENDBRANCH   8  24
TORSDOF 5
ENDMDL
