MODEL 1
REMARK VINA RESULT:    -0.249      0.000      0.000
REMARK INTER + INTRA:          -0.256
REMARK INTER:                  -0.256
REMARK INTRA:                   0.000
REMARK UNBOUND:                 0.000
REMARK SMILES Oc1ccc2[nH]ccc2c1
REMARK SMILES IDX 3 1 4 2 5 3 9 4 8 5 7 6 6 7 10 8 2 9 1 11
REMARK H PARENT 6 10 1 12
REMARK Flexibility Score: inf
ROOT
ATOM      1  C   UNL     1      29.103  30.001   7.398  1.00  0.00     0.048 A 
ATOM      2  C   UNL     1      29.087  28.641   7.035  1.00  0.00     0.030 A 
ATOM      3  C   UNL     1      29.070  27.695   8.057  1.00  0.00     0.046 A 
ATOM      4  C   UNL     1      29.071  28.060   9.377  1.00  0.00     0.003 A 
ATOM      5  C   UNL     1      29.054  26.903  10.124  1.00  0.00     0.028 A 
ATOM      6  C   UNL     1      29.043  25.868   9.194  1.00  0.00     0.083 A 
ATOM      7  N   UNL     1      29.054  26.357   7.932  1.00  0.00    -0.361 N 
ATOM      8  C   UNL     1      29.087  29.396   9.771  1.00  0.00     0.056 A 
ATOM      9  C   UNL     1      29.104  30.380   8.764  1.00  0.00     0.116 A 
ATOM     10  H   UNL     1      29.049  25.805   7.046  1.00  0.00     0.166 HD
ENDROOT
BRANCH   9  11
ATOM     11  O   UNL     1      29.120  31.725   9.123  1.00  0.00    -0.508 OA
ATOM     12  H   UNL     1      28.912  32.454   8.451  1.00  0.00     0.293 HD
ENDBRANCH   9  11
TORSDOF 1
ENDMDL
MODEL 2
REMARK VINA RESULT:     1.670      2.613      4.040
REMARK INTER + INTRA:           1.718
REMARK INTER:                   1.718
REMARK INTRA:                   0.000
REMARK UNBOUND:                 0.000
REMARK SMILES Oc1ccc2[nH]ccc2c1
REMARK SMILES IDX 3 1 4 2 5 3 9 4 8 5 7 6 6 7 10 8 2 9 1 11
REMARK H PARENT 6 10 1 12
REMARK Flexibility Score: inf
ROOT
ATOM      1  C   UNL     1      28.435  27.303  10.125  1.00  0.00     0.048 A 
ATOM      2  C   UNL     1      28.556  28.704  10.059  1.00  0.00     0.030 A 
ATOM      3  C   UNL     1      28.781  29.280   8.811  1.00  0.00     0.046 A 
ATOM      4  C   UNL     1      28.885  28.521   7.676  1.00  0.00     0.003 A 
ATOM      5  C   UNL     1      29.106  29.382   6.624  1.00  0.00     0.028 A 
ATOM      6  C   UNL     1      29.125  30.653   7.191  1.00  0.00     0.083 A 
ATOM      7  N   UNL     1      28.927  30.585   8.528  1.00  0.00    -0.361 N 
ATOM      8  C   UNL     1      28.771  27.133   7.705  1.00  0.00     0.056 A 
ATOM      9  C   UNL     1      28.542  26.517   8.950  1.00  0.00     0.116 A 
ATOM     10  H   UNL     1      28.893  31.385   9.198  1.00  0.00     0.166 HD
ENDROOT
BRANCH   9  11
ATOM     11  O   UNL     1      28.423  25.131   9.015  1.00  0.00    -0.508 OA
ATOM     12  H   UNL     1      27.522  24.674   8.942  1.00  0.00     0.293 HD
ENDBRANCH   9  11
TORSDOF 1
ENDMDL
