MODEL 1
REMARK VINA RESULT:    -3.592      0.000      0.000
REMARK INTER + INTRA:          -6.978
REMARK INTER:                  -5.481
REMARK INTRA:                  -1.496
REMARK UNBOUND:                -1.496
REMARK SMILES OC[C@H]1O[C@H](O[C@]2(CO)O[C@H](CO)[C@@H](O)[C@H]2O)[C@@H](O)[C@H](O)[C@@H]1O
REMARK SMILES IDX 6 1 5 2 3 3 22 4 4 5 20 6 18 7 2 8 1 9 23 11 21 13 19 15
REMARK SMILES IDX 7 17 16 18 10 19 14 20 11 21 8 22 9 23 17 25 15 27 12 29
REMARK SMILES IDX 13 30
REMARK H PARENT 1 10 23 12 21 14 19 16 9 24 17 26 15 28 13 31
REMARK Flexibility Score: inf
ROOT
ATOM      1  O   UNL     1      -9.072  -9.216 -26.747  1.00  0.00    -0.313 OA
ENDROOT
BRANCH   1   2
ATOM      2  C   UNL     1      -8.585 -10.102 -25.746  1.00  0.00     0.285 C 
ATOM      3  C   UNL     1      -6.614 -11.298 -25.155  1.00  0.00     0.178 C 
ATOM      4  C   UNL     1      -6.643 -10.772 -23.695  1.00  0.00     0.177 C 
ATOM      5  O   UNL     1      -7.239 -10.407 -26.077  1.00  0.00    -0.341 OA
ATOM      6  C   UNL     1      -8.067 -10.316 -23.298  1.00  0.00     0.179 C 
ATOM      7  C   UNL     1      -8.659  -9.392 -24.379  1.00  0.00     0.202 C 
BRANCH   3   8
ATOM      8  C   UNL     1      -7.045 -12.771 -25.352  1.00  0.00     0.191 C 
BRANCH   8   9
ATOM      9  O   UNL     1      -7.134 -13.123 -26.703  1.00  0.00    -0.394 OA
ATOM     10  H   UNL     1      -7.185 -14.114 -26.727  1.00  0.00     0.210 HD
ENDBRANCH   8   9
ENDBRANCH   3   8
BRANCH   4  11
ATOM     11  O   UNL     1      -5.715  -9.717 -23.600  1.00  0.00    -0.387 OA
ATOM     12  H   UNL     1      -5.846  -9.256 -22.735  1.00  0.00     0.211 HD
ENDBRANCH   4  11
BRANCH   6  13
ATOM     13  O   UNL     1      -8.085  -9.728 -22.018  1.00  0.00    -0.387 OA
ATOM     14  H   UNL     1      -9.027  -9.544 -21.767  1.00  0.00     0.211 HD
ENDBRANCH   6  13
BRANCH   7  15
ATOM     15  O   UNL     1      -9.998  -9.109 -24.060  1.00  0.00    -0.385 OA
ATOM     16  H   UNL     1     -10.007  -8.259 -23.552  1.00  0.00     0.211 HD
ENDBRANCH   7  15
ENDBRANCH   1   2
BRANCH   1  17
ATOM     17  C   UNL     1     -10.014  -9.794 -27.652  1.00  0.00     0.224 C 
ATOM     18  C   UNL     1     -10.236 -11.291 -27.333  1.00  0.00     0.208 C 
ATOM     19  O   UNL     1     -11.271  -9.145 -27.561  1.00  0.00    -0.337 OA
ATOM     20  C   UNL     1     -11.686 -11.536 -27.708  1.00  0.00     0.180 C 
ATOM     21  C   UNL     1     -12.297 -10.121 -27.652  1.00  0.00     0.179 C 
BRANCH  17  22
ATOM     22  C   UNL     1      -9.455  -9.529 -29.072  1.00  0.00     0.225 C 
BRANCH  22  23
ATOM     23  O   UNL     1      -8.061  -9.683 -29.124  1.00  0.00    -0.391 OA
ATOM     24  H   UNL     1      -7.818 -10.408 -28.492  1.00  0.00     0.210 HD
ENDBRANCH  22  23
ENDBRANCH  17  22
BRANCH  18  25
ATOM     25  O   UNL     1      -9.314 -12.179 -27.927  1.00  0.00    -0.385 OA
ATOM     26  H   UNL     1      -8.426 -12.047 -27.516  1.00  0.00     0.211 HD
ENDBRANCH  18  25
BRANCH  20  27
ATOM     27  O   UNL     1     -11.806 -12.069 -29.003  1.00  0.00    -0.387 OA
ATOM     28  H   UNL     1     -10.944 -11.893 -29.464  1.00  0.00     0.211 HD
ENDBRANCH  20  27
BRANCH  21  29
ATOM     29  C   UNL     1     -13.259  -9.962 -26.467  1.00  0.00     0.191 C 
BRANCH  29  30
ATOM     30  O   UNL     1     -12.540  -9.948 -25.263  1.00  0.00    -0.394 OA
ATOM     31  H   UNL     1     -11.594 -10.146 -25.497  1.00  0.00     0.210 HD
ENDBRANCH  29  30
ENDBRANCH  21  29
ENDBRANCH   1  17
TORSDOF 13
ENDMDL
MODEL 2
REMARK VINA RESULT:    -2.970     13.797     15.708
REMARK INTER + INTRA:          -6.029
REMARK INTER:                  -5.089
REMARK INTRA:                  -0.940
REMARK UNBOUND:                -1.496
REMARK SMILES OC[C@H]1O[C@H](O[C@]2(CO)O[C@H](CO)[C@@H](O)[C@H]2O)[C@@H](O)[C@H](O)[C@@H]1O
REMARK SMILES IDX 6 1 5 2 3 3 22 4 4 5 20 6 18 7 2 8 1 9 23 11 21 13 19 15
REMARK SMILES IDX 7 17 16 18 10 19 14 20 11 21 8 22 9 23 17 25 15 27 12 29
REMARK SMILES IDX 13 30
REMARK H PARENT 1 10 23 12 21 14 19 16 9 24 17 26 15 28 13 31
REMARK Flexibility Score: inf
ROOT
ATOM      1  O   UNL     1     -10.716   4.336 -19.398  1.00  0.00    -0.313 OA
ENDROOT
BRANCH   1   2
ATOM      2  C   UNL     1     -11.737   3.501 -18.864  1.00  0.00     0.285 C 
ATOM      3  C   UNL     1     -12.037   1.751 -17.280  1.00  0.00     0.178 C 
ATOM      4  C   UNL     1     -13.231   2.471 -16.598  1.00  0.00     0.177 C 
ATOM      5  O   UNL     1     -11.127   2.656 -17.902  1.00  0.00    -0.341 OA
ATOM      6  C   UNL     1     -13.882   3.495 -17.558  1.00  0.00     0.179 C 
ATOM      7  C   UNL     1     -12.808   4.392 -18.201  1.00  0.00     0.202 C 
BRANCH   3   8
ATOM      8  C   UNL     1     -12.400   0.545 -18.178  1.00  0.00     0.191 C 
BRANCH   8   9
ATOM      9  O   UNL     1     -11.282  -0.232 -18.503  1.00  0.00    -0.394 OA
ATOM     10  H   UNL     1     -11.182  -0.174 -19.488  1.00  0.00     0.210 HD
ENDBRANCH   8   9
ENDBRANCH   3   8
BRANCH   4  11
ATOM     11  O   UNL     1     -12.748   3.091 -15.429  1.00  0.00    -0.387 OA
ATOM     12  H   UNL     1     -12.703   4.068 -15.582  1.00  0.00     0.211 HD
ENDBRANCH   4  11
BRANCH   6  13
ATOM     13  O   UNL     1     -14.891   4.239 -16.915  1.00  0.00    -0.387 OA
ATOM     14  H   UNL     1     -14.515   4.627 -16.081  1.00  0.00     0.211 HD
ENDBRANCH   6  13
BRANCH   7  15
ATOM     15  O   UNL     1     -13.412   5.213 -19.169  1.00  0.00    -0.385 OA
ATOM     16  H   UNL     1     -14.285   4.805 -19.397  1.00  0.00     0.211 HD
ENDBRANCH   7  15
ENDBRANCH   1   2
BRANCH   1  17
ATOM     17  C   UNL     1     -10.091   3.837 -20.581  1.00  0.00     0.224 C 
ATOM     18  C   UNL     1     -10.878   2.635 -21.153  1.00  0.00     0.208 C 
ATOM     19  O   UNL     1     -10.039   4.833 -21.588  1.00  0.00    -0.337 OA
ATOM     20  C   UNL     1     -10.677   2.744 -22.653  1.00  0.00     0.180 C 
ATOM     21  C   UNL     1     -10.316   4.231 -22.842  1.00  0.00     0.179 C 
BRANCH  17  22
ATOM     22  C   UNL     1      -8.633   3.502 -20.181  1.00  0.00     0.225 C 
BRANCH  22  23
ATOM     23  O   UNL     1      -8.553   2.976 -18.883  1.00  0.00    -0.391 OA
ATOM     24  H   UNL     1      -9.475   2.939 -18.519  1.00  0.00     0.210 HD
ENDBRANCH  22  23
ENDBRANCH  17  22
BRANCH  18  25
ATOM     25  O   UNL     1     -10.547   1.378 -20.603  1.00  0.00    -0.385 OA
ATOM     26  H   UNL     1     -11.025   0.670 -21.100  1.00  0.00     0.211 HD
ENDBRANCH  18  25
BRANCH  20  27
ATOM     27  O   UNL     1      -9.625   1.925 -23.099  1.00  0.00    -0.387 OA
ATOM     28  H   UNL     1      -9.162   1.589 -22.286  1.00  0.00     0.211 HD
ENDBRANCH  20  27
BRANCH  21  29
ATOM     29  C   UNL     1     -11.439   5.006 -23.544  1.00  0.00     0.191 C 
BRANCH  29  30
ATOM     30  O   UNL     1     -12.673   4.705 -22.951  1.00  0.00    -0.394 OA
ATOM     31  H   UNL     1     -13.046   5.566 -22.623  1.00  0.00     0.210 HD
ENDBRANCH  29  30
ENDBRANCH  21  29
ENDBRANCH   1  17
TORSDOF 13
ENDMDL
MODEL 3
REMARK VINA RESULT:    -2.933      1.650      5.573
REMARK INTER + INTRA:          -5.972
REMARK INTER:                  -4.560
REMARK INTRA:                  -1.413
REMARK UNBOUND:                -1.496
REMARK SMILES OC[C@H]1O[C@H](O[C@]2(CO)O[C@H](CO)[C@@H](O)[C@H]2O)[C@@H](O)[C@H](O)[C@@H]1O
REMARK SMILES IDX 6 1 5 2 3 3 22 4 4 5 20 6 18 7 2 8 1 9 23 11 21 13 19 15
REMARK SMILES IDX 7 17 16 18 10 19 14 20 11 21 8 22 9 23 17 25 15 27 12 29
REMARK SMILES IDX 13 30
REMARK H PARENT 1 10 23 12 21 14 19 16 9 24 17 26 15 28 13 31
REMARK Flexibility Score: inf
ROOT
ATOM      1  O   UNL     1      -9.009 -10.097 -24.974  1.00  0.00    -0.313 OA
ENDROOT
BRANCH   1   2
ATOM      2  C   UNL     1      -9.329 -10.145 -26.359  1.00  0.00     0.285 C 
ATOM      3  C   UNL     1     -11.024 -10.948 -27.824  1.00  0.00     0.178 C 
ATOM      4  C   UNL     1     -11.145  -9.583 -28.553  1.00  0.00     0.177 C 
ATOM      5  O   UNL     1     -10.572 -10.818 -26.478  1.00  0.00    -0.341 OA
ATOM      6  C   UNL     1      -9.859  -8.743 -28.374  1.00  0.00     0.179 C 
ATOM      7  C   UNL     1      -9.443  -8.702 -26.892  1.00  0.00     0.202 C 
BRANCH   3   8
ATOM      8  C   UNL     1     -10.291 -12.066 -28.603  1.00  0.00     0.191 C 
BRANCH   8   9
ATOM      9  O   UNL     1     -11.174 -13.018 -29.125  1.00  0.00    -0.394 OA
ATOM     10  H   UNL     1     -12.031 -12.543 -29.280  1.00  0.00     0.210 HD
ENDBRANCH   8   9
ENDBRANCH   3   8
BRANCH   4  11
ATOM     11  O   UNL     1     -12.275  -8.919 -28.035  1.00  0.00    -0.387 OA
ATOM     12  H   UNL     1     -12.153  -8.797 -27.061  1.00  0.00     0.211 HD
ENDBRANCH   4  11
BRANCH   6  13
ATOM     13  O   UNL     1     -10.000  -7.456 -28.929  1.00  0.00    -0.387 OA
ATOM     14  H   UNL     1     -10.097  -7.545 -29.913  1.00  0.00     0.211 HD
ENDBRANCH   6  13
BRANCH   7  15
ATOM     15  O   UNL     1      -8.200  -8.053 -26.780  1.00  0.00    -0.385 OA
ATOM     16  H   UNL     1      -7.838  -8.263 -25.882  1.00  0.00     0.211 HD
ENDBRANCH   7  15
ENDBRANCH   1   2
BRANCH   1  17
ATOM     17  C   UNL     1      -7.754 -10.683 -24.627  1.00  0.00     0.224 C 
ATOM     18  C   UNL     1      -7.767 -12.207 -24.894  1.00  0.00     0.208 C 
ATOM     19  O   UNL     1      -6.701 -10.123 -25.395  1.00  0.00    -0.337 OA
ATOM     20  C   UNL     1      -6.336 -12.524 -25.287  1.00  0.00     0.180 C 
ATOM     21  C   UNL     1      -5.800 -11.157 -25.758  1.00  0.00     0.179 C 
BRANCH  17  22
ATOM     22  C   UNL     1      -7.503 -10.305 -23.147  1.00  0.00     0.225 C 
BRANCH  22  23
ATOM     23  O   UNL     1      -8.702 -10.102 -22.447  1.00  0.00    -0.391 OA
ATOM     24  H   UNL     1      -9.390 -10.684 -22.861  1.00  0.00     0.210 HD
ENDBRANCH  22  23
ENDBRANCH  17  22
BRANCH  18  25
ATOM     25  O   UNL     1      -8.281 -12.999 -23.845  1.00  0.00    -0.385 OA
ATOM     26  H   UNL     1      -9.203 -12.708 -23.641  1.00  0.00     0.211 HD
ENDBRANCH  18  25
BRANCH  20  27
ATOM     27  O   UNL     1      -5.587 -12.992 -24.193  1.00  0.00    -0.387 OA
ATOM     28  H   UNL     1      -4.928 -12.281 -23.974  1.00  0.00     0.211 HD
ENDBRANCH  20  27
BRANCH  21  29
ATOM     29  C   UNL     1      -5.573 -11.126 -27.276  1.00  0.00     0.191 C 
BRANCH  29  30
ATOM     30  O   UNL     1      -6.095  -9.942 -27.815  1.00  0.00    -0.394 OA
ATOM     31  H   UNL     1      -5.319  -9.413 -28.140  1.00  0.00     0.210 HD
ENDBRANCH  29  30
ENDBRANCH  21  29
ENDBRANCH   1  17
TORSDOF 13
ENDMDL
MODEL 4
REMARK VINA RESULT:    -2.874      1.423      2.341
REMARK INTER + INTRA:          -5.883
REMARK INTER:                  -6.520
REMARK INTRA:                   0.637
REMARK UNBOUND:                -1.496
REMARK SMILES OC[C@H]1O[C@H](O[C@]2(CO)O[C@H](CO)[C@@H](O)[C@H]2O)[C@@H](O)[C@H](O)[C@@H]1O
REMARK SMILES IDX 6 1 5 2 3 3 22 4 4 5 20 6 18 7 2 8 1 9 23 11 21 13 19 15
REMARK SMILES IDX 7 17 16 18 10 19 14 20 11 21 8 22 9 23 17 25 15 27 12 29
REMARK SMILES IDX 13 30
REMARK H PARENT 1 10 23 12 21 14 19 16 9 24 17 26 15 28 13 31
REMARK Flexibility Score: inf
ROOT
ATOM      1  O   UNL     1      -9.481  -9.207 -25.635  1.00  0.00    -0.313 OA
ENDROOT
BRANCH   1   2
ATOM      2  C   UNL     1      -8.680 -10.099 -24.869  1.00  0.00     0.285 C 
ATOM      3  C   UNL     1      -6.595 -11.241 -24.969  1.00  0.00     0.178 C 
ATOM      4  C   UNL     1      -6.174 -10.752 -23.557  1.00  0.00     0.177 C 
ATOM      5  O   UNL     1      -7.500 -10.350 -25.616  1.00  0.00    -0.341 OA
ATOM      6  C   UNL     1      -7.411 -10.355 -22.717  1.00  0.00     0.179 C 
ATOM      7  C   UNL     1      -8.336  -9.426 -23.524  1.00  0.00     0.202 C 
BRANCH   3   8
ATOM      8  C   UNL     1      -7.029 -12.723 -25.069  1.00  0.00     0.191 C 
BRANCH   8   9
ATOM      9  O   UNL     1      -8.311 -12.938 -24.553  1.00  0.00    -0.394 OA
ATOM     10  H   UNL     1      -8.660 -12.044 -24.297  1.00  0.00     0.210 HD
ENDBRANCH   8   9
ENDBRANCH   3   8
BRANCH   4  11
ATOM     11  O   UNL     1      -5.291  -9.668 -23.723  1.00  0.00    -0.387 OA
ATOM     12  H   UNL     1      -5.713  -8.854 -23.354  1.00  0.00     0.211 HD
ENDBRANCH   4  11
BRANCH   6  13
ATOM     13  O   UNL     1      -7.038  -9.799 -21.477  1.00  0.00    -0.387 OA
ATOM     14  H   UNL     1      -7.767  -9.200 -21.167  1.00  0.00     0.211 HD
ENDBRANCH   6  13
BRANCH   7  15
ATOM     15  O   UNL     1      -9.514  -9.197 -22.791  1.00  0.00    -0.385 OA
ATOM     16  H   UNL     1      -9.561  -8.225 -22.606  1.00  0.00     0.211 HD
ENDBRANCH   7  15
ENDBRANCH   1   2
BRANCH   1  17
ATOM     17  C   UNL     1     -10.286  -9.832 -26.635  1.00  0.00     0.224 C 
ATOM     18  C   UNL     1     -11.791  -9.643 -26.326  1.00  0.00     0.208 C 
ATOM     19  O   UNL     1     -10.038  -9.269 -27.913  1.00  0.00    -0.337 OA
ATOM     20  C   UNL     1     -12.441  -9.568 -27.695  1.00  0.00     0.180 C 
ATOM     21  C   UNL     1     -11.269  -9.149 -28.607  1.00  0.00     0.179 C 
BRANCH  17  22
ATOM     22  C   UNL     1      -9.833 -11.311 -26.681  1.00  0.00     0.225 C 
BRANCH  22  23
ATOM     23  O   UNL     1     -10.914 -12.196 -26.543  1.00  0.00    -0.391 OA
ATOM     24  H   UNL     1     -11.746 -11.662 -26.619  1.00  0.00     0.210 HD
ENDBRANCH  22  23
ENDBRANCH  17  22
BRANCH  18  25
ATOM     25  O   UNL     1     -12.353 -10.602 -25.457  1.00  0.00    -0.385 OA
ATOM     26  H   UNL     1     -12.333 -11.488 -25.895  1.00  0.00     0.211 HD
ENDBRANCH  18  25
BRANCH  20  27
ATOM     27  O   UNL     1     -12.953 -10.814 -28.098  1.00  0.00    -0.387 OA
ATOM     28  H   UNL     1     -13.632 -10.629 -28.799  1.00  0.00     0.211 HD
ENDBRANCH  20  27
BRANCH  21  29
ATOM     29  C   UNL     1     -11.429  -7.711 -29.117  1.00  0.00     0.191 C 
BRANCH  29  30
ATOM     30  O   UNL     1     -10.186  -7.063 -29.125  1.00  0.00    -0.394 OA
ATOM     31  H   UNL     1      -9.522  -7.731 -29.443  1.00  0.00     0.210 HD
ENDBRANCH  29  30
ENDBRANCH  21  29
ENDBRANCH   1  17
TORSDOF 13
ENDMDL
MODEL 5
REMARK VINA RESULT:    -2.461      1.983      2.964
REMARK INTER + INTRA:          -5.253
REMARK INTER:                  -4.590
REMARK INTRA:                  -0.662
REMARK UNBOUND:                -1.496
REMARK SMILES OC[C@H]1O[C@H](O[C@]2(CO)O[C@H](CO)[C@@H](O)[C@H]2O)[C@@H](O)[C@H](O)[C@@H]1O
REMARK SMILES IDX 6 1 5 2 3 3 22 4 4 5 20 6 18 7 2 8 1 9 23 11 21 13 19 15
REMARK SMILES IDX 7 17 16 18 10 19 14 20 11 21 8 22 9 23 17 25 15 27 12 29
REMARK SMILES IDX 13 30
REMARK H PARENT 1 10 23 12 21 14 19 16 9 24 17 26 15 28 13 31
REMARK Flexibility Score: inf
ROOT
ATOM      1  O   UNL     1      -9.459  -9.882 -26.216  1.00  0.00    -0.313 OA
ENDROOT
BRANCH   1   2
ATOM      2  C   UNL     1      -8.213 -10.499 -26.518  1.00  0.00     0.285 C 
ATOM      3  C   UNL     1      -6.191 -10.071 -27.699  1.00  0.00     0.178 C 
ATOM      4  C   UNL     1      -5.310 -10.476 -26.487  1.00  0.00     0.177 C 
ATOM      5  O   UNL     1      -7.474  -9.584 -27.312  1.00  0.00    -0.341 OA
ATOM      6  C   UNL     1      -6.090 -11.392 -25.515  1.00  0.00     0.179 C 
ATOM      7  C   UNL     1      -7.471 -10.789 -25.197  1.00  0.00     0.202 C 
BRANCH   3   8
ATOM      8  C   UNL     1      -6.258 -11.095 -28.857  1.00  0.00     0.191 C 
BRANCH   8   9
ATOM      9  O   UNL     1      -5.472 -12.226 -28.613  1.00  0.00    -0.394 OA
ATOM     10  H   UNL     1      -4.705 -12.170 -29.240  1.00  0.00     0.210 HD
ENDBRANCH   8   9
ENDBRANCH   3   8
BRANCH   4  11
ATOM     11  O   UNL     1      -4.882  -9.292 -25.853  1.00  0.00    -0.387 OA
ATOM     12  H   UNL     1      -4.556  -9.517 -24.947  1.00  0.00     0.211 HD
ENDBRANCH   4  11
BRANCH   6  13
ATOM     13  O   UNL     1      -5.343 -11.670 -24.354  1.00  0.00    -0.387 OA
ATOM     14  H   UNL     1      -4.989 -10.816 -23.992  1.00  0.00     0.211 HD
ENDBRANCH   6  13
BRANCH   7  15
ATOM     15  O   UNL     1      -8.208 -11.707 -24.428  1.00  0.00    -0.385 OA
ATOM     16  H   UNL     1      -8.860 -11.187 -23.894  1.00  0.00     0.211 HD
ENDBRANCH   7  15
ENDBRANCH   1   2
BRANCH   1  17
ATOM     17  C   UNL     1     -10.519 -10.200 -27.118  1.00  0.00     0.224 C 
ATOM     18  C   UNL     1     -11.886  -9.775 -26.530  1.00  0.00     0.208 C 
ATOM     19  O   UNL     1     -10.356  -9.525 -28.353  1.00  0.00    -0.337 OA
ATOM     20  C   UNL     1     -12.706  -9.391 -27.747  1.00  0.00     0.180 C 
ATOM     21  C   UNL     1     -11.626  -9.080 -28.803  1.00  0.00     0.179 C 
BRANCH  17  22
ATOM     22  C   UNL     1     -10.398 -11.718 -27.397  1.00  0.00     0.225 C 
BRANCH  22  23
ATOM     23  O   UNL     1     -10.734 -12.487 -26.271  1.00  0.00    -0.391 OA
ATOM     24  H   UNL     1     -11.720 -12.457 -26.175  1.00  0.00     0.210 HD
ENDBRANCH  22  23
ENDBRANCH  17  22
BRANCH  18  25
ATOM     25  O   UNL     1     -12.498 -10.720 -25.679  1.00  0.00    -0.385 OA
ATOM     26  H   UNL     1     -13.109 -11.286 -26.211  1.00  0.00     0.211 HD
ENDBRANCH  18  25
BRANCH  20  27
ATOM     27  O   UNL     1     -13.523 -10.450 -28.180  1.00  0.00    -0.387 OA
ATOM     28  H   UNL     1     -14.036 -10.113 -28.962  1.00  0.00     0.211 HD
ENDBRANCH  20  27
BRANCH  21  29
ATOM     29  C   UNL     1     -11.558  -7.582 -29.125  1.00  0.00     0.191 C 
BRANCH  29  30
ATOM     30  O   UNL     1     -12.841  -7.019 -29.068  1.00  0.00    -0.394 OA
ATOM     31  H   UNL     1     -12.749  -6.076 -29.367  1.00  0.00     0.210 HD
ENDBRANCH  29  30
ENDBRANCH  21  29
ENDBRANCH   1  17
TORSDOF 13
ENDMDL
MODEL 6
REMARK VINA RESULT:    -1.299     16.740     19.092
REMARK INTER + INTRA:          -3.478
REMARK INTER:                  -3.819
REMARK INTRA:                   0.340
REMARK UNBOUND:                -1.496
REMARK SMILES OC[C@H]1O[C@H](O[C@]2(CO)O[C@H](CO)[C@@H](O)[C@H]2O)[C@@H](O)[C@H](O)[C@@H]1O
REMARK SMILES IDX 6 1 5 2 3 3 22 4 4 5 20 6 18 7 2 8 1 9 23 11 21 13 19 15
REMARK SMILES IDX 7 17 16 18 10 19 14 20 11 21 8 22 9 23 17 25 15 27 12 29
REMARK SMILES IDX 13 30
REMARK H PARENT 1 10 23 12 21 14 19 16 9 24 17 26 15 28 13 31
REMARK Flexibility Score: inf
ROOT
ATOM      1  O   UNL     1     -20.194   4.083 -27.909  1.00  0.00    -0.313 OA
ENDROOT
BRANCH   1   2
ATOM      2  C   UNL     1     -18.872   4.544 -28.159  1.00  0.00     0.285 C 
ATOM      3  C   UNL     1     -17.248   6.037 -27.268  1.00  0.00     0.178 C 
ATOM      4  C   UNL     1     -16.133   4.957 -27.289  1.00  0.00     0.177 C 
ATOM      5  O   UNL     1     -18.555   5.481 -27.143  1.00  0.00    -0.341 OA
ATOM      6  C   UNL     1     -16.466   3.837 -28.304  1.00  0.00     0.179 C 
ATOM      7  C   UNL     1     -17.909   3.339 -28.104  1.00  0.00     0.202 C 
BRANCH   3   8
ATOM      8  C   UNL     1     -17.156   7.125 -28.364  1.00  0.00     0.191 C 
BRANCH   8   9
ATOM      9  O   UNL     1     -15.986   7.017 -29.124  1.00  0.00    -0.394 OA
ATOM     10  H   UNL     1     -16.176   7.462 -29.990  1.00  0.00     0.210 HD
ENDBRANCH   8   9
ENDBRANCH   3   8
BRANCH   4  11
ATOM     11  O   UNL     1     -16.001   4.450 -25.982  1.00  0.00    -0.387 OA
ATOM     12  H   UNL     1     -15.184   3.895 -25.937  1.00  0.00     0.211 HD
ENDBRANCH   4  11
BRANCH   6  13
ATOM     13  O   UNL     1     -15.523   2.792 -28.249  1.00  0.00    -0.387 OA
ATOM     14  H   UNL     1     -14.946   2.844 -29.055  1.00  0.00     0.211 HD
ENDBRANCH   6  13
BRANCH   7  15
ATOM     15  O   UNL     1     -18.227   2.427 -29.125  1.00  0.00    -0.385 OA
ATOM     16  H   UNL     1     -18.017   1.521 -28.786  1.00  0.00     0.211 HD
ENDBRANCH   7  15
ENDBRANCH   1   2
BRANCH   1  17
ATOM     17  C   UNL     1     -21.164   5.115 -27.727  1.00  0.00     0.224 C 
ATOM     18  C   UNL     1     -22.513   4.524 -27.252  1.00  0.00     0.208 C 
ATOM     19  O   UNL     1     -20.738   6.048 -26.748  1.00  0.00    -0.337 OA
ATOM     20  C   UNL     1     -23.097   5.606 -26.364  1.00  0.00     0.180 C 
ATOM     21  C   UNL     1     -21.853   6.421 -25.955  1.00  0.00     0.179 C 
BRANCH  17  22
ATOM     22  C   UNL     1     -21.246   5.864 -29.079  1.00  0.00     0.225 C 
BRANCH  22  23
ATOM     23  O   UNL     1     -20.533   7.072 -29.054  1.00  0.00    -0.391 OA
ATOM     24  H   UNL     1     -20.639   7.462 -28.149  1.00  0.00     0.210 HD
ENDBRANCH  22  23
ENDBRANCH  17  22
BRANCH  18  25
ATOM     25  O   UNL     1     -23.371   4.076 -28.279  1.00  0.00    -0.385 OA
ATOM     26  H   UNL     1     -23.672   3.158 -28.072  1.00  0.00     0.211 HD
ENDBRANCH  18  25
BRANCH  20  27
ATOM     27  O   UNL     1     -24.005   6.421 -27.064  1.00  0.00    -0.387 OA
ATOM     28  H   UNL     1     -24.727   5.823 -27.394  1.00  0.00     0.211 HD
ENDBRANCH  20  27
BRANCH  21  29
ATOM     29  C   UNL     1     -21.510   6.231 -24.471  1.00  0.00     0.191 C 
BRANCH  29  30
ATOM     30  O   UNL     1     -21.218   4.883 -24.215  1.00  0.00    -0.394 OA
ATOM     31  H   UNL     1     -20.242   4.773 -24.369  1.00  0.00     0.210 HD
ENDBRANCH  29  30
ENDBRANCH  21  29
ENDBRANCH   1  17
TORSDOF 13
ENDMDL
MODEL 7
REMARK VINA RESULT:    -0.916      1.924      3.449
REMARK INTER + INTRA:          -2.895
REMARK INTER:                  -4.238
REMARK INTRA:                   1.343
REMARK UNBOUND:                -1.496
REMARK SMILES OC[C@H]1O[C@H](O[C@]2(CO)O[C@H](CO)[C@@H](O)[C@H]2O)[C@@H](O)[C@H](O)[C@@H]1O
REMARK SMILES IDX 6 1 5 2 3 3 22 4 4 5 20 6 18 7 2 8 1 9 23 11 21 13 19 15
REMARK SMILES IDX 7 17 16 18 10 19 14 20 11 21 8 22 9 23 17 25 15 27 12 29
REMARK SMILES IDX 13 30
REMARK H PARENT 1 10 23 12 21 14 19 16 9 24 17 26 15 28 13 31
REMARK Flexibility Score: inf
ROOT
ATOM      1  O   UNL     1     -10.346  -9.108 -25.751  1.00  0.00    -0.313 OA
ENDROOT
BRANCH   1   2
ATOM      2  C   UNL     1      -8.987  -9.494 -25.911  1.00  0.00     0.285 C 
ATOM      3  C   UNL     1      -7.644 -11.450 -26.097  1.00  0.00     0.178 C 
ATOM      4  C   UNL     1      -6.921 -10.924 -27.365  1.00  0.00     0.177 C 
ATOM      5  O   UNL     1      -8.955 -10.912 -25.944  1.00  0.00    -0.341 OA
ATOM      6  C   UNL     1      -7.008  -9.382 -27.454  1.00  0.00     0.179 C 
ATOM      7  C   UNL     1      -8.458  -8.910 -27.237  1.00  0.00     0.202 C 
BRANCH   3   8
ATOM      8  C   UNL     1      -6.821 -11.417 -24.787  1.00  0.00     0.191 C 
BRANCH   8   9
ATOM      9  O   UNL     1      -7.398 -12.192 -23.776  1.00  0.00    -0.394 OA
ATOM     10  H   UNL     1      -7.929 -11.567 -23.217  1.00  0.00     0.210 HD
ENDBRANCH   8   9
ENDBRANCH   3   8
BRANCH   4  11
ATOM     11  O   UNL     1      -7.512 -11.542 -28.484  1.00  0.00    -0.387 OA
ATOM     12  H   UNL     1      -7.090 -11.185 -29.305  1.00  0.00     0.211 HD
ENDBRANCH   4  11
BRANCH   6  13
ATOM     13  O   UNL     1      -6.460  -8.900 -28.658  1.00  0.00    -0.387 OA
ATOM     14  H   UNL     1      -5.754  -9.531 -28.960  1.00  0.00     0.211 HD
ENDBRANCH   6  13
BRANCH   7  15
ATOM     15  O   UNL     1      -8.483  -7.506 -27.183  1.00  0.00    -0.385 OA
ATOM     16  H   UNL     1      -9.426  -7.223 -27.287  1.00  0.00     0.211 HD
ENDBRANCH   7  15
ENDBRANCH   1   2
BRANCH   1  17
ATOM     17  C   UNL     1     -11.241  -9.642 -26.728  1.00  0.00     0.224 C 
ATOM     18  C   UNL     1     -12.710  -9.334 -26.354  1.00  0.00     0.208 C 
ATOM     19  O   UNL     1     -10.997  -9.075 -28.005  1.00  0.00    -0.337 OA
ATOM     20  C   UNL     1     -13.405  -9.175 -27.693  1.00  0.00     0.180 C 
ATOM     21  C   UNL     1     -12.240  -8.838 -28.645  1.00  0.00     0.179 C 
BRANCH  17  22
ATOM     22  C   UNL     1     -10.917 -11.153 -26.819  1.00  0.00     0.225 C 
BRANCH  22  23
ATOM     23  O   UNL     1     -10.602 -11.544 -28.130  1.00  0.00    -0.391 OA
ATOM     24  H   UNL     1     -11.102 -10.949 -28.746  1.00  0.00     0.210 HD
ENDBRANCH  22  23
ENDBRANCH  17  22
BRANCH  18  25
ATOM     25  O   UNL     1     -13.317 -10.260 -25.480  1.00  0.00    -0.385 OA
ATOM     26  H   UNL     1     -14.227  -9.946 -25.256  1.00  0.00     0.211 HD
ENDBRANCH  18  25
BRANCH  20  27
ATOM     27  O   UNL     1     -14.037 -10.365 -28.097  1.00  0.00    -0.387 OA
ATOM     28  H   UNL     1     -13.738 -10.544 -29.027  1.00  0.00     0.211 HD
ENDBRANCH  20  27
BRANCH  21  29
ATOM     29  C   UNL     1     -12.297  -7.381 -29.123  1.00  0.00     0.191 C 
BRANCH  29  30
ATOM     30  O   UNL     1     -13.625  -6.928 -29.124  1.00  0.00    -0.394 OA
ATOM     31  H   UNL     1     -13.962  -7.042 -28.196  1.00  0.00     0.210 HD
ENDBRANCH  29  30
ENDBRANCH  21  29
ENDBRANCH   1  17
TORSDOF 13
ENDMDL
MODEL 8
REMARK VINA RESULT:    -0.734      2.690      5.458
REMARK INTER + INTRA:          -2.616
REMARK INTER:                  -4.215
REMARK INTRA:                   1.599
REMARK UNBOUND:                -1.496
REMARK SMILES OC[C@H]1O[C@H](O[C@]2(CO)O[C@H](CO)[C@@H](O)[C@H]2O)[C@@H](O)[C@H](O)[C@@H]1O
REMARK SMILES IDX 6 1 5 2 3 3 22 4 4 5 20 6 18 7 2 8 1 9 23 11 21 13 19 15
REMARK SMILES IDX 7 17 16 18 10 19 14 20 11 21 8 22 9 23 17 25 15 27 12 29
REMARK SMILES IDX 13 30
REMARK H PARENT 1 10 23 12 21 14 19 16 9 24 17 26 15 28 13 31
REMARK Flexibility Score: inf
ROOT
ATOM      1  O   UNL     1      -9.530  -9.205 -27.595  1.00  0.00    -0.313 OA
ENDROOT
BRANCH   1   2
ATOM      2  C   UNL     1      -8.630  -8.304 -28.229  1.00  0.00     0.285 C 
ATOM      3  C   UNL     1      -7.703  -6.131 -27.945  1.00  0.00     0.178 C 
ATOM      4  C   UNL     1      -6.252  -6.640 -28.158  1.00  0.00     0.177 C 
ATOM      5  O   UNL     1      -8.572  -7.136 -27.427  1.00  0.00    -0.341 OA
ATOM      6  C   UNL     1      -6.243  -7.977 -28.937  1.00  0.00     0.179 C 
ATOM      7  C   UNL     1      -7.242  -8.971 -28.316  1.00  0.00     0.202 C 
BRANCH   3   8
ATOM      8  C   UNL     1      -8.323  -5.345 -29.125  1.00  0.00     0.191 C 
BRANCH   8   9
ATOM      9  O   UNL     1      -9.191  -4.336 -28.695  1.00  0.00    -0.394 OA
ATOM     10  H   UNL     1      -9.295  -4.460 -27.716  1.00  0.00     0.210 HD
ENDBRANCH   8   9
ENDBRANCH   3   8
BRANCH   4  11
ATOM     11  O   UNL     1      -5.654  -6.775 -26.889  1.00  0.00    -0.387 OA
ATOM     12  H   UNL     1      -4.712  -6.480 -26.949  1.00  0.00     0.211 HD
ENDBRANCH   4  11
BRANCH   6  13
ATOM     13  O   UNL     1      -4.942  -8.510 -29.034  1.00  0.00    -0.387 OA
ATOM     14  H   UNL     1      -4.956  -9.263 -29.681  1.00  0.00     0.211 HD
ENDBRANCH   6  13
BRANCH   7  15
ATOM     15  O   UNL     1      -7.313 -10.118 -29.125  1.00  0.00    -0.385 OA
ATOM     16  H   UNL     1      -8.271 -10.299 -29.296  1.00  0.00     0.211 HD
ENDBRANCH   7  15
ENDBRANCH   1   2
BRANCH   1  17
ATOM     17  C   UNL     1      -9.053  -9.770 -26.374  1.00  0.00     0.224 C 
ATOM     18  C   UNL     1      -9.058 -11.316 -26.445  1.00  0.00     0.208 C 
ATOM     19  O   UNL     1      -7.723  -9.359 -26.108  1.00  0.00    -0.337 OA
ATOM     20  C   UNL     1      -7.877 -11.728 -25.586  1.00  0.00     0.180 C 
ATOM     21  C   UNL     1      -7.000 -10.459 -25.581  1.00  0.00     0.179 C 
BRANCH  17  22
ATOM     22  C   UNL     1      -9.953  -9.188 -25.257  1.00  0.00     0.225 C 
BRANCH  22  23
ATOM     23  O   UNL     1     -11.285  -9.613 -25.382  1.00  0.00    -0.391 OA
ATOM     24  H   UNL     1     -11.594  -9.358 -26.289  1.00  0.00     0.210 HD
ENDBRANCH  22  23
ENDBRANCH  17  22
BRANCH  18  25
ATOM     25  O   UNL     1     -10.281 -11.932 -26.103  1.00  0.00    -0.385 OA
ATOM     26  H   UNL     1     -10.333 -12.814 -26.545  1.00  0.00     0.211 HD
ENDBRANCH  18  25
BRANCH  20  27
ATOM     27  O   UNL     1      -8.274 -12.053 -24.277  1.00  0.00    -0.387 OA
ATOM     28  H   UNL     1      -9.264 -12.135 -24.292  1.00  0.00     0.211 HD
ENDBRANCH  20  27
BRANCH  21  29
ATOM     29  C   UNL     1      -5.710 -10.655 -26.388  1.00  0.00     0.191 C 
BRANCH  29  30
ATOM     30  O   UNL     1      -5.821 -11.790 -27.205  1.00  0.00    -0.394 OA
ATOM     31  H   UNL     1      -6.526 -11.586 -27.876  1.00  0.00     0.210 HD
ENDBRANCH  29  30
ENDBRANCH  21  29
ENDBRANCH   1  17
TORSDOF 13
ENDMDL
MODEL 9
REMARK VINA RESULT:    -0.718      2.295      4.193
REMARK INTER + INTRA:          -2.592
REMARK INTER:                  -3.328
REMARK INTRA:                   0.736
REMARK UNBOUND:                -1.496
REMARK SMILES OC[C@H]1O[C@H](O[C@]2(CO)O[C@H](CO)[C@@H](O)[C@H]2O)[C@@H](O)[C@H](O)[C@@H]1O
REMARK SMILES IDX 6 1 5 2 3 3 22 4 4 5 20 6 18 7 2 8 1 9 23 11 21 13 19 15
REMARK SMILES IDX 7 17 16 18 10 19 14 20 11 21 8 22 9 23 17 25 15 27 12 29
REMARK SMILES IDX 13 30
REMARK H PARENT 1 10 23 12 21 14 19 16 9 24 17 26 15 28 13 31
REMARK Flexibility Score: inf
ROOT
ATOM      1  O   UNL     1      -8.950  -9.370 -28.814  1.00  0.00    -0.313 OA
ENDROOT
BRANCH   1   2
ATOM      2  C   UNL     1      -7.532  -9.398 -28.711  1.00  0.00     0.285 C 
ATOM      3  C   UNL     1      -5.750  -8.293 -27.585  1.00  0.00     0.178 C 
ATOM      4  C   UNL     1      -5.119  -9.630 -27.113  1.00  0.00     0.177 C 
ATOM      5  O   UNL     1      -7.158  -8.387 -27.789  1.00  0.00    -0.341 OA
ATOM      6  C   UNL     1      -5.572 -10.804 -28.012  1.00  0.00     0.179 C 
ATOM      7  C   UNL     1      -7.101 -10.787 -28.194  1.00  0.00     0.202 C 
BRANCH   3   8
ATOM      8  C   UNL     1      -5.019  -7.572 -28.743  1.00  0.00     0.191 C 
BRANCH   8   9
ATOM      9  O   UNL     1      -5.662  -6.390 -29.125  1.00  0.00    -0.394 OA
ATOM     10  H   UNL     1      -4.948  -5.708 -29.230  1.00  0.00     0.210 HD
ENDBRANCH   8   9
ENDBRANCH   3   8
BRANCH   4  11
ATOM     11  O   UNL     1      -5.494  -9.831 -25.770  1.00  0.00    -0.387 OA
ATOM     12  H   UNL     1      -6.083  -9.087 -25.490  1.00  0.00     0.211 HD
ENDBRANCH   4  11
BRANCH   6  13
ATOM     13  O   UNL     1      -5.102 -12.040 -27.525  1.00  0.00    -0.387 OA
ATOM     14  H   UNL     1      -4.173 -12.174 -27.847  1.00  0.00     0.211 HD
ENDBRANCH   6  13
BRANCH   7  15
ATOM     15  O   UNL     1      -7.465 -11.776 -29.125  1.00  0.00    -0.385 OA
ATOM     16  H   UNL     1      -6.717 -12.422 -29.176  1.00  0.00     0.211 HD
ENDBRANCH   7  15
ENDBRANCH   1   2
BRANCH   1  17
ATOM     17  C   UNL     1      -9.646  -9.720 -27.618  1.00  0.00     0.224 C 
ATOM     18  C   UNL     1     -11.148  -9.958 -27.905  1.00  0.00     0.208 C 
ATOM     19  O   UNL     1      -9.125 -10.913 -27.056  1.00  0.00    -0.337 OA
ATOM     20  C   UNL     1     -11.548 -11.031 -26.910  1.00  0.00     0.180 C 
ATOM     21  C   UNL     1     -10.200 -11.696 -26.565  1.00  0.00     0.179 C 
BRANCH  17  22
ATOM     22  C   UNL     1      -9.371  -8.573 -26.615  1.00  0.00     0.225 C 
BRANCH  22  23
ATOM     23  O   UNL     1      -8.605  -9.005 -25.521  1.00  0.00    -0.391 OA
ATOM     24  H   UNL     1      -8.650  -9.995 -25.499  1.00  0.00     0.210 HD
ENDBRANCH  22  23
ENDBRANCH  17  22
BRANCH  18  25
ATOM     25  O   UNL     1     -11.957  -8.802 -27.885  1.00  0.00    -0.385 OA
ATOM     26  H   UNL     1     -12.355  -8.700 -26.986  1.00  0.00     0.211 HD
ENDBRANCH  18  25
BRANCH  20  27
ATOM     27  O   UNL     1     -12.130 -10.479 -25.755  1.00  0.00    -0.387 OA
ATOM     28  H   UNL     1     -11.800 -11.015 -24.986  1.00  0.00     0.211 HD
ENDBRANCH  20  27
BRANCH  21  29
ATOM     29  C   UNL     1     -10.102 -13.115 -27.139  1.00  0.00     0.191 C 
BRANCH  29  30
ATOM     30  O   UNL     1     -10.008 -13.062 -28.537  1.00  0.00    -0.394 OA
ATOM     31  H   UNL     1     -10.908 -13.294 -28.890  1.00  0.00     0.210 HD
ENDBRANCH  29  30
ENDBRANCH  21  29
ENDBRANCH   1  17
TORSDOF 13
ENDMDL
