MODEL 1
REMARK VINA RESULT:    -4.556      0.000      0.000
REMARK INTER + INTRA:         -10.291
REMARK INTER:                  -8.551
REMARK INTRA:                  -1.740
REMARK UNBOUND:                -1.740
REMARK SMILES CCCCCCCCC=CCCCCCCCC(=O)[O-]
REMARK SMILES IDX 10 1 9 2 11 3 12 4 13 5 14 6 15 7 16 8 17 9 18 10 19 11
REMARK SMILES IDX 20 12 8 13 7 14 6 15 5 16 4 17 3 18 2 19 1 20
REMARK H PARENT
REMARK Flexibility Score: inf
ROOT
ATOM      1  C   UNL     1       6.880  -6.454 -18.257  1.00  0.00    -0.031 C 
ATOM      2  C   UNL     1       7.739  -7.490 -18.300  1.00  0.00    -0.031 C 
ENDROOT
BRANCH   1   3
ATOM      3  C   UNL     1       5.795  -6.277 -17.224  1.00  0.00     0.027 C 
BRANCH   3   4
ATOM      4  C   UNL     1       6.116  -5.106 -16.285  1.00  0.00     0.004 C 
BRANCH   4   5
ATOM      5  C   UNL     1       7.233  -5.447 -15.277  1.00  0.00     0.000 C 
BRANCH   5   6
ATOM      6  C   UNL     1       6.742  -6.214 -14.033  1.00  0.00     0.000 C 
BRANCH   6   7
ATOM      7  C   UNL     1       7.070  -7.718 -14.014  1.00  0.00     0.000 C 
BRANCH   7   8
ATOM      8  C   UNL     1       5.856  -8.660 -14.133  1.00  0.00     0.006 C 
BRANCH   8   9
ATOM      9  C   UNL     1       4.532  -7.941 -14.450  1.00  0.00     0.053 C 
BRANCH   9  10
ATOM     10  C   UNL     1       3.545  -8.029 -13.326  1.00  0.00     0.041 C 
ATOM     11  O   UNL     1       3.059  -6.981 -12.823  1.00  0.00    -0.550 OA
ATOM     12  O   UNL     1       3.130  -9.270 -12.859  1.00  0.00    -0.550 OA
ENDBRANCH   9  10
ENDBRANCH   8   9
ENDBRANCH   7   8
ENDBRANCH   6   7
ENDBRANCH   5   6
ENDBRANCH   4   5
ENDBRANCH   3   4
ENDBRANCH   1   3
BRANCH   2  13
ATOM     13  C   UNL     1       7.709  -8.671 -17.361  1.00  0.00     0.027 C 
BRANCH  13  14
ATOM     14  C   UNL     1       6.495  -9.580 -17.610  1.00  0.00     0.004 C 
BRANCH  14  15
ATOM     15  C   UNL     1       6.854 -10.796 -18.480  1.00  0.00     0.000 C 
BRANCH  15  16
ATOM     16  C   UNL     1       6.203 -10.745 -19.875  1.00  0.00     0.000 C 
BRANCH  16  17
ATOM     17  C   UNL     1       4.664 -10.828 -19.878  1.00  0.00    -0.000 C 
BRANCH  17  18
ATOM     18  C   UNL     1       4.053 -11.722 -18.781  1.00  0.00    -0.000 C 
BRANCH  18  19
ATOM     19  C   UNL     1       2.541 -11.971 -18.917  1.00  0.00    -0.003 C 
ATOM     20  C   UNL     1       2.170 -13.449 -18.810  1.00  0.00     0.004 C 
ENDBRANCH  18  19
ENDBRANCH  17  18
ENDBRANCH  16  17
ENDBRANCH  15  16
ENDBRANCH  14  15
ENDBRANCH  13  14
ENDBRANCH   2  13
TORSDOF 15
ENDMDL
MODEL 2
REMARK VINA RESULT:    -4.350      2.340      5.889
REMARK INTER + INTRA:          -9.905
REMARK INTER:                  -8.045
REMARK INTRA:                  -1.860
REMARK UNBOUND:                -1.740
REMARK SMILES CCCCCCCCC=CCCCCCCCC(=O)[O-]
REMARK SMILES IDX 10 1 9 2 11 3 12 4 13 5 14 6 15 7 16 8 17 9 18 10 19 11
REMARK SMILES IDX 20 12 8 13 7 14 6 15 5 16 4 17 3 18 2 19 1 20
REMARK H PARENT
REMARK Flexibility Score: inf
ROOT
ATOM      1  C   UNL     1       7.654  -7.040 -18.424  1.00  0.00    -0.031 C 
ATOM      2  C   UNL     1       7.200  -5.913 -17.841  1.00  0.00    -0.031 C 
ENDROOT
BRANCH   1   3
ATOM      3  C   UNL     1       8.448  -8.112 -17.721  1.00  0.00     0.027 C 
BRANCH   3   4
ATOM      4  C   UNL     1       7.599  -8.814 -16.652  1.00  0.00     0.004 C 
BRANCH   4   5
ATOM      5  C   UNL     1       6.401  -9.575 -17.258  1.00  0.00     0.000 C 
BRANCH   5   6
ATOM      6  C   UNL     1       6.801 -10.755 -18.166  1.00  0.00     0.000 C 
BRANCH   6   7
ATOM      7  C   UNL     1       6.306 -10.664 -19.620  1.00  0.00     0.000 C 
BRANCH   7   8
ATOM      8  C   UNL     1       4.860 -11.143 -19.858  1.00  0.00     0.006 C 
BRANCH   8   9
ATOM      9  C   UNL     1       4.259 -11.929 -18.678  1.00  0.00     0.053 C 
BRANCH   9  10
ATOM     10  C   UNL     1       2.777 -12.117 -18.806  1.00  0.00     0.041 C 
ATOM     11  O   UNL     1       2.010 -11.118 -18.836  1.00  0.00    -0.550 OA
ATOM     12  O   UNL     1       2.246 -13.395 -18.932  1.00  0.00    -0.550 OA
ENDBRANCH   9  10
ENDBRANCH   8   9
ENDBRANCH   7   8
ENDBRANCH   6   7
ENDBRANCH   5   6
ENDBRANCH   4   5
ENDBRANCH   3   4
ENDBRANCH   1   3
BRANCH   2  13
ATOM     13  C   UNL     1       7.471  -5.515 -16.411  1.00  0.00     0.027 C 
BRANCH  13  14
ATOM     14  C   UNL     1       6.201  -5.040 -15.690  1.00  0.00     0.004 C 
BRANCH  14  15
ATOM     15  C   UNL     1       4.922  -5.504 -16.408  1.00  0.00     0.000 C 
BRANCH  15  16
ATOM     16  C   UNL     1       3.817  -5.947 -15.432  1.00  0.00     0.000 C 
BRANCH  16  17
ATOM     17  C   UNL     1       3.849  -7.439 -15.044  1.00  0.00    -0.000 C 
BRANCH  17  18
ATOM     18  C   UNL     1       4.260  -7.728 -13.587  1.00  0.00    -0.000 C 
BRANCH  18  19
ATOM     19  C   UNL     1       5.550  -8.552 -13.430  1.00  0.00    -0.003 C 
ATOM     20  C   UNL     1       6.812  -7.690 -13.445  1.00  0.00     0.004 C 
ENDBRANCH  18  19
ENDBRANCH  17  18
ENDBRANCH  16  17
ENDBRANCH  15  16
ENDBRANCH  14  15
ENDBRANCH  13  14
ENDBRANCH   2  13
TORSDOF 15
ENDMDL
MODEL 3
REMARK VINA RESULT:    -4.310      2.366      6.232
REMARK INTER + INTRA:          -9.828
REMARK INTER:                  -7.918
REMARK INTRA:                  -1.910
REMARK UNBOUND:                -1.740
REMARK SMILES CCCCCCCCC=CCCCCCCCC(=O)[O-]
REMARK SMILES IDX 10 1 9 2 11 3 12 4 13 5 14 6 15 7 16 8 17 9 18 10 19 11
REMARK SMILES IDX 20 12 8 13 7 14 6 15 5 16 4 17 3 18 2 19 1 20
REMARK H PARENT
REMARK Flexibility Score: inf
ROOT
ATOM      1  C   UNL     1       7.609  -8.117 -14.491  1.00  0.00    -0.031 C 
ATOM      2  C   UNL     1       6.716  -8.101 -13.482  1.00  0.00    -0.031 C 
ENDROOT
BRANCH   1   3
ATOM      3  C   UNL     1       7.364  -8.730 -15.847  1.00  0.00     0.027 C 
BRANCH   3   4
ATOM      4  C   UNL     1       8.344  -8.171 -16.888  1.00  0.00     0.004 C 
BRANCH   4   5
ATOM      5  C   UNL     1       7.744  -8.150 -18.310  1.00  0.00     0.000 C 
BRANCH   5   6
ATOM      6  C   UNL     1       6.765  -9.306 -18.594  1.00  0.00     0.000 C 
BRANCH   6   7
ATOM      7  C   UNL     1       7.170 -10.245 -19.744  1.00  0.00     0.000 C 
BRANCH   7   8
ATOM      8  C   UNL     1       6.045 -11.145 -20.291  1.00  0.00     0.006 C 
BRANCH   8   9
ATOM      9  C   UNL     1       4.629 -10.682 -19.905  1.00  0.00     0.053 C 
BRANCH   9  10
ATOM     10  C   UNL     1       3.994 -11.565 -18.874  1.00  0.00     0.041 C 
ATOM     11  O   UNL     1       2.795 -11.930 -19.000  1.00  0.00    -0.550 OA
ATOM     12  O   UNL     1       4.738 -12.019 -17.792  1.00  0.00    -0.550 OA
ENDBRANCH   9  10
ENDBRANCH   8   9
ENDBRANCH   7   8
ENDBRANCH   6   7
ENDBRANCH   5   6
ENDBRANCH   4   5
ENDBRANCH   3   4
ENDBRANCH   1   3
BRANCH   2  13
ATOM     13  C   UNL     1       5.355  -8.753 -13.528  1.00  0.00     0.027 C 
BRANCH  13  14
ATOM     14  C   UNL     1       4.220  -7.720 -13.602  1.00  0.00     0.004 C 
BRANCH  14  15
ATOM     15  C   UNL     1       3.902  -7.316 -15.051  1.00  0.00     0.000 C 
BRANCH  15  16
ATOM     16  C   UNL     1       3.486  -5.839 -15.181  1.00  0.00     0.000 C 
BRANCH  16  17
ATOM     17  C   UNL     1       4.290  -5.024 -16.213  1.00  0.00    -0.000 C 
BRANCH  17  18
ATOM     18  C   UNL     1       5.482  -5.766 -16.849  1.00  0.00    -0.000 C 
BRANCH  18  19
ATOM     19  C   UNL     1       6.855  -5.115 -16.605  1.00  0.00    -0.003 C 
ATOM     20  C   UNL     1       7.196  -4.984 -15.121  1.00  0.00     0.004 C 
ENDBRANCH  18  19
ENDBRANCH  17  18
ENDBRANCH  16  17
ENDBRANCH  15  16
ENDBRANCH  14  15
ENDBRANCH  13  14
ENDBRANCH   2  13
TORSDOF 15
ENDMDL
MODEL 4
REMARK VINA RESULT:    -4.272      1.571      2.200
REMARK INTER + INTRA:          -9.757
REMARK INTER:                  -8.290
REMARK INTRA:                  -1.468
REMARK UNBOUND:                -1.740
REMARK SMILES CCCCCCCCC=CCCCCCCCC(=O)[O-]
REMARK SMILES IDX 10 1 9 2 11 3 12 4 13 5 14 6 15 7 16 8 17 9 18 10 19 11
REMARK SMILES IDX 20 12 8 13 7 14 6 15 5 16 4 17 3 18 2 19 1 20
REMARK H PARENT
REMARK Flexibility Score: inf
ROOT
ATOM      1  C   UNL     1       7.234  -5.827 -17.766  1.00  0.00    -0.031 C 
ATOM      2  C   UNL     1       7.427  -7.014 -18.374  1.00  0.00    -0.031 C 
ENDROOT
BRANCH   1   3
ATOM      3  C   UNL     1       7.435  -5.572 -16.293  1.00  0.00     0.027 C 
BRANCH   3   4
ATOM      4  C   UNL     1       6.148  -5.040 -15.647  1.00  0.00     0.004 C 
BRANCH   4   5
ATOM      5  C   UNL     1       4.878  -5.658 -16.266  1.00  0.00     0.000 C 
BRANCH   5   6
ATOM      6  C   UNL     1       3.868  -6.186 -15.227  1.00  0.00     0.000 C 
BRANCH   6   7
ATOM      7  C   UNL     1       3.857  -7.714 -15.037  1.00  0.00     0.000 C 
BRANCH   7   8
ATOM      8  C   UNL     1       4.030  -8.201 -13.585  1.00  0.00     0.006 C 
BRANCH   8   9
ATOM      9  C   UNL     1       5.392  -8.862 -13.304  1.00  0.00     0.053 C 
BRANCH   9  10
ATOM     10  C   UNL     1       6.537  -7.902 -13.435  1.00  0.00     0.041 C 
ATOM     11  O   UNL     1       6.524  -6.809 -12.810  1.00  0.00    -0.550 OA
ATOM     12  O   UNL     1       7.637  -8.233 -14.217  1.00  0.00    -0.550 OA
ENDBRANCH   9  10
ENDBRANCH   8   9
ENDBRANCH   7   8
ENDBRANCH   6   7
ENDBRANCH   5   6
ENDBRANCH   4   5
ENDBRANCH   3   4
ENDBRANCH   1   3
BRANCH   2  13
ATOM     13  C   UNL     1       7.812  -8.290 -17.665  1.00  0.00     0.027 C 
BRANCH  13  14
ATOM     14  C   UNL     1       6.585  -9.070 -17.169  1.00  0.00     0.004 C 
BRANCH  14  15
ATOM     15  C   UNL     1       6.451 -10.435 -17.863  1.00  0.00     0.000 C 
BRANCH  15  16
ATOM     16  C   UNL     1       7.037 -10.441 -19.287  1.00  0.00     0.000 C 
BRANCH  16  17
ATOM     17  C   UNL     1       6.032 -10.789 -20.404  1.00  0.00    -0.000 C 
BRANCH  17  18
ATOM     18  C   UNL     1       4.547 -10.712 -19.996  1.00  0.00    -0.000 C 
BRANCH  18  19
ATOM     19  C   UNL     1       4.047 -11.893 -19.147  1.00  0.00    -0.003 C 
ATOM     20  C   UNL     1       2.560 -11.795 -18.809  1.00  0.00     0.004 C 
ENDBRANCH  18  19
ENDBRANCH  17  18
ENDBRANCH  16  17
ENDBRANCH  15  16
ENDBRANCH  14  15
ENDBRANCH  13  14
ENDBRANCH   2  13
TORSDOF 15
ENDMDL
MODEL 5
REMARK VINA RESULT:    -4.261      2.380      5.738
REMARK INTER + INTRA:          -9.737
REMARK INTER:                  -7.751
REMARK INTRA:                  -1.986
REMARK UNBOUND:                -1.740
REMARK SMILES CCCCCCCCC=CCCCCCCCC(=O)[O-]
REMARK SMILES IDX 10 1 9 2 11 3 12 4 13 5 14 6 15 7 16 8 17 9 18 10 19 11
REMARK SMILES IDX 20 12 8 13 7 14 6 15 5 16 4 17 3 18 2 19 1 20
REMARK H PARENT
REMARK Flexibility Score: inf
ROOT
ATOM      1  C   UNL     1       6.479  -6.329 -18.111  1.00  0.00    -0.031 C 
ATOM      2  C   UNL     1       6.233  -5.613 -16.996  1.00  0.00    -0.031 C 
ENDROOT
BRANCH   1   3
ATOM      3  C   UNL     1       7.851  -6.735 -18.587  1.00  0.00     0.027 C 
BRANCH   3   4
ATOM      4  C   UNL     1       8.020  -8.260 -18.541  1.00  0.00     0.004 C 
BRANCH   4   5
ATOM      5  C   UNL     1       7.298  -8.897 -17.336  1.00  0.00     0.000 C 
BRANCH   5   6
ATOM      6  C   UNL     1       6.492 -10.163 -17.687  1.00  0.00     0.000 C 
BRANCH   6   7
ATOM      7  C   UNL     1       6.385 -10.481 -19.189  1.00  0.00     0.000 C 
BRANCH   7   8
ATOM      8  C   UNL     1       5.048 -11.099 -19.642  1.00  0.00     0.006 C 
BRANCH   8   9
ATOM      9  C   UNL     1       4.368 -11.973 -18.572  1.00  0.00     0.053 C 
BRANCH   9  10
ATOM     10  C   UNL     1       2.903 -12.162 -18.827  1.00  0.00     0.041 C 
ATOM     11  O   UNL     1       2.146 -11.164 -18.951  1.00  0.00    -0.550 OA
ATOM     12  O   UNL     1       2.380 -13.442 -18.967  1.00  0.00    -0.550 OA
ENDBRANCH   9  10
ENDBRANCH   8   9
ENDBRANCH   7   8
ENDBRANCH   6   7
ENDBRANCH   5   6
ENDBRANCH   4   5
ENDBRANCH   3   4
ENDBRANCH   1   3
BRANCH   2  13
ATOM     13  C   UNL     1       7.295  -5.048 -16.085  1.00  0.00     0.027 C 
BRANCH  13  14
ATOM     14  C   UNL     1       7.125  -5.521 -14.633  1.00  0.00     0.004 C 
BRANCH  14  15
ATOM     15  C   UNL     1       7.256  -7.048 -14.505  1.00  0.00     0.000 C 
BRANCH  15  16
ATOM     16  C   UNL     1       6.462  -7.617 -13.315  1.00  0.00     0.000 C 
BRANCH  16  17
ATOM     17  C   UNL     1       5.343  -8.608 -13.693  1.00  0.00    -0.000 C 
BRANCH  17  18
ATOM     18  C   UNL     1       4.344  -8.097 -14.750  1.00  0.00    -0.000 C 
BRANCH  18  19
ATOM     19  C   UNL     1       3.484  -6.903 -14.302  1.00  0.00    -0.003 C 
ATOM     20  C   UNL     1       3.423  -5.789 -15.347  1.00  0.00     0.004 C 
ENDBRANCH  18  19
ENDBRANCH  17  18
ENDBRANCH  16  17
ENDBRANCH  15  16
ENDBRANCH  14  15
ENDBRANCH  13  14
ENDBRANCH   2  13
TORSDOF 15
ENDMDL
MODEL 6
REMARK VINA RESULT:    -4.157      2.871      5.687
REMARK INTER + INTRA:          -9.543
REMARK INTER:                  -7.942
REMARK INTRA:                  -1.601
REMARK UNBOUND:                -1.740
REMARK SMILES CCCCCCCCC=CCCCCCCCC(=O)[O-]
REMARK SMILES IDX 10 1 9 2 11 3 12 4 13 5 14 6 15 7 16 8 17 9 18 10 19 11
REMARK SMILES IDX 20 12 8 13 7 14 6 15 5 16 4 17 3 18 2 19 1 20
REMARK H PARENT
REMARK Flexibility Score: inf
ROOT
ATOM      1  C   UNL     1       7.826  -5.177 -16.785  1.00  0.00    -0.031 C 
ATOM      2  C   UNL     1       7.782  -5.053 -15.445  1.00  0.00    -0.031 C 
ENDROOT
BRANCH   1   3
ATOM      3  C   UNL     1       6.917  -6.063 -17.598  1.00  0.00     0.027 C 
BRANCH   3   4
ATOM      4  C   UNL     1       7.664  -6.669 -18.794  1.00  0.00     0.004 C 
BRANCH   4   5
ATOM      5  C   UNL     1       7.856  -8.194 -18.658  1.00  0.00     0.000 C 
BRANCH   5   6
ATOM      6  C   UNL     1       7.626  -8.730 -17.231  1.00  0.00     0.000 C 
BRANCH   6   7
ATOM      7  C   UNL     1       6.376  -9.611 -17.052  1.00  0.00     0.000 C 
BRANCH   7   8
ATOM      8  C   UNL     1       6.511 -11.061 -17.555  1.00  0.00     0.006 C 
BRANCH   8   9
ATOM      9  C   UNL     1       5.347 -11.526 -18.449  1.00  0.00     0.053 C 
BRANCH   9  10
ATOM     10  C   UNL     1       5.396 -10.922 -19.820  1.00  0.00     0.041 C 
ATOM     11  O   UNL     1       4.354 -10.444 -20.342  1.00  0.00    -0.550 OA
ATOM     12  O   UNL     1       6.602 -10.851 -20.507  1.00  0.00    -0.550 OA
ENDBRANCH   9  10
ENDBRANCH   8   9
ENDBRANCH   7   8
ENDBRANCH   6   7
ENDBRANCH   5   6
ENDBRANCH   4   5
ENDBRANCH   3   4
ENDBRANCH   1   3
BRANCH   2  13
ATOM     13  C   UNL     1       6.860  -5.832 -14.539  1.00  0.00     0.027 C 
BRANCH  13  14
ATOM     14  C   UNL     1       7.311  -7.291 -14.369  1.00  0.00     0.004 C 
BRANCH  14  15
ATOM     15  C   UNL     1       6.705  -7.938 -13.112  1.00  0.00     0.000 C 
BRANCH  15  16
ATOM     16  C   UNL     1       5.520  -8.867 -13.432  1.00  0.00     0.000 C 
BRANCH  16  17
ATOM     17  C   UNL     1       4.159  -8.158 -13.586  1.00  0.00    -0.000 C 
BRANCH  17  18
ATOM     18  C   UNL     1       3.860  -7.616 -14.997  1.00  0.00    -0.000 C 
BRANCH  18  19
ATOM     19  C   UNL     1       3.294  -6.186 -15.034  1.00  0.00    -0.003 C 
ATOM     20  C   UNL     1       4.030  -5.280 -16.020  1.00  0.00     0.004 C 
ENDBRANCH  18  19
ENDBRANCH  17  18
ENDBRANCH  16  17
ENDBRANCH  15  16
ENDBRANCH  14  15
ENDBRANCH  13  14
ENDBRANCH   2  13
TORSDOF 15
ENDMDL
MODEL 7
REMARK VINA RESULT:    -3.971      0.825      1.924
REMARK INTER + INTRA:          -9.193
REMARK INTER:                  -7.852
REMARK INTRA:                  -1.341
REMARK UNBOUND:                -1.740
REMARK SMILES CCCCCCCCC=CCCCCCCCC(=O)[O-]
REMARK SMILES IDX 10 1 9 2 11 3 12 4 13 5 14 6 15 7 16 8 17 9 18 10 19 11
REMARK SMILES IDX 20 12 8 13 7 14 6 15 5 16 4 17 3 18 2 19 1 20
REMARK H PARENT
REMARK Flexibility Score: inf
ROOT
ATOM      1  C   UNL     1       8.012  -8.115 -17.468  1.00  0.00    -0.031 C 
ATOM      2  C   UNL     1       7.425  -9.316 -17.299  1.00  0.00    -0.031 C 
ENDROOT
BRANCH   1   3
ATOM      3  C   UNL     1       7.413  -6.965 -18.238  1.00  0.00     0.027 C 
BRANCH   3   4
ATOM      4  C   UNL     1       6.628  -6.030 -17.308  1.00  0.00     0.004 C 
BRANCH   4   5
ATOM      5  C   UNL     1       7.488  -5.499 -16.142  1.00  0.00     0.000 C 
BRANCH   5   6
ATOM      6  C   UNL     1       6.764  -5.497 -14.781  1.00  0.00     0.000 C 
BRANCH   6   7
ATOM      7  C   UNL     1       6.762  -6.844 -14.035  1.00  0.00     0.000 C 
BRANCH   7   8
ATOM      8  C   UNL     1       5.851  -7.931 -14.636  1.00  0.00     0.006 C 
BRANCH   8   9
ATOM      9  C   UNL     1       4.364  -7.536 -14.704  1.00  0.00     0.053 C 
BRANCH   9  10
ATOM     10  C   UNL     1       3.616  -7.889 -13.454  1.00  0.00     0.041 C 
ATOM     11  O   UNL     1       3.598  -9.078 -13.038  1.00  0.00    -0.550 OA
ATOM     12  O   UNL     1       2.970  -6.898 -12.726  1.00  0.00    -0.550 OA
ENDBRANCH   9  10
ENDBRANCH   8   9
ENDBRANCH   7   8
ENDBRANCH   6   7
ENDBRANCH   5   6
ENDBRANCH   4   5
ENDBRANCH   3   4
ENDBRANCH   1   3
BRANCH   2  13
ATOM     13  C   UNL     1       6.106  -9.721 -17.910  1.00  0.00     0.027 C 
BRANCH  13  14
ATOM     14  C   UNL     1       6.287 -10.457 -19.246  1.00  0.00     0.004 C 
BRANCH  14  15
ATOM     15  C   UNL     1       4.996 -11.161 -19.695  1.00  0.00     0.000 C 
BRANCH  15  16
ATOM     16  C   UNL     1       4.270 -11.873 -18.539  1.00  0.00     0.000 C 
BRANCH  16  17
ATOM     17  C   UNL     1       2.741 -11.983 -18.699  1.00  0.00    -0.000 C 
BRANCH  17  18
ATOM     18  C   UNL     1       2.225 -13.374 -19.119  1.00  0.00    -0.000 C 
BRANCH  18  19
ATOM     19  C   UNL     1       1.925 -14.332 -17.952  1.00  0.00    -0.003 C 
ATOM     20  C   UNL     1       0.593 -15.063 -18.110  1.00  0.00     0.004 C 
ENDBRANCH  18  19
ENDBRANCH  17  18
ENDBRANCH  16  17
ENDBRANCH  15  16
ENDBRANCH  14  15
ENDBRANCH  13  14
ENDBRANCH   2  13
TORSDOF 15
ENDMDL
MODEL 8
REMARK VINA RESULT:    -3.871      1.132      2.156
REMARK INTER + INTRA:          -9.005
REMARK INTER:                  -8.374
REMARK INTRA:                  -0.631
REMARK UNBOUND:                -1.740
REMARK SMILES CCCCCCCCC=CCCCCCCCC(=O)[O-]
REMARK SMILES IDX 10 1 9 2 11 3 12 4 13 5 14 6 15 7 16 8 17 9 18 10 19 11
REMARK SMILES IDX 20 12 8 13 7 14 6 15 5 16 4 17 3 18 2 19 1 20
REMARK H PARENT
REMARK Flexibility Score: inf
ROOT
ATOM      1  C   UNL     1       7.170  -6.514 -14.771  1.00  0.00    -0.031 C 
ATOM      2  C   UNL     1       7.322  -7.834 -14.991  1.00  0.00    -0.031 C 
ENDROOT
BRANCH   1   3
ATOM      3  C   UNL     1       7.541  -5.430 -15.752  1.00  0.00     0.027 C 
BRANCH   3   4
ATOM      4  C   UNL     1       7.062  -5.781 -17.167  1.00  0.00     0.004 C 
BRANCH   4   5
ATOM      5  C   UNL     1       5.523  -5.818 -17.276  1.00  0.00     0.000 C 
BRANCH   5   6
ATOM      6  C   UNL     1       4.797  -5.051 -16.153  1.00  0.00     0.000 C 
BRANCH   6   7
ATOM      7  C   UNL     1       3.601  -5.787 -15.521  1.00  0.00     0.000 C 
BRANCH   7   8
ATOM      8  C   UNL     1       3.891  -7.219 -15.030  1.00  0.00     0.006 C 
BRANCH   8   9
ATOM      9  C   UNL     1       3.744  -7.402 -13.509  1.00  0.00     0.053 C 
BRANCH   9  10
ATOM     10  C   UNL     1       3.894  -8.831 -13.082  1.00  0.00     0.041 C 
ATOM     11  O   UNL     1       2.883  -9.505 -12.750  1.00  0.00    -0.550 OA
ATOM     12  O   UNL     1       5.147  -9.432 -13.089  1.00  0.00    -0.550 OA
ENDBRANCH   9  10
ENDBRANCH   8   9
ENDBRANCH   7   8
ENDBRANCH   6   7
ENDBRANCH   5   6
ENDBRANCH   4   5
ENDBRANCH   3   4
ENDBRANCH   1   3
BRANCH   2  13
ATOM     13  C   UNL     1       7.950  -8.433 -16.227  1.00  0.00     0.027 C 
BRANCH  13  14
ATOM     14  C   UNL     1       6.996  -9.392 -16.954  1.00  0.00     0.004 C 
BRANCH  14  15
ATOM     15  C   UNL     1       6.948  -9.121 -18.467  1.00  0.00     0.000 C 
BRANCH  15  16
ATOM     16  C   UNL     1       6.698 -10.396 -19.294  1.00  0.00     0.000 C 
BRANCH  16  17
ATOM     17  C   UNL     1       5.227 -10.640 -19.686  1.00  0.00    -0.000 C 
BRANCH  17  18
ATOM     18  C   UNL     1       4.545 -11.820 -18.966  1.00  0.00    -0.000 C 
BRANCH  18  19
ATOM     19  C   UNL     1       3.011 -11.726 -18.881  1.00  0.00    -0.003 C 
ATOM     20  C   UNL     1       2.332 -13.095 -18.861  1.00  0.00     0.004 C 
ENDBRANCH  18  19
ENDBRANCH  17  18
ENDBRANCH  16  17
ENDBRANCH  15  16
ENDBRANCH  14  15
ENDBRANCH  13  14
ENDBRANCH   2  13
TORSDOF 15
ENDMDL
MODEL 9
REMARK VINA RESULT:    -3.820      2.196      3.501
REMARK INTER + INTRA:          -8.910
REMARK INTER:                  -7.081
REMARK INTRA:                  -1.829
REMARK UNBOUND:                -1.740
REMARK SMILES CCCCCCCCC=CCCCCCCCC(=O)[O-]
REMARK SMILES IDX 10 1 9 2 11 3 12 4 13 5 14 6 15 7 16 8 17 9 18 10 19 11
REMARK SMILES IDX 20 12 8 13 7 14 6 15 5 16 4 17 3 18 2 19 1 20
REMARK H PARENT
REMARK Flexibility Score: inf
ROOT
ATOM      1  C   UNL     1       7.881  -8.130 -14.898  1.00  0.00    -0.031 C 
ATOM      2  C   UNL     1       7.810  -8.470 -16.199  1.00  0.00    -0.031 C 
ENDROOT
BRANCH   1   3
ATOM      3  C   UNL     1       6.846  -8.482 -13.859  1.00  0.00     0.027 C 
BRANCH   3   4
ATOM      4  C   UNL     1       6.184  -7.218 -13.292  1.00  0.00     0.004 C 
BRANCH   4   5
ATOM      5  C   UNL     1       4.644  -7.285 -13.343  1.00  0.00     0.000 C 
BRANCH   5   6
ATOM      6  C   UNL     1       4.071  -7.464 -14.763  1.00  0.00     0.000 C 
BRANCH   6   7
ATOM      7  C   UNL     1       3.403  -6.214 -15.365  1.00  0.00     0.000 C 
BRANCH   7   8
ATOM      8  C   UNL     1       4.370  -5.111 -15.838  1.00  0.00     0.006 C 
BRANCH   8   9
ATOM      9  C   UNL     1       5.349  -5.564 -16.936  1.00  0.00     0.053 C 
BRANCH   9  10
ATOM     10  C   UNL     1       6.779  -5.273 -16.590  1.00  0.00     0.041 C 
ATOM     11  O   UNL     1       7.676  -5.359 -17.470  1.00  0.00    -0.550 OA
ATOM     12  O   UNL     1       7.115  -4.867 -15.305  1.00  0.00    -0.550 OA
ENDBRANCH   9  10
ENDBRANCH   8   9
ENDBRANCH   7   8
ENDBRANCH   6   7
ENDBRANCH   5   6
ENDBRANCH   4   5
ENDBRANCH   3   4
ENDBRANCH   1   3
BRANCH   2  13
ATOM     13  C   UNL     1       6.651  -9.198 -16.835  1.00  0.00     0.027 C 
BRANCH  13  14
ATOM     14  C   UNL     1       6.482  -8.835 -18.319  1.00  0.00     0.004 C 
BRANCH  14  15
ATOM     15  C   UNL     1       7.502  -9.563 -19.210  1.00  0.00     0.000 C 
BRANCH  15  16
ATOM     16  C   UNL     1       6.873 -10.707 -20.026  1.00  0.00     0.000 C 
BRANCH  16  17
ATOM     17  C   UNL     1       5.331 -10.740 -20.020  1.00  0.00    -0.000 C 
BRANCH  17  18
ATOM     18  C   UNL     1       4.704 -11.884 -19.197  1.00  0.00    -0.000 C 
BRANCH  18  19
ATOM     19  C   UNL     1       3.220 -11.688 -18.844  1.00  0.00    -0.003 C 
ATOM     20  C   UNL     1       2.422 -12.990 -18.883  1.00  0.00     0.004 C 
ENDBRANCH  18  19
ENDBRANCH  17  18
ENDBRANCH  16  17
ENDBRANCH  15  16
ENDBRANCH  14  15
ENDBRANCH  13  14
ENDBRANCH   2  13
TORSDOF 15
ENDMDL
