MODEL 1
REMARK VINA RESULT:    -3.087      0.000      0.000
REMARK INTER + INTRA:          -5.747
REMARK INTER:                  -4.711
REMARK INTRA:                  -1.036
REMARK UNBOUND:                -1.036
REMARK SMILES CCCCCCCCCCC(=O)[O-]
REMARK SMILES IDX 7 1 8 2 9 3 10 4 11 5 12 6 13 7 6 8 5 9 4 10 3 11 2 12 1 13
REMARK H PARENT
REMARK Flexibility Score: inf
ROOT
ATOM      1  C   UNL     1      -1.902   8.306  37.479  1.00  0.00     0.000 C 
ENDROOT
BRANCH   1   2
ATOM      2  C   UNL     1      -0.976   7.106  37.745  1.00  0.00     0.000 C 
BRANCH   2   3
ATOM      3  C   UNL     1      -1.516   5.792  37.146  1.00  0.00     0.006 C 
BRANCH   3   4
ATOM      4  C   UNL     1      -2.119   5.952  35.741  1.00  0.00     0.053 C 
BRANCH   4   5
ATOM      5  C   UNL     1      -1.311   5.264  34.685  1.00  0.00     0.041 C 
ATOM      6  O   UNL     1      -0.522   5.924  33.960  1.00  0.00    -0.550 OA
ATOM      7  O   UNL     1      -1.430   3.892  34.503  1.00  0.00    -0.550 OA
ENDBRANCH   4   5
ENDBRANCH   3   4
ENDBRANCH   2   3
ENDBRANCH   1   2
BRANCH   1   8
ATOM      8  C   UNL     1      -2.348   9.015  38.770  1.00  0.00     0.000 C 
BRANCH   8   9
ATOM      9  C   UNL     1      -1.534   8.651  40.025  1.00  0.00    -0.000 C 
BRANCH   9  10
ATOM     10  C   UNL     1      -2.372   7.941  41.100  1.00  0.00    -0.000 C 
BRANCH  10  11
ATOM     11  C   UNL     1      -3.784   7.632  40.580  1.00  0.00    -0.000 C 
BRANCH  11  12
ATOM     12  C   UNL     1      -4.057   6.123  40.476  1.00  0.00    -0.003 C 
ATOM     13  C   UNL     1      -2.825   5.276  40.792  1.00  0.00     0.004 C 
ENDBRANCH  11  12
ENDBRANCH  10  11
ENDBRANCH   9  10
ENDBRANCH   8   9
ENDBRANCH   1   8
TORSDOF 9
ENDMDL
MODEL 2
REMARK VINA RESULT:    -3.049      1.294      2.265
REMARK INTER + INTRA:          -5.689
REMARK INTER:                  -4.531
REMARK INTRA:                  -1.158
REMARK UNBOUND:                -1.036
REMARK SMILES CCCCCCCCCCC(=O)[O-]
REMARK SMILES IDX 7 1 8 2 9 3 10 4 11 5 12 6 13 7 6 8 5 9 4 10 3 11 2 12 1 13
REMARK H PARENT
REMARK Flexibility Score: inf
ROOT
ATOM      1  C   UNL     1      -2.397   9.021  39.037  1.00  0.00     0.000 C 
ENDROOT
BRANCH   1   2
ATOM      2  C   UNL     1      -1.302   8.523  38.078  1.00  0.00     0.000 C 
BRANCH   2   3
ATOM      3  C   UNL     1      -1.876   7.891  36.794  1.00  0.00     0.006 C 
BRANCH   3   4
ATOM      4  C   UNL     1      -0.876   6.997  36.042  1.00  0.00     0.053 C 
BRANCH   4   5
ATOM      5  C   UNL     1      -1.545   5.893  35.285  1.00  0.00     0.041 C 
ATOM      6  O   UNL     1      -2.589   5.356  35.739  1.00  0.00    -0.550 OA
ATOM      7  O   UNL     1      -1.015   5.457  34.077  1.00  0.00    -0.550 OA
ENDBRANCH   4   5
ENDBRANCH   3   4
ENDBRANCH   2   3
ENDBRANCH   1   2
BRANCH   1   8
ATOM      8  C   UNL     1      -2.483   8.189  40.330  1.00  0.00     0.000 C 
BRANCH   8   9
ATOM      9  C   UNL     1      -3.823   7.462  40.545  1.00  0.00    -0.000 C 
BRANCH   9  10
ATOM     10  C   UNL     1      -3.739   5.953  40.267  1.00  0.00    -0.000 C 
BRANCH  10  11
ATOM     11  C   UNL     1      -2.294   5.449  40.402  1.00  0.00    -0.000 C 
BRANCH  11  12
ATOM     12  C   UNL     1      -1.737   4.896  39.081  1.00  0.00    -0.003 C 
ATOM     13  C   UNL     1      -0.211   4.936  39.021  1.00  0.00     0.004 C 
ENDBRANCH  11  12
ENDBRANCH  10  11
ENDBRANCH   9  10
ENDBRANCH   8   9
ENDBRANCH   1   8
TORSDOF 9
ENDMDL
MODEL 3
REMARK VINA RESULT:    -3.021      1.702      2.312
REMARK INTER + INTRA:          -5.646
REMARK INTER:                  -4.447
REMARK INTRA:                  -1.198
REMARK UNBOUND:                -1.036
REMARK SMILES CCCCCCCCCCC(=O)[O-]
REMARK SMILES IDX 7 1 8 2 9 3 10 4 11 5 12 6 13 7 6 8 5 9 4 10 3 11 2 12 1 13
REMARK H PARENT
REMARK Flexibility Score: inf
ROOT
ATOM      1  C   UNL     1      -0.653   6.675  40.440  1.00  0.00     0.000 C 
ENDROOT
BRANCH   1   2
ATOM      2  C   UNL     1      -0.735   6.278  38.956  1.00  0.00     0.000 C 
BRANCH   2   3
ATOM      3  C   UNL     1      -1.405   4.905  38.742  1.00  0.00     0.006 C 
BRANCH   3   4
ATOM      4  C   UNL     1      -2.742   4.978  37.987  1.00  0.00     0.053 C 
BRANCH   4   5
ATOM      5  C   UNL     1      -2.589   4.737  36.518  1.00  0.00     0.041 C 
ATOM      6  O   UNL     1      -2.618   3.563  36.063  1.00  0.00    -0.550 OA
ATOM      7  O   UNL     1      -2.415   5.808  35.651  1.00  0.00    -0.550 OA
ENDBRANCH   4   5
ENDBRANCH   3   4
ENDBRANCH   2   3
ENDBRANCH   1   2
BRANCH   1   8
ATOM      8  C   UNL     1      -1.342   8.018  40.739  1.00  0.00     0.000 C 
BRANCH   8   9
ATOM      9  C   UNL     1      -2.635   8.276  39.943  1.00  0.00    -0.000 C 
BRANCH   9  10
ATOM     10  C   UNL     1      -3.871   7.619  40.577  1.00  0.00    -0.000 C 
BRANCH  10  11
ATOM     11  C   UNL     1      -3.757   7.597  42.108  1.00  0.00    -0.000 C 
BRANCH  11  12
ATOM     12  C   UNL     1      -3.985   6.196  42.696  1.00  0.00    -0.003 C 
ATOM     13  C   UNL     1      -3.824   5.086  41.659  1.00  0.00     0.004 C 
ENDBRANCH  11  12
ENDBRANCH  10  11
ENDBRANCH   9  10
ENDBRANCH   8   9
ENDBRANCH   1   8
TORSDOF 9
ENDMDL
MODEL 4
REMARK VINA RESULT:    -3.005      2.119      2.828
REMARK INTER + INTRA:          -5.622
REMARK INTER:                  -4.503
REMARK INTRA:                  -1.119
REMARK UNBOUND:                -1.036
REMARK SMILES CCCCCCCCCCC(=O)[O-]
REMARK SMILES IDX 7 1 8 2 9 3 10 4 11 5 12 6 13 7 6 8 5 9 4 10 3 11 2 12 1 13
REMARK H PARENT
REMARK Flexibility Score: inf
ROOT
ATOM      1  C   UNL     1      -1.077   9.023  38.640  1.00  0.00     0.000 C 
ENDROOT
BRANCH   1   2
ATOM      2  C   UNL     1      -0.020   8.555  39.656  1.00  0.00     0.000 C 
BRANCH   2   3
ATOM      3  C   UNL     1       1.093   7.707  39.010  1.00  0.00     0.006 C 
BRANCH   3   4
ATOM      4  C   UNL     1       0.783   7.272  37.568  1.00  0.00     0.053 C 
BRANCH   4   5
ATOM      5  C   UNL     1       1.306   5.905  37.253  1.00  0.00     0.041 C 
ATOM      6  O   UNL     1       1.832   5.671  36.134  1.00  0.00    -0.550 OA
ATOM      7  O   UNL     1       1.213   4.890  38.197  1.00  0.00    -0.550 OA
ENDBRANCH   4   5
ENDBRANCH   3   4
ENDBRANCH   2   3
ENDBRANCH   1   2
BRANCH   1   8
ATOM      8  C   UNL     1      -2.517   8.870  39.162  1.00  0.00     0.000 C 
BRANCH   8   9
ATOM      9  C   UNL     1      -2.658   8.022  40.439  1.00  0.00    -0.000 C 
BRANCH   9  10
ATOM     10  C   UNL     1      -3.900   7.116  40.425  1.00  0.00    -0.000 C 
BRANCH  10  11
ATOM     11  C   UNL     1      -3.497   5.634  40.409  1.00  0.00    -0.000 C 
BRANCH  11  12
ATOM     12  C   UNL     1      -2.186   5.386  39.649  1.00  0.00    -0.003 C 
ATOM     13  C   UNL     1      -2.400   5.184  38.150  1.00  0.00     0.004 C 
ENDBRANCH  11  12
ENDBRANCH  10  11
ENDBRANCH   9  10
ENDBRANCH   8   9
ENDBRANCH   1   8
TORSDOF 9
ENDMDL
MODEL 5
REMARK VINA RESULT:    -2.999      3.353      5.234
REMARK INTER + INTRA:          -5.613
REMARK INTER:                  -4.704
REMARK INTRA:                  -0.910
REMARK UNBOUND:                -1.036
REMARK SMILES CCCCCCCCCCC(=O)[O-]
REMARK SMILES IDX 7 1 8 2 9 3 10 4 11 5 12 6 13 7 6 8 5 9 4 10 3 11 2 12 1 13
REMARK H PARENT
REMARK Flexibility Score: inf
ROOT
ATOM      1  C   UNL     1      -2.520   9.009  38.766  1.00  0.00     0.000 C 
ENDROOT
BRANCH   1   2
ATOM      2  C   UNL     1      -2.446   8.252  40.105  1.00  0.00     0.000 C 
BRANCH   2   3
ATOM      3  C   UNL     1      -3.812   7.693  40.550  1.00  0.00     0.006 C 
BRANCH   3   4
ATOM      4  C   UNL     1      -3.803   7.087  41.963  1.00  0.00     0.053 C 
BRANCH   4   5
ATOM      5  C   UNL     1      -3.392   5.648  41.971  1.00  0.00     0.041 C 
ATOM      6  O   UNL     1      -4.238   4.747  41.737  1.00  0.00    -0.550 OA
ATOM      7  O   UNL     1      -2.072   5.303  42.236  1.00  0.00    -0.550 OA
ENDBRANCH   4   5
ENDBRANCH   3   4
ENDBRANCH   2   3
ENDBRANCH   1   2
BRANCH   1   8
ATOM      8  C   UNL     1      -1.238   8.866  37.927  1.00  0.00     0.000 C 
BRANCH   8   9
ATOM      9  C   UNL     1      -1.438   8.232  36.539  1.00  0.00    -0.000 C 
BRANCH   9  10
ATOM     10  C   UNL     1      -1.099   6.733  36.508  1.00  0.00    -0.000 C 
BRANCH  10  11
ATOM     11  C   UNL     1      -2.301   5.908  36.024  1.00  0.00    -0.000 C 
BRANCH  11  12
ATOM     12  C   UNL     1      -2.731   4.840  37.041  1.00  0.00    -0.003 C 
ATOM     13  C   UNL     1      -2.123   5.062  38.425  1.00  0.00     0.004 C 
ENDBRANCH  11  12
ENDBRANCH  10  11
ENDBRANCH   9  10
ENDBRANCH   8   9
ENDBRANCH   1   8
TORSDOF 9
ENDMDL
MODEL 6
REMARK VINA RESULT:    -2.999      3.471      5.128
REMARK INTER + INTRA:          -5.612
REMARK INTER:                  -4.294
REMARK INTRA:                  -1.318
REMARK UNBOUND:                -1.036
REMARK SMILES CCCCCCCCCCC(=O)[O-]
REMARK SMILES IDX 7 1 8 2 9 3 10 4 11 5 12 6 13 7 6 8 5 9 4 10 3 11 2 12 1 13
REMARK H PARENT
REMARK Flexibility Score: inf
ROOT
ATOM      1  C   UNL     1       0.852   7.522  39.665  1.00  0.00     0.000 C 
ENDROOT
BRANCH   1   2
ATOM      2  C   UNL     1      -0.492   7.197  40.339  1.00  0.00     0.000 C 
BRANCH   2   3
ATOM      3  C   UNL     1      -1.472   8.388  40.321  1.00  0.00     0.006 C 
BRANCH   3   4
ATOM      4  C   UNL     1      -2.866   8.036  39.776  1.00  0.00     0.053 C 
BRANCH   4   5
ATOM      5  C   UNL     1      -3.692   7.268  40.760  1.00  0.00     0.041 C 
ATOM      6  O   UNL     1      -3.852   7.704  41.930  1.00  0.00    -0.550 OA
ATOM      7  O   UNL     1      -4.286   6.069  40.385  1.00  0.00    -0.550 OA
ENDBRANCH   4   5
ENDBRANCH   3   4
ENDBRANCH   2   3
ENDBRANCH   1   2
BRANCH   1   8
ATOM      8  C   UNL     1       0.932   8.973  39.159  1.00  0.00     0.000 C 
BRANCH   8   9
ATOM      9  C   UNL     1       0.992   9.125  37.628  1.00  0.00    -0.000 C 
BRANCH   9  10
ATOM     10  C   UNL     1       0.392   7.922  36.882  1.00  0.00    -0.000 C 
BRANCH  10  11
ATOM     11  C   UNL     1      -1.062   8.200  36.471  1.00  0.00    -0.000 C 
BRANCH  11  12
ATOM     12  C   UNL     1      -1.874   6.912  36.268  1.00  0.00    -0.003 C 
ATOM     13  C   UNL     1      -1.380   5.758  37.140  1.00  0.00     0.004 C 
ENDBRANCH  11  12
ENDBRANCH  10  11
ENDBRANCH   9  10
ENDBRANCH   8   9
ENDBRANCH   1   8
TORSDOF 9
ENDMDL
MODEL 7
REMARK VINA RESULT:    -2.968      1.008      2.903
REMARK INTER + INTRA:          -5.565
REMARK INTER:                  -4.557
REMARK INTRA:                  -1.008
REMARK UNBOUND:                -1.036
REMARK SMILES CCCCCCCCCCC(=O)[O-]
REMARK SMILES IDX 7 1 8 2 9 3 10 4 11 5 12 6 13 7 6 8 5 9 4 10 3 11 2 12 1 13
REMARK H PARENT
REMARK Flexibility Score: inf
ROOT
ATOM      1  C   UNL     1      -3.361   5.388  39.237  1.00  0.00     0.000 C 
ENDROOT
BRANCH   1   2
ATOM      2  C   UNL     1      -2.186   5.108  38.284  1.00  0.00     0.000 C 
BRANCH   2   3
ATOM      3  C   UNL     1      -2.649   4.656  36.884  1.00  0.00     0.006 C 
BRANCH   3   4
ATOM      4  C   UNL     1      -2.214   5.602  35.752  1.00  0.00     0.053 C 
BRANCH   4   5
ATOM      5  C   UNL     1      -1.282   4.949  34.780  1.00  0.00     0.041 C 
ATOM      6  O   UNL     1      -0.872   3.777  34.986  1.00  0.00    -0.550 OA
ATOM      7  O   UNL     1      -0.867   5.635  33.646  1.00  0.00    -0.550 OA
ENDBRANCH   4   5
ENDBRANCH   3   4
ENDBRANCH   2   3
ENDBRANCH   1   2
BRANCH   1   8
ATOM      8  C   UNL     1      -2.927   6.111  40.524  1.00  0.00     0.000 C 
BRANCH   8   9
ATOM      9  C   UNL     1      -3.505   7.528  40.699  1.00  0.00    -0.000 C 
BRANCH   9  10
ATOM     10  C   UNL     1      -3.034   8.507  39.611  1.00  0.00    -0.000 C 
BRANCH  10  11
ATOM     11  C   UNL     1      -1.502   8.612  39.593  1.00  0.00    -0.000 C 
BRANCH  11  12
ATOM     12  C   UNL     1      -0.931   8.662  38.168  1.00  0.00    -0.003 C 
ATOM     13  C   UNL     1      -1.985   9.019  37.121  1.00  0.00     0.004 C 
ENDBRANCH  11  12
ENDBRANCH  10  11
ENDBRANCH   9  10
ENDBRANCH   8   9
ENDBRANCH   1   8
TORSDOF 9
ENDMDL
MODEL 8
REMARK VINA RESULT:    -2.965      1.713      2.892
REMARK INTER + INTRA:          -5.561
REMARK INTER:                  -4.355
REMARK INTRA:                  -1.206
REMARK UNBOUND:                -1.036
REMARK SMILES CCCCCCCCCCC(=O)[O-]
REMARK SMILES IDX 7 1 8 2 9 3 10 4 11 5 12 6 13 7 6 8 5 9 4 10 3 11 2 12 1 13
REMARK H PARENT
REMARK Flexibility Score: inf
ROOT
ATOM      1  C   UNL     1      -3.101   8.454  39.718  1.00  0.00     0.000 C 
ENDROOT
BRANCH   1   2
ATOM      2  C   UNL     1      -1.972   8.000  38.776  1.00  0.00     0.000 C 
BRANCH   2   3
ATOM      3  C   UNL     1      -1.934   6.471  38.584  1.00  0.00     0.006 C 
BRANCH   3   4
ATOM      4  C   UNL     1      -0.877   6.000  37.571  1.00  0.00     0.053 C 
BRANCH   4   5
ATOM      5  C   UNL     1      -1.196   6.416  36.170  1.00  0.00     0.041 C 
ATOM      6  O   UNL     1      -2.329   6.172  35.679  1.00  0.00    -0.550 OA
ATOM      7  O   UNL     1      -0.241   7.075  35.405  1.00  0.00    -0.550 OA
ENDBRANCH   4   5
ENDBRANCH   3   4
ENDBRANCH   2   3
ENDBRANCH   1   2
BRANCH   1   8
ATOM      8  C   UNL     1      -3.689   7.298  40.547  1.00  0.00     0.000 C 
BRANCH   8   9
ATOM      9  C   UNL     1      -3.796   7.571  42.058  1.00  0.00    -0.000 C 
BRANCH   9  10
ATOM     10  C   UNL     1      -2.428   7.746  42.735  1.00  0.00    -0.000 C 
BRANCH  10  11
ATOM     11  C   UNL     1      -1.478   6.600  42.358  1.00  0.00    -0.000 C 
BRANCH  11  12
ATOM     12  C   UNL     1      -0.096   7.102  41.911  1.00  0.00    -0.003 C 
ATOM     13  C   UNL     1      -0.005   8.627  41.873  1.00  0.00     0.004 C 
ENDBRANCH  11  12
ENDBRANCH  10  11
ENDBRANCH   9  10
ENDBRANCH   8   9
ENDBRANCH   1   8
TORSDOF 9
ENDMDL
