MODEL 1
REMARK VINA RESULT:    -5.852      0.000      0.000
REMARK INTER + INTRA:          -8.028
REMARK INTER:                  -7.562
REMARK INTRA:                  -0.466
REMARK UNBOUND:                -0.466
REMARK SMILES CCO[C@@H]1O[C@H](CO)[C@@H](O)[C@H](O)[C@H]1O
REMARK SMILES IDX 4 1 13 2 11 3 9 4 6 5 5 6 3 7 2 8 1 9 14 10 12 12 7 14 8 15
REMARK SMILES IDX 10 17
REMARK H PARENT 14 11 12 13 8 16 10 18
REMARK Flexibility Score: inf
ROOT
ATOM      1  C   UNL     1      10.153 -11.794  37.796  1.00  0.00     0.281 C 
ATOM      2  C   UNL     1       9.555 -11.279  36.465  1.00  0.00     0.202 C 
ATOM      3  C   UNL     1       9.465 -12.395  35.412  1.00  0.00     0.179 C 
ATOM      4  C   UNL     1       8.830 -13.672  35.999  1.00  0.00     0.177 C 
ATOM      5  C   UNL     1       9.415 -14.034  37.388  1.00  0.00     0.178 C 
ATOM      6  O   UNL     1       9.463 -12.934  38.291  1.00  0.00    -0.341 OA
ENDROOT
BRANCH   1   7
ATOM      7  O   UNL     1      11.537 -12.076  37.659  1.00  0.00    -0.350 OA
BRANCH   7   8
ATOM      8  C   UNL     1      12.314 -10.898  37.547  1.00  0.00     0.160 C 
ATOM      9  C   UNL     1      12.789 -10.444  38.923  1.00  0.00     0.035 C 
ENDBRANCH   7   8
ENDBRANCH   1   7
BRANCH   2  10
ATOM     10  O   UNL     1       8.297 -10.675  36.664  1.00  0.00    -0.385 OA
ATOM     11  H   UNL     1       7.782 -11.228  37.305  1.00  0.00     0.211 HD
ENDBRANCH   2  10
BRANCH   3  12
ATOM     12  O   UNL     1      10.751 -12.668  34.916  1.00  0.00    -0.387 OA
ATOM     13  H   UNL     1      11.016 -11.892  34.356  1.00  0.00     0.211 HD
ENDBRANCH   3  12
BRANCH   5  14
ATOM     14  C   UNL     1      10.749 -14.811  37.324  1.00  0.00     0.191 C 
BRANCH  14  15
ATOM     15  O   UNL     1      10.904 -15.424  36.071  1.00  0.00    -0.394 OA
ATOM     16  H   UNL     1      11.777 -15.896  36.089  1.00  0.00     0.210 HD
ENDBRANCH  14  15
ENDBRANCH   5  14
BRANCH   4  17
ATOM     17  O   UNL     1       7.440 -13.501  36.122  1.00  0.00    -0.387 OA
ATOM     18  H   UNL     1       7.286 -12.950  36.933  1.00  0.00     0.211 HD
ENDBRANCH   4  17
TORSDOF 7
ENDMDL
MODEL 2
REMARK VINA RESULT:    -5.810      1.643      4.003
REMARK INTER + INTRA:          -7.974
REMARK INTER:                  -7.504
REMARK INTRA:                  -0.470
REMARK UNBOUND:                -0.466
REMARK SMILES CCO[C@@H]1O[C@H](CO)[C@@H](O)[C@H](O)[C@H]1O
REMARK SMILES IDX 4 1 13 2 11 3 9 4 6 5 5 6 3 7 2 8 1 9 14 10 12 12 7 14 8 15
REMARK SMILES IDX 10 17
REMARK H PARENT 14 11 12 13 8 16 10 18
REMARK Flexibility Score: inf
ROOT
ATOM      1  C   UNL     1      10.432 -12.129  35.471  1.00  0.00     0.281 C 
ATOM      2  C   UNL     1      10.120 -11.130  36.610  1.00  0.00     0.202 C 
ATOM      3  C   UNL     1      10.989 -11.389  37.850  1.00  0.00     0.179 C 
ATOM      4  C   UNL     1      12.476 -11.549  37.470  1.00  0.00     0.177 C 
ATOM      5  C   UNL     1      12.671 -12.476  36.243  1.00  0.00     0.178 C 
ATOM      6  O   UNL     1      11.816 -12.162  35.149  1.00  0.00    -0.341 OA
ENDROOT
BRANCH   1   7
ATOM      7  O   UNL     1       9.970 -13.433  35.794  1.00  0.00    -0.350 OA
BRANCH   7   8
ATOM      8  C   UNL     1       8.558 -13.522  35.761  1.00  0.00     0.160 C 
ATOM      9  C   UNL     1       8.046 -13.294  34.343  1.00  0.00     0.035 C 
ENDBRANCH   7   8
ENDBRANCH   1   7
BRANCH   2  10
ATOM     10  O   UNL     1      10.250  -9.796  36.177  1.00  0.00    -0.385 OA
ATOM     11  H   UNL     1      11.205  -9.537  36.242  1.00  0.00     0.211 HD
ENDBRANCH   2  10
BRANCH   3  12
ATOM     12  O   UNL     1      10.524 -12.537  38.512  1.00  0.00    -0.387 OA
ATOM     13  H   UNL     1       9.821 -12.240  39.148  1.00  0.00     0.211 HD
ENDBRANCH   3  12
BRANCH   5  14
ATOM     14  C   UNL     1      12.668 -13.983  36.588  1.00  0.00     0.191 C 
BRANCH  14  15
ATOM     15  O   UNL     1      13.117 -14.190  37.901  1.00  0.00    -0.394 OA
ATOM     16  H   UNL     1      12.491 -13.704  38.498  1.00  0.00     0.210 HD
ENDBRANCH  14  15
ENDBRANCH   5  14
BRANCH   4  17
ATOM     17  O   UNL     1      13.035 -10.292  37.184  1.00  0.00    -0.387 OA
ATOM     18  H   UNL     1      12.391  -9.816  36.596  1.00  0.00     0.211 HD
ENDBRANCH   4  17
TORSDOF 7
ENDMDL
MODEL 3
REMARK VINA RESULT:    -5.661      2.054      2.752
REMARK INTER + INTRA:          -7.782
REMARK INTER:                  -7.334
REMARK INTRA:                  -0.448
REMARK UNBOUND:                -0.466
REMARK SMILES CCO[C@@H]1O[C@H](CO)[C@@H](O)[C@H](O)[C@H]1O
REMARK SMILES IDX 4 1 13 2 11 3 9 4 6 5 5 6 3 7 2 8 1 9 14 10 12 12 7 14 8 15
REMARK SMILES IDX 10 17
REMARK H PARENT 14 11 12 13 8 16 10 18
REMARK Flexibility Score: inf
ROOT
ATOM      1  C   UNL     1      12.185 -11.510  35.922  1.00  0.00     0.281 C 
ATOM      2  C   UNL     1      10.756 -11.075  35.518  1.00  0.00     0.202 C 
ATOM      3  C   UNL     1       9.697 -12.078  36.002  1.00  0.00     0.179 C 
ATOM      4  C   UNL     1       9.907 -12.445  37.485  1.00  0.00     0.177 C 
ATOM      5  C   UNL     1      11.391 -12.747  37.811  1.00  0.00     0.178 C 
ATOM      6  O   UNL     1      12.296 -11.765  37.316  1.00  0.00    -0.341 OA
ENDROOT
BRANCH   1   7
ATOM      7  O   UNL     1      12.603 -12.645  35.178  1.00  0.00    -0.350 OA
BRANCH   7   8
ATOM      8  C   UNL     1      13.972 -12.576  34.825  1.00  0.00     0.160 C 
ATOM      9  C   UNL     1      14.365 -11.140  34.500  1.00  0.00     0.035 C 
ENDBRANCH   7   8
ENDBRANCH   1   7
BRANCH   2  10
ATOM     10  O   UNL     1      10.462  -9.776  35.978  1.00  0.00    -0.385 OA
ATOM     11  H   UNL     1       9.884  -9.329  35.308  1.00  0.00     0.211 HD
ENDBRANCH   2  10
BRANCH   3  12
ATOM     12  O   UNL     1       9.748 -13.230  35.198  1.00  0.00    -0.387 OA
ATOM     13  H   UNL     1       9.431 -12.966  34.294  1.00  0.00     0.211 HD
ENDBRANCH   3  12
BRANCH   5  14
ATOM     14  C   UNL     1      11.829 -14.188  37.465  1.00  0.00     0.191 C 
BRANCH  14  15
ATOM     15  O   UNL     1      13.196 -14.367  37.731  1.00  0.00    -0.394 OA
ATOM     16  H   UNL     1      13.385 -15.335  37.621  1.00  0.00     0.210 HD
ENDBRANCH  14  15
ENDBRANCH   5  14
BRANCH   4  17
ATOM     17  O   UNL     1       9.467 -11.391  38.305  1.00  0.00    -0.387 OA
ATOM     18  H   UNL     1       9.335 -10.602  37.717  1.00  0.00     0.211 HD
ENDBRANCH   4  17
TORSDOF 7
ENDMDL
MODEL 4
REMARK VINA RESULT:    -5.661      1.731      2.396
REMARK INTER + INTRA:          -7.781
REMARK INTER:                  -7.583
REMARK INTRA:                  -0.198
REMARK UNBOUND:                -0.466
REMARK SMILES CCO[C@@H]1O[C@H](CO)[C@@H](O)[C@H](O)[C@H]1O
REMARK SMILES IDX 4 1 13 2 11 3 9 4 6 5 5 6 3 7 2 8 1 9 14 10 12 12 7 14 8 15
REMARK SMILES IDX 10 17
REMARK H PARENT 14 11 12 13 8 16 10 18
REMARK Flexibility Score: inf
ROOT
ATOM      1  C   UNL     1      10.693 -11.723  37.660  1.00  0.00     0.281 C 
ATOM      2  C   UNL     1      10.439 -11.160  36.241  1.00  0.00     0.202 C 
ATOM      3  C   UNL     1       9.226 -11.827  35.573  1.00  0.00     0.179 C 
ATOM      4  C   UNL     1       8.011 -11.862  36.523  1.00  0.00     0.177 C 
ATOM      5  C   UNL     1       8.395 -12.325  37.951  1.00  0.00     0.178 C 
ATOM      6  O   UNL     1       9.535 -11.656  38.481  1.00  0.00    -0.341 OA
ENDROOT
BRANCH   1   7
ATOM      7  O   UNL     1      11.180 -13.055  37.602  1.00  0.00    -0.350 OA
BRANCH   7   8
ATOM      8  C   UNL     1      12.505 -13.119  37.108  1.00  0.00     0.160 C 
ATOM      9  C   UNL     1      13.103 -14.496  37.368  1.00  0.00     0.035 C 
ENDBRANCH   7   8
ENDBRANCH   1   7
BRANCH   2  10
ATOM     10  O   UNL     1      10.294  -9.759  36.260  1.00  0.00    -0.385 OA
ATOM     11  H   UNL     1      10.894  -9.372  35.572  1.00  0.00     0.211 HD
ENDBRANCH   2  10
BRANCH   3  12
ATOM     12  O   UNL     1       9.574 -13.127  35.171  1.00  0.00    -0.387 OA
ATOM     13  H   UNL     1       9.943 -13.056  34.251  1.00  0.00     0.211 HD
ENDBRANCH   3  12
BRANCH   5  14
ATOM     14  C   UNL     1       8.478 -13.860  38.112  1.00  0.00     0.191 C 
BRANCH  14  15
ATOM     15  O   UNL     1       7.699 -14.286  39.199  1.00  0.00    -0.394 OA
ATOM     16  H   UNL     1       8.170 -13.992  40.021  1.00  0.00     0.210 HD
ENDBRANCH  14  15
ENDBRANCH   5  14
BRANCH   4  17
ATOM     17  O   UNL     1       7.428 -10.585  36.601  1.00  0.00    -0.387 OA
ATOM     18  H   UNL     1       7.644 -10.222  37.499  1.00  0.00     0.211 HD
ENDBRANCH   4  17
TORSDOF 7
ENDMDL
MODEL 5
REMARK VINA RESULT:    -5.657      1.495      4.080
REMARK INTER + INTRA:          -7.776
REMARK INTER:                  -7.608
REMARK INTRA:                  -0.168
REMARK UNBOUND:                -0.466
REMARK SMILES CCO[C@@H]1O[C@H](CO)[C@@H](O)[C@H](O)[C@H]1O
REMARK SMILES IDX 4 1 13 2 11 3 9 4 6 5 5 6 3 7 2 8 1 9 14 10 12 12 7 14 8 15
REMARK SMILES IDX 10 17
REMARK H PARENT 14 11 12 13 8 16 10 18
REMARK Flexibility Score: inf
ROOT
ATOM      1  C   UNL     1       9.405 -13.563  35.708  1.00  0.00     0.281 C 
ATOM      2  C   UNL     1      10.283 -12.308  35.488  1.00  0.00     0.202 C 
ATOM      3  C   UNL     1      10.215 -11.348  36.687  1.00  0.00     0.179 C 
ATOM      4  C   UNL     1      10.417 -12.099  38.019  1.00  0.00     0.177 C 
ATOM      5  C   UNL     1       9.584 -13.404  38.090  1.00  0.00     0.178 C 
ATOM      6  O   UNL     1       9.706 -14.222  36.931  1.00  0.00    -0.341 OA
ENDROOT
BRANCH   1   7
ATOM      7  O   UNL     1       8.024 -13.237  35.650  1.00  0.00    -0.350 OA
BRANCH   7   8
ATOM      8  C   UNL     1       7.655 -12.698  34.395  1.00  0.00     0.160 C 
ATOM      9  C   UNL     1       7.700 -13.778  33.320  1.00  0.00     0.035 C 
ENDBRANCH   7   8
ENDBRANCH   1   7
BRANCH   2  10
ATOM     10  O   UNL     1      11.617 -12.655  35.199  1.00  0.00    -0.385 OA
ATOM     11  H   UNL     1      12.169 -11.832  35.225  1.00  0.00     0.211 HD
ENDBRANCH   2  10
BRANCH   3  12
ATOM     12  O   UNL     1       8.979 -10.683  36.679  1.00  0.00    -0.387 OA
ATOM     13  H   UNL     1       9.070  -9.909  36.062  1.00  0.00     0.211 HD
ENDBRANCH   3  12
BRANCH   5  14
ATOM     14  C   UNL     1       8.113 -13.187  38.514  1.00  0.00     0.191 C 
BRANCH  14  15
ATOM     15  O   UNL     1       7.645 -14.286  39.252  1.00  0.00    -0.394 OA
ATOM     16  H   UNL     1       6.845 -13.975  39.750  1.00  0.00     0.210 HD
ENDBRANCH  14  15
ENDBRANCH   5  14
BRANCH   4  17
ATOM     17  O   UNL     1      11.776 -12.417  38.188  1.00  0.00    -0.387 OA
ATOM     18  H   UNL     1      11.860 -12.870  39.067  1.00  0.00     0.211 HD
ENDBRANCH   4  17
TORSDOF 7
ENDMDL
MODEL 6
REMARK VINA RESULT:    -5.649      1.754      3.100
REMARK INTER + INTRA:          -7.767
REMARK INTER:                  -7.344
REMARK INTRA:                  -0.422
REMARK UNBOUND:                -0.466
REMARK SMILES CCO[C@@H]1O[C@H](CO)[C@@H](O)[C@H](O)[C@H]1O
REMARK SMILES IDX 4 1 13 2 11 3 9 4 6 5 5 6 3 7 2 8 1 9 14 10 12 12 7 14 8 15
REMARK SMILES IDX 10 17
REMARK H PARENT 14 11 12 13 8 16 10 18
REMARK Flexibility Score: inf
ROOT
ATOM      1  C   UNL     1      10.566 -13.089  36.162  1.00  0.00     0.281 C 
ATOM      2  C   UNL     1      10.071 -12.330  37.417  1.00  0.00     0.202 C 
ATOM      3  C   UNL     1       8.683 -11.710  37.197  1.00  0.00     0.179 C 
ATOM      4  C   UNL     1       7.702 -12.732  36.585  1.00  0.00     0.177 C 
ATOM      5  C   UNL     1       8.335 -13.522  35.411  1.00  0.00     0.178 C 
ATOM      6  O   UNL     1       9.623 -14.051  35.708  1.00  0.00    -0.341 OA
ENDROOT
BRANCH   1   7
ATOM      7  O   UNL     1      10.892 -12.186  35.115  1.00  0.00    -0.350 OA
BRANCH   7   8
ATOM      8  C   UNL     1      12.238 -11.754  35.182  1.00  0.00     0.160 C 
ATOM      9  C   UNL     1      13.163 -12.940  35.431  1.00  0.00     0.035 C 
ENDBRANCH   7   8
ENDBRANCH   1   7
BRANCH   2  10
ATOM     10  O   UNL     1      10.076 -13.159  38.556  1.00  0.00    -0.385 OA
ATOM     11  H   UNL     1      10.288 -12.602  39.348  1.00  0.00     0.211 HD
ENDBRANCH   2  10
BRANCH   3  12
ATOM     12  O   UNL     1       8.803 -10.584  36.365  1.00  0.00    -0.387 OA
ATOM     13  H   UNL     1       9.501 -10.796  35.691  1.00  0.00     0.211 HD
ENDBRANCH   3  12
BRANCH   5  14
ATOM     14  C   UNL     1       8.295 -12.777  34.058  1.00  0.00     0.191 C 
BRANCH  14  15
ATOM     15  O   UNL     1       7.476 -11.640  34.144  1.00  0.00    -0.394 OA
ATOM     16  H   UNL     1       7.295 -11.346  33.214  1.00  0.00     0.210 HD
ENDBRANCH  14  15
ENDBRANCH   5  14
BRANCH   4  17
ATOM     17  O   UNL     1       7.281 -13.641  37.571  1.00  0.00    -0.387 OA
ATOM     18  H   UNL     1       6.321 -13.828  37.401  1.00  0.00     0.211 HD
ENDBRANCH   4  17
TORSDOF 7
ENDMDL
MODEL 7
REMARK VINA RESULT:    -5.639      1.536      2.579
REMARK INTER + INTRA:          -7.753
REMARK INTER:                  -7.301
REMARK INTRA:                  -0.452
REMARK UNBOUND:                -0.466
REMARK SMILES CCO[C@@H]1O[C@H](CO)[C@@H](O)[C@H](O)[C@H]1O
REMARK SMILES IDX 4 1 13 2 11 3 9 4 6 5 5 6 3 7 2 8 1 9 14 10 12 12 7 14 8 15
REMARK SMILES IDX 10 17
REMARK H PARENT 14 11 12 13 8 16 10 18
REMARK Flexibility Score: inf
ROOT
ATOM      1  C   UNL     1      10.550 -12.215  38.139  1.00  0.00     0.281 C 
ATOM      2  C   UNL     1       9.017 -12.356  37.979  1.00  0.00     0.202 C 
ATOM      3  C   UNL     1       8.560 -12.022  36.551  1.00  0.00     0.179 C 
ATOM      4  C   UNL     1       9.427 -12.746  35.500  1.00  0.00     0.177 C 
ATOM      5  C   UNL     1      10.941 -12.645  35.817  1.00  0.00     0.178 C 
ATOM      6  O   UNL     1      11.264 -12.966  37.166  1.00  0.00    -0.341 OA
ENDROOT
BRANCH   1   7
ATOM      7  O   UNL     1      10.945 -10.851  38.096  1.00  0.00    -0.350 OA
BRANCH   7   8
ATOM      8  C   UNL     1      11.596 -10.446  39.285  1.00  0.00     0.160 C 
ATOM      9  C   UNL     1      13.108 -10.444  39.087  1.00  0.00     0.035 C 
ENDBRANCH   7   8
ENDBRANCH   1   7
BRANCH   2  10
ATOM     10  O   UNL     1       8.575 -13.638  38.360  1.00  0.00    -0.385 OA
ATOM     11  H   UNL     1       9.345 -14.261  38.319  1.00  0.00     0.211 HD
ENDBRANCH   2  10
BRANCH   3  12
ATOM     12  O   UNL     1       8.614 -10.631  36.359  1.00  0.00    -0.387 OA
ATOM     13  H   UNL     1       9.450 -10.440  35.856  1.00  0.00     0.211 HD
ENDBRANCH   3  12
BRANCH   5  14
ATOM     14  C   UNL     1      11.594 -11.326  35.346  1.00  0.00     0.191 C 
BRANCH  14  15
ATOM     15  O   UNL     1      10.788 -10.689  34.389  1.00  0.00    -0.394 OA
ATOM     16  H   UNL     1       9.864 -10.681  34.753  1.00  0.00     0.210 HD
ENDBRANCH  14  15
ENDBRANCH   5  14
BRANCH   4  17
ATOM     17  O   UNL     1       9.066 -14.103  35.435  1.00  0.00    -0.387 OA
ATOM     18  H   UNL     1       9.004 -14.431  36.370  1.00  0.00     0.211 HD
ENDBRANCH   4  17
TORSDOF 7
ENDMDL
MODEL 8
REMARK VINA RESULT:    -5.556      1.541      2.009
REMARK INTER + INTRA:          -7.647
REMARK INTER:                  -7.197
REMARK INTRA:                  -0.450
REMARK UNBOUND:                -0.466
REMARK SMILES CCO[C@@H]1O[C@H](CO)[C@@H](O)[C@H](O)[C@H]1O
REMARK SMILES IDX 4 1 13 2 11 3 9 4 6 5 5 6 3 7 2 8 1 9 14 10 12 12 7 14 8 15
REMARK SMILES IDX 10 17
REMARK H PARENT 14 11 12 13 8 16 10 18
REMARK Flexibility Score: inf
ROOT
ATOM      1  C   UNL     1      10.232 -11.428  36.356  1.00  0.00     0.281 C 
ATOM      2  C   UNL     1       8.713 -11.661  36.183  1.00  0.00     0.202 C 
ATOM      3  C   UNL     1       8.360 -13.156  36.204  1.00  0.00     0.179 C 
ATOM      4  C   UNL     1       9.031 -13.874  37.393  1.00  0.00     0.177 C 
ATOM      5  C   UNL     1      10.522 -13.481  37.551  1.00  0.00     0.178 C 
ATOM      6  O   UNL     1      10.749 -12.076  37.510  1.00  0.00    -0.341 OA
ENDROOT
BRANCH   1   7
ATOM      7  O   UNL     1      10.947 -11.838  35.199  1.00  0.00    -0.350 OA
BRANCH   7   8
ATOM      8  C   UNL     1      11.851 -10.845  34.750  1.00  0.00     0.160 C 
ATOM      9  C   UNL     1      13.288 -11.270  35.033  1.00  0.00     0.035 C 
ENDBRANCH   7   8
ENDBRANCH   1   7
BRANCH   2  10
ATOM     10  O   UNL     1       7.969 -10.956  37.150  1.00  0.00    -0.385 OA
ATOM     11  H   UNL     1       8.298 -11.215  38.049  1.00  0.00     0.211 HD
ENDBRANCH   2  10
BRANCH   3  12
ATOM     12  O   UNL     1       8.752 -13.743  34.990  1.00  0.00    -0.387 OA
ATOM     13  H   UNL     1       9.720 -13.552  34.875  1.00  0.00     0.211 HD
ENDBRANCH   3  12
BRANCH   5  14
ATOM     14  C   UNL     1      11.479 -14.265  36.625  1.00  0.00     0.191 C 
BRANCH  14  15
ATOM     15  O   UNL     1      10.827 -15.375  36.066  1.00  0.00    -0.394 OA
ATOM     16  H   UNL     1      11.187 -16.179  36.523  1.00  0.00     0.210 HD
ENDBRANCH  14  15
ENDBRANCH   5  14
BRANCH   4  17
ATOM     17  O   UNL     1       8.351 -13.566  38.584  1.00  0.00    -0.387 OA
ATOM     18  H   UNL     1       7.730 -12.820  38.378  1.00  0.00     0.211 HD
ENDBRANCH   4  17
TORSDOF 7
ENDMDL
MODEL 9
REMARK VINA RESULT:    -5.543      2.023      4.201
REMARK INTER + INTRA:          -7.629
REMARK INTER:                  -7.398
REMARK INTRA:                  -0.231
REMARK UNBOUND:                -0.466
REMARK SMILES CCO[C@@H]1O[C@H](CO)[C@@H](O)[C@H](O)[C@H]1O
REMARK SMILES IDX 4 1 13 2 11 3 9 4 6 5 5 6 3 7 2 8 1 9 14 10 12 12 7 14 8 15
REMARK SMILES IDX 10 17
REMARK H PARENT 14 11 12 13 8 16 10 18
REMARK Flexibility Score: inf
ROOT
ATOM      1  C   UNL     1      11.095 -12.547  36.095  1.00  0.00     0.281 C 
ATOM      2  C   UNL     1      10.629 -11.756  37.341  1.00  0.00     0.202 C 
ATOM      3  C   UNL     1      11.624 -10.646  37.715  1.00  0.00     0.179 C 
ATOM      4  C   UNL     1      12.020  -9.808  36.482  1.00  0.00     0.177 C 
ATOM      5  C   UNL     1      12.352 -10.692  35.253  1.00  0.00     0.178 C 
ATOM      6  O   UNL     1      11.376 -11.696  34.992  1.00  0.00    -0.341 OA
ENDROOT
BRANCH   1   7
ATOM      7  O   UNL     1      12.223 -13.355  36.394  1.00  0.00    -0.350 OA
BRANCH   7   8
ATOM      8  C   UNL     1      11.903 -14.411  37.282  1.00  0.00     0.160 C 
ATOM      9  C   UNL     1      10.927 -15.379  36.623  1.00  0.00     0.035 C 
ENDBRANCH   7   8
ENDBRANCH   1   7
BRANCH   2  10
ATOM     10  O   UNL     1       9.334 -11.231  37.164  1.00  0.00    -0.385 OA
ATOM     11  H   UNL     1       8.844 -11.309  38.023  1.00  0.00     0.211 HD
ENDBRANCH   2  10
BRANCH   3  12
ATOM     12  O   UNL     1      12.761 -11.221  38.305  1.00  0.00    -0.387 OA
ATOM     13  H   UNL     1      13.066 -11.947  37.699  1.00  0.00     0.211 HD
ENDBRANCH   3  12
BRANCH   5  14
ATOM     14  C   UNL     1      13.794 -11.249  35.252  1.00  0.00     0.191 C 
BRANCH  14  15
ATOM     15  O   UNL     1      14.321 -11.253  33.951  1.00  0.00    -0.394 OA
ATOM     16  H   UNL     1      14.866 -12.078  33.866  1.00  0.00     0.210 HD
ENDBRANCH  14  15
ENDBRANCH   5  14
BRANCH   4  17
ATOM     17  O   UNL     1      10.974  -8.933  36.142  1.00  0.00    -0.387 OA
ATOM     18  H   UNL     1      11.391  -8.118  35.758  1.00  0.00     0.211 HD
ENDBRANCH   4  17
TORSDOF 7
ENDMDL
