MODEL 1
REMARK VINA RESULT:     2.140      0.000      0.000
REMARK INTER + INTRA:           2.226
REMARK INTER:                   2.515
REMARK INTRA:                  -0.290
REMARK UNBOUND:                -0.290
REMARK SMILES O=c1cc(-c2ccc(O)c(O)c2)oc2cc(O)cc(O)c12
REMARK SMILES IDX 4 1 3 2 2 3 1 4 21 5 19 6 18 7 16 8 15 9 14 10 13 11 5 12
REMARK SMILES IDX 6 13 7 14 8 15 12 16 10 17 9 18 11 20 20 22 17 24
REMARK H PARENT 9 19 11 21 20 23 17 25
REMARK Flexibility Score: inf
ROOT
ATOM      1  C   UNL     1     167.210 164.340 152.372  1.00  0.00     0.138 A 
ATOM      2  C   UNL     1     167.224 163.245 153.248  1.00  0.00     0.100 A 
ATOM      3  C   UNL     1     167.281 163.463 154.624  1.00  0.00     0.197 A 
ATOM      4  O   UNL     1     167.356 162.461 155.382  1.00  0.00    -0.289 OA
ATOM      5  C   UNL     1     167.293 164.786 155.128  1.00  0.00     0.107 A 
ATOM      6  C   UNL     1     167.310 165.129 156.513  1.00  0.00     0.134 A 
ATOM      7  C   UNL     1     167.438 166.470 156.890  1.00  0.00     0.093 A 
ATOM      8  C   UNL     1     167.490 167.486 155.936  1.00  0.00     0.123 A 
ATOM      9  C   UNL     1     167.420 167.167 154.579  1.00  0.00     0.094 A 
ATOM     10  C   UNL     1     167.327 165.834 154.170  1.00  0.00     0.146 A 
ATOM     11  O   UNL     1     167.277 165.571 152.868  1.00  0.00    -0.456 OA
ENDROOT
BRANCH   1  12
ATOM     12  C   UNL     1     167.148 164.165 150.899  1.00  0.00     0.021 A 
ATOM     13  C   UNL     1     167.973 163.243 150.228  1.00  0.00     0.016 A 
ATOM     14  C   UNL     1     167.887 163.092 148.842  1.00  0.00     0.051 A 
ATOM     15  C   UNL     1     166.971 163.851 148.103  1.00  0.00     0.157 A 
ATOM     16  C   UNL     1     166.222 164.915 150.151  1.00  0.00     0.062 A 
ATOM     17  C   UNL     1     166.134 164.766 148.762  1.00  0.00     0.158 A 
BRANCH  15  18
ATOM     18  O   UNL     1     166.888 163.699 146.720  1.00  0.00    -0.504 OA
ATOM     19  H   UNL     1     167.458 163.021 146.225  1.00  0.00     0.293 HD
ENDBRANCH  15  18
BRANCH  17  20
ATOM     20  O   UNL     1     165.209 165.534 148.056  1.00  0.00    -0.504 OA
ATOM     21  H   UNL     1     165.470 166.392 147.584  1.00  0.00     0.293 HD
ENDBRANCH  17  20
ENDBRANCH   1  12
BRANCH   6  22
ATOM     22  O   UNL     1     167.179 164.198 157.549  1.00  0.00    -0.507 OA
ATOM     23  H   UNL     1     166.574 163.392 157.528  1.00  0.00     0.293 HD
ENDBRANCH   6  22
BRANCH   8  24
ATOM     24  O   UNL     1     167.602 168.812 156.349  1.00  0.00    -0.508 OA
ATOM     25  H   UNL     1     166.896 169.246 156.934  1.00  0.00     0.293 HD
ENDBRANCH   8  24
TORSDOF 5
ENDMDL
MODEL 2
REMARK VINA RESULT:     3.282      1.560      7.033
REMARK INTER + INTRA:           3.568
REMARK INTER:                   3.838
REMARK INTRA:                  -0.270
REMARK UNBOUND:                -0.290
REMARK SMILES O=c1cc(-c2ccc(O)c(O)c2)oc2cc(O)cc(O)c12
REMARK SMILES IDX 4 1 3 2 2 3 1 4 21 5 19 6 18 7 16 8 15 9 14 10 13 11 5 12
REMARK SMILES IDX 6 13 7 14 8 15 12 16 10 17 9 18 11 20 20 22 17 24
REMARK H PARENT 9 19 11 21 20 23 17 25
REMARK Flexibility Score: inf
ROOT
ATOM      1  C   UNL     1     167.509 163.947 152.290  1.00  0.00     0.138 A 
ATOM      2  C   UNL     1     168.446 163.126 151.647  1.00  0.00     0.100 A 
ATOM      3  C   UNL     1     168.478 163.075 150.254  1.00  0.00     0.197 A 
ATOM      4  O   UNL     1     169.287 162.282 149.707  1.00  0.00    -0.289 OA
ATOM      5  C   UNL     1     167.587 163.875 149.500  1.00  0.00     0.107 A 
ATOM      6  C   UNL     1     167.555 163.935 148.075  1.00  0.00     0.134 A 
ATOM      7  C   UNL     1     166.552 164.674 147.437  1.00  0.00     0.093 A 
ATOM      8  C   UNL     1     165.617 165.403 148.171  1.00  0.00     0.123 A 
ATOM      9  C   UNL     1     165.671 165.395 149.566  1.00  0.00     0.094 A 
ATOM     10  C   UNL     1     166.639 164.639 150.231  1.00  0.00     0.146 A 
ATOM     11  O   UNL     1     166.647 164.646 151.560  1.00  0.00    -0.456 OA
ENDROOT
BRANCH   1  12
ATOM     12  C   UNL     1     167.433 164.039 153.770  1.00  0.00     0.021 A 
ATOM     13  C   UNL     1     167.431 165.280 154.436  1.00  0.00     0.016 A 
ATOM     14  C   UNL     1     167.348 165.337 155.829  1.00  0.00     0.051 A 
ATOM     15  C   UNL     1     167.257 164.159 156.581  1.00  0.00     0.157 A 
ATOM     16  C   UNL     1     167.329 162.861 154.533  1.00  0.00     0.062 A 
ATOM     17  C   UNL     1     167.246 162.916 155.929  1.00  0.00     0.158 A 
BRANCH  15  18
ATOM     18  O   UNL     1     167.176 164.220 157.972  1.00  0.00    -0.504 OA
ATOM     19  H   UNL     1     167.486 165.037 158.487  1.00  0.00     0.293 HD
ENDBRANCH  15  18
BRANCH  17  20
ATOM     20  O   UNL     1     167.153 161.725 156.649  1.00  0.00    -0.504 OA
ATOM     21  H   UNL     1     166.310 161.460 157.145  1.00  0.00     0.293 HD
ENDBRANCH  17  20
ENDBRANCH   1  12
BRANCH   6  22
ATOM     22  O   UNL     1     168.495 163.313 147.246  1.00  0.00    -0.507 OA
ATOM     23  H   UNL     1     169.415 163.021 147.535  1.00  0.00     0.293 HD
ENDBRANCH   6  22
BRANCH   8  24
ATOM     24  O   UNL     1     164.641 166.140 147.502  1.00  0.00    -0.508 OA
ATOM     25  H   UNL     1     163.746 165.733 147.256  1.00  0.00     0.293 HD
ENDBRANCH   8  24
TORSDOF 5
ENDMDL
MODEL 3
REMARK VINA RESULT:     3.728      1.926      3.553
REMARK INTER + INTRA:           4.092
REMARK INTER:                   4.354
REMARK INTRA:                  -0.262
REMARK UNBOUND:                -0.290
REMARK SMILES O=c1cc(-c2ccc(O)c(O)c2)oc2cc(O)cc(O)c12
REMARK SMILES IDX 4 1 3 2 2 3 1 4 21 5 19 6 18 7 16 8 15 9 14 10 13 11 5 12
REMARK SMILES IDX 6 13 7 14 8 15 12 16 10 17 9 18 11 20 20 22 17 24
REMARK H PARENT 9 19 11 21 20 23 17 25
REMARK Flexibility Score: inf
ROOT
ATOM      1  C   UNL     1     167.424 163.682 153.599  1.00  0.00     0.138 A 
ATOM      2  C   UNL     1     167.497 164.861 154.354  1.00  0.00     0.100 A 
ATOM      3  C   UNL     1     167.384 164.800 155.743  1.00  0.00     0.197 A 
ATOM      4  O   UNL     1     167.391 165.880 156.388  1.00  0.00    -0.289 OA
ATOM      5  C   UNL     1     167.228 163.546 156.381  1.00  0.00     0.107 A 
ATOM      6  C   UNL     1     167.142 163.357 157.793  1.00  0.00     0.134 A 
ATOM      7  C   UNL     1     166.872 162.083 158.304  1.00  0.00     0.093 A 
ATOM      8  C   UNL     1     166.744 160.980 157.460  1.00  0.00     0.123 A 
ATOM      9  C   UNL     1     166.879 161.143 156.081  1.00  0.00     0.094 A 
ATOM     10  C   UNL     1     167.114 162.409 155.538  1.00  0.00     0.146 A 
ATOM     11  O   UNL     1     167.222 162.525 154.218  1.00  0.00    -0.456 OA
ENDROOT
BRANCH   1  12
ATOM     12  C   UNL     1     167.539 163.691 152.119  1.00  0.00     0.021 A 
ATOM     13  C   UNL     1     168.720 163.291 151.466  1.00  0.00     0.016 A 
ATOM     14  C   UNL     1     168.797 163.300 150.071  1.00  0.00     0.051 A 
ATOM     15  C   UNL     1     167.696 163.699 149.304  1.00  0.00     0.157 A 
ATOM     16  C   UNL     1     166.432 164.078 151.340  1.00  0.00     0.062 A 
ATOM     17  C   UNL     1     166.508 164.089 149.943  1.00  0.00     0.158 A 
BRANCH  15  18
ATOM     18  O   UNL     1     167.776 163.708 147.912  1.00  0.00    -0.504 OA
ATOM     19  H   UNL     1     168.644 163.504 147.429  1.00  0.00     0.293 HD
ENDBRANCH  15  18
BRANCH  17  20
ATOM     20  O   UNL     1     165.392 164.488 149.208  1.00  0.00    -0.504 OA
ATOM     21  H   UNL     1     165.378 165.348 148.674  1.00  0.00     0.293 HD
ENDBRANCH  17  20
ENDBRANCH   1  12
BRANCH   6  22
ATOM     22  O   UNL     1     167.340 164.377 158.730  1.00  0.00    -0.507 OA
ATOM     23  H   UNL     1     166.674 165.103 158.943  1.00  0.00     0.293 HD
ENDBRANCH   6  22
BRANCH   8  24
ATOM     24  O   UNL     1     166.490 159.723 158.006  1.00  0.00    -0.508 OA
ATOM     25  H   UNL     1     165.571 159.474 158.356  1.00  0.00     0.293 HD
ENDBRANCH   8  24
TORSDOF 5
ENDMDL
MODEL 4
REMARK VINA RESULT:     4.380     11.468     12.515
REMARK INTER + INTRA:           4.859
REMARK INTER:                   5.122
REMARK INTRA:                  -0.263
REMARK UNBOUND:                -0.290
REMARK SMILES O=c1cc(-c2ccc(O)c(O)c2)oc2cc(O)cc(O)c12
REMARK SMILES IDX 4 1 3 2 2 3 1 4 21 5 19 6 18 7 16 8 15 9 14 10 13 11 5 12
REMARK SMILES IDX 6 13 7 14 8 15 12 16 10 17 9 18 11 20 20 22 17 24
REMARK H PARENT 9 19 11 21 20 23 17 25
REMARK Flexibility Score: inf
ROOT
ATOM      1  C   UNL     1     156.730 162.436 155.748  1.00  0.00     0.138 A 
ATOM      2  C   UNL     1     156.211 163.285 156.737  1.00  0.00     0.100 A 
ATOM      3  C   UNL     1     155.109 162.877 157.488  1.00  0.00     0.197 A 
ATOM      4  O   UNL     1     154.628 163.685 158.324  1.00  0.00    -0.289 OA
ATOM      5  C   UNL     1     154.542 161.599 157.269  1.00  0.00     0.107 A 
ATOM      6  C   UNL     1     153.443 161.060 158.002  1.00  0.00     0.134 A 
ATOM      7  C   UNL     1     152.893 159.831 157.618  1.00  0.00     0.093 A 
ATOM      8  C   UNL     1     153.440 159.093 156.569  1.00  0.00     0.123 A 
ATOM      9  C   UNL     1     154.550 159.585 155.879  1.00  0.00     0.094 A 
ATOM     10  C   UNL     1     155.099 160.825 156.216  1.00  0.00     0.146 A 
ATOM     11  O   UNL     1     156.146 161.264 155.525  1.00  0.00    -0.456 OA
ENDROOT
BRANCH   1  12
ATOM     12  C   UNL     1     157.902 162.821 154.921  1.00  0.00     0.021 A 
ATOM     13  C   UNL     1     157.754 163.515 153.706  1.00  0.00     0.016 A 
ATOM     14  C   UNL     1     158.876 163.873 152.953  1.00  0.00     0.051 A 
ATOM     15  C   UNL     1     160.162 163.552 153.404  1.00  0.00     0.157 A 
ATOM     16  C   UNL     1     159.199 162.513 155.373  1.00  0.00     0.062 A 
ATOM     17  C   UNL     1     160.323 162.870 154.620  1.00  0.00     0.158 A 
BRANCH  15  18
ATOM     18  O   UNL     1     161.279 163.910 152.649  1.00  0.00    -0.504 OA
ATOM     19  H   UNL     1     162.125 164.257 153.086  1.00  0.00     0.293 HD
ENDBRANCH  15  18
BRANCH  17  20
ATOM     20  O   UNL     1     161.590 162.539 155.098  1.00  0.00    -0.504 OA
ATOM     21  H   UNL     1     161.745 161.745 155.708  1.00  0.00     0.293 HD
ENDBRANCH  17  20
ENDBRANCH   1  12
BRANCH   6  22
ATOM     22  O   UNL     1     152.875 161.676 159.122  1.00  0.00    -0.507 OA
ATOM     23  H   UNL     1     152.607 162.646 159.173  1.00  0.00     0.293 HD
ENDBRANCH   6  22
BRANCH   8  24
ATOM     24  O   UNL     1     152.876 157.866 156.225  1.00  0.00    -0.508 OA
ATOM     25  H   UNL     1     153.452 157.069 155.978  1.00  0.00     0.293 HD
ENDBRANCH   8  24
TORSDOF 5
ENDMDL
MODEL 5
REMARK VINA RESULT:     5.041      1.608      6.807
REMARK INTER + INTRA:           5.635
REMARK INTER:                   5.922
REMARK INTRA:                  -0.287
REMARK UNBOUND:                -0.290
REMARK SMILES O=c1cc(-c2ccc(O)c(O)c2)oc2cc(O)cc(O)c12
REMARK SMILES IDX 4 1 3 2 2 3 1 4 21 5 19 6 18 7 16 8 15 9 14 10 13 11 5 12
REMARK SMILES IDX 6 13 7 14 8 15 12 16 10 17 9 18 11 20 20 22 17 24
REMARK H PARENT 9 19 11 21 20 23 17 25
REMARK Flexibility Score: inf
ROOT
ATOM      1  C   UNL     1     167.544 165.070 152.835  1.00  0.00     0.138 A 
ATOM      2  C   UNL     1     168.368 163.936 152.847  1.00  0.00     0.100 A 
ATOM      3  C   UNL     1     168.529 163.188 151.681  1.00  0.00     0.197 A 
ATOM      4  O   UNL     1     169.224 162.141 151.738  1.00  0.00    -0.289 OA
ATOM      5  C   UNL     1     167.887 163.597 150.488  1.00  0.00     0.107 A 
ATOM      6  C   UNL     1     168.010 162.936 149.229  1.00  0.00     0.134 A 
ATOM      7  C   UNL     1     167.235 163.364 148.145  1.00  0.00     0.093 A 
ATOM      8  C   UNL     1     166.387 164.465 148.256  1.00  0.00     0.123 A 
ATOM      9  C   UNL     1     166.298 165.153 149.468  1.00  0.00     0.094 A 
ATOM     10  C   UNL     1     167.032 164.728 150.577  1.00  0.00     0.146 A 
ATOM     11  O   UNL     1     166.908 165.401 151.717  1.00  0.00    -0.456 OA
ENDROOT
BRANCH   1  12
ATOM     12  C   UNL     1     167.338 165.902 154.048  1.00  0.00     0.021 A 
ATOM     13  C   UNL     1     166.989 165.331 155.286  1.00  0.00     0.016 A 
ATOM     14  C   UNL     1     166.812 166.138 156.414  1.00  0.00     0.051 A 
ATOM     15  C   UNL     1     166.988 167.524 156.327  1.00  0.00     0.157 A 
ATOM     16  C   UNL     1     167.526 167.295 153.972  1.00  0.00     0.062 A 
ATOM     17  C   UNL     1     167.348 168.104 155.100  1.00  0.00     0.158 A 
BRANCH  15  18
ATOM     18  O   UNL     1     166.809 168.325 157.454  1.00  0.00    -0.504 OA
ATOM     19  H   UNL     1     167.407 169.123 157.638  1.00  0.00     0.293 HD
ENDBRANCH  15  18
BRANCH  17  20
ATOM     20  O   UNL     1     167.535 169.481 154.981  1.00  0.00    -0.504 OA
ATOM     21  H   UNL     1     168.403 169.879 154.643  1.00  0.00     0.293 HD
ENDBRANCH  17  20
ENDBRANCH   1  12
BRANCH   6  22
ATOM     22  O   UNL     1     168.893 161.879 148.987  1.00  0.00    -0.507 OA
ATOM     23  H   UNL     1     168.632 160.986 148.599  1.00  0.00     0.293 HD
ENDBRANCH   6  22
BRANCH   8  24
ATOM     24  O   UNL     1     165.641 164.872 147.151  1.00  0.00    -0.508 OA
ATOM     25  H   UNL     1     164.642 164.706 147.096  1.00  0.00     0.293 HD
ENDBRANCH   8  24
TORSDOF 5
ENDMDL
