MODEL 1
REMARK VINA RESULT:    36.645      0.000      0.000
REMARK INTER + INTRA:          50.080
REMARK INTER:                  48.428
REMARK INTRA:                   1.652
REMARK UNBOUND:                 1.652
REMARK SMILES CC[C@@H](C=C[C@H](C)[C@@H]1CC[C@H]2[C@@H]3CC[C@H]4C[C@H](O)CC[C@]4(C)[C@H]3CC[C@]21C)C(C)C
REMARK SMILES IDX 6 1 7 2 5 3 4 4 3 5 2 6 1 7 28 8 29 9 30 10 8 11 9 12 26 13
REMARK SMILES IDX 10 14 11 15 25 16 27 17 12 18 24 19 23 20 13 21 21 22 14 23
REMARK SMILES IDX 15 24 20 25 22 26 16 27 19 28 17 29 18 30
REMARK H PARENT 18 31
REMARK Flexibility Score: inf
ROOT
ATOM      1  C   UNL     1      15.542  13.590  39.000  1.00  0.00     0.012 C 
ATOM      2  C   UNL     1      15.099  13.457  40.469  1.00  0.00     0.012 C 
ENDROOT
BRANCH   1   3
ATOM      3  C   UNL     1      17.048  13.431  38.915  1.00  0.00    -0.028 C 
ATOM      4  C   UNL     1      17.879  13.233  39.958  1.00  0.00    -0.027 C 
BRANCH   4   5
ATOM      5  C   UNL     1      17.467  13.189  41.422  1.00  0.00     0.014 C 
BRANCH   5   6
ATOM      6  C   UNL     1      18.389  14.125  42.251  1.00  0.00     0.004 C 
ATOM      7  C   UNL     1      19.314  13.387  43.226  1.00  0.00     0.004 C 
ENDBRANCH   5   6
BRANCH   5   8
ATOM      8  C   UNL     1      17.423  11.716  41.943  1.00  0.00    -0.011 C 
ATOM      9  C   UNL     1      18.696  10.948  41.532  1.00  0.00     0.008 C 
ATOM     10  C   UNL     1      16.194  10.949  41.423  1.00  0.00     0.008 C 
ENDBRANCH   5   8
ENDBRANCH   4   5
ENDBRANCH   1   3
BRANCH   1  11
ATOM     11  C   UNL     1      14.801  12.709  37.932  1.00  0.00     0.002 C 
ATOM     12  C   UNL     1      15.158  11.228  38.033  1.00  0.00     0.005 C 
ATOM     13  C   UNL     1      14.820  13.041  36.394  1.00  0.00    -0.026 C 
ATOM     14  C   UNL     1      14.529  10.604  36.809  1.00  0.00     0.005 C 
ATOM     15  C   UNL     1      14.693  11.643  35.691  1.00  0.00    -0.001 C 
ATOM     16  C   UNL     1      13.614  13.950  36.016  1.00  0.00     0.007 C 
ATOM     17  C   UNL     1      16.139  13.710  35.939  1.00  0.00     0.012 C 
ATOM     18  C   UNL     1      13.559  11.532  34.623  1.00  0.00    -0.004 C 
ATOM     19  C   UNL     1      13.446  14.118  34.499  1.00  0.00     0.005 C 
ATOM     20  C   UNL     1      13.559  12.784  33.696  1.00  0.00    -0.001 C 
ATOM     21  C   UNL     1      13.749  10.233  33.801  1.00  0.00     0.004 C 
ATOM     22  C   UNL     1      12.529  12.681  32.504  1.00  0.00    -0.026 C 
ATOM     23  C   UNL     1      12.755  10.116  32.646  1.00  0.00     0.004 C 
ATOM     24  C   UNL     1      12.834  11.353  31.733  1.00  0.00    -0.002 C 
ATOM     25  C   UNL     1      12.733  13.902  31.530  1.00  0.00     0.010 C 
ATOM     26  C   UNL     1      11.055  12.684  33.026  1.00  0.00     0.012 C 
ATOM     27  C   UNL     1      11.953  11.162  30.471  1.00  0.00     0.036 C 
ATOM     28  C   UNL     1      12.717  13.551  30.028  1.00  0.00     0.032 C 
ATOM     29  C   UNL     1      11.681  12.475  29.699  1.00  0.00     0.114 C 
BRANCH  29  30
ATOM     30  O   UNL     1      11.700  12.230  28.315  1.00  0.00    -0.393 OA
ATOM     31  H   UNL     1      11.741  11.245  28.202  1.00  0.00     0.210 HD
ENDBRANCH  29  30
ENDBRANCH   1  11
TORSDOF 6
ENDMDL
MODEL 2
REMARK VINA RESULT:    37.291      1.346      2.821
REMARK INTER + INTRA:          50.934
REMARK INTER:                  37.539
REMARK INTRA:                  13.395
REMARK UNBOUND:                 1.652
REMARK SMILES CC[C@@H](C=C[C@H](C)[C@@H]1CC[C@H]2[C@@H]3CC[C@H]4C[C@H](O)CC[C@]4(C)[C@H]3CC[C@]21C)C(C)C
REMARK SMILES IDX 6 1 7 2 5 3 4 4 3 5 2 6 1 7 28 8 29 9 30 10 8 11 9 12 26 13
REMARK SMILES IDX 10 14 11 15 25 16 27 17 12 18 24 19 23 20 13 21 21 22 14 23
REMARK SMILES IDX 15 24 20 25 22 26 16 27 19 28 17 29 18 30
REMARK H PARENT 18 31
REMARK Flexibility Score: inf
ROOT
ATOM      1  C   UNL     1      15.613  11.705  40.628  1.00  0.00     0.012 C 
ATOM      2  C   UNL     1      16.783  11.105  41.429  1.00  0.00     0.012 C 
ENDROOT
BRANCH   1   3
ATOM      3  C   UNL     1      15.079  12.923  41.358  1.00  0.00    -0.028 C 
ATOM      4  C   UNL     1      15.818  13.955  41.813  1.00  0.00    -0.027 C 
BRANCH   4   5
ATOM      5  C   UNL     1      17.332  14.064  41.729  1.00  0.00     0.014 C 
BRANCH   5   6
ATOM      6  C   UNL     1      17.827  13.440  40.396  1.00  0.00     0.004 C 
ATOM      7  C   UNL     1      18.844  12.307  40.576  1.00  0.00     0.004 C 
ENDBRANCH   5   6
BRANCH   5   8
ATOM      8  C   UNL     1      18.005  13.457  43.002  1.00  0.00    -0.011 C 
ATOM      9  C   UNL     1      19.491  13.137  42.741  1.00  0.00     0.008 C 
ATOM     10  C   UNL     1      17.301  12.174  43.480  1.00  0.00     0.008 C 
ENDBRANCH   5   8
ENDBRANCH   4   5
ENDBRANCH   1   3
BRANCH   1  11
ATOM     11  C   UNL     1      15.847  11.996  39.102  1.00  0.00     0.002 C 
ATOM     12  C   UNL     1      17.067  12.877  38.845  1.00  0.00     0.005 C 
ATOM     13  C   UNL     1      14.718  12.558  38.160  1.00  0.00    -0.026 C 
ATOM     14  C   UNL     1      16.988  13.212  37.374  1.00  0.00     0.005 C 
ATOM     15  C   UNL     1      15.493  13.388  37.076  1.00  0.00    -0.001 C 
ATOM     16  C   UNL     1      13.933  11.391  37.493  1.00  0.00     0.007 C 
ATOM     17  C   UNL     1      13.732  13.496  38.896  1.00  0.00     0.012 C 
ATOM     18  C   UNL     1      15.150  13.035  35.593  1.00  0.00    -0.004 C 
ATOM     19  C   UNL     1      12.977  11.870  36.390  1.00  0.00     0.005 C 
ATOM     20  C   UNL     1      13.609  12.904  35.406  1.00  0.00    -0.001 C 
ATOM     21  C   UNL     1      15.732  14.122  34.656  1.00  0.00     0.004 C 
ATOM     22  C   UNL     1      13.177  12.685  33.904  1.00  0.00    -0.026 C 
ATOM     23  C   UNL     1      15.327  13.921  33.196  1.00  0.00     0.004 C 
ATOM     24  C   UNL     1      13.795  13.851  33.062  1.00  0.00    -0.002 C 
ATOM     25  C   UNL     1      11.607  12.747  33.797  1.00  0.00     0.010 C 
ATOM     26  C   UNL     1      13.671  11.301  33.367  1.00  0.00     0.012 C 
ATOM     27  C   UNL     1      13.374  13.817  31.569  1.00  0.00     0.036 C 
ATOM     28  C   UNL     1      11.063  13.564  32.608  1.00  0.00     0.032 C 
ATOM     29  C   UNL     1      11.908  13.378  31.347  1.00  0.00     0.114 C 
BRANCH  29  30
ATOM     30  O   UNL     1      11.338  14.123  30.300  1.00  0.00    -0.393 OA
ATOM     31  H   UNL     1      12.051  14.721  29.956  1.00  0.00     0.210 HD
ENDBRANCH  29  30
ENDBRANCH   1  11
TORSDOF 6
ENDMDL
MODEL 3
REMARK VINA RESULT:    38.924      3.435      9.514
REMARK INTER + INTRA:          53.092
REMARK INTER:                  52.940
REMARK INTRA:                   0.152
REMARK UNBOUND:                 1.652
REMARK SMILES CC[C@@H](C=C[C@H](C)[C@@H]1CC[C@H]2[C@@H]3CC[C@H]4C[C@H](O)CC[C@]4(C)[C@H]3CC[C@]21C)C(C)C
REMARK SMILES IDX 6 1 7 2 5 3 4 4 3 5 2 6 1 7 28 8 29 9 30 10 8 11 9 12 26 13
REMARK SMILES IDX 10 14 11 15 25 16 27 17 12 18 24 19 23 20 13 21 21 22 14 23
REMARK SMILES IDX 15 24 20 25 22 26 16 27 19 28 17 29 18 30
REMARK H PARENT 18 31
REMARK Flexibility Score: inf
ROOT
ATOM      1  C   UNL     1      13.295  11.103  33.073  1.00  0.00     0.012 C 
ATOM      2  C   UNL     1      14.706  10.898  32.490  1.00  0.00     0.012 C 
ENDROOT
BRANCH   1   3
ATOM      3  C   UNL     1      12.439   9.894  32.748  1.00  0.00    -0.028 C 
ATOM      4  C   UNL     1      12.505   9.164  31.617  1.00  0.00    -0.027 C 
BRANCH   4   5
ATOM      5  C   UNL     1      13.411   9.450  30.430  1.00  0.00     0.014 C 
BRANCH   5   6
ATOM      6  C   UNL     1      12.657  10.332  29.398  1.00  0.00     0.004 C 
ATOM      7  C   UNL     1      11.143  10.090  29.357  1.00  0.00     0.004 C 
ENDBRANCH   5   6
BRANCH   5   8
ATOM      8  C   UNL     1      13.982   8.123  29.833  1.00  0.00    -0.011 C 
ATOM      9  C   UNL     1      14.156   7.055  30.932  1.00  0.00     0.008 C 
ATOM     10  C   UNL     1      15.337   8.334  29.131  1.00  0.00     0.008 C 
ENDBRANCH   5   8
ENDBRANCH   4   5
ENDBRANCH   1   3
BRANCH   1  11
ATOM     11  C   UNL     1      13.183  11.508  34.586  1.00  0.00     0.002 C 
ATOM     12  C   UNL     1      12.006  12.440  34.866  1.00  0.00     0.005 C 
ATOM     13  C   UNL     1      14.392  12.103  35.400  1.00  0.00    -0.026 C 
ATOM     14  C   UNL     1      12.203  12.877  36.299  1.00  0.00     0.005 C 
ATOM     15  C   UNL     1      13.720  13.030  36.474  1.00  0.00    -0.001 C 
ATOM     16  C   UNL     1      15.197  10.965  36.092  1.00  0.00     0.007 C 
ATOM     17  C   UNL     1      15.342  12.957  34.527  1.00  0.00     0.012 C 
ATOM     18  C   UNL     1      14.163  12.774  37.950  1.00  0.00    -0.004 C 
ATOM     19  C   UNL     1      16.244  11.493  37.084  1.00  0.00     0.005 C 
ATOM     20  C   UNL     1      15.711  12.612  38.033  1.00  0.00    -0.001 C 
ATOM     21  C   UNL     1      13.679  13.941  38.845  1.00  0.00     0.004 C 
ATOM     22  C   UNL     1      16.249  12.488  39.512  1.00  0.00    -0.026 C 
ATOM     23  C   UNL     1      14.187  13.832  40.282  1.00  0.00     0.004 C 
ATOM     24  C   UNL     1      15.723  13.728  40.309  1.00  0.00    -0.002 C 
ATOM     25  C   UNL     1      17.824  12.512  39.499  1.00  0.00     0.010 C 
ATOM     26  C   UNL     1      15.764  11.161  40.183  1.00  0.00     0.012 C 
ATOM     27  C   UNL     1      16.253  13.788  41.766  1.00  0.00     0.036 C 
ATOM     28  C   UNL     1      18.474  13.396  40.583  1.00  0.00     0.032 C 
ATOM     29  C   UNL     1      17.721  13.324  41.912  1.00  0.00     0.114 C 
BRANCH  29  30
ATOM     30  O   UNL     1      18.385  14.125  42.858  1.00  0.00    -0.393 OA
ATOM     31  H   UNL     1      19.276  14.334  42.478  1.00  0.00     0.210 HD
ENDBRANCH  29  30
ENDBRANCH   1  11
TORSDOF 6
ENDMDL
MODEL 4
REMARK VINA RESULT:    38.933      1.607      2.660
REMARK INTER + INTRA:          53.103
REMARK INTER:                  52.283
REMARK INTRA:                   0.820
REMARK UNBOUND:                 1.652
REMARK SMILES CC[C@@H](C=C[C@H](C)[C@@H]1CC[C@H]2[C@@H]3CC[C@H]4C[C@H](O)CC[C@]4(C)[C@H]3CC[C@]21C)C(C)C
REMARK SMILES IDX 6 1 7 2 5 3 4 4 3 5 2 6 1 7 28 8 29 9 30 10 8 11 9 12 26 13
REMARK SMILES IDX 10 14 11 15 25 16 27 17 12 18 24 19 23 20 13 21 21 22 14 23
REMARK SMILES IDX 15 24 20 25 22 26 16 27 19 28 17 29 18 30
REMARK H PARENT 18 31
REMARK Flexibility Score: inf
ROOT
ATOM      1  C   UNL     1      16.737  14.122  40.301  1.00  0.00     0.012 C 
ATOM      2  C   UNL     1      16.325  13.770  41.742  1.00  0.00     0.012 C 
ENDROOT
BRANCH   1   3
ATOM      3  C   UNL     1      17.965  13.317  39.921  1.00  0.00    -0.028 C 
ATOM      4  C   UNL     1      18.499  12.309  40.639  1.00  0.00    -0.027 C 
BRANCH   4   5
ATOM      5  C   UNL     1      18.002  11.828  41.994  1.00  0.00     0.014 C 
BRANCH   5   6
ATOM      6  C   UNL     1      19.078  12.118  43.076  1.00  0.00     0.004 C 
ATOM      7  C   UNL     1      19.355  13.609  43.299  1.00  0.00     0.004 C 
ENDBRANCH   5   6
BRANCH   5   8
ATOM      8  C   UNL     1      17.558  10.331  41.925  1.00  0.00    -0.011 C 
ATOM      9  C   UNL     1      18.323   9.580  40.815  1.00  0.00     0.008 C 
ATOM     10  C   UNL     1      16.047  10.181  41.670  1.00  0.00     0.008 C 
ENDBRANCH   5   8
ENDBRANCH   4   5
ENDBRANCH   1   3
BRANCH   1  11
ATOM     11  C   UNL     1      15.630  14.058  39.188  1.00  0.00     0.002 C 
ATOM     12  C   UNL     1      14.214  14.125  39.755  1.00  0.00     0.005 C 
ATOM     13  C   UNL     1      15.590  12.929  38.092  1.00  0.00    -0.026 C 
ATOM     14  C   UNL     1      13.320  13.830  38.573  1.00  0.00     0.005 C 
ATOM     15  C   UNL     1      14.066  12.770  37.751  1.00  0.00    -0.001 C 
ATOM     16  C   UNL     1      16.387  13.367  36.829  1.00  0.00     0.007 C 
ATOM     17  C   UNL     1      16.131  11.573  38.605  1.00  0.00     0.012 C 
ATOM     18  C   UNL     1      13.708  12.853  36.233  1.00  0.00    -0.004 C 
ATOM     19  C   UNL     1      16.193  12.413  35.641  1.00  0.00     0.005 C 
ATOM     20  C   UNL     1      14.707  12.004  35.391  1.00  0.00    -0.001 C 
ATOM     21  C   UNL     1      12.252  12.372  36.018  1.00  0.00     0.004 C 
ATOM     22  C   UNL     1      14.327  11.927  33.860  1.00  0.00    -0.026 C 
ATOM     23  C   UNL     1      11.867  12.297  34.542  1.00  0.00     0.004 C 
ATOM     24  C   UNL     1      12.854  11.404  33.767  1.00  0.00    -0.002 C 
ATOM     25  C   UNL     1      15.284  10.907  33.135  1.00  0.00     0.010 C 
ATOM     26  C   UNL     1      14.456  13.326  33.173  1.00  0.00     0.012 C 
ATOM     27  C   UNL     1      12.373  11.189  32.309  1.00  0.00     0.036 C 
ATOM     28  C   UNL     1      14.589   9.943  32.152  1.00  0.00     0.032 C 
ATOM     29  C   UNL     1      13.468  10.628  31.370  1.00  0.00     0.114 C 
BRANCH  29  30
ATOM     30  O   UNL     1      12.903   9.703  30.474  1.00  0.00    -0.393 OA
ATOM     31  H   UNL     1      13.503   9.669  29.685  1.00  0.00     0.210 HD
ENDBRANCH  29  30
ENDBRANCH   1  11
TORSDOF 6
ENDMDL
