MODEL 1
REMARK VINA RESULT:    -5.457      0.000      0.000
REMARK INTER + INTRA:          -6.814
REMARK INTER:                  -6.733
REMARK INTRA:                  -0.081
REMARK UNBOUND:                -0.081
REMARK SMILES CCCCCC(=O)[O-]
REMARK SMILES IDX 4 1 5 2 6 3 7 4 8 5 3 6 2 7 1 8
REMARK H PARENT
REMARK Flexibility Score: inf
ROOT
ATOM      1  C   UNL     1      27.006  -4.701  18.822  1.00  0.00     0.006 C 
ENDROOT
BRANCH   1   2
ATOM      2  C   UNL     1      27.664  -3.496  19.505  1.00  0.00     0.053 C 
BRANCH   2   3
ATOM      3  C   UNL     1      29.154  -3.511  19.345  1.00  0.00     0.041 C 
ATOM      4  O   UNL     1      29.882  -2.858  20.137  1.00  0.00    -0.550 OA
ATOM      5  O   UNL     1      29.735  -4.219  18.300  1.00  0.00    -0.550 OA
ENDBRANCH   2   3
ENDBRANCH   1   2
BRANCH   1   6
ATOM      6  C   UNL     1      26.631  -5.804  19.823  1.00  0.00     0.000 C 
BRANCH   6   7
ATOM      7  C   UNL     1      26.736  -7.191  19.176  1.00  0.00    -0.003 C 
ATOM      8  C   UNL     1      26.735  -8.292  20.232  1.00  0.00     0.004 C 
ENDBRANCH   6   7
ENDBRANCH   1   6
TORSDOF 4
ENDMDL
MODEL 2
REMARK VINA RESULT:    -5.450      0.095      1.148
REMARK INTER + INTRA:          -6.806
REMARK INTER:                  -6.723
REMARK INTRA:                  -0.083
REMARK UNBOUND:                -0.081
REMARK SMILES CCCCCC(=O)[O-]
REMARK SMILES IDX 4 1 5 2 6 3 7 4 8 5 3 6 2 7 1 8
REMARK H PARENT
REMARK Flexibility Score: inf
ROOT
ATOM      1  C   UNL     1      26.958  -4.749  18.777  1.00  0.00     0.006 C 
ENDROOT
BRANCH   1   2
ATOM      2  C   UNL     1      27.643  -3.531  19.408  1.00  0.00     0.053 C 
BRANCH   2   3
ATOM      3  C   UNL     1      29.129  -3.567  19.219  1.00  0.00     0.041 C 
ATOM      4  O   UNL     1      29.629  -4.213  18.262  1.00  0.00    -0.550 OA
ATOM      5  O   UNL     1      29.962  -2.915  20.121  1.00  0.00    -0.550 OA
ENDBRANCH   2   3
ENDBRANCH   1   2
BRANCH   1   6
ATOM      6  C   UNL     1      26.661  -5.849  19.807  1.00  0.00     0.000 C 
BRANCH   6   7
ATOM      7  C   UNL     1      26.685  -7.235  19.153  1.00  0.00    -0.003 C 
ATOM      8  C   UNL     1      26.703  -8.341  20.204  1.00  0.00     0.004 C 
ENDBRANCH   6   7
ENDBRANCH   1   6
TORSDOF 4
ENDMDL
MODEL 3
REMARK VINA RESULT:    -5.417      2.633      4.435
REMARK INTER + INTRA:          -6.765
REMARK INTER:                  -6.687
REMARK INTRA:                  -0.078
REMARK UNBOUND:                -0.081
REMARK SMILES CCCCCC(=O)[O-]
REMARK SMILES IDX 4 1 5 2 6 3 7 4 8 5 3 6 2 7 1 8
REMARK H PARENT
REMARK Flexibility Score: inf
ROOT
ATOM      1  C   UNL     1      27.212  -2.128  20.404  1.00  0.00     0.006 C 
ENDROOT
BRANCH   1   2
ATOM      2  C   UNL     1      27.579  -3.184  19.355  1.00  0.00     0.053 C 
BRANCH   2   3
ATOM      3  C   UNL     1      29.059  -3.398  19.274  1.00  0.00     0.041 C 
ATOM      4  O   UNL     1      29.824  -2.855  20.114  1.00  0.00    -0.550 OA
ATOM      5  O   UNL     1      29.597  -4.170  18.251  1.00  0.00    -0.550 OA
ENDBRANCH   2   3
ENDBRANCH   1   2
BRANCH   1   6
ATOM      6  C   UNL     1      26.576  -0.879  19.776  1.00  0.00     0.000 C 
BRANCH   6   7
ATOM      7  C   UNL     1      25.046  -0.942  19.859  1.00  0.00    -0.003 C 
ATOM      8  C   UNL     1      24.418   0.395  19.475  1.00  0.00     0.004 C 
ENDBRANCH   6   7
ENDBRANCH   1   6
TORSDOF 4
ENDMDL
MODEL 4
REMARK VINA RESULT:    -5.292      2.672      4.573
REMARK INTER + INTRA:          -6.611
REMARK INTER:                  -6.538
REMARK INTRA:                  -0.073
REMARK UNBOUND:                -0.081
REMARK SMILES CCCCCC(=O)[O-]
REMARK SMILES IDX 4 1 5 2 6 3 7 4 8 5 3 6 2 7 1 8
REMARK H PARENT
REMARK Flexibility Score: inf
ROOT
ATOM      1  C   UNL     1      27.510  -1.847  20.469  1.00  0.00     0.006 C 
ENDROOT
BRANCH   1   2
ATOM      2  C   UNL     1      27.486  -3.115  19.607  1.00  0.00     0.053 C 
BRANCH   2   3
ATOM      3  C   UNL     1      28.868  -3.597  19.287  1.00  0.00     0.041 C 
ATOM      4  O   UNL     1      29.065  -4.334  18.286  1.00  0.00    -0.550 OA
ATOM      5  O   UNL     1      29.933  -3.258  20.114  1.00  0.00    -0.550 OA
ENDBRANCH   2   3
ENDBRANCH   1   2
BRANCH   1   6
ATOM      6  C   UNL     1      26.704  -0.701  19.840  1.00  0.00     0.000 C 
BRANCH   6   7
ATOM      7  C   UNL     1      25.206  -1.027  19.823  1.00  0.00    -0.003 C 
ATOM      8  C   UNL     1      24.373   0.223  19.555  1.00  0.00     0.004 C 
ENDBRANCH   6   7
ENDBRANCH   1   6
TORSDOF 4
ENDMDL
MODEL 5
REMARK VINA RESULT:    -4.959      2.382      4.370
REMARK INTER + INTRA:          -6.199
REMARK INTER:                  -6.084
REMARK INTRA:                  -0.116
REMARK UNBOUND:                -0.081
REMARK SMILES CCCCCC(=O)[O-]
REMARK SMILES IDX 4 1 5 2 6 3 7 4 8 5 3 6 2 7 1 8
REMARK H PARENT
REMARK Flexibility Score: inf
ROOT
ATOM      1  C   UNL     1      27.833  -2.630  19.765  1.00  0.00     0.006 C 
ENDROOT
BRANCH   1   2
ATOM      2  C   UNL     1      26.956  -3.872  19.565  1.00  0.00     0.053 C 
BRANCH   2   3
ATOM      3  C   UNL     1      27.645  -4.913  18.736  1.00  0.00     0.041 C 
ATOM      4  O   UNL     1      27.140  -6.059  18.613  1.00  0.00    -0.550 OA
ATOM      5  O   UNL     1      28.860  -4.625  18.127  1.00  0.00    -0.550 OA
ENDBRANCH   2   3
ENDBRANCH   1   2
BRANCH   1   6
ATOM      6  C   UNL     1      27.013  -1.331  19.759  1.00  0.00     0.000 C 
BRANCH   6   7
ATOM      7  C   UNL     1      25.520  -1.624  19.948  1.00  0.00    -0.003 C 
ATOM      8  C   UNL     1      24.684  -0.360  19.772  1.00  0.00     0.004 C 
ENDBRANCH   6   7
ENDBRANCH   1   6
TORSDOF 4
ENDMDL
MODEL 6
REMARK VINA RESULT:    -4.958      1.219      1.897
REMARK INTER + INTRA:          -6.198
REMARK INTER:                  -6.080
REMARK INTRA:                  -0.119
REMARK UNBOUND:                -0.081
REMARK SMILES CCCCCC(=O)[O-]
REMARK SMILES IDX 4 1 5 2 6 3 7 4 8 5 3 6 2 7 1 8
REMARK H PARENT
REMARK Flexibility Score: inf
ROOT
ATOM      1  C   UNL     1      26.433  -3.041  19.578  1.00  0.00     0.006 C 
ENDROOT
BRANCH   1   2
ATOM      2  C   UNL     1      27.860  -3.236  19.051  1.00  0.00     0.053 C 
BRANCH   2   3
ATOM      3  C   UNL     1      28.877  -2.600  19.949  1.00  0.00     0.041 C 
ATOM      4  O   UNL     1      30.025  -3.105  20.063  1.00  0.00    -0.550 OA
ATOM      5  O   UNL     1      28.546  -1.469  20.686  1.00  0.00    -0.550 OA
ENDBRANCH   2   3
ENDBRANCH   1   2
BRANCH   1   6
ATOM      6  C   UNL     1      25.679  -4.371  19.722  1.00  0.00     0.000 C 
BRANCH   6   7
ATOM      7  C   UNL     1      26.652  -5.556  19.724  1.00  0.00    -0.003 C 
ATOM      8  C   UNL     1      25.904  -6.883  19.815  1.00  0.00     0.004 C 
ENDBRANCH   6   7
ENDBRANCH   1   6
TORSDOF 4
ENDMDL
MODEL 7
REMARK VINA RESULT:    -4.865      3.574      5.195
REMARK INTER + INTRA:          -6.083
REMARK INTER:                  -5.947
REMARK INTRA:                  -0.136
REMARK UNBOUND:                -0.081
REMARK SMILES CCCCCC(=O)[O-]
REMARK SMILES IDX 4 1 5 2 6 3 7 4 8 5 3 6 2 7 1 8
REMARK H PARENT
REMARK Flexibility Score: inf
ROOT
ATOM      1  C   UNL     1      25.939  -2.091  20.324  1.00  0.00     0.006 C 
ENDROOT
BRANCH   1   2
ATOM      2  C   UNL     1      27.157  -1.925  19.406  1.00  0.00     0.053 C 
BRANCH   2   3
ATOM      3  C   UNL     1      28.435  -1.849  20.184  1.00  0.00     0.041 C 
ATOM      4  O   UNL     1      29.300  -2.756  20.071  1.00  0.00    -0.550 OA
ATOM      5  O   UNL     1      28.654  -0.793  21.061  1.00  0.00    -0.550 OA
ENDBRANCH   2   3
ENDBRANCH   1   2
BRANCH   1   6
ATOM      6  C   UNL     1      24.740  -1.253  19.857  1.00  0.00     0.000 C 
BRANCH   6   7
ATOM      7  C   UNL     1      25.106   0.234  19.777  1.00  0.00    -0.003 C 
ATOM      8  C   UNL     1      24.018   1.032  19.065  1.00  0.00     0.004 C 
ENDBRANCH   6   7
ENDBRANCH   1   6
TORSDOF 4
ENDMDL
MODEL 8
REMARK VINA RESULT:    -4.779      2.280      2.978
REMARK INTER + INTRA:          -5.978
REMARK INTER:                  -5.775
REMARK INTRA:                  -0.203
REMARK UNBOUND:                -0.081
REMARK SMILES CCCCCC(=O)[O-]
REMARK SMILES IDX 4 1 5 2 6 3 7 4 8 5 3 6 2 7 1 8
REMARK H PARENT
REMARK Flexibility Score: inf
ROOT
ATOM      1  C   UNL     1      28.620  -3.907  19.565  1.00  0.00     0.006 C 
ENDROOT
BRANCH   1   2
ATOM      2  C   UNL     1      28.994  -2.472  19.170  1.00  0.00     0.053 C 
BRANCH   2   3
ATOM      3  C   UNL     1      28.135  -1.461  19.865  1.00  0.00     0.041 C 
ATOM      4  O   UNL     1      27.063  -1.069  19.334  1.00  0.00    -0.550 OA
ATOM      5  O   UNL     1      28.535  -0.928  21.085  1.00  0.00    -0.550 OA
ENDBRANCH   2   3
ENDBRANCH   1   2
BRANCH   1   6
ATOM      6  C   UNL     1      27.721  -4.583  18.519  1.00  0.00     0.000 C 
BRANCH   6   7
ATOM      7  C   UNL     1      26.517  -5.260  19.184  1.00  0.00    -0.003 C 
ATOM      8  C   UNL     1      25.359  -4.282  19.353  1.00  0.00     0.004 C 
ENDBRANCH   6   7
ENDBRANCH   1   6
TORSDOF 4
ENDMDL
MODEL 9
REMARK VINA RESULT:    -4.665      3.598      4.996
REMARK INTER + INTRA:          -5.837
REMARK INTER:                  -5.694
REMARK INTRA:                  -0.143
REMARK UNBOUND:                -0.081
REMARK SMILES CCCCCC(=O)[O-]
REMARK SMILES IDX 4 1 5 2 6 3 7 4 8 5 3 6 2 7 1 8
REMARK H PARENT
REMARK Flexibility Score: inf
ROOT
ATOM      1  C   UNL     1      26.671  -6.221  18.979  1.00  0.00     0.006 C 
ENDROOT
BRANCH   1   2
ATOM      2  C   UNL     1      26.145  -7.025  20.175  1.00  0.00     0.053 C 
BRANCH   2   3
ATOM      3  C   UNL     1      24.651  -6.966  20.271  1.00  0.00     0.041 C 
ATOM      4  O   UNL     1      23.982  -6.381  19.380  1.00  0.00    -0.550 OA
ATOM      5  O   UNL     1      24.000  -7.530  21.362  1.00  0.00    -0.550 OA
ENDBRANCH   2   3
ENDBRANCH   1   2
BRANCH   1   6
ATOM      6  C   UNL     1      27.389  -4.935  19.413  1.00  0.00     0.000 C 
BRANCH   6   7
ATOM      7  C   UNL     1      26.409  -3.759  19.493  1.00  0.00    -0.003 C 
ATOM      8  C   UNL     1      27.137  -2.455  19.809  1.00  0.00     0.004 C 
ENDBRANCH   6   7
ENDBRANCH   1   6
TORSDOF 4
ENDMDL
