MODEL 1
REMARK VINA RESULT:    -3.708      0.000      0.000
REMARK INTER + INTRA:          -4.605
REMARK INTER:                  -4.575
REMARK INTRA:                  -0.029
REMARK UNBOUND:                -0.029
REMARK SMILES CCCCCC=O
REMARK SMILES IDX 4 1 3 2 2 3 1 4 5 5 6 6 7 7
REMARK H PARENT
REMARK Flexibility Score: inf
ROOT
ATOM      1  C   UNL     1      25.648  56.462  -8.523  1.00  0.00     0.008 C 
ENDROOT
BRANCH   1   2
ATOM      2  C   UNL     1      25.488  57.966  -8.816  1.00  0.00     0.000 C 
BRANCH   2   3
ATOM      3  C   UNL     1      26.663  58.543  -9.619  1.00  0.00    -0.003 C 
ATOM      4  C   UNL     1      26.847  60.030  -9.331  1.00  0.00     0.004 C 
ENDBRANCH   2   3
ENDBRANCH   1   2
BRANCH   1   5
ATOM      5  C   UNL     1      24.343  55.657  -8.635  1.00  0.00     0.072 C 
BRANCH   5   6
ATOM      6  C   UNL     1      23.686  55.451  -7.302  1.00  0.00     0.224 C 
ATOM      7  O   UNL     1      22.612  54.874  -7.222  1.00  0.00    -0.303 OA
ENDBRANCH   5   6
ENDBRANCH   1   5
TORSDOF 4
ENDMDL
MODEL 2
REMARK VINA RESULT:    -3.527      2.888      4.821
REMARK INTER + INTRA:          -4.381
REMARK INTER:                  -4.346
REMARK INTRA:                  -0.035
REMARK UNBOUND:                -0.029
REMARK SMILES CCCCCC=O
REMARK SMILES IDX 4 1 3 2 2 3 1 4 5 5 6 6 7 7
REMARK H PARENT
REMARK Flexibility Score: inf
ROOT
ATOM      1  C   UNL     1      25.873  57.349  -9.037  1.00  0.00     0.008 C 
ENDROOT
BRANCH   1   2
ATOM      2  C   UNL     1      24.465  56.802  -8.737  1.00  0.00     0.000 C 
BRANCH   2   3
ATOM      3  C   UNL     1      24.495  55.421  -8.064  1.00  0.00    -0.003 C 
ATOM      4  C   UNL     1      23.168  55.118  -7.374  1.00  0.00     0.004 C 
ENDBRANCH   2   3
ENDBRANCH   1   2
BRANCH   1   5
ATOM      5  C   UNL     1      25.949  58.882  -9.113  1.00  0.00     0.072 C 
BRANCH   5   6
ATOM      6  C   UNL     1      27.283  59.361  -9.608  1.00  0.00     0.224 C 
ATOM      7  O   UNL     1      27.798  58.854 -10.592  1.00  0.00    -0.303 OA
ENDBRANCH   5   6
ENDBRANCH   1   5
TORSDOF 4
ENDMDL
MODEL 3
REMARK VINA RESULT:    -3.287     16.494     17.674
REMARK INTER + INTRA:          -4.085
REMARK INTER:                  -3.938
REMARK INTRA:                  -0.146
REMARK UNBOUND:                -0.029
REMARK SMILES CCCCCC=O
REMARK SMILES IDX 4 1 3 2 2 3 1 4 5 5 6 6 7 7
REMARK H PARENT
REMARK Flexibility Score: inf
ROOT
ATOM      1  C   UNL     1      19.207  44.713   0.200  1.00  0.00     0.008 C 
ENDROOT
BRANCH   1   2
ATOM      2  C   UNL     1      17.678  44.544   0.109  1.00  0.00     0.000 C 
BRANCH   2   3
ATOM      3  C   UNL     1      17.072  43.936   1.383  1.00  0.00    -0.003 C 
ATOM      4  C   UNL     1      15.776  44.645   1.767  1.00  0.00     0.004 C 
ENDBRANCH   2   3
ENDBRANCH   1   2
BRANCH   1   5
ATOM      5  C   UNL     1      19.822  44.177   1.503  1.00  0.00     0.072 C 
BRANCH   5   6
ATOM      6  C   UNL     1      20.738  43.013   1.262  1.00  0.00     0.224 C 
ATOM      7  O   UNL     1      20.856  42.538   0.143  1.00  0.00    -0.303 OA
ENDBRANCH   5   6
ENDBRANCH   1   5
TORSDOF 4
ENDMDL
MODEL 4
REMARK VINA RESULT:    -3.247      1.813      2.748
REMARK INTER + INTRA:          -4.035
REMARK INTER:                  -3.984
REMARK INTRA:                  -0.051
REMARK UNBOUND:                -0.029
REMARK SMILES CCCCCC=O
REMARK SMILES IDX 4 1 3 2 2 3 1 4 5 5 6 6 7 7
REMARK H PARENT
REMARK Flexibility Score: inf
ROOT
ATOM      1  C   UNL     1      26.662  58.485  -9.727  1.00  0.00     0.008 C 
ENDROOT
BRANCH   1   2
ATOM      2  C   UNL     1      27.057  59.952  -9.476  1.00  0.00     0.000 C 
BRANCH   2   3
ATOM      3  C   UNL     1      28.206  60.422 -10.381  1.00  0.00    -0.003 C 
ATOM      4  C   UNL     1      29.506  59.701 -10.037  1.00  0.00     0.004 C 
ENDBRANCH   2   3
ENDBRANCH   1   2
BRANCH   1   5
ATOM      5  C   UNL     1      25.549  57.966  -8.802  1.00  0.00     0.072 C 
BRANCH   5   6
ATOM      6  C   UNL     1      25.443  56.469  -8.826  1.00  0.00     0.224 C 
ATOM      7  O   UNL     1      25.881  55.802  -7.901  1.00  0.00    -0.303 OA
ENDBRANCH   5   6
ENDBRANCH   1   5
TORSDOF 4
ENDMDL
MODEL 5
REMARK VINA RESULT:    -3.170     16.190     17.653
REMARK INTER + INTRA:          -3.941
REMARK INTER:                  -3.737
REMARK INTRA:                  -0.203
REMARK UNBOUND:                -0.029
REMARK SMILES CCCCCC=O
REMARK SMILES IDX 4 1 3 2 2 3 1 4 5 5 6 6 7 7
REMARK H PARENT
REMARK Flexibility Score: inf
ROOT
ATOM      1  C   UNL     1      18.551  43.886   2.248  1.00  0.00     0.008 C 
ENDROOT
BRANCH   1   2
ATOM      2  C   UNL     1      17.300  43.413   1.483  1.00  0.00     0.000 C 
BRANCH   2   3
ATOM      3  C   UNL     1      16.100  44.353   1.670  1.00  0.00    -0.003 C 
ATOM      4  C   UNL     1      15.804  45.128   0.390  1.00  0.00     0.004 C 
ENDBRANCH   2   3
ENDBRANCH   1   2
BRANCH   1   5
ATOM      5  C   UNL     1      19.818  43.984   1.382  1.00  0.00     0.072 C 
BRANCH   5   6
ATOM      6  C   UNL     1      19.518  44.446  -0.014  1.00  0.00     0.224 C 
ATOM      7  O   UNL     1      19.376  45.635  -0.256  1.00  0.00    -0.303 OA
ENDBRANCH   5   6
ENDBRANCH   1   5
TORSDOF 4
ENDMDL
MODEL 6
REMARK VINA RESULT:    -3.109     15.170     16.572
REMARK INTER + INTRA:          -3.865
REMARK INTER:                  -3.806
REMARK INTRA:                  -0.059
REMARK UNBOUND:                -0.029
REMARK SMILES CCCCCC=O
REMARK SMILES IDX 4 1 3 2 2 3 1 4 5 5 6 6 7 7
REMARK H PARENT
REMARK Flexibility Score: inf
ROOT
ATOM      1  C   UNL     1      31.642  45.178   0.815  1.00  0.00     0.008 C 
ENDROOT
BRANCH   1   2
ATOM      2  C   UNL     1      30.122  45.343   1.004  1.00  0.00     0.000 C 
BRANCH   2   3
ATOM      3  C   UNL     1      29.318  44.893  -0.225  1.00  0.00    -0.003 C 
ATOM      4  C   UNL     1      28.143  45.831  -0.488  1.00  0.00     0.004 C 
ENDBRANCH   2   3
ENDBRANCH   1   2
BRANCH   1   5
ATOM      5  C   UNL     1      32.419  44.972   2.125  1.00  0.00     0.072 C 
BRANCH   5   6
ATOM      6  C   UNL     1      32.971  46.258   2.666  1.00  0.00     0.224 C 
ATOM      7  O   UNL     1      32.266  47.007   3.325  1.00  0.00    -0.303 OA
ENDBRANCH   5   6
ENDBRANCH   1   5
TORSDOF 4
ENDMDL
MODEL 7
REMARK VINA RESULT:    -3.087     16.561     17.597
REMARK INTER + INTRA:          -3.838
REMARK INTER:                  -3.736
REMARK INTRA:                  -0.102
REMARK UNBOUND:                -0.029
REMARK SMILES CCCCCC=O
REMARK SMILES IDX 4 1 3 2 2 3 1 4 5 5 6 6 7 7
REMARK H PARENT
REMARK Flexibility Score: inf
ROOT
ATOM      1  C   UNL     1      17.725  44.435   0.231  1.00  0.00     0.008 C 
ENDROOT
BRANCH   1   2
ATOM      2  C   UNL     1      19.252  44.632   0.257  1.00  0.00     0.000 C 
BRANCH   2   3
ATOM      3  C   UNL     1      19.938  43.811   1.359  1.00  0.00    -0.003 C 
ATOM      4  C   UNL     1      20.833  42.729   0.761  1.00  0.00     0.004 C 
ENDBRANCH   2   3
ENDBRANCH   1   2
BRANCH   1   5
ATOM      5  C   UNL     1      17.114  44.072   1.595  1.00  0.00     0.072 C 
BRANCH   5   6
ATOM      6  C   UNL     1      15.712  44.584   1.744  1.00  0.00     0.224 C 
ATOM      7  O   UNL     1      15.293  45.468   1.012  1.00  0.00    -0.303 OA
ENDBRANCH   5   6
ENDBRANCH   1   5
TORSDOF 4
ENDMDL
MODEL 8
REMARK VINA RESULT:    -3.025     16.613     17.934
REMARK INTER + INTRA:          -3.762
REMARK INTER:                  -3.561
REMARK INTRA:                  -0.201
REMARK UNBOUND:                -0.029
REMARK SMILES CCCCCC=O
REMARK SMILES IDX 4 1 3 2 2 3 1 4 5 5 6 6 7 7
REMARK H PARENT
REMARK Flexibility Score: inf
ROOT
ATOM      1  C   UNL     1      19.178  44.580   0.230  1.00  0.00     0.008 C 
ENDROOT
BRANCH   1   2
ATOM      2  C   UNL     1      17.674  44.246   0.208  1.00  0.00     0.000 C 
BRANCH   2   3
ATOM      3  C   UNL     1      17.398  42.768  -0.108  1.00  0.00    -0.003 C 
ATOM      4  C   UNL     1      16.925  42.020   1.135  1.00  0.00     0.004 C 
ENDBRANCH   2   3
ENDBRANCH   1   2
BRANCH   1   5
ATOM      5  C   UNL     1      19.892  44.173   1.529  1.00  0.00     0.072 C 
BRANCH   5   6
ATOM      6  C   UNL     1      20.829  43.019   1.325  1.00  0.00     0.224 C 
ATOM      7  O   UNL     1      20.945  42.501   0.224  1.00  0.00    -0.303 OA
ENDBRANCH   5   6
ENDBRANCH   1   5
TORSDOF 4
ENDMDL
MODEL 9
REMARK VINA RESULT:    -3.011     15.883     17.543
REMARK INTER + INTRA:          -3.744
REMARK INTER:                  -3.564
REMARK INTRA:                  -0.180
REMARK UNBOUND:                -0.029
REMARK SMILES CCCCCC=O
REMARK SMILES IDX 4 1 3 2 2 3 1 4 5 5 6 6 7 7
REMARK H PARENT
REMARK Flexibility Score: inf
ROOT
ATOM      1  C   UNL     1      17.082  43.535   1.278  1.00  0.00     0.008 C 
ENDROOT
BRANCH   1   2
ATOM      2  C   UNL     1      18.469  43.861   1.864  1.00  0.00     0.000 C 
BRANCH   2   3
ATOM      3  C   UNL     1      19.561  43.957   0.788  1.00  0.00    -0.003 C 
ATOM      4  C   UNL     1      19.357  45.187  -0.093  1.00  0.00     0.004 C 
ENDBRANCH   2   3
ENDBRANCH   1   2
BRANCH   1   5
ATOM      5  C   UNL     1      15.961  44.470   1.760  1.00  0.00     0.072 C 
BRANCH   5   6
ATOM      6  C   UNL     1      15.378  45.282   0.641  1.00  0.00     0.224 C 
ATOM      7  O   UNL     1      15.884  45.259  -0.471  1.00  0.00    -0.303 OA
ENDBRANCH   5   6
ENDBRANCH   1   5
TORSDOF 4
ENDMDL
