MODEL 1
REMARK VINA RESULT:    -4.787      0.000      0.000
REMARK INTER + INTRA:          -5.207
REMARK INTER:                  -5.207
REMARK INTRA:                   0.000
REMARK UNBOUND:                 0.000
REMARK SMILES Cc1cc(O)c2c(c1)C(=O)c1cc(O)cc(O)c1C2=O
REMARK SMILES IDX 1 1 2 2 8 3 7 4 6 5 4 6 3 7 19 8 20 9 18 10 11 11 9 12 10 13
REMARK SMILES IDX 12 14 13 15 15 16 16 17 5 18 17 20 14 22
REMARK H PARENT 5 19 17 21 14 23
REMARK Flexibility Score: inf
ROOT
ATOM      1  C   UNL     1      -5.363 -26.586  14.775  1.00  0.00     0.044 C 
ATOM      2  C   UNL     1      -4.408 -27.362  13.915  1.00  0.00    -0.047 A 
ATOM      3  C   UNL     1      -4.862 -27.985  12.746  1.00  0.00     0.016 A 
ATOM      4  C   UNL     1      -3.969 -28.683  11.913  1.00  0.00     0.038 A 
ATOM      5  C   UNL     1      -2.602 -28.753  12.253  1.00  0.00     0.076 A 
ATOM      6  C   UNL     1      -2.144 -28.098  13.419  1.00  0.00     0.127 A 
ATOM      7  C   UNL     1      -3.048 -27.407  14.236  1.00  0.00     0.050 A 
ATOM      8  C   UNL     1      -1.679 -29.528  11.384  1.00  0.00     0.201 C 
ATOM      9  O   UNL     1      -0.567 -29.905  11.842  1.00  0.00    -0.288 OA
ATOM     10  C   UNL     1      -2.113 -29.957  10.024  1.00  0.00     0.076 A 
ATOM     11  C   UNL     1      -3.496 -29.936   9.723  1.00  0.00     0.041 A 
ATOM     12  C   UNL     1      -4.458 -29.345  10.683  1.00  0.00     0.194 C 
ATOM     13  O   UNL     1      -5.697 -29.391  10.443  1.00  0.00    -0.289 OA
ATOM     14  C   UNL     1      -3.955 -30.469   8.506  1.00  0.00     0.059 A 
ATOM     15  C   UNL     1      -3.056 -31.006   7.582  1.00  0.00     0.120 A 
ATOM     16  C   UNL     1      -1.689 -30.986   7.853  1.00  0.00     0.093 A 
ATOM     17  C   UNL     1      -1.202 -30.438   9.043  1.00  0.00     0.131 A 
ENDROOT
BRANCH   6  18
ATOM     18  O   UNL     1      -0.792 -28.123  13.764  1.00  0.00    -0.507 OA
ATOM     19  H   UNL     1      -0.096 -28.548  13.162  1.00  0.00     0.293 HD
ENDBRANCH   6  18
BRANCH  17  20
ATOM     20  O   UNL     1       0.184 -30.359   9.188  1.00  0.00    -0.507 OA
ATOM     21  H   UNL     1       0.801 -29.972   8.488  1.00  0.00     0.293 HD
ENDBRANCH  17  20
BRANCH  15  22
ATOM     22  O   UNL     1      -3.511 -31.550   6.382  1.00  0.00    -0.508 OA
ATOM     23  H   UNL     1      -4.081 -31.014   5.739  1.00  0.00     0.293 HD
ENDBRANCH  15  22
TORSDOF 3
ENDMDL
MODEL 2
REMARK VINA RESULT:    -4.784     13.825     16.067
REMARK INTER + INTRA:          -5.204
REMARK INTER:                  -5.204
REMARK INTRA:                   0.000
REMARK UNBOUND:                 0.000
REMARK SMILES Cc1cc(O)c2c(c1)C(=O)c1cc(O)cc(O)c1C2=O
REMARK SMILES IDX 1 1 2 2 8 3 7 4 6 5 4 6 3 7 19 8 20 9 18 10 11 11 9 12 10 13
REMARK SMILES IDX 12 14 13 15 15 16 16 17 5 18 17 20 14 22
REMARK H PARENT 5 19 17 21 14 23
REMARK Flexibility Score: inf
ROOT
ATOM      1  C   UNL     1       0.268 -12.769   7.733  1.00  0.00     0.044 C 
ATOM      2  C   UNL     1       0.649 -13.638   8.896  1.00  0.00    -0.047 A 
ATOM      3  C   UNL     1       0.725 -13.096  10.184  1.00  0.00     0.016 A 
ATOM      4  C   UNL     1       1.044 -13.908  11.287  1.00  0.00     0.038 A 
ATOM      5  C   UNL     1       1.285 -15.285  11.097  1.00  0.00     0.076 A 
ATOM      6  C   UNL     1       1.181 -15.834   9.798  1.00  0.00     0.127 A 
ATOM      7  C   UNL     1       0.860 -15.009   8.712  1.00  0.00     0.050 A 
ATOM      8  C   UNL     1       1.662 -16.122  12.265  1.00  0.00     0.201 C 
ATOM      9  O   UNL     1       2.225 -17.234  12.076  1.00  0.00    -0.288 OA
ATOM     10  C   UNL     1       1.483 -15.600  13.650  1.00  0.00     0.076 A 
ATOM     11  C   UNL     1       1.301 -14.207  13.824  1.00  0.00     0.041 A 
ATOM     12  C   UNL     1       1.129 -13.325  12.645  1.00  0.00     0.194 C 
ATOM     13  O   UNL     1       1.037 -12.076  12.800  1.00  0.00    -0.289 OA
ATOM     14  C   UNL     1       1.274 -13.662  15.119  1.00  0.00     0.059 A 
ATOM     15  C   UNL     1       1.410 -14.484  16.239  1.00  0.00     0.120 A 
ATOM     16  C   UNL     1       1.542 -15.862  16.075  1.00  0.00     0.093 A 
ATOM     17  C   UNL     1       1.544 -16.435  14.799  1.00  0.00     0.131 A 
ENDROOT
BRANCH   6  18
ATOM     18  O   UNL     1       1.383 -17.197   9.584  1.00  0.00    -0.507 OA
ATOM     19  H   UNL     1       1.529 -17.842  10.352  1.00  0.00     0.293 HD
ENDBRANCH   6  18
BRANCH  17  20
ATOM     20  O   UNL     1       1.571 -17.829  14.727  1.00  0.00    -0.507 OA
ATOM     21  H   UNL     1       2.416 -18.369  14.599  1.00  0.00     0.293 HD
ENDBRANCH  17  20
BRANCH  15  22
ATOM     22  O   UNL     1       1.401 -13.943  17.523  1.00  0.00    -0.508 OA
ATOM     23  H   UNL     1       1.686 -12.987  17.698  1.00  0.00     0.293 HD
ENDBRANCH  15  22
TORSDOF 3
ENDMDL
MODEL 3
REMARK VINA RESULT:    -4.705     15.000     16.127
REMARK INTER + INTRA:          -5.117
REMARK INTER:                  -5.117
REMARK INTRA:                   0.000
REMARK UNBOUND:                 0.000
REMARK SMILES Cc1cc(O)c2c(c1)C(=O)c1cc(O)cc(O)c1C2=O
REMARK SMILES IDX 1 1 2 2 8 3 7 4 6 5 4 6 3 7 19 8 20 9 18 10 11 11 9 12 10 13
REMARK SMILES IDX 12 14 13 15 15 16 16 17 5 18 17 20 14 22
REMARK H PARENT 5 19 17 21 14 23
REMARK Flexibility Score: inf
ROOT
ATOM      1  C   UNL     1       1.734 -17.748  14.015  1.00  0.00     0.044 C 
ATOM      2  C   UNL     1       2.410 -16.952  12.938  1.00  0.00    -0.047 A 
ATOM      3  C   UNL     1       1.657 -16.384  11.904  1.00  0.00     0.016 A 
ATOM      4  C   UNL     1       2.275 -15.604  10.910  1.00  0.00     0.038 A 
ATOM      5  C   UNL     1       3.668 -15.387  10.955  1.00  0.00     0.076 A 
ATOM      6  C   UNL     1       4.422 -15.940  12.016  1.00  0.00     0.127 A 
ATOM      7  C   UNL     1       3.787 -16.713  12.998  1.00  0.00     0.050 A 
ATOM      8  C   UNL     1       4.313 -14.596   9.875  1.00  0.00     0.201 C 
ATOM      9  O   UNL     1       5.556 -14.693   9.693  1.00  0.00    -0.288 OA
ATOM     10  C   UNL     1       3.481 -13.786   8.941  1.00  0.00     0.076 A 
ATOM     11  C   UNL     1       2.094 -14.060   8.867  1.00  0.00     0.041 A 
ATOM     12  C   UNL     1       1.472 -15.013   9.816  1.00  0.00     0.194 C 
ATOM     13  O   UNL     1       0.250 -15.308   9.703  1.00  0.00    -0.289 OA
ATOM     14  C   UNL     1       1.306 -13.418   7.897  1.00  0.00     0.059 A 
ATOM     15  C   UNL     1       1.874 -12.499   7.012  1.00  0.00     0.120 A 
ATOM     16  C   UNL     1       3.230 -12.190   7.112  1.00  0.00     0.093 A 
ATOM     17  C   UNL     1       4.033 -12.793   8.086  1.00  0.00     0.131 A 
ENDROOT
BRANCH   6  18
ATOM     18  O   UNL     1       5.795 -15.716  12.105  1.00  0.00    -0.507 OA
ATOM     19  H   UNL     1       6.470 -16.401  11.782  1.00  0.00     0.293 HD
ENDBRANCH   6  18
BRANCH  17  20
ATOM     20  O   UNL     1       5.352 -12.348   8.188  1.00  0.00    -0.507 OA
ATOM     21  H   UNL     1       6.038 -12.451   7.453  1.00  0.00     0.293 HD
ENDBRANCH  17  20
BRANCH  15  22
ATOM     22  O   UNL     1       1.098 -11.875   6.039  1.00  0.00    -0.508 OA
ATOM     23  H   UNL     1       0.787 -12.369   5.210  1.00  0.00     0.293 HD
ENDBRANCH  15  22
TORSDOF 3
ENDMDL
MODEL 4
REMARK VINA RESULT:    -4.514     11.635     14.037
REMARK INTER + INTRA:          -4.910
REMARK INTER:                  -4.910
REMARK INTRA:                   0.000
REMARK UNBOUND:                 0.000
REMARK SMILES Cc1cc(O)c2c(c1)C(=O)c1cc(O)cc(O)c1C2=O
REMARK SMILES IDX 1 1 2 2 8 3 7 4 6 5 4 6 3 7 19 8 20 9 18 10 11 11 9 12 10 13
REMARK SMILES IDX 12 14 13 15 15 16 16 17 5 18 17 20 14 22
REMARK H PARENT 5 19 17 21 14 23
REMARK Flexibility Score: inf
ROOT
ATOM      1  C   UNL     1       2.996 -15.393  10.940  1.00  0.00     0.044 C 
ATOM      2  C   UNL     1       2.319 -15.788  12.220  1.00  0.00    -0.047 A 
ATOM      3  C   UNL     1       2.458 -17.089  12.718  1.00  0.00     0.016 A 
ATOM      4  C   UNL     1       1.859 -17.459  13.935  1.00  0.00     0.038 A 
ATOM      5  C   UNL     1       1.114 -16.511  14.667  1.00  0.00     0.076 A 
ATOM      6  C   UNL     1       0.998 -15.190  14.174  1.00  0.00     0.127 A 
ATOM      7  C   UNL     1       1.604 -14.840  12.960  1.00  0.00     0.050 A 
ATOM      8  C   UNL     1       0.453 -16.928  15.931  1.00  0.00     0.201 C 
ATOM      9  O   UNL     1      -0.490 -16.233  16.397  1.00  0.00    -0.288 OA
ATOM     10  C   UNL     1       0.821 -18.219  16.578  1.00  0.00     0.076 A 
ATOM     11  C   UNL     1       1.517 -19.182  15.808  1.00  0.00     0.041 A 
ATOM     12  C   UNL     1       2.006 -18.839  14.452  1.00  0.00     0.194 C 
ATOM     13  O   UNL     1       2.564 -19.720  13.741  1.00  0.00    -0.289 OA
ATOM     14  C   UNL     1       1.753 -20.463  16.337  1.00  0.00     0.059 A 
ATOM     15  C   UNL     1       1.319 -20.791  17.623  1.00  0.00     0.120 A 
ATOM     16  C   UNL     1       0.676 -19.832  18.403  1.00  0.00     0.093 A 
ATOM     17  C   UNL     1       0.452 -18.542  17.913  1.00  0.00     0.131 A 
ENDROOT
BRANCH   6  18
ATOM     18  O   UNL     1       0.295 -14.223  14.891  1.00  0.00    -0.507 OA
ATOM     19  H   UNL     1       0.315 -14.189  15.904  1.00  0.00     0.293 HD
ENDBRANCH   6  18
BRANCH  17  20
ATOM     20  O   UNL     1      -0.101 -17.612  18.796  1.00  0.00    -0.507 OA
ATOM     21  H   UNL     1       0.283 -17.406  19.708  1.00  0.00     0.293 HD
ENDBRANCH  17  20
BRANCH  15  22
ATOM     22  O   UNL     1       1.537 -22.066  18.142  1.00  0.00    -0.508 OA
ATOM     23  H   UNL     1       0.831 -22.543  18.691  1.00  0.00     0.293 HD
ENDBRANCH  15  22
TORSDOF 3
ENDMDL
MODEL 5
REMARK VINA RESULT:    -4.494     11.709     13.962
REMARK INTER + INTRA:          -4.888
REMARK INTER:                  -4.888
REMARK INTRA:                   0.000
REMARK UNBOUND:                 0.000
REMARK SMILES Cc1cc(O)c2c(c1)C(=O)c1cc(O)cc(O)c1C2=O
REMARK SMILES IDX 1 1 2 2 8 3 7 4 6 5 4 6 3 7 19 8 20 9 18 10 11 11 9 12 10 13
REMARK SMILES IDX 12 14 13 15 15 16 16 17 5 18 17 20 14 22
REMARK H PARENT 5 19 17 21 14 23
REMARK Flexibility Score: inf
ROOT
ATOM      1  C   UNL     1       0.634 -21.343  18.143  1.00  0.00     0.044 C 
ATOM      2  C   UNL     1       0.746 -19.978  17.528  1.00  0.00    -0.047 A 
ATOM      3  C   UNL     1       1.268 -19.828  16.238  1.00  0.00     0.016 A 
ATOM      4  C   UNL     1       1.342 -18.559  15.637  1.00  0.00     0.038 A 
ATOM      5  C   UNL     1       0.883 -17.424  16.337  1.00  0.00     0.076 A 
ATOM      6  C   UNL     1       0.331 -17.583  17.629  1.00  0.00     0.127 A 
ATOM      7  C   UNL     1       0.263 -18.856  18.211  1.00  0.00     0.050 A 
ATOM      8  C   UNL     1       1.006 -16.084  15.706  1.00  0.00     0.201 C 
ATOM      9  O   UNL     1       0.949 -15.052  16.426  1.00  0.00    -0.288 OA
ATOM     10  C   UNL     1       1.312 -15.967  14.252  1.00  0.00     0.076 A 
ATOM     11  C   UNL     1       1.829 -17.101  13.581  1.00  0.00     0.041 A 
ATOM     12  C   UNL     1       1.902 -18.408  14.275  1.00  0.00     0.194 C 
ATOM     13  O   UNL     1       2.428 -19.400  13.698  1.00  0.00    -0.289 OA
ATOM     14  C   UNL     1       2.264 -16.987  12.249  1.00  0.00     0.059 A 
ATOM     15  C   UNL     1       2.177 -15.767  11.574  1.00  0.00     0.120 A 
ATOM     16  C   UNL     1       1.624 -14.660  12.215  1.00  0.00     0.093 A 
ATOM     17  C   UNL     1       1.158 -14.751  13.531  1.00  0.00     0.131 A 
ENDROOT
BRANCH   6  18
ATOM     18  O   UNL     1      -0.161 -16.484  18.333  1.00  0.00    -0.507 OA
ATOM     19  H   UNL     1      -1.149 -16.379  18.537  1.00  0.00     0.293 HD
ENDBRANCH   6  18
BRANCH  17  20
ATOM     20  O   UNL     1       0.522 -13.626  14.060  1.00  0.00    -0.507 OA
ATOM     21  H   UNL     1      -0.480 -13.544  14.163  1.00  0.00     0.293 HD
ENDBRANCH  17  20
BRANCH  15  22
ATOM     22  O   UNL     1       2.623 -15.649  10.260  1.00  0.00    -0.508 OA
ATOM     23  H   UNL     1       1.996 -15.771   9.474  1.00  0.00     0.293 HD
ENDBRANCH  15  22
TORSDOF 3
ENDMDL
MODEL 6
REMARK VINA RESULT:    -4.462      1.931      3.536
REMARK INTER + INTRA:          -4.853
REMARK INTER:                  -4.853
REMARK INTRA:                   0.000
REMARK UNBOUND:                 0.000
REMARK SMILES Cc1cc(O)c2c(c1)C(=O)c1cc(O)cc(O)c1C2=O
REMARK SMILES IDX 1 1 2 2 8 3 7 4 6 5 4 6 3 7 19 8 20 9 18 10 11 11 9 12 10 13
REMARK SMILES IDX 12 14 13 15 15 16 16 17 5 18 17 20 14 22
REMARK H PARENT 5 19 17 21 14 23
REMARK Flexibility Score: inf
ROOT
ATOM      1  C   UNL     1      -7.269 -29.493  11.091  1.00  0.00     0.044 C 
ATOM      2  C   UNL     1      -5.827 -29.303  11.460  1.00  0.00    -0.047 A 
ATOM      3  C   UNL     1      -4.815 -29.716  10.584  1.00  0.00     0.016 A 
ATOM      4  C   UNL     1      -3.462 -29.508  10.903  1.00  0.00     0.038 A 
ATOM      5  C   UNL     1      -3.116 -28.873  12.114  1.00  0.00     0.076 A 
ATOM      6  C   UNL     1      -4.141 -28.433  12.983  1.00  0.00     0.127 A 
ATOM      7  C   UNL     1      -5.484 -28.648  12.648  1.00  0.00     0.050 A 
ATOM      8  C   UNL     1      -1.680 -28.698  12.455  1.00  0.00     0.201 C 
ATOM      9  O   UNL     1      -1.349 -28.479  13.652  1.00  0.00    -0.288 OA
ATOM     10  C   UNL     1      -0.633 -28.897  11.414  1.00  0.00     0.076 A 
ATOM     11  C   UNL     1      -0.985 -29.589  10.230  1.00  0.00     0.041 A 
ATOM     12  C   UNL     1      -2.398 -29.955   9.974  1.00  0.00     0.194 C 
ATOM     13  O   UNL     1      -2.699 -30.633   8.953  1.00  0.00    -0.289 OA
ATOM     14  C   UNL     1       0.008 -29.922   9.293  1.00  0.00     0.059 A 
ATOM     15  C   UNL     1       1.340 -29.562   9.510  1.00  0.00     0.120 A 
ATOM     16  C   UNL     1       1.684 -28.839  10.650  1.00  0.00     0.093 A 
ATOM     17  C   UNL     1       0.713 -28.471  11.587  1.00  0.00     0.131 A 
ENDROOT
BRANCH   6  18
ATOM     18  O   UNL     1      -3.830 -27.774  14.172  1.00  0.00    -0.507 OA
ATOM     19  H   UNL     1      -4.382 -27.902  15.013  1.00  0.00     0.293 HD
ENDBRANCH   6  18
BRANCH  17  20
ATOM     20  O   UNL     1       1.124 -27.656  12.644  1.00  0.00    -0.507 OA
ATOM     21  H   UNL     1       2.058 -27.663  13.028  1.00  0.00     0.293 HD
ENDBRANCH  17  20
BRANCH  15  22
ATOM     22  O   UNL     1       2.328 -29.906   8.590  1.00  0.00    -0.508 OA
ATOM     23  H   UNL     1       2.937 -29.208   8.181  1.00  0.00     0.293 HD
ENDBRANCH  15  22
TORSDOF 3
ENDMDL
MODEL 7
REMARK VINA RESULT:    -4.381      1.229      5.493
REMARK INTER + INTRA:          -4.765
REMARK INTER:                  -4.765
REMARK INTRA:                   0.000
REMARK UNBOUND:                 0.000
REMARK SMILES Cc1cc(O)c2c(c1)C(=O)c1cc(O)cc(O)c1C2=O
REMARK SMILES IDX 1 1 2 2 8 3 7 4 6 5 4 6 3 7 19 8 20 9 18 10 11 11 9 12 10 13
REMARK SMILES IDX 12 14 13 15 15 16 16 17 5 18 17 20 14 22
REMARK H PARENT 5 19 17 21 14 23
REMARK Flexibility Score: inf
ROOT
ATOM      1  C   UNL     1      -2.995 -31.940   6.444  1.00  0.00     0.044 C 
ATOM      2  C   UNL     1      -2.565 -31.199   7.676  1.00  0.00    -0.047 A 
ATOM      3  C   UNL     1      -3.518 -30.575   8.491  1.00  0.00     0.016 A 
ATOM      4  C   UNL     1      -3.130 -29.911   9.668  1.00  0.00     0.038 A 
ATOM      5  C   UNL     1      -1.769 -29.874  10.037  1.00  0.00     0.076 A 
ATOM      6  C   UNL     1      -0.813 -30.529   9.226  1.00  0.00     0.127 A 
ATOM      7  C   UNL     1      -1.219 -31.187   8.057  1.00  0.00     0.050 A 
ATOM      8  C   UNL     1      -1.370 -29.133  11.262  1.00  0.00     0.201 C 
ATOM      9  O   UNL     1      -0.169 -28.782  11.410  1.00  0.00    -0.288 OA
ATOM     10  C   UNL     1      -2.402 -28.706  12.248  1.00  0.00     0.076 A 
ATOM     11  C   UNL     1      -3.757 -28.693  11.839  1.00  0.00     0.041 A 
ATOM     12  C   UNL     1      -4.143 -29.248  10.520  1.00  0.00     0.194 C 
ATOM     13  O   UNL     1      -5.340 -29.171  10.130  1.00  0.00    -0.289 OA
ATOM     14  C   UNL     1      -4.739 -28.160  12.692  1.00  0.00     0.059 A 
ATOM     15  C   UNL     1      -4.394 -27.657  13.948  1.00  0.00     0.120 A 
ATOM     16  C   UNL     1      -3.068 -27.711  14.374  1.00  0.00     0.093 A 
ATOM     17  C   UNL     1      -2.074 -28.260  13.558  1.00  0.00     0.131 A 
ENDROOT
BRANCH   6  18
ATOM     18  O   UNL     1       0.535 -30.537   9.581  1.00  0.00    -0.507 OA
ATOM     19  H   UNL     1       1.165 -29.792   9.305  1.00  0.00     0.293 HD
ENDBRANCH   6  18
BRANCH  17  20
ATOM     20  O   UNL     1      -0.794 -28.375  14.103  1.00  0.00    -0.507 OA
ATOM     21  H   UNL     1      -0.061 -28.943  13.702  1.00  0.00     0.293 HD
ENDBRANCH  17  20
BRANCH  15  22
ATOM     22  O   UNL     1      -5.363 -27.113  14.787  1.00  0.00    -0.508 OA
ATOM     23  H   UNL     1      -5.222 -27.045  15.788  1.00  0.00     0.293 HD
ENDBRANCH  15  22
TORSDOF 3
ENDMDL
MODEL 8
REMARK VINA RESULT:    -4.353     15.004     16.598
REMARK INTER + INTRA:          -4.734
REMARK INTER:                  -4.734
REMARK INTRA:                   0.000
REMARK UNBOUND:                 0.000
REMARK SMILES Cc1cc(O)c2c(c1)C(=O)c1cc(O)cc(O)c1C2=O
REMARK SMILES IDX 1 1 2 2 8 3 7 4 6 5 4 6 3 7 19 8 20 9 18 10 11 11 9 12 10 13
REMARK SMILES IDX 12 14 13 15 15 16 16 17 5 18 17 20 14 22
REMARK H PARENT 5 19 17 21 14 23
REMARK Flexibility Score: inf
ROOT
ATOM      1  C   UNL     1       2.497 -11.906   6.277  1.00  0.00     0.044 C 
ATOM      2  C   UNL     1       3.079 -12.517   7.519  1.00  0.00    -0.047 A 
ATOM      3  C   UNL     1       2.293 -13.344   8.331  1.00  0.00     0.016 A 
ATOM      4  C   UNL     1       2.838 -13.951   9.476  1.00  0.00     0.038 A 
ATOM      5  C   UNL     1       4.190 -13.732   9.810  1.00  0.00     0.076 A 
ATOM      6  C   UNL     1       4.987 -12.918   8.973  1.00  0.00     0.127 A 
ATOM      7  C   UNL     1       4.427 -12.322   7.835  1.00  0.00     0.050 A 
ATOM      8  C   UNL     1       4.740 -14.348  11.046  1.00  0.00     0.201 C 
ATOM      9  O   UNL     1       5.799 -13.886  11.550  1.00  0.00    -0.288 OA
ATOM     10  C   UNL     1       3.983 -15.423  11.747  1.00  0.00     0.076 A 
ATOM     11  C   UNL     1       2.611 -15.589  11.441  1.00  0.00     0.041 A 
ATOM     12  C   UNL     1       1.998 -14.819  10.333  1.00  0.00     0.194 C 
ATOM     13  O   UNL     1       0.760 -14.917  10.107  1.00  0.00    -0.289 OA
ATOM     14  C   UNL     1       1.833 -16.492  12.184  1.00  0.00     0.059 A 
ATOM     15  C   UNL     1       2.404 -17.242  13.215  1.00  0.00     0.120 A 
ATOM     16  C   UNL     1       3.764 -17.118  13.489  1.00  0.00     0.093 A 
ATOM     17  C   UNL     1       4.569 -16.247  12.748  1.00  0.00     0.131 A 
ENDROOT
BRANCH   6  18
ATOM     18  O   UNL     1       6.336 -12.708   9.260  1.00  0.00    -0.507 OA
ATOM     19  H   UNL     1       6.886 -13.392   9.767  1.00  0.00     0.293 HD
ENDBRANCH   6  18
BRANCH  17  20
ATOM     20  O   UNL     1       5.940 -16.262  13.015  1.00  0.00    -0.507 OA
ATOM     21  H   UNL     1       6.579 -16.943  12.630  1.00  0.00     0.293 HD
ENDBRANCH  17  20
BRANCH  15  22
ATOM     22  O   UNL     1       1.630 -18.126  13.963  1.00  0.00    -0.508 OA
ATOM     23  H   UNL     1       1.992 -18.573  14.798  1.00  0.00     0.293 HD
ENDBRANCH  15  22
TORSDOF 3
ENDMDL
MODEL 9
REMARK VINA RESULT:    -4.278      2.214      4.739
REMARK INTER + INTRA:          -4.653
REMARK INTER:                  -4.653
REMARK INTRA:                   0.000
REMARK UNBOUND:                 0.000
REMARK SMILES Cc1cc(O)c2c(c1)C(=O)c1cc(O)cc(O)c1C2=O
REMARK SMILES IDX 1 1 2 2 8 3 7 4 6 5 4 6 3 7 19 8 20 9 18 10 11 11 9 12 10 13
REMARK SMILES IDX 12 14 13 15 15 16 16 17 5 18 17 20 14 22
REMARK H PARENT 5 19 17 21 14 23
REMARK Flexibility Score: inf
ROOT
ATOM      1  C   UNL     1      -9.262 -28.572  15.005  1.00  0.00     0.044 C 
ATOM      2  C   UNL     1      -8.118 -28.749  14.049  1.00  0.00    -0.047 A 
ATOM      3  C   UNL     1      -6.836 -28.307  14.396  1.00  0.00     0.016 A 
ATOM      4  C   UNL     1      -5.750 -28.501  13.524  1.00  0.00     0.038 A 
ATOM      5  C   UNL     1      -5.951 -29.151  12.289  1.00  0.00     0.076 A 
ATOM      6  C   UNL     1      -7.242 -29.620  11.954  1.00  0.00     0.127 A 
ATOM      7  C   UNL     1      -8.311 -29.419  12.836  1.00  0.00     0.050 A 
ATOM      8  C   UNL     1      -4.801 -29.312  11.360  1.00  0.00     0.201 C 
ATOM      9  O   UNL     1      -5.018 -29.547  10.141  1.00  0.00    -0.288 OA
ATOM     10  C   UNL     1      -3.411 -29.081  11.842  1.00  0.00     0.076 A 
ATOM     11  C   UNL     1      -3.229 -28.374  13.055  1.00  0.00     0.041 A 
ATOM     12  C   UNL     1      -4.398 -28.024  13.895  1.00  0.00     0.194 C 
ATOM     13  O   UNL     1      -4.240 -27.334  14.940  1.00  0.00    -0.289 OA
ATOM     14  C   UNL     1      -1.935 -28.012  13.466  1.00  0.00     0.059 A 
ATOM     15  C   UNL     1      -0.822 -28.357  12.697  1.00  0.00     0.120 A 
ATOM     16  C   UNL     1      -0.991 -29.094  11.526  1.00  0.00     0.093 A 
ATOM     17  C   UNL     1      -2.265 -29.492  11.107  1.00  0.00     0.131 A 
ENDROOT
BRANCH   6  18
ATOM     18  O   UNL     1      -7.464 -30.295  10.754  1.00  0.00    -0.507 OA
ATOM     19  H   UNL     1      -6.750 -30.359  10.037  1.00  0.00     0.293 HD
ENDBRANCH   6  18
BRANCH  17  20
ATOM     20  O   UNL     1      -2.336 -30.319   9.984  1.00  0.00    -0.507 OA
ATOM     21  H   UNL     1      -1.529 -30.731   9.538  1.00  0.00     0.293 HD
ENDBRANCH  17  20
BRANCH  15  22
ATOM     22  O   UNL     1       0.460 -27.984  13.094  1.00  0.00    -0.508 OA
ATOM     23  H   UNL     1       0.896 -28.379  13.919  1.00  0.00     0.293 HD
ENDBRANCH  15  22
TORSDOF 3
ENDMDL
