MODEL 1
REMARK VINA RESULT:    -5.237      0.000      0.000
REMARK INTER + INTRA:          -8.221
REMARK INTER:                  -7.992
REMARK INTRA:                  -0.229
REMARK UNBOUND:                -0.229
REMARK SMILES CC1=CCC[C@@H](C)C(=O)C[C@@H](C(C)C)C(=O)C1
REMARK SMILES IDX 8 1 9 2 6 3 7 4 5 5 4 6 3 7 2 8 1 9 10 11 11 12 15 13 16 14
REMARK SMILES IDX 17 15 12 17 13 18 14 19
REMARK H PARENT
REMARK Flexibility Score: 70.00
ROOT
ATOM      1  C   UNL     1      -8.424  33.561  26.095  1.00  0.00     0.136 C 
ATOM      2  O   UNL     1      -8.313  33.242  27.269  1.00  0.00    -0.299 OA
ENDROOT
BRANCH   1   3
ATOM      3  C   UNL     1      -7.892  34.912  25.649  1.00  0.00     0.053 C 
ATOM      4  C   UNL     1      -9.006  35.964  25.682  1.00  0.00     0.016 C 
BRANCH   3   5
ATOM      5  C   UNL     1      -7.232  34.851  24.256  1.00  0.00     0.015 C 
BRANCH   5   6
ATOM      6  C   UNL     1      -8.227  35.210  23.138  1.00  0.00     0.028 C 
BRANCH   6   7
ATOM      7  C   UNL     1      -7.902  34.555  21.819  1.00  0.00    -0.028 C 
ATOM      8  C   UNL     1      -8.199  33.278  21.467  1.00  0.00    -0.070 CG0
ATOM      9  C   UNL     1      -7.663  32.787  20.144  1.00  0.00     0.039 C 
ATOM     10  G   UNL     1      -9.095  32.345  22.275  1.00  0.00     0.000 G0
ENDBRANCH   6   7
ENDBRANCH   5   6
ENDBRANCH   3   5
ENDBRANCH   1   3
BRANCH   1  11
ATOM     11  C   UNL     1      -9.137  32.620  25.148  1.00  0.00     0.087 C 
BRANCH  11  12
ATOM     12  C   UNL     1      -8.223  31.479  24.621  1.00  0.00     0.066 C 
BRANCH  12  13
ATOM     13  C   UNL     1      -8.376  31.288  23.117  1.00  0.00     0.140 C 
ATOM     14  O   UNL     1      -8.023  30.231  22.615  1.00  0.00    -0.299 OA
BRANCH  13  15
ATOM     15  C   UNL     1      -9.099  32.307  22.265  1.00  0.00     0.106 CG0
ATOM     16  G   UNL     1      -8.193  33.256  21.488  1.00  0.00     0.000 G0
ENDBRANCH  13  15
ENDBRANCH  12  13
BRANCH  12  17
ATOM     17  C   UNL     1      -8.460  30.127  25.371  1.00  0.00    -0.006 C 
ATOM     18  C   UNL     1      -9.941  29.898  25.722  1.00  0.00     0.008 C 
ATOM     19  C   UNL     1      -7.630  30.055  26.667  1.00  0.00     0.008 C 
ENDBRANCH  12  17
ENDBRANCH  11  12
ENDBRANCH   1  11
TORSDOF 1
ENDMDL
MODEL 2
REMARK VINA RESULT:    -4.838      1.952      4.858
REMARK INTER + INTRA:          -7.612
REMARK INTER:                  -7.136
REMARK INTRA:                  -0.476
REMARK UNBOUND:                -0.229
REMARK SMILES CC1=CCC[C@@H](C)C(=O)C[C@@H](C(C)C)C(=O)C1
REMARK SMILES IDX 8 1 9 2 6 3 7 4 5 5 4 6 3 7 2 8 1 9 10 11 11 12 15 13 16 14
REMARK SMILES IDX 17 15 12 17 13 18 14 19
REMARK H PARENT
REMARK Flexibility Score: 70.00
ROOT
ATOM      1  C   UNL     1      -8.413  33.239  22.123  1.00  0.00     0.136 C 
ATOM      2  O   UNL     1      -7.742  34.208  21.798  1.00  0.00    -0.299 OA
ENDROOT
BRANCH   1   3
ATOM      3  C   UNL     1      -8.327  31.974  21.287  1.00  0.00     0.053 C 
ATOM      4  C   UNL     1      -9.730  31.466  20.936  1.00  0.00     0.016 C 
BRANCH   3   5
ATOM      5  C   UNL     1      -7.498  30.871  21.978  1.00  0.00     0.015 C 
BRANCH   5   6
ATOM      6  C   UNL     1      -8.392  29.741  22.519  1.00  0.00     0.028 C 
BRANCH   6   7
ATOM      7  C   UNL     1      -8.040  29.326  23.925  1.00  0.00    -0.028 C 
ATOM      8  C   UNL     1      -8.499  29.901  25.066  1.00  0.00    -0.070 CG0
ATOM      9  C   UNL     1      -7.913  29.409  26.368  1.00  0.00     0.039 C 
ATOM     10  G   UNL     1      -9.611  30.944  25.121  1.00  0.00     0.000 G0
ENDBRANCH   6   7
ENDBRANCH   5   6
ENDBRANCH   3   5
ENDBRANCH   1   3
BRANCH   1  11
ATOM     11  C   UNL     1      -9.343  33.362  23.311  1.00  0.00     0.087 C 
BRANCH  11  12
ATOM     12  C   UNL     1      -8.593  33.358  24.673  1.00  0.00     0.066 C 
BRANCH  12  13
ATOM     13  C   UNL     1      -9.169  32.316  25.625  1.00  0.00     0.140 C 
ATOM     14  O   UNL     1      -9.404  32.636  26.782  1.00  0.00    -0.299 OA
BRANCH  13  15
ATOM     15  C   UNL     1      -9.606  30.955  25.130  1.00  0.00     0.106 CG0
ATOM     16  G   UNL     1      -8.496  29.911  25.056  1.00  0.00     0.000 G0
ENDBRANCH  13  15
ENDBRANCH  12  13
BRANCH  12  17
ATOM     17  C   UNL     1      -8.575  34.767  25.350  1.00  0.00    -0.006 C 
ATOM     18  C   UNL     1      -9.311  35.833  24.518  1.00  0.00     0.008 C 
ATOM     19  C   UNL     1      -7.132  35.247  25.599  1.00  0.00     0.008 C 
ENDBRANCH  12  17
ENDBRANCH  11  12
ENDBRANCH   1  11
TORSDOF 1
ENDMDL
MODEL 3
REMARK VINA RESULT:    -4.710      1.746      3.816
REMARK INTER + INTRA:          -7.416
REMARK INTER:                  -7.355
REMARK INTRA:                  -0.061
REMARK UNBOUND:                -0.229
REMARK SMILES CC1=CCC[C@@H](C)C(=O)C[C@@H](C(C)C)C(=O)C1
REMARK SMILES IDX 8 1 9 2 6 3 7 4 5 5 4 6 3 7 2 8 1 9 10 11 11 12 15 13 16 14
REMARK SMILES IDX 17 15 12 17 13 18 14 19
REMARK H PARENT
REMARK Flexibility Score: 70.00
ROOT
ATOM      1  C   UNL     1      -8.800  29.708  24.186  1.00  0.00     0.136 C 
ATOM      2  O   UNL     1      -9.895  29.220  24.422  1.00  0.00    -0.299 OA
ENDROOT
BRANCH   1   3
ATOM      3  C   UNL     1      -8.044  29.247  22.951  1.00  0.00     0.053 C 
ATOM      4  C   UNL     1      -6.554  29.585  23.078  1.00  0.00     0.016 C 
BRANCH   3   5
ATOM      5  C   UNL     1      -8.633  29.833  21.652  1.00  0.00     0.015 C 
BRANCH   5   6
ATOM      6  C   UNL     1      -9.419  31.130  21.916  1.00  0.00     0.028 C 
BRANCH   6   7
ATOM      7  C   UNL     1      -8.725  32.363  21.394  1.00  0.00    -0.028 C 
ATOM      8  C   UNL     1      -7.998  33.242  22.131  1.00  0.00    -0.070 CG0
ATOM      9  C   UNL     1      -7.500  34.482  21.427  1.00  0.00     0.039 C 
ATOM     10  G   UNL     1      -7.592  33.023  23.585  1.00  0.00     0.000 G0
ENDBRANCH   6   7
ENDBRANCH   5   6
ENDBRANCH   3   5
ENDBRANCH   1   3
BRANCH   1  11
ATOM     11  C   UNL     1      -8.219  30.706  25.164  1.00  0.00     0.087 C 
BRANCH  11  12
ATOM     12  C   UNL     1      -9.146  31.931  25.404  1.00  0.00     0.066 C 
BRANCH  12  13
ATOM     13  C   UNL     1      -8.692  33.142  24.597  1.00  0.00     0.140 C 
ATOM     14  O   UNL     1      -9.153  34.241  24.870  1.00  0.00    -0.299 OA
BRANCH  13  15
ATOM     15  C   UNL     1      -7.573  33.038  23.586  1.00  0.00     0.106 CG0
ATOM     16  G   UNL     1      -7.994  33.254  22.135  1.00  0.00     0.000 G0
ENDBRANCH  13  15
ENDBRANCH  12  13
BRANCH  12  17
ATOM     17  C   UNL     1      -9.271  32.298  26.919  1.00  0.00    -0.006 C 
ATOM     18  C   UNL     1      -7.912  32.623  27.564  1.00  0.00     0.008 C 
ATOM     19  C   UNL     1      -9.935  31.158  27.716  1.00  0.00     0.008 C 
ENDBRANCH  12  17
ENDBRANCH  11  12
ENDBRANCH   1  11
TORSDOF 1
ENDMDL
MODEL 4
REMARK VINA RESULT:    -4.442      2.347      4.336
REMARK INTER + INTRA:          -7.008
REMARK INTER:                  -6.983
REMARK INTRA:                  -0.026
REMARK UNBOUND:                -0.229
REMARK SMILES CC1=CCC[C@@H](C)C(=O)C[C@@H](C(C)C)C(=O)C1
REMARK SMILES IDX 8 1 9 2 6 3 7 4 5 5 4 6 3 7 2 8 1 9 10 11 11 12 15 13 16 14
REMARK SMILES IDX 17 15 12 17 13 18 14 19
REMARK H PARENT
REMARK Flexibility Score: 70.00
ROOT
ATOM      1  C   UNL     1      -8.525  33.154  22.811  1.00  0.00     0.136 C 
ATOM      2  O   UNL     1      -9.000  33.029  21.693  1.00  0.00    -0.299 OA
ENDROOT
BRANCH   1   3
ATOM      3  C   UNL     1      -8.513  34.530  23.454  1.00  0.00     0.053 C 
ATOM      4  C   UNL     1      -7.133  35.180  23.304  1.00  0.00     0.016 C 
BRANCH   3   5
ATOM      5  C   UNL     1      -8.946  34.489  24.934  1.00  0.00     0.015 C 
BRANCH   5   6
ATOM      6  C   UNL     1      -7.790  34.057  25.854  1.00  0.00     0.028 C 
BRANCH   6   7
ATOM      7  C   UNL     1      -8.257  33.372  27.114  1.00  0.00    -0.028 C 
ATOM      8  C   UNL     1      -8.466  32.039  27.267  1.00  0.00    -0.070 CG0
ATOM      9  C   UNL     1      -9.062  31.583  28.578  1.00  0.00     0.039 C 
ATOM     10  G   UNL     1      -8.070  30.978  26.244  1.00  0.00     0.000 G0
ENDBRANCH   6   7
ENDBRANCH   5   6
ENDBRANCH   3   5
ENDBRANCH   1   3
BRANCH   1  11
ATOM     11  C   UNL     1      -7.917  31.942  23.484  1.00  0.00     0.087 C 
BRANCH  11  12
ATOM     12  C   UNL     1      -8.952  30.815  23.757  1.00  0.00     0.066 C 
BRANCH  12  13
ATOM     13  C   UNL     1      -9.139  30.577  25.251  1.00  0.00     0.140 C 
ATOM     14  O   UNL     1     -10.117  29.949  25.633  1.00  0.00    -0.299 OA
BRANCH  13  15
ATOM     15  C   UNL     1      -8.066  30.954  26.248  1.00  0.00     0.106 CG0
ATOM     16  G   UNL     1      -8.472  32.026  27.255  1.00  0.00     0.000 G0
ENDBRANCH  13  15
ENDBRANCH  12  13
BRANCH  12  17
ATOM     17  C   UNL     1      -8.587  29.479  23.031  1.00  0.00    -0.006 C 
ATOM     18  C   UNL     1      -7.085  29.153  23.112  1.00  0.00     0.008 C 
ATOM     19  C   UNL     1      -9.004  29.518  21.548  1.00  0.00     0.008 C 
ENDBRANCH  12  17
ENDBRANCH  11  12
ENDBRANCH   1  11
TORSDOF 1
ENDMDL
MODEL 5
REMARK VINA RESULT:    -4.381      1.660      4.043
REMARK INTER + INTRA:          -6.914
REMARK INTER:                  -6.669
REMARK INTRA:                  -0.246
REMARK UNBOUND:                -0.229
REMARK SMILES CC1=CCC[C@@H](C)C(=O)C[C@@H](C(C)C)C(=O)C1
REMARK SMILES IDX 8 1 9 2 6 3 7 4 5 5 4 6 3 7 2 8 1 9 10 11 11 12 15 13 16 14
REMARK SMILES IDX 17 15 12 17 13 18 14 19
REMARK H PARENT
REMARK Flexibility Score: 70.00
ROOT
ATOM      1  C   UNL     1      -9.195  31.667  26.104  1.00  0.00     0.136 C 
ATOM      2  O   UNL     1     -10.114  32.227  26.683  1.00  0.00    -0.299 OA
ENDROOT
BRANCH   1   3
ATOM      3  C   UNL     1      -9.186  30.149  26.041  1.00  0.00     0.053 C 
ATOM      4  C   UNL     1      -7.781  29.608  26.330  1.00  0.00     0.016 C 
BRANCH   3   5
ATOM      5  C   UNL     1      -9.714  29.616  24.693  1.00  0.00     0.015 C 
BRANCH   5   6
ATOM      6  C   UNL     1      -8.573  29.362  23.693  1.00  0.00     0.028 C 
BRANCH   6   7
ATOM      7  C   UNL     1      -8.827  29.965  22.334  1.00  0.00    -0.028 C 
ATOM      8  C   UNL     1      -8.442  31.200  21.924  1.00  0.00    -0.070 CG0
ATOM      9  C   UNL     1      -8.917  31.653  20.564  1.00  0.00     0.039 C 
ATOM     10  G   UNL     1      -7.507  32.118  22.706  1.00  0.00     0.000 G0
ENDBRANCH   6   7
ENDBRANCH   5   6
ENDBRANCH   3   5
ENDBRANCH   1   3
BRANCH   1  11
ATOM     11  C   UNL     1      -8.077  32.507  25.526  1.00  0.00     0.087 C 
BRANCH  11  12
ATOM     12  C   UNL     1      -8.587  33.628  24.578  1.00  0.00     0.066 C 
BRANCH  12  13
ATOM     13  C   UNL     1      -8.073  33.435  23.156  1.00  0.00     0.140 C 
ATOM     14  O   UNL     1      -8.016  34.402  22.410  1.00  0.00    -0.299 OA
BRANCH  13  15
ATOM     15  C   UNL     1      -7.485  32.117  22.705  1.00  0.00     0.106 CG0
ATOM     16  G   UNL     1      -8.440  31.220  21.923  1.00  0.00     0.000 G0
ENDBRANCH  13  15
ENDBRANCH  12  13
BRANCH  12  17
ATOM     17  C   UNL     1      -8.232  35.060  25.098  1.00  0.00    -0.006 C 
ATOM     18  C   UNL     1      -7.884  35.074  26.597  1.00  0.00     0.008 C 
ATOM     19  C   UNL     1      -9.390  36.045  24.851  1.00  0.00     0.008 C 
ENDBRANCH  12  17
ENDBRANCH  11  12
ENDBRANCH   1  11
TORSDOF 1
ENDMDL
MODEL 6
REMARK VINA RESULT:    -4.071      2.015      4.094
REMARK INTER + INTRA:          -6.441
REMARK INTER:                  -7.433
REMARK INTRA:                   0.992
REMARK UNBOUND:                -0.229
REMARK SMILES CC1=CCC[C@@H](C)C(=O)C[C@@H](C(C)C)C(=O)C1
REMARK SMILES IDX 8 1 9 2 6 3 7 4 5 5 4 6 3 7 2 8 1 9 10 11 11 12 15 13 16 14
REMARK SMILES IDX 17 15 12 17 13 18 14 19
REMARK H PARENT
REMARK Flexibility Score: 70.00
ROOT
ATOM      1  C   UNL     1      -9.276  32.581  21.454  1.00  0.00     0.136 C 
ATOM      2  O   UNL     1      -9.445  31.868  20.477  1.00  0.00    -0.299 OA
ENDROOT
BRANCH   1   3
ATOM      3  C   UNL     1      -8.267  33.713  21.370  1.00  0.00     0.053 C 
ATOM      4  C   UNL     1      -7.335  33.513  20.169  1.00  0.00     0.016 C 
BRANCH   3   5
ATOM      5  C   UNL     1      -7.459  33.876  22.674  1.00  0.00     0.015 C 
BRANCH   5   6
ATOM      6  C   UNL     1      -8.265  34.614  23.757  1.00  0.00     0.028 C 
BRANCH   6   7
ATOM      7  C   UNL     1      -7.863  34.236  25.160  1.00  0.00    -0.028 C 
ATOM      8  C   UNL     1      -8.548  33.410  25.992  1.00  0.00    -0.070 CG0
ATOM      9  C   UNL     1      -8.031  33.273  27.404  1.00  0.00     0.039 C 
ATOM     10  G   UNL     1      -9.746  32.563  25.575  1.00  0.00     0.000 G0
ENDBRANCH   6   7
ENDBRANCH   5   6
ENDBRANCH   3   5
ENDBRANCH   1   3
BRANCH   1  11
ATOM     11  C   UNL     1     -10.039  32.271  22.724  1.00  0.00     0.087 C 
BRANCH  11  12
ATOM     12  C   UNL     1      -9.509  31.007  23.458  1.00  0.00     0.066 C 
BRANCH  12  13
ATOM     13  C   UNL     1      -9.437  31.225  24.965  1.00  0.00     0.140 C 
ATOM     14  O   UNL     1      -8.985  30.334  25.671  1.00  0.00    -0.299 OA
BRANCH  13  15
ATOM     15  C   UNL     1      -9.757  32.568  25.582  1.00  0.00     0.106 CG0
ATOM     16  G   UNL     1      -8.542  33.396  25.987  1.00  0.00     0.000 G0
ENDBRANCH  13  15
ENDBRANCH  12  13
BRANCH  12  17
ATOM     17  C   UNL     1      -8.125  30.531  22.907  1.00  0.00    -0.006 C 
ATOM     18  C   UNL     1      -8.193  29.131  22.271  1.00  0.00     0.008 C 
ATOM     19  C   UNL     1      -7.058  30.517  24.017  1.00  0.00     0.008 C 
ENDBRANCH  12  17
ENDBRANCH  11  12
ENDBRANCH   1  11
TORSDOF 1
ENDMDL
MODEL 7
REMARK VINA RESULT:    -3.779      1.897      3.151
REMARK INTER + INTRA:          -5.996
REMARK INTER:                  -7.560
REMARK INTRA:                   1.564
REMARK UNBOUND:                -0.229
REMARK SMILES CC1=CCC[C@@H](C)C(=O)C[C@@H](C(C)C)C(=O)C1
REMARK SMILES IDX 8 1 9 2 6 3 7 4 5 5 4 6 3 7 2 8 1 9 10 11 11 12 15 13 16 14
REMARK SMILES IDX 17 15 12 17 13 18 14 19
REMARK H PARENT
REMARK Flexibility Score: 70.00
ROOT
ATOM      1  C   UNL     1      -8.079  34.037  24.011  1.00  0.00     0.136 C 
ATOM      2  O   UNL     1      -7.379  34.921  24.483  1.00  0.00    -0.299 OA
ENDROOT
BRANCH   1   3
ATOM      3  C   UNL     1      -7.945  33.706  22.535  1.00  0.00     0.053 C 
ATOM      4  C   UNL     1      -7.625  34.970  21.728  1.00  0.00     0.016 C 
BRANCH   3   5
ATOM      5  C   UNL     1      -9.198  32.999  21.977  1.00  0.00     0.015 C 
BRANCH   5   6
ATOM      6  C   UNL     1      -8.830  31.905  20.959  1.00  0.00     0.028 C 
BRANCH   6   7
ATOM      7  C   UNL     1      -7.844  30.899  21.496  1.00  0.00    -0.028 C 
ATOM      8  C   UNL     1      -7.798  30.427  22.769  1.00  0.00    -0.070 CG0
ATOM      9  C   UNL     1      -6.643  29.523  23.125  1.00  0.00     0.039 C 
ATOM     10  G   UNL     1      -8.867  30.685  23.825  1.00  0.00     0.000 G0
ENDBRANCH   6   7
ENDBRANCH   5   6
ENDBRANCH   3   5
ENDBRANCH   1   3
BRANCH   1  11
ATOM     11  C   UNL     1      -9.088  33.351  24.906  1.00  0.00     0.087 C 
BRANCH  11  12
ATOM     12  C   UNL     1      -8.441  32.328  25.880  1.00  0.00     0.066 C 
BRANCH  12  13
ATOM     13  C   UNL     1      -8.319  30.948  25.242  1.00  0.00     0.140 C 
ATOM     14  O   UNL     1      -7.898  30.019  25.917  1.00  0.00    -0.299 OA
BRANCH  13  15
ATOM     15  C   UNL     1      -8.856  30.673  23.856  1.00  0.00     0.106 CG0
ATOM     16  G   UNL     1      -7.792  30.459  22.783  1.00  0.00     0.000 G0
ENDBRANCH  13  15
ENDBRANCH  12  13
BRANCH  12  17
ATOM     17  C   UNL     1      -9.201  32.235  27.243  1.00  0.00    -0.006 C 
ATOM     18  C   UNL     1      -8.250  32.251  28.453  1.00  0.00     0.008 C 
ATOM     19  C   UNL     1     -10.067  30.962  27.313  1.00  0.00     0.008 C 
ENDBRANCH  12  17
ENDBRANCH  11  12
ENDBRANCH   1  11
TORSDOF 1
ENDMDL
MODEL 8
REMARK VINA RESULT:    -3.596      1.897      4.224
REMARK INTER + INTRA:          -5.716
REMARK INTER:                  -7.328
REMARK INTRA:                   1.612
REMARK UNBOUND:                -0.229
REMARK SMILES CC1=CCC[C@@H](C)C(=O)C[C@@H](C(C)C)C(=O)C1
REMARK SMILES IDX 8 1 9 2 6 3 7 4 5 5 4 6 3 7 2 8 1 9 10 11 11 12 15 13 16 14
REMARK SMILES IDX 17 15 12 17 13 18 14 19
REMARK H PARENT
REMARK Flexibility Score: 70.00
ROOT
ATOM      1  C   UNL     1      -8.579  30.208  24.974  1.00  0.00     0.136 C 
ATOM      2  O   UNL     1      -9.727  30.003  24.611  1.00  0.00    -0.299 OA
ENDROOT
BRANCH   1   3
ATOM      3  C   UNL     1      -8.309  30.452  26.449  1.00  0.00     0.053 C 
ATOM      4  C   UNL     1      -8.731  29.234  27.280  1.00  0.00     0.016 C 
BRANCH   3   5
ATOM      5  C   UNL     1      -8.993  31.734  26.965  1.00  0.00     0.015 C 
BRANCH   5   6
ATOM      6  C   UNL     1      -7.980  32.874  27.180  1.00  0.00     0.028 C 
BRANCH   6   7
ATOM      7  C   UNL     1      -8.399  34.172  26.537  1.00  0.00    -0.028 C 
ATOM      8  C   UNL     1      -8.775  34.337  25.243  1.00  0.00    -0.070 CG0
ATOM      9  C   UNL     1      -9.029  35.750  24.775  1.00  0.00     0.039 C 
ATOM     10  G   UNL     1      -9.030  33.194  24.265  1.00  0.00     0.000 G0
ENDBRANCH   6   7
ENDBRANCH   5   6
ENDBRANCH   3   5
ENDBRANCH   1   3
BRANCH   1  11
ATOM     11  C   UNL     1      -7.483  30.268  23.932  1.00  0.00     0.087 C 
BRANCH  11  12
ATOM     12  C   UNL     1      -7.725  31.365  22.858  1.00  0.00     0.066 C 
BRANCH  12  13
ATOM     13  C   UNL     1      -7.812  32.752  23.486  1.00  0.00     0.140 C 
ATOM     14  O   UNL     1      -6.938  33.571  23.237  1.00  0.00    -0.299 OA
BRANCH  13  15
ATOM     15  C   UNL     1      -9.029  33.184  24.272  1.00  0.00     0.106 CG0
ATOM     16  G   UNL     1      -8.794  34.337  25.242  1.00  0.00     0.000 G0
ENDBRANCH  13  15
ENDBRANCH  12  13
BRANCH  12  17
ATOM     17  C   UNL     1      -8.989  31.080  21.984  1.00  0.00    -0.006 C 
ATOM     18  C   UNL     1      -9.037  29.631  21.468  1.00  0.00     0.008 C 
ATOM     19  C   UNL     1      -9.059  32.035  20.777  1.00  0.00     0.008 C 
ENDBRANCH  12  17
ENDBRANCH  11  12
ENDBRANCH   1  11
TORSDOF 1
ENDMDL
MODEL 9
REMARK VINA RESULT:    -3.558      2.107      4.202
REMARK INTER + INTRA:          -5.659
REMARK INTER:                  -6.513
REMARK INTRA:                   0.854
REMARK UNBOUND:                -0.229
REMARK SMILES CC1=CCC[C@@H](C)C(=O)C[C@@H](C(C)C)C(=O)C1
REMARK SMILES IDX 8 1 9 2 6 3 7 4 5 5 4 6 3 7 2 8 1 9 10 11 11 12 15 13 16 14
REMARK SMILES IDX 17 15 12 17 13 18 14 19
REMARK H PARENT
REMARK Flexibility Score: 70.00
ROOT
ATOM      1  C   UNL     1      -8.452  33.913  23.927  1.00  0.00     0.136 C 
ATOM      2  O   UNL     1      -7.301  33.867  23.519  1.00  0.00    -0.299 OA
ENDROOT
BRANCH   1   3
ATOM      3  C   UNL     1      -8.731  34.594  25.256  1.00  0.00     0.053 C 
ATOM      4  C   UNL     1      -8.639  36.117  25.108  1.00  0.00     0.016 C 
BRANCH   3   5
ATOM      5  C   UNL     1      -7.800  34.092  26.378  1.00  0.00     0.015 C 
BRANCH   5   6
ATOM      6  C   UNL     1      -8.584  33.374  27.492  1.00  0.00     0.028 C 
BRANCH   6   7
ATOM      7  C   UNL     1      -8.211  31.921  27.641  1.00  0.00    -0.028 C 
ATOM      8  C   UNL     1      -8.685  30.893  26.890  1.00  0.00    -0.070 CG0
ATOM      9  C   UNL     1      -8.276  29.498  27.298  1.00  0.00     0.039 C 
ATOM     10  G   UNL     1      -9.529  31.061  25.631  1.00  0.00     0.000 G0
ENDBRANCH   6   7
ENDBRANCH   5   6
ENDBRANCH   3   5
ENDBRANCH   1   3
BRANCH   1  11
ATOM     11  C   UNL     1      -9.541  33.240  23.119  1.00  0.00     0.087 C 
BRANCH  11  12
ATOM     12  C   UNL     1      -9.388  31.695  23.061  1.00  0.00     0.066 C 
BRANCH  12  13
ATOM     13  C   UNL     1      -8.750  31.148  24.333  1.00  0.00     0.140 C 
ATOM     14  O   UNL     1      -7.551  30.906  24.338  1.00  0.00    -0.299 OA
BRANCH  13  15
ATOM     15  C   UNL     1      -9.529  31.054  25.626  1.00  0.00     0.106 CG0
ATOM     16  G   UNL     1      -8.678  30.894  26.881  1.00  0.00     0.000 G0
ENDBRANCH  13  15
ENDBRANCH  12  13
BRANCH  12  17
ATOM     17  C   UNL     1      -8.592  31.218  21.802  1.00  0.00    -0.006 C 
ATOM     18  C   UNL     1      -9.090  31.878  20.504  1.00  0.00     0.008 C 
ATOM     19  C   UNL     1      -8.670  29.689  21.639  1.00  0.00     0.008 C 
ENDBRANCH  12  17
ENDBRANCH  11  12
ENDBRANCH   1  11
TORSDOF 1
ENDMDL
