MODEL 1
REMARK VINA RESULT:    -4.596      0.000      0.000
REMARK INTER + INTRA:          -5.637
REMARK INTER:                  -5.401
REMARK INTRA:                  -0.236
REMARK UNBOUND:                -0.236
REMARK SMILES O=C([O-])C=Cc1ccc(O)c(O)c1
REMARK SMILES IDX 6 1 13 2 7 3 11 4 8 5 9 6 5 7 4 8 2 9 1 10 3 11 12 12 10 14
REMARK H PARENT 12 13 10 15
REMARK Flexibility Score: inf
ROOT
ATOM      1  C   UNL     1      -0.789 -15.174  -5.409  1.00  0.00    -0.022 A 
ATOM      2  C   UNL     1      -1.724 -15.214  -6.452  1.00  0.00     0.058 A 
ATOM      3  C   UNL     1       0.580 -15.218  -5.713  1.00  0.00     0.012 A 
ATOM      4  C   UNL     1      -1.311 -15.352  -7.783  1.00  0.00     0.157 A 
ATOM      5  C   UNL     1       1.002 -15.356  -7.038  1.00  0.00     0.051 A 
ATOM      6  C   UNL     1       0.071 -15.430  -8.080  1.00  0.00     0.157 A 
ENDROOT
BRANCH   1   7
ATOM      7  C   UNL     1      -1.257 -14.975  -4.022  1.00  0.00     0.010 C 
ATOM      8  C   UNL     1      -1.558 -13.791  -3.466  1.00  0.00     0.025 C 
BRANCH   8   9
ATOM      9  C   UNL     1      -1.297 -12.471  -4.070  1.00  0.00     0.064 C 
ATOM     10  O   UNL     1      -2.265 -11.710  -4.326  1.00  0.00    -0.545 OA
ATOM     11  O   UNL     1      -0.002 -12.020  -4.297  1.00  0.00    -0.545 OA
ENDBRANCH   8   9
ENDBRANCH   1   7
BRANCH   4  12
ATOM     12  O   UNL     1      -2.298 -15.402  -8.770  1.00  0.00    -0.504 OA
ATOM     13  H   UNL     1      -3.253 -15.686  -8.599  1.00  0.00     0.293 HD
ENDBRANCH   4  12
BRANCH   6  14
ATOM     14  O   UNL     1       0.557 -15.573  -9.381  1.00  0.00    -0.504 OA
ATOM     15  H   UNL     1       1.353 -16.145  -9.626  1.00  0.00     0.293 HD
ENDBRANCH   6  14
TORSDOF 4
ENDMDL
MODEL 2
REMARK VINA RESULT:    -4.476      2.624      4.888
REMARK INTER + INTRA:          -5.497
REMARK INTER:                  -5.213
REMARK INTRA:                  -0.285
REMARK UNBOUND:                -0.236
REMARK SMILES O=C([O-])C=Cc1ccc(O)c(O)c1
REMARK SMILES IDX 6 1 13 2 7 3 11 4 8 5 9 6 5 7 4 8 2 9 1 10 3 11 12 12 10 14
REMARK H PARENT 12 13 10 15
REMARK Flexibility Score: inf
ROOT
ATOM      1  C   UNL     1       0.169 -16.307  -7.663  1.00  0.00    -0.022 A 
ATOM      2  C   UNL     1      -1.017 -15.697  -8.093  1.00  0.00     0.058 A 
ATOM      3  C   UNL     1       0.816 -15.817  -6.518  1.00  0.00     0.012 A 
ATOM      4  C   UNL     1      -1.531 -14.575  -7.430  1.00  0.00     0.157 A 
ATOM      5  C   UNL     1       0.312 -14.699  -5.850  1.00  0.00     0.051 A 
ATOM      6  C   UNL     1      -0.854 -14.065  -6.296  1.00  0.00     0.157 A 
ENDROOT
BRANCH   1   7
ATOM      7  C   UNL     1       0.653 -17.519  -8.354  1.00  0.00     0.010 C 
ATOM      8  C   UNL     1       0.274 -18.776  -8.076  1.00  0.00     0.025 C 
BRANCH   8   9
ATOM      9  C   UNL     1      -0.539 -19.187  -6.916  1.00  0.00     0.064 C 
ATOM     10  O   UNL     1       0.035 -19.489  -5.838  1.00  0.00    -0.545 OA
ATOM     11  O   UNL     1      -1.928 -19.181  -6.965  1.00  0.00    -0.545 OA
ENDBRANCH   8   9
ENDBRANCH   1   7
BRANCH   4  12
ATOM     12  O   UNL     1      -2.707 -14.008  -7.924  1.00  0.00    -0.504 OA
ATOM     13  H   UNL     1      -3.611 -14.108  -7.484  1.00  0.00     0.293 HD
ENDBRANCH   4  12
BRANCH   6  14
ATOM     14  O   UNL     1      -1.303 -12.949  -5.588  1.00  0.00    -0.504 OA
ATOM     15  H   UNL     1      -2.178 -12.479  -5.770  1.00  0.00     0.293 HD
ENDBRANCH   6  14
TORSDOF 4
ENDMDL
MODEL 3
REMARK VINA RESULT:    -4.389      1.396      4.713
REMARK INTER + INTRA:          -5.394
REMARK INTER:                  -5.124
REMARK INTRA:                  -0.271
REMARK UNBOUND:                -0.236
REMARK SMILES O=C([O-])C=Cc1ccc(O)c(O)c1
REMARK SMILES IDX 6 1 13 2 7 3 11 4 8 5 9 6 5 7 4 8 2 9 1 10 3 11 12 12 10 14
REMARK H PARENT 12 13 10 15
REMARK Flexibility Score: inf
ROOT
ATOM      1  C   UNL     1      -1.325 -14.662  -5.038  1.00  0.00    -0.022 A 
ATOM      2  C   UNL     1      -2.614 -14.217  -4.717  1.00  0.00     0.058 A 
ATOM      3  C   UNL     1      -0.236 -13.795  -4.860  1.00  0.00     0.012 A 
ATOM      4  C   UNL     1      -2.833 -12.906  -4.273  1.00  0.00     0.157 A 
ATOM      5  C   UNL     1      -0.444 -12.487  -4.419  1.00  0.00     0.051 A 
ATOM      6  C   UNL     1      -1.734 -12.027  -4.128  1.00  0.00     0.157 A 
ENDROOT
BRANCH   1   7
ATOM      7  C   UNL     1      -1.125 -16.066  -5.452  1.00  0.00     0.010 C 
ATOM      8  C   UNL     1      -0.912 -16.482  -6.710  1.00  0.00     0.025 C 
BRANCH   8   9
ATOM      9  C   UNL     1      -1.028 -15.645  -7.919  1.00  0.00     0.064 C 
ATOM     10  O   UNL     1       0.011 -15.350  -8.564  1.00  0.00    -0.545 OA
ATOM     11  O   UNL     1      -2.264 -15.235  -8.402  1.00  0.00    -0.545 OA
ENDBRANCH   8   9
ENDBRANCH   1   7
BRANCH   4  12
ATOM     12  O   UNL     1      -4.146 -12.525  -3.988  1.00  0.00    -0.504 OA
ATOM     13  H   UNL     1      -4.554 -11.647  -4.274  1.00  0.00     0.293 HD
ENDBRANCH   4  12
BRANCH   6  14
ATOM     14  O   UNL     1      -1.874 -10.706  -3.697  1.00  0.00    -0.504 OA
ATOM     15  H   UNL     1      -2.627 -10.097  -3.983  1.00  0.00     0.293 HD
ENDBRANCH   6  14
TORSDOF 4
ENDMDL
MODEL 4
REMARK VINA RESULT:    -4.286      3.001      4.764
REMARK INTER + INTRA:          -5.273
REMARK INTER:                  -4.989
REMARK INTRA:                  -0.284
REMARK UNBOUND:                -0.236
REMARK SMILES O=C([O-])C=Cc1ccc(O)c(O)c1
REMARK SMILES IDX 6 1 13 2 7 3 11 4 8 5 9 6 5 7 4 8 2 9 1 10 3 11 12 12 10 14
REMARK H PARENT 12 13 10 15
REMARK Flexibility Score: inf
ROOT
ATOM      1  C   UNL     1       0.203 -17.053  -7.864  1.00  0.00    -0.022 A 
ATOM      2  C   UNL     1      -1.034 -17.241  -8.494  1.00  0.00     0.058 A 
ATOM      3  C   UNL     1       0.456 -15.846  -7.194  1.00  0.00     0.012 A 
ATOM      4  C   UNL     1      -1.997 -16.224  -8.508  1.00  0.00     0.157 A 
ATOM      5  C   UNL     1      -0.497 -14.825  -7.203  1.00  0.00     0.051 A 
ATOM      6  C   UNL     1      -1.722 -14.996  -7.858  1.00  0.00     0.157 A 
ENDROOT
BRANCH   1   7
ATOM      7  C   UNL     1       1.173 -18.166  -7.824  1.00  0.00     0.010 C 
ATOM      8  C   UNL     1       1.203 -19.138  -6.898  1.00  0.00     0.025 C 
BRANCH   8   9
ATOM      9  C   UNL     1       0.402 -19.164  -5.660  1.00  0.00     0.064 C 
ATOM     10  O   UNL     1       0.845 -18.595  -4.629  1.00  0.00    -0.545 OA
ATOM     11  O   UNL     1      -0.861 -19.741  -5.624  1.00  0.00    -0.545 OA
ENDBRANCH   8   9
ENDBRANCH   1   7
BRANCH   4  12
ATOM     12  O   UNL     1      -3.201 -16.474  -9.168  1.00  0.00    -0.504 OA
ATOM     13  H   UNL     1      -4.101 -16.150  -8.844  1.00  0.00     0.293 HD
ENDBRANCH   4  12
BRANCH   6  14
ATOM     14  O   UNL     1      -2.629 -13.935  -7.835  1.00  0.00    -0.504 OA
ATOM     15  H   UNL     1      -3.308 -13.757  -8.561  1.00  0.00     0.293 HD
ENDBRANCH   6  14
TORSDOF 4
ENDMDL
MODEL 5
REMARK VINA RESULT:    -4.243      1.386      2.285
REMARK INTER + INTRA:          -5.223
REMARK INTER:                  -4.968
REMARK INTRA:                  -0.255
REMARK UNBOUND:                -0.236
REMARK SMILES O=C([O-])C=Cc1ccc(O)c(O)c1
REMARK SMILES IDX 6 1 13 2 7 3 11 4 8 5 9 6 5 7 4 8 2 9 1 10 3 11 12 12 10 14
REMARK H PARENT 12 13 10 15
REMARK Flexibility Score: inf
ROOT
ATOM      1  C   UNL     1      -0.383 -15.917  -5.989  1.00  0.00    -0.022 A 
ATOM      2  C   UNL     1       0.340 -15.633  -7.155  1.00  0.00     0.058 A 
ATOM      3  C   UNL     1      -1.524 -16.730  -6.070  1.00  0.00     0.012 A 
ATOM      4  C   UNL     1      -0.091 -16.105  -8.402  1.00  0.00     0.157 A 
ATOM      5  C   UNL     1      -1.963 -17.204  -7.308  1.00  0.00     0.051 A 
ATOM      6  C   UNL     1      -1.262 -16.896  -8.480  1.00  0.00     0.157 A 
ENDROOT
BRANCH   1   7
ATOM      7  C   UNL     1       0.130 -15.448  -4.685  1.00  0.00     0.010 C 
ATOM      8  C   UNL     1      -0.276 -14.342  -4.043  1.00  0.00     0.025 C 
BRANCH   8   9
ATOM      9  C   UNL     1      -1.161 -13.303  -4.604  1.00  0.00     0.064 C 
ATOM     10  O   UNL     1      -0.664 -12.210  -4.979  1.00  0.00    -0.545 OA
ATOM     11  O   UNL     1      -2.518 -13.530  -4.792  1.00  0.00    -0.545 OA
ENDBRANCH   8   9
ENDBRANCH   1   7
BRANCH   4  12
ATOM     12  O   UNL     1       0.668 -15.769  -9.524  1.00  0.00    -0.504 OA
ATOM     13  H   UNL     1       0.346 -15.159 -10.262  1.00  0.00     0.293 HD
ENDBRANCH   4  12
BRANCH   6  14
ATOM     14  O   UNL     1      -1.757 -17.396  -9.686  1.00  0.00    -0.504 OA
ATOM     15  H   UNL     1      -2.734 -17.389  -9.942  1.00  0.00     0.293 HD
ENDBRANCH   6  14
TORSDOF 4
ENDMDL
MODEL 6
REMARK VINA RESULT:    -4.183      2.805      3.719
REMARK INTER + INTRA:          -5.152
REMARK INTER:                  -4.867
REMARK INTRA:                  -0.285
REMARK UNBOUND:                -0.236
REMARK SMILES O=C([O-])C=Cc1ccc(O)c(O)c1
REMARK SMILES IDX 6 1 13 2 7 3 11 4 8 5 9 6 5 7 4 8 2 9 1 10 3 11 12 12 10 14
REMARK H PARENT 12 13 10 15
REMARK Flexibility Score: inf
ROOT
ATOM      1  C   UNL     1       0.342 -16.065  -6.947  1.00  0.00    -0.022 A 
ATOM      2  C   UNL     1      -0.547 -14.984  -7.005  1.00  0.00     0.058 A 
ATOM      3  C   UNL     1       0.072 -17.217  -7.701  1.00  0.00     0.012 A 
ATOM      4  C   UNL     1      -1.724 -15.060  -7.760  1.00  0.00     0.157 A 
ATOM      5  C   UNL     1      -1.100 -17.303  -8.456  1.00  0.00     0.051 A 
ATOM      6  C   UNL     1      -2.007 -16.239  -8.491  1.00  0.00     0.157 A 
ENDROOT
BRANCH   1   7
ATOM      7  C   UNL     1       1.600 -15.930  -6.183  1.00  0.00     0.010 C 
ATOM      8  C   UNL     1       1.838 -16.468  -4.977  1.00  0.00     0.025 C 
BRANCH   8   9
ATOM      9  C   UNL     1       0.833 -17.125  -4.120  1.00  0.00     0.064 C 
ATOM     10  O   UNL     1       0.136 -16.424  -3.342  1.00  0.00    -0.545 OA
ATOM     11  O   UNL     1       0.589 -18.490  -4.203  1.00  0.00    -0.545 OA
ENDBRANCH   8   9
ENDBRANCH   1   7
BRANCH   4  12
ATOM     12  O   UNL     1      -2.573 -13.951  -7.758  1.00  0.00    -0.504 OA
ATOM     13  H   UNL     1      -2.256 -12.999  -7.647  1.00  0.00     0.293 HD
ENDBRANCH   4  12
BRANCH   6  14
ATOM     14  O   UNL     1      -3.163 -16.390  -9.261  1.00  0.00    -0.504 OA
ATOM     15  H   UNL     1      -3.293 -15.974 -10.172  1.00  0.00     0.293 HD
ENDBRANCH   6  14
TORSDOF 4
ENDMDL
MODEL 7
REMARK VINA RESULT:    -4.083      2.197      5.131
REMARK INTER + INTRA:          -5.035
REMARK INTER:                  -4.907
REMARK INTRA:                  -0.128
REMARK UNBOUND:                -0.236
REMARK SMILES O=C([O-])C=Cc1ccc(O)c(O)c1
REMARK SMILES IDX 6 1 13 2 7 3 11 4 8 5 9 6 5 7 4 8 2 9 1 10 3 11 12 12 10 14
REMARK H PARENT 12 13 10 15
REMARK Flexibility Score: inf
ROOT
ATOM      1  C   UNL     1      -0.222 -16.377  -7.614  1.00  0.00    -0.022 A 
ATOM      2  C   UNL     1       0.506 -16.679  -6.456  1.00  0.00     0.058 A 
ATOM      3  C   UNL     1      -0.747 -15.086  -7.777  1.00  0.00     0.012 A 
ATOM      4  C   UNL     1       0.669 -15.728  -5.440  1.00  0.00     0.157 A 
ATOM      5  C   UNL     1      -0.591 -14.132  -6.770  1.00  0.00     0.051 A 
ATOM      6  C   UNL     1       0.107 -14.439  -5.596  1.00  0.00     0.157 A 
ENDROOT
BRANCH   1   7
ATOM      7  C   UNL     1      -0.328 -17.387  -8.687  1.00  0.00     0.010 C 
ATOM      8  C   UNL     1      -1.475 -17.854  -9.203  1.00  0.00     0.025 C 
BRANCH   8   9
ATOM      9  C   UNL     1      -2.824 -17.591  -8.668  1.00  0.00     0.064 C 
ATOM     10  O   UNL     1      -3.234 -18.253  -7.681  1.00  0.00    -0.545 OA
ATOM     11  O   UNL     1      -3.625 -16.579  -9.184  1.00  0.00    -0.545 OA
ENDBRANCH   8   9
ENDBRANCH   1   7
BRANCH   4  12
ATOM     12  O   UNL     1       1.392 -16.104  -4.306  1.00  0.00    -0.504 OA
ATOM     13  H   UNL     1       2.301 -16.544  -4.336  1.00  0.00     0.293 HD
ENDBRANCH   4  12
BRANCH   6  14
ATOM     14  O   UNL     1       0.222 -13.442  -4.625  1.00  0.00    -0.504 OA
ATOM     15  H   UNL     1       0.506 -13.614  -3.671  1.00  0.00     0.293 HD
ENDBRANCH   6  14
TORSDOF 4
ENDMDL
MODEL 8
REMARK VINA RESULT:    -4.015      1.902      2.700
REMARK INTER + INTRA:          -4.955
REMARK INTER:                  -4.694
REMARK INTRA:                  -0.261
REMARK UNBOUND:                -0.236
REMARK SMILES O=C([O-])C=Cc1ccc(O)c(O)c1
REMARK SMILES IDX 6 1 13 2 7 3 11 4 8 5 9 6 5 7 4 8 2 9 1 10 3 11 12 12 10 14
REMARK H PARENT 12 13 10 15
REMARK Flexibility Score: inf
ROOT
ATOM      1  C   UNL     1      -0.397 -14.329  -6.193  1.00  0.00    -0.022 A 
ATOM      2  C   UNL     1       0.548 -15.350  -6.357  1.00  0.00     0.058 A 
ATOM      3  C   UNL     1      -1.537 -14.310  -7.011  1.00  0.00     0.012 A 
ATOM      4  C   UNL     1       0.395 -16.317  -7.360  1.00  0.00     0.157 A 
ATOM      5  C   UNL     1      -1.697 -15.269  -8.014  1.00  0.00     0.051 A 
ATOM      6  C   UNL     1      -0.740 -16.272  -8.204  1.00  0.00     0.157 A 
ENDROOT
BRANCH   1   7
ATOM      7  C   UNL     1      -0.231 -13.359  -5.091  1.00  0.00     0.010 C 
ATOM      8  C   UNL     1      -0.743 -13.490  -3.857  1.00  0.00     0.025 C 
BRANCH   8   9
ATOM      9  C   UNL     1      -1.711 -14.520  -3.437  1.00  0.00     0.064 C 
ATOM     10  O   UNL     1      -1.291 -15.569  -2.885  1.00  0.00    -0.545 OA
ATOM     11  O   UNL     1      -3.081 -14.327  -3.572  1.00  0.00    -0.545 OA
ENDBRANCH   8   9
ENDBRANCH   1   7
BRANCH   4  12
ATOM     12  O   UNL     1       1.384 -17.295  -7.478  1.00  0.00    -0.504 OA
ATOM     13  H   UNL     1       1.343 -18.197  -7.026  1.00  0.00     0.293 HD
ENDBRANCH   4  12
BRANCH   6  14
ATOM     14  O   UNL     1      -0.957 -17.195  -9.229  1.00  0.00    -0.504 OA
ATOM     15  H   UNL     1      -1.836 -17.304  -9.714  1.00  0.00     0.293 HD
ENDBRANCH   6  14
TORSDOF 4
ENDMDL
MODEL 9
REMARK VINA RESULT:    -3.955      3.275      4.480
REMARK INTER + INTRA:          -4.884
REMARK INTER:                  -4.808
REMARK INTRA:                  -0.076
REMARK UNBOUND:                -0.236
REMARK SMILES O=C([O-])C=Cc1ccc(O)c(O)c1
REMARK SMILES IDX 6 1 13 2 7 3 11 4 8 5 9 6 5 7 4 8 2 9 1 10 3 11 12 12 10 14
REMARK H PARENT 12 13 10 15
REMARK Flexibility Score: inf
ROOT
ATOM      1  C   UNL     1       0.129 -15.885  -7.477  1.00  0.00    -0.022 A 
ATOM      2  C   UNL     1       0.880 -16.043  -6.306  1.00  0.00     0.058 A 
ATOM      3  C   UNL     1       0.111 -16.919  -8.426  1.00  0.00     0.012 A 
ATOM      4  C   UNL     1       1.653 -17.193  -6.096  1.00  0.00     0.157 A 
ATOM      5  C   UNL     1       0.879 -18.068  -8.227  1.00  0.00     0.051 A 
ATOM      6  C   UNL     1       1.657 -18.217  -7.073  1.00  0.00     0.157 A 
ENDROOT
BRANCH   1   7
ATOM      7  C   UNL     1      -0.716 -14.684  -7.641  1.00  0.00     0.010 C 
ATOM      8  C   UNL     1      -2.058 -14.674  -7.658  1.00  0.00     0.025 C 
BRANCH   8   9
ATOM      9  C   UNL     1      -2.921 -15.869  -7.709  1.00  0.00     0.064 C 
ATOM     10  O   UNL     1      -3.397 -16.237  -8.814  1.00  0.00    -0.545 OA
ATOM     11  O   UNL     1      -3.163 -16.638  -6.578  1.00  0.00    -0.545 OA
ENDBRANCH   8   9
ENDBRANCH   1   7
BRANCH   4  12
ATOM     12  O   UNL     1       2.390 -17.276  -4.913  1.00  0.00    -0.504 OA
ATOM     13  H   UNL     1       2.053 -16.962  -4.015  1.00  0.00     0.293 HD
ENDBRANCH   4  12
BRANCH   6  14
ATOM     14  O   UNL     1       2.407 -19.387  -6.937  1.00  0.00    -0.504 OA
ATOM     15  H   UNL     1       2.282 -20.053  -6.188  1.00  0.00     0.293 HD
ENDBRANCH   6  14
TORSDOF 4
ENDMDL
