MODEL 1
REMARK VINA RESULT:    -6.150      0.000      0.000
REMARK INTER + INTRA:          -7.201
REMARK INTER:                  -7.049
REMARK INTRA:                  -0.152
REMARK UNBOUND:                -0.152
REMARK SMILES O=C([O-])C=Cc1ccc(O)cc1
REMARK SMILES IDX 6 1 7 2 12 3 8 4 11 5 9 6 5 7 4 8 2 9 1 10 3 11 10 12
REMARK H PARENT 10 13
REMARK Flexibility Score: inf
ROOT
ATOM      1  C   UNL     1     137.316 134.642 114.222  1.00  0.00    -0.025 A 
ATOM      2  C   UNL     1     138.665 134.604 113.812  1.00  0.00     0.012 A 
ATOM      3  C   UNL     1     137.025 134.617 115.596  1.00  0.00     0.012 A 
ATOM      4  C   UNL     1     139.692 134.570 114.761  1.00  0.00     0.047 A 
ATOM      5  C   UNL     1     138.055 134.583 116.542  1.00  0.00     0.047 A 
ATOM      6  C   UNL     1     139.392 134.562 116.126  1.00  0.00     0.115 A 
ENDROOT
BRANCH   1   7
ATOM      7  C   UNL     1     136.189 134.667 113.257  1.00  0.00     0.010 C 
ATOM      8  C   UNL     1     134.899 134.689 113.619  1.00  0.00     0.025 C 
BRANCH   8   9
ATOM      9  C   UNL     1     133.806 134.701 112.633  1.00  0.00     0.064 C 
ATOM     10  O   UNL     1     132.816 135.471 112.765  1.00  0.00    -0.545 OA
ATOM     11  O   UNL     1     133.864 133.848 111.539  1.00  0.00    -0.545 OA
ENDBRANCH   8   9
ENDBRANCH   1   7
BRANCH   6  12
ATOM     12  O   UNL     1     140.426 134.528 117.059  1.00  0.00    -0.508 OA
ATOM     13  H   UNL     1     140.264 134.740 118.036  1.00  0.00     0.293 HD
ENDBRANCH   6  12
TORSDOF 3
ENDMDL
MODEL 2
REMARK VINA RESULT:    -6.107      0.113      1.402
REMARK INTER + INTRA:          -7.152
REMARK INTER:                  -7.013
REMARK INTRA:                  -0.139
REMARK UNBOUND:                -0.152
REMARK SMILES O=C([O-])C=Cc1ccc(O)cc1
REMARK SMILES IDX 6 1 7 2 12 3 8 4 11 5 9 6 5 7 4 8 2 9 1 10 3 11 10 12
REMARK H PARENT 10 13
REMARK Flexibility Score: inf
ROOT
ATOM      1  C   UNL     1     137.265 134.602 114.245  1.00  0.00    -0.025 A 
ATOM      2  C   UNL     1     137.018 134.599 115.634  1.00  0.00     0.012 A 
ATOM      3  C   UNL     1     138.596 134.603 113.795  1.00  0.00     0.012 A 
ATOM      4  C   UNL     1     138.082 134.571 116.542  1.00  0.00     0.047 A 
ATOM      5  C   UNL     1     139.656 134.575 114.705  1.00  0.00     0.047 A 
ATOM      6  C   UNL     1     139.401 134.557 116.082  1.00  0.00     0.115 A 
ENDROOT
BRANCH   1   7
ATOM      7  C   UNL     1     136.174 134.643 113.240  1.00  0.00     0.010 C 
ATOM      8  C   UNL     1     134.874 134.538 113.546  1.00  0.00     0.025 C 
BRANCH   8   9
ATOM      9  C   UNL     1     133.819 134.570 112.520  1.00  0.00     0.064 C 
ATOM     10  O   UNL     1     132.853 135.375 112.603  1.00  0.00    -0.545 OA
ATOM     11  O   UNL     1     133.889 133.698 111.442  1.00  0.00    -0.545 OA
ENDBRANCH   8   9
ENDBRANCH   1   7
BRANCH   6  12
ATOM     12  O   UNL     1     140.450 134.528 116.999  1.00  0.00    -0.508 OA
ATOM     13  H   UNL     1     140.452 133.883 117.780  1.00  0.00     0.293 HD
ENDBRANCH   6  12
TORSDOF 3
ENDMDL
MODEL 3
REMARK VINA RESULT:    -5.996      7.459     10.844
REMARK INTER + INTRA:          -7.024
REMARK INTER:                  -6.883
REMARK INTRA:                  -0.141
REMARK UNBOUND:                -0.152
REMARK SMILES O=C([O-])C=Cc1ccc(O)cc1
REMARK SMILES IDX 6 1 7 2 12 3 8 4 11 5 9 6 5 7 4 8 2 9 1 10 3 11 10 12
REMARK H PARENT 10 13
REMARK Flexibility Score: inf
ROOT
ATOM      1  C   UNL     1     128.471 134.094 109.267  1.00  0.00    -0.025 A 
ATOM      2  C   UNL     1     128.696 134.521 107.942  1.00  0.00     0.012 A 
ATOM      3  C   UNL     1     127.425 134.680 109.999  1.00  0.00     0.012 A 
ATOM      4  C   UNL     1     127.872 135.492 107.362  1.00  0.00     0.047 A 
ATOM      5  C   UNL     1     126.604 135.650 109.416  1.00  0.00     0.047 A 
ATOM      6  C   UNL     1     126.825 136.056 108.094  1.00  0.00     0.115 A 
ENDROOT
BRANCH   1   7
ATOM      7  C   UNL     1     129.322 133.076 109.934  1.00  0.00     0.010 C 
ATOM      8  C   UNL     1     130.051 133.318 111.031  1.00  0.00     0.025 C 
BRANCH   8   9
ATOM      9  C   UNL     1     130.894 132.287 111.658  1.00  0.00     0.064 C 
ATOM     10  O   UNL     1     131.616 131.523 110.962  1.00  0.00    -0.545 OA
ATOM     11  O   UNL     1     130.893 132.151 113.040  1.00  0.00    -0.545 OA
ENDBRANCH   8   9
ENDBRANCH   1   7
BRANCH   6  12
ATOM     12  O   UNL     1     126.013 137.022 107.502  1.00  0.00    -0.508 OA
ATOM     13  H   UNL     1     125.782 137.885 107.980  1.00  0.00     0.293 HD
ENDBRANCH   6  12
TORSDOF 3
ENDMDL
MODEL 4
REMARK VINA RESULT:    -5.985     11.398     12.296
REMARK INTER + INTRA:          -7.011
REMARK INTER:                  -6.863
REMARK INTRA:                  -0.148
REMARK UNBOUND:                -0.152
REMARK SMILES O=C([O-])C=Cc1ccc(O)cc1
REMARK SMILES IDX 6 1 7 2 12 3 8 4 11 5 9 6 5 7 4 8 2 9 1 10 3 11 10 12
REMARK H PARENT 10 13
REMARK Flexibility Score: inf
ROOT
ATOM      1  C   UNL     1     126.511 134.499 108.996  1.00  0.00    -0.025 A 
ATOM      2  C   UNL     1     127.464 133.582 108.505  1.00  0.00     0.012 A 
ATOM      3  C   UNL     1     126.506 135.808 108.485  1.00  0.00     0.012 A 
ATOM      4  C   UNL     1     128.368 133.966 107.509  1.00  0.00     0.047 A 
ATOM      5  C   UNL     1     127.410 136.188 107.489  1.00  0.00     0.047 A 
ATOM      6  C   UNL     1     128.343 135.266 106.997  1.00  0.00     0.115 A 
ENDROOT
BRANCH   1   7
ATOM      7  C   UNL     1     125.538 134.147 110.059  1.00  0.00     0.010 C 
ATOM      8  C   UNL     1     125.067 135.022 110.958  1.00  0.00     0.025 C 
BRANCH   8   9
ATOM      9  C   UNL     1     124.111 134.634 112.008  1.00  0.00     0.064 C 
ATOM     10  O   UNL     1     124.309 133.617 112.727  1.00  0.00    -0.545 OA
ATOM     11  O   UNL     1     122.969 135.398 112.208  1.00  0.00    -0.545 OA
ENDBRANCH   8   9
ENDBRANCH   1   7
BRANCH   6  12
ATOM     12  O   UNL     1     129.249 135.633 106.005  1.00  0.00    -0.508 OA
ATOM     13  H   UNL     1     129.302 135.135 105.125  1.00  0.00     0.293 HD
ENDBRANCH   6  12
TORSDOF 3
ENDMDL
MODEL 5
REMARK VINA RESULT:    -5.933      7.536     10.996
REMARK INTER + INTRA:          -6.952
REMARK INTER:                  -6.819
REMARK INTRA:                  -0.133
REMARK UNBOUND:                -0.152
REMARK SMILES O=C([O-])C=Cc1ccc(O)cc1
REMARK SMILES IDX 6 1 7 2 12 3 8 4 11 5 9 6 5 7 4 8 2 9 1 10 3 11 10 12
REMARK H PARENT 10 13
REMARK Flexibility Score: inf
ROOT
ATOM      1  C   UNL     1     128.564 134.213 108.892  1.00  0.00    -0.025 A 
ATOM      2  C   UNL     1     127.527 134.730 109.695  1.00  0.00     0.012 A 
ATOM      3  C   UNL     1     128.703 134.687 107.577  1.00  0.00     0.012 A 
ATOM      4  C   UNL     1     126.670 135.717 109.195  1.00  0.00     0.047 A 
ATOM      5  C   UNL     1     127.845 135.673 107.081  1.00  0.00     0.047 A 
ATOM      6  C   UNL     1     126.827 136.192 107.891  1.00  0.00     0.115 A 
ENDROOT
BRANCH   1   7
ATOM      7  C   UNL     1     129.493 133.158 109.369  1.00  0.00     0.010 C 
ATOM      8  C   UNL     1     130.421 133.355 110.316  1.00  0.00     0.025 C 
BRANCH   8   9
ATOM      9  C   UNL     1     131.334 132.287 110.755  1.00  0.00     0.064 C 
ATOM     10  O   UNL     1     131.131 131.654 111.826  1.00  0.00    -0.545 OA
ATOM     11  O   UNL     1     132.440 131.972 109.977  1.00  0.00    -0.545 OA
ENDBRANCH   8   9
ENDBRANCH   1   7
BRANCH   6  12
ATOM     12  O   UNL     1     125.966 137.175 107.408  1.00  0.00    -0.508 OA
ATOM     13  H   UNL     1     125.223 136.954 106.755  1.00  0.00     0.293 HD
ENDBRANCH   6  12
TORSDOF 3
ENDMDL
MODEL 6
REMARK VINA RESULT:    -5.907     11.438     12.365
REMARK INTER + INTRA:          -6.922
REMARK INTER:                  -6.783
REMARK INTRA:                  -0.139
REMARK UNBOUND:                -0.152
REMARK SMILES O=C([O-])C=Cc1ccc(O)cc1
REMARK SMILES IDX 6 1 7 2 12 3 8 4 11 5 9 6 5 7 4 8 2 9 1 10 3 11 10 12
REMARK H PARENT 10 13
REMARK Flexibility Score: inf
ROOT
ATOM      1  C   UNL     1     126.535 134.621 109.034  1.00  0.00    -0.025 A 
ATOM      2  C   UNL     1     126.493 135.891 108.422  1.00  0.00     0.012 A 
ATOM      3  C   UNL     1     127.459 133.672 108.562  1.00  0.00     0.012 A 
ATOM      4  C   UNL     1     127.375 136.204 107.382  1.00  0.00     0.047 A 
ATOM      5  C   UNL     1     128.338 133.990 107.523  1.00  0.00     0.047 A 
ATOM      6  C   UNL     1     128.299 135.259 106.932  1.00  0.00     0.115 A 
ENDROOT
BRANCH   1   7
ATOM      7  C   UNL     1     125.616 134.232 110.132  1.00  0.00     0.010 C 
ATOM      8  C   UNL     1     124.914 135.111 110.861  1.00  0.00     0.025 C 
BRANCH   8   9
ATOM      9  C   UNL     1     124.020 134.689 111.953  1.00  0.00     0.064 C 
ATOM     10  O   UNL     1     124.240 133.633 112.604  1.00  0.00    -0.545 OA
ATOM     11  O   UNL     1     122.914 135.467 112.269  1.00  0.00    -0.545 OA
ENDBRANCH   8   9
ENDBRANCH   1   7
BRANCH   6  12
ATOM     12  O   UNL     1     129.171 135.586 105.895  1.00  0.00    -0.508 OA
ATOM     13  H   UNL     1     129.865 134.929 105.559  1.00  0.00     0.293 HD
ENDBRANCH   6  12
TORSDOF 3
ENDMDL
MODEL 7
REMARK VINA RESULT:    -5.764      6.790     10.408
REMARK INTER + INTRA:          -6.759
REMARK INTER:                  -6.619
REMARK INTRA:                  -0.139
REMARK UNBOUND:                -0.152
REMARK SMILES O=C([O-])C=Cc1ccc(O)cc1
REMARK SMILES IDX 6 1 7 2 12 3 8 4 11 5 9 6 5 7 4 8 2 9 1 10 3 11 10 12
REMARK H PARENT 10 13
REMARK Flexibility Score: inf
ROOT
ATOM      1  C   UNL     1     129.137 133.233 109.731  1.00  0.00    -0.025 A 
ATOM      2  C   UNL     1     128.354 134.136 110.479  1.00  0.00     0.012 A 
ATOM      3  C   UNL     1     128.935 133.149 108.343  1.00  0.00     0.012 A 
ATOM      4  C   UNL     1     127.411 134.950 109.842  1.00  0.00     0.047 A 
ATOM      5  C   UNL     1     127.992 133.966 107.711  1.00  0.00     0.047 A 
ATOM      6  C   UNL     1     127.229 134.870 108.460  1.00  0.00     0.115 A 
ENDROOT
BRANCH   1   7
ATOM      7  C   UNL     1     130.142 132.338 110.358  1.00  0.00     0.010 C 
ATOM      8  C   UNL     1     130.696 132.564 111.557  1.00  0.00     0.025 C 
BRANCH   8   9
ATOM      9  C   UNL     1     131.700 131.659 112.142  1.00  0.00     0.064 C 
ATOM     10  O   UNL     1     131.830 130.476 111.729  1.00  0.00    -0.545 OA
ATOM     11  O   UNL     1     132.515 132.117 113.167  1.00  0.00    -0.545 OA
ENDBRANCH   8   9
ENDBRANCH   1   7
BRANCH   6  12
ATOM     12  O   UNL     1     126.287 135.689 107.840  1.00  0.00    -0.508 OA
ATOM     13  H   UNL     1     126.058 136.604 108.208  1.00  0.00     0.293 HD
ENDBRANCH   6  12
TORSDOF 3
ENDMDL
MODEL 8
REMARK VINA RESULT:    -5.749      8.258      9.228
REMARK INTER + INTRA:          -6.741
REMARK INTER:                  -6.603
REMARK INTRA:                  -0.138
REMARK UNBOUND:                -0.152
REMARK SMILES O=C([O-])C=Cc1ccc(O)cc1
REMARK SMILES IDX 6 1 7 2 12 3 8 4 11 5 9 6 5 7 4 8 2 9 1 10 3 11 10 12
REMARK H PARENT 10 13
REMARK Flexibility Score: inf
ROOT
ATOM      1  C   UNL     1     130.608 135.317 120.643  1.00  0.00    -0.025 A 
ATOM      2  C   UNL     1     130.490 134.157 121.437  1.00  0.00     0.012 A 
ATOM      3  C   UNL     1     130.464 136.573 121.256  1.00  0.00     0.012 A 
ATOM      4  C   UNL     1     130.261 134.261 122.812  1.00  0.00     0.047 A 
ATOM      5  C   UNL     1     130.236 136.673 122.632  1.00  0.00     0.047 A 
ATOM      6  C   UNL     1     130.136 135.515 123.414  1.00  0.00     0.115 A 
ENDROOT
BRANCH   1   7
ATOM      7  C   UNL     1     130.838 135.263 119.178  1.00  0.00     0.010 C 
ATOM      8  C   UNL     1     131.874 134.631 118.610  1.00  0.00     0.025 C 
BRANCH   8   9
ATOM      9  C   UNL     1     132.078 134.609 117.152  1.00  0.00     0.064 C 
ATOM     10  O   UNL     1     131.235 135.122 116.368  1.00  0.00    -0.545 OA
ATOM     11  O   UNL     1     133.217 134.012 116.631  1.00  0.00    -0.545 OA
ENDBRANCH   8   9
ENDBRANCH   1   7
BRANCH   6  12
ATOM     12  O   UNL     1     129.909 135.603 124.786  1.00  0.00    -0.508 OA
ATOM     13  H   UNL     1     128.982 135.766 125.160  1.00  0.00     0.293 HD
ENDBRANCH   6  12
TORSDOF 3
ENDMDL
MODEL 9
REMARK VINA RESULT:    -5.652      7.059      9.138
REMARK INTER + INTRA:          -6.630
REMARK INTER:                  -6.478
REMARK INTRA:                  -0.152
REMARK UNBOUND:                -0.152
REMARK SMILES O=C([O-])C=Cc1ccc(O)cc1
REMARK SMILES IDX 6 1 7 2 12 3 8 4 11 5 9 6 5 7 4 8 2 9 1 10 3 11 10 12
REMARK H PARENT 10 13
REMARK Flexibility Score: inf
ROOT
ATOM      1  C   UNL     1     129.358 133.767 110.933  1.00  0.00    -0.025 A 
ATOM      2  C   UNL     1     130.520 133.731 111.731  1.00  0.00     0.012 A 
ATOM      3  C   UNL     1     129.359 133.086 109.704  1.00  0.00     0.012 A 
ATOM      4  C   UNL     1     131.642 133.008 111.314  1.00  0.00     0.047 A 
ATOM      5  C   UNL     1     130.483 132.364 109.291  1.00  0.00     0.047 A 
ATOM      6  C   UNL     1     131.627 132.322 110.097  1.00  0.00     0.115 A 
ENDROOT
BRANCH   1   7
ATOM      7  C   UNL     1     128.145 134.528 111.322  1.00  0.00     0.010 C 
ATOM      8  C   UNL     1     127.045 134.619 110.561  1.00  0.00     0.025 C 
BRANCH   8   9
ATOM      9  C   UNL     1     125.864 135.394 110.975  1.00  0.00     0.064 C 
ATOM     10  O   UNL     1     125.981 136.557 111.449  1.00  0.00    -0.545 OA
ATOM     11  O   UNL     1     124.600 134.835 110.844  1.00  0.00    -0.545 OA
ENDBRANCH   8   9
ENDBRANCH   1   7
BRANCH   6  12
ATOM     12  O   UNL     1     132.753 131.605 109.696  1.00  0.00    -0.508 OA
ATOM     13  H   UNL     1     132.676 130.673 109.306  1.00  0.00     0.293 HD
ENDBRANCH   6  12
TORSDOF 3
ENDMDL
