MODEL 1
REMARK VINA RESULT:    -2.435      0.000      0.000
REMARK INTER + INTRA:          -2.435
REMARK INTER:                  -2.435
REMARK INTRA:                   0.000
REMARK UNBOUND:                 0.000
REMARK SMILES CC(=O)[O-]
REMARK SMILES IDX 1 1 2 2 3 3 4 4
REMARK H PARENT
REMARK Flexibility Score: inf
ROOT
ATOM      1  C   UNL     1      33.589  19.786 -20.909  1.00  0.00     0.063 C 
ATOM      2  C   UNL     1      34.413  18.870 -20.070  1.00  0.00     0.038 C 
ATOM      3  O   UNL     1      35.656  18.794 -20.252  1.00  0.00    -0.550 OA
ATOM      4  O   UNL     1      33.820  18.138 -19.049  1.00  0.00    -0.550 OA
ENDROOT
TORSDOF 0
ENDMDL
MODEL 2
REMARK VINA RESULT:    -2.318      1.923      2.169
REMARK INTER + INTRA:          -2.318
REMARK INTER:                  -2.318
REMARK INTRA:                   0.000
REMARK UNBOUND:                 0.000
REMARK SMILES CC(=O)[O-]
REMARK SMILES IDX 1 1 2 2 3 3 4 4
REMARK H PARENT
REMARK Flexibility Score: inf
ROOT
ATOM      1  C   UNL     1      34.897  18.390 -20.138  1.00  0.00     0.063 C 
ATOM      2  C   UNL     1      33.635  18.889 -20.755  1.00  0.00     0.038 C 
ATOM      3  O   UNL     1      33.406  20.125 -20.812  1.00  0.00    -0.550 OA
ATOM      4  O   UNL     1      32.733  17.993 -21.315  1.00  0.00    -0.550 OA
ENDROOT
TORSDOF 0
ENDMDL
MODEL 3
REMARK VINA RESULT:    -2.298      1.699      1.948
REMARK INTER + INTRA:          -2.298
REMARK INTER:                  -2.298
REMARK INTRA:                   0.000
REMARK UNBOUND:                 0.000
REMARK SMILES CC(=O)[O-]
REMARK SMILES IDX 1 1 2 2 3 3 4 4
REMARK H PARENT
REMARK Flexibility Score: inf
ROOT
ATOM      1  C   UNL     1      34.962  18.452 -20.160  1.00  0.00     0.063 C 
ATOM      2  C   UNL     1      33.893  19.491 -20.134  1.00  0.00     0.038 C 
ATOM      3  O   UNL     1      33.492  20.011 -21.208  1.00  0.00    -0.550 OA
ATOM      4  O   UNL     1      33.297  19.848 -18.931  1.00  0.00    -0.550 OA
ENDROOT
TORSDOF 0
ENDMDL
MODEL 4
REMARK VINA RESULT:    -2.106     11.665     11.951
REMARK INTER + INTRA:          -2.106
REMARK INTER:                  -2.106
REMARK INTRA:                   0.000
REMARK UNBOUND:                 0.000
REMARK SMILES CC(=O)[O-]
REMARK SMILES IDX 1 1 2 2 3 3 4 4
REMARK H PARENT
REMARK Flexibility Score: inf
ROOT
ATOM      1  C   UNL     1      44.479  16.129 -22.311  1.00  0.00     0.063 C 
ATOM      2  C   UNL     1      45.311  14.946 -22.674  1.00  0.00     0.038 C 
ATOM      3  O   UNL     1      45.471  14.633 -23.882  1.00  0.00    -0.550 OA
ATOM      4  O   UNL     1      45.955  14.217 -21.682  1.00  0.00    -0.550 OA
ENDROOT
TORSDOF 0
ENDMDL
MODEL 5
REMARK VINA RESULT:    -1.791     16.383     16.732
REMARK INTER + INTRA:          -1.791
REMARK INTER:                  -1.791
REMARK INTRA:                   0.000
REMARK UNBOUND:                 0.000
REMARK SMILES CC(=O)[O-]
REMARK SMILES IDX 1 1 2 2 3 3 4 4
REMARK H PARENT
REMARK Flexibility Score: inf
ROOT
ATOM      1  C   UNL     1      40.789   5.403 -14.789  1.00  0.00     0.063 C 
ATOM      2  C   UNL     1      42.254   5.191 -14.617  1.00  0.00     0.038 C 
ATOM      3  O   UNL     1      43.033   5.345 -15.594  1.00  0.00    -0.550 OA
ATOM      4  O   UNL     1      42.770   4.876 -13.367  1.00  0.00    -0.550 OA
ENDROOT
TORSDOF 0
ENDMDL
MODEL 6
REMARK VINA RESULT:    -1.687     15.678     16.081
REMARK INTER + INTRA:          -1.687
REMARK INTER:                  -1.687
REMARK INTRA:                   0.000
REMARK UNBOUND:                 0.000
REMARK SMILES CC(=O)[O-]
REMARK SMILES IDX 1 1 2 2 3 3 4 4
REMARK H PARENT
REMARK Flexibility Score: inf
ROOT
ATOM      1  C   UNL     1      39.611   4.973 -24.370  1.00  0.00     0.063 C 
ATOM      2  C   UNL     1      40.899   5.144 -25.100  1.00  0.00     0.038 C 
ATOM      3  O   UNL     1      41.299   4.252 -25.893  1.00  0.00    -0.550 OA
ATOM      4  O   UNL     1      41.635   6.313 -24.950  1.00  0.00    -0.550 OA
ENDROOT
TORSDOF 0
ENDMDL
MODEL 7
REMARK VINA RESULT:    -1.675     16.687     17.064
REMARK INTER + INTRA:          -1.675
REMARK INTER:                  -1.675
REMARK INTRA:                   0.000
REMARK UNBOUND:                 0.000
REMARK SMILES CC(=O)[O-]
REMARK SMILES IDX 1 1 2 2 3 3 4 4
REMARK H PARENT
REMARK Flexibility Score: inf
ROOT
ATOM      1  C   UNL     1      42.689   5.159 -15.195  1.00  0.00     0.063 C 
ATOM      2  C   UNL     1      41.644   4.205 -15.666  1.00  0.00     0.038 C 
ATOM      3  O   UNL     1      41.186   4.298 -16.835  1.00  0.00    -0.550 OA
ATOM      4  O   UNL     1      41.212   3.179 -14.836  1.00  0.00    -0.550 OA
ENDROOT
TORSDOF 0
ENDMDL
MODEL 8
REMARK VINA RESULT:    -1.673     14.431     14.920
REMARK INTER + INTRA:          -1.673
REMARK INTER:                  -1.673
REMARK INTRA:                   0.000
REMARK UNBOUND:                 0.000
REMARK SMILES CC(=O)[O-]
REMARK SMILES IDX 1 1 2 2 3 3 4 4
REMARK H PARENT
REMARK Flexibility Score: inf
ROOT
ATOM      1  C   UNL     1      41.415   5.391 -24.965  1.00  0.00     0.063 C 
ATOM      2  C   UNL     1      41.158   6.857 -25.058  1.00  0.00     0.038 C 
ATOM      3  O   UNL     1      40.331   7.403 -24.282  1.00  0.00    -0.550 OA
ATOM      4  O   UNL     1      41.870   7.633 -25.964  1.00  0.00    -0.550 OA
ENDROOT
TORSDOF 0
ENDMDL
MODEL 9
REMARK VINA RESULT:    -1.668      2.983      3.507
REMARK INTER + INTRA:          -1.668
REMARK INTER:                  -1.668
REMARK INTRA:                   0.000
REMARK UNBOUND:                 0.000
REMARK SMILES CC(=O)[O-]
REMARK SMILES IDX 1 1 2 2 3 3 4 4
REMARK H PARENT
REMARK Flexibility Score: inf
ROOT
ATOM      1  C   UNL     1      30.720  19.747 -18.832  1.00  0.00     0.063 C 
ATOM      2  C   UNL     1      32.103  20.009 -18.339  1.00  0.00     0.038 C 
ATOM      3  O   UNL     1      32.328  20.091 -17.104  1.00  0.00    -0.550 OA
ATOM      4  O   UNL     1      33.156  20.108 -19.240  1.00  0.00    -0.550 OA
ENDROOT
TORSDOF 0
ENDMDL
