MODEL 1
REMARK VINA RESULT:    -6.577      0.000      0.000
REMARK INTER + INTRA:         -11.018
REMARK INTER:                 -10.230
REMARK INTRA:                  -0.788
REMARK UNBOUND:                -0.788
REMARK SMILES COc1cc(CNC(=O)CCCCC=CC(C)C)ccc1O
REMARK SMILES IDX 11 1 12 2 13 3 14 4 15 5 16 6 17 7 18 8 10 9 8 10 9 11 7 12
REMARK SMILES IDX 6 14 5 15 4 16 19 17 3 18 20 19 21 20 2 21 1 22 22 23
REMARK H PARENT 7 13 22 24
REMARK Flexibility Score: inf
ROOT
ATOM      1  C   UNL     1      93.009 -59.144 103.127  1.00  0.00     0.010 C 
ENDROOT
BRANCH   1   2
ATOM      2  C   UNL     1      94.380 -59.716 103.530  1.00  0.00     0.005 C 
BRANCH   2   3
ATOM      3  C   UNL     1      95.123 -58.807 104.518  1.00  0.00     0.027 C 
BRANCH   3   4
ATOM      4  C   UNL     1      96.341 -59.482 105.084  1.00  0.00    -0.031 C 
ATOM      5  C   UNL     1      96.545 -60.799 104.942  1.00  0.00    -0.028 C 
BRANCH   5   6
ATOM      6  C   UNL     1      97.792 -61.463 105.476  1.00  0.00     0.005 C 
ATOM      7  C   UNL     1      98.328 -62.488 104.469  1.00  0.00     0.012 C 
ATOM      8  C   UNL     1      98.867 -60.415 105.792  1.00  0.00     0.012 C 
ENDBRANCH   5   6
ENDBRANCH   3   4
ENDBRANCH   2   3
ENDBRANCH   1   2
BRANCH   1   9
ATOM      9  C   UNL     1      92.880 -58.956 101.608  1.00  0.00     0.100 C 
BRANCH   9  10
ATOM     10  C   UNL     1      92.250 -60.156 100.965  1.00  0.00     0.220 C 
ATOM     11  O   UNL     1      92.114 -60.183  99.711  1.00  0.00    -0.275 OA
ATOM     12  N   UNL     1      91.866 -61.288 101.757  1.00  0.00    -0.352 N 
ATOM     13  H   UNL     1      91.854 -61.189 102.797  1.00  0.00     0.163 HD
BRANCH  12  14
ATOM     14  C   UNL     1      91.851 -62.641 101.207  1.00  0.00     0.151 C 
BRANCH  14  15
ATOM     15  C   UNL     1      91.795 -63.637 102.331  1.00  0.00    -0.025 A 
ATOM     16  C   UNL     1      90.869 -64.692 102.292  1.00  0.00     0.056 A 
ATOM     17  C   UNL     1      92.745 -63.593 103.362  1.00  0.00     0.009 A 
ATOM     18  C   UNL     1      90.888 -65.698 103.277  1.00  0.00     0.160 A 
ATOM     19  C   UNL     1      92.757 -64.579 104.350  1.00  0.00     0.050 A 
ATOM     20  C   UNL     1      91.835 -65.632 104.309  1.00  0.00     0.157 A 
BRANCH  18  21
ATOM     21  O   UNL     1      89.998 -66.784 103.255  1.00  0.00    -0.493 OA
ATOM     22  C   UNL     1      88.779 -66.838 103.988  1.00  0.00     0.278 C 
ENDBRANCH  18  21
BRANCH  20  23
ATOM     23  O   UNL     1      91.859 -66.626 105.287  1.00  0.00    -0.504 OA
ATOM     24  H   UNL     1      91.228 -66.606 106.079  1.00  0.00     0.293 HD
ENDBRANCH  20  23
ENDBRANCH  14  15
ENDBRANCH  12  14
ENDBRANCH   9  10
ENDBRANCH   1   9
TORSDOF 10
ENDMDL
MODEL 2
REMARK VINA RESULT:    -6.437      2.230      3.083
REMARK INTER + INTRA:         -10.800
REMARK INTER:                  -9.363
REMARK INTRA:                  -1.437
REMARK UNBOUND:                -0.788
REMARK SMILES COc1cc(CNC(=O)CCCCC=CC(C)C)ccc1O
REMARK SMILES IDX 11 1 12 2 13 3 14 4 15 5 16 6 17 7 18 8 10 9 8 10 9 11 7 12
REMARK SMILES IDX 6 14 5 15 4 16 19 17 3 18 20 19 21 20 2 21 1 22 22 23
REMARK H PARENT 7 13 22 24
REMARK Flexibility Score: inf
ROOT
ATOM      1  C   UNL     1      93.205 -59.003 103.338  1.00  0.00     0.010 C 
ENDROOT
BRANCH   1   2
ATOM      2  C   UNL     1      94.609 -59.566 103.624  1.00  0.00     0.005 C 
BRANCH   2   3
ATOM      3  C   UNL     1      95.286 -58.869 104.810  1.00  0.00     0.027 C 
BRANCH   3   4
ATOM      4  C   UNL     1      96.632 -59.468 105.113  1.00  0.00    -0.031 C 
ATOM      5  C   UNL     1      96.833 -60.794 105.079  1.00  0.00    -0.028 C 
BRANCH   5   6
ATOM      6  C   UNL     1      98.198 -61.387 105.342  1.00  0.00     0.005 C 
ATOM      7  C   UNL     1      99.148 -60.321 105.899  1.00  0.00     0.012 C 
ATOM      8  C   UNL     1      98.093 -62.567 106.316  1.00  0.00     0.012 C 
ENDBRANCH   5   6
ENDBRANCH   3   4
ENDBRANCH   2   3
ENDBRANCH   1   2
BRANCH   1   9
ATOM      9  C   UNL     1      92.812 -59.141 101.859  1.00  0.00     0.100 C 
BRANCH   9  10
ATOM     10  C   UNL     1      92.344 -60.533 101.552  1.00  0.00     0.220 C 
ATOM     11  O   UNL     1      92.151 -60.867 100.351  1.00  0.00    -0.275 OA
ATOM     12  N   UNL     1      92.178 -61.494 102.604  1.00  0.00    -0.352 N 
ATOM     13  H   UNL     1      92.201 -61.159 103.594  1.00  0.00     0.163 HD
BRANCH  12  14
ATOM     14  C   UNL     1      92.343 -62.925 102.369  1.00  0.00     0.151 C 
BRANCH  14  15
ATOM     15  C   UNL     1      93.717 -63.348 102.811  1.00  0.00    -0.025 A 
ATOM     16  C   UNL     1      93.867 -64.276 103.853  1.00  0.00     0.056 A 
ATOM     17  C   UNL     1      94.850 -62.915 102.107  1.00  0.00     0.009 A 
ATOM     18  C   UNL     1      95.141 -64.771 104.195  1.00  0.00     0.160 A 
ATOM     19  C   UNL     1      96.116 -63.389 102.452  1.00  0.00     0.050 A 
ATOM     20  C   UNL     1      96.265 -64.317 103.491  1.00  0.00     0.157 A 
BRANCH  18  21
ATOM     21  O   UNL     1      95.327 -65.721 105.211  1.00  0.00    -0.493 OA
ATOM     22  C   UNL     1      95.028 -67.107 105.080  1.00  0.00     0.278 C 
ENDBRANCH  18  21
BRANCH  20  23
ATOM     23  O   UNL     1      97.529 -64.803 103.823  1.00  0.00    -0.504 OA
ATOM     24  H   UNL     1      98.019 -64.483 104.649  1.00  0.00     0.293 HD
ENDBRANCH  20  23
ENDBRANCH  14  15
ENDBRANCH  12  14
ENDBRANCH   9  10
ENDBRANCH   1   9
TORSDOF 10
ENDMDL
MODEL 3
REMARK VINA RESULT:    -6.394      3.022      5.540
REMARK INTER + INTRA:         -10.733
REMARK INTER:                  -9.341
REMARK INTRA:                  -1.392
REMARK UNBOUND:                -0.788
REMARK SMILES COc1cc(CNC(=O)CCCCC=CC(C)C)ccc1O
REMARK SMILES IDX 11 1 12 2 13 3 14 4 15 5 16 6 17 7 18 8 10 9 8 10 9 11 7 12
REMARK SMILES IDX 6 14 5 15 4 16 19 17 3 18 20 19 21 20 2 21 1 22 22 23
REMARK H PARENT 7 13 22 24
REMARK Flexibility Score: inf
ROOT
ATOM      1  C   UNL     1      98.428 -59.872 105.460  1.00  0.00     0.010 C 
ENDROOT
BRANCH   1   2
ATOM      2  C   UNL     1      96.895 -60.001 105.402  1.00  0.00     0.005 C 
BRANCH   2   3
ATOM      3  C   UNL     1      96.214 -58.683 105.013  1.00  0.00     0.027 C 
BRANCH   3   4
ATOM      4  C   UNL     1      94.908 -58.920 104.307  1.00  0.00    -0.031 C 
ATOM      5  C   UNL     1      94.628 -60.095 103.723  1.00  0.00    -0.028 C 
BRANCH   5   6
ATOM      6  C   UNL     1      93.297 -60.341 103.053  1.00  0.00     0.005 C 
ATOM      7  C   UNL     1      92.645 -59.013 102.651  1.00  0.00     0.012 C 
ATOM      8  C   UNL     1      93.471 -61.242 101.825  1.00  0.00     0.012 C 
ENDBRANCH   5   6
ENDBRANCH   3   4
ENDBRANCH   2   3
ENDBRANCH   1   2
BRANCH   1   9
ATOM      9  C   UNL     1      99.078 -61.012 106.260  1.00  0.00     0.100 C 
BRANCH   9  10
ATOM     10  C   UNL     1      99.189 -62.258 105.432  1.00  0.00     0.220 C 
ATOM     11  O   UNL     1      99.683 -63.299 105.947  1.00  0.00    -0.275 OA
ATOM     12  N   UNL     1      98.681 -62.289 104.091  1.00  0.00    -0.352 N 
ATOM     13  H   UNL     1      98.411 -61.387 103.639  1.00  0.00     0.163 HD
BRANCH  12  14
ATOM     14  C   UNL     1      98.191 -63.524 103.484  1.00  0.00     0.151 C 
BRANCH  14  15
ATOM     15  C   UNL     1      96.713 -63.649 103.730  1.00  0.00    -0.025 A 
ATOM     16  C   UNL     1      95.886 -64.241 102.762  1.00  0.00     0.056 A 
ATOM     17  C   UNL     1      96.171 -63.291 104.973  1.00  0.00     0.009 A 
ATOM     18  C   UNL     1      94.523 -64.474 103.030  1.00  0.00     0.160 A 
ATOM     19  C   UNL     1      94.818 -63.504 105.238  1.00  0.00     0.050 A 
ATOM     20  C   UNL     1      93.993 -64.096 104.272  1.00  0.00     0.157 A 
BRANCH  18  21
ATOM     21  O   UNL     1      93.672 -65.089 102.099  1.00  0.00    -0.493 OA
ATOM     22  C   UNL     1      93.718 -64.861 100.695  1.00  0.00     0.278 C 
ENDBRANCH  18  21
BRANCH  20  23
ATOM     23  O   UNL     1      92.645 -64.325 104.544  1.00  0.00    -0.504 OA
ATOM     24  H   UNL     1      91.914 -63.959 103.945  1.00  0.00     0.293 HD
ENDBRANCH  20  23
ENDBRANCH  14  15
ENDBRANCH  12  14
ENDBRANCH   9  10
ENDBRANCH   1   9
TORSDOF 10
ENDMDL
MODEL 4
REMARK VINA RESULT:    -6.393      3.025      5.934
REMARK INTER + INTRA:         -10.732
REMARK INTER:                  -9.127
REMARK INTRA:                  -1.605
REMARK UNBOUND:                -0.788
REMARK SMILES COc1cc(CNC(=O)CCCCC=CC(C)C)ccc1O
REMARK SMILES IDX 11 1 12 2 13 3 14 4 15 5 16 6 17 7 18 8 10 9 8 10 9 11 7 12
REMARK SMILES IDX 6 14 5 15 4 16 19 17 3 18 20 19 21 20 2 21 1 22 22 23
REMARK H PARENT 7 13 22 24
REMARK Flexibility Score: inf
ROOT
ATOM      1  C   UNL     1      96.580 -65.330 105.761  1.00  0.00     0.010 C 
ENDROOT
BRANCH   1   2
ATOM      2  C   UNL     1      96.550 -64.185 106.790  1.00  0.00     0.005 C 
BRANCH   2   3
ATOM      3  C   UNL     1      97.905 -63.989 107.482  1.00  0.00     0.027 C 
BRANCH   3   4
ATOM      4  C   UNL     1      98.579 -62.722 107.033  1.00  0.00    -0.031 C 
ATOM      5  C   UNL     1      99.208 -62.641 105.852  1.00  0.00    -0.028 C 
BRANCH   5   6
ATOM      6  C   UNL     1      99.846 -61.353 105.388  1.00  0.00     0.005 C 
ATOM      7  C   UNL     1      99.001 -60.150 105.822  1.00  0.00     0.012 C 
ATOM      8  C   UNL     1     101.271 -61.230 105.940  1.00  0.00     0.012 C 
ENDBRANCH   5   6
ENDBRANCH   3   4
ENDBRANCH   2   3
ENDBRANCH   1   2
BRANCH   1   9
ATOM      9  C   UNL     1      95.175 -65.696 105.256  1.00  0.00     0.100 C 
BRANCH   9  10
ATOM     10  C   UNL     1      94.956 -65.196 103.859  1.00  0.00     0.220 C 
ATOM     11  O   UNL     1      93.910 -65.535 103.240  1.00  0.00    -0.275 OA
ATOM     12  N   UNL     1      95.891 -64.292 103.254  1.00  0.00    -0.352 N 
ATOM     13  H   UNL     1      96.813 -64.140 103.722  1.00  0.00     0.163 HD
BRANCH  12  14
ATOM     14  C   UNL     1      95.477 -63.322 102.244  1.00  0.00     0.151 C 
BRANCH  14  15
ATOM     15  C   UNL     1      95.270 -61.982 102.894  1.00  0.00    -0.025 A 
ATOM     16  C   UNL     1      94.344 -61.074 102.355  1.00  0.00     0.056 A 
ATOM     17  C   UNL     1      95.906 -61.679 104.107  1.00  0.00     0.009 A 
ATOM     18  C   UNL     1      94.054 -59.868 103.022  1.00  0.00     0.160 A 
ATOM     19  C   UNL     1      95.633 -60.478 104.763  1.00  0.00     0.050 A 
ATOM     20  C   UNL     1      94.708 -59.573 104.226  1.00  0.00     0.157 A 
BRANCH  18  21
ATOM     21  O   UNL     1      93.113 -58.949 102.530  1.00  0.00    -0.493 OA
ATOM     22  C   UNL     1      92.505 -59.031 101.246  1.00  0.00     0.278 C 
ENDBRANCH  18  21
BRANCH  20  23
ATOM     23  O   UNL     1      94.424 -58.381 104.891  1.00  0.00    -0.504 OA
ATOM     24  H   UNL     1      94.867 -58.147 105.771  1.00  0.00     0.293 HD
ENDBRANCH  20  23
ENDBRANCH  14  15
ENDBRANCH  12  14
ENDBRANCH   9  10
ENDBRANCH   1   9
TORSDOF 10
ENDMDL
MODEL 5
REMARK VINA RESULT:    -6.355      2.158      4.347
REMARK INTER + INTRA:         -10.673
REMARK INTER:                  -9.247
REMARK INTRA:                  -1.426
REMARK UNBOUND:                -0.788
REMARK SMILES COc1cc(CNC(=O)CCCCC=CC(C)C)ccc1O
REMARK SMILES IDX 11 1 12 2 13 3 14 4 15 5 16 6 17 7 18 8 10 9 8 10 9 11 7 12
REMARK SMILES IDX 6 14 5 15 4 16 19 17 3 18 20 19 21 20 2 21 1 22 22 23
REMARK H PARENT 7 13 22 24
REMARK Flexibility Score: inf
ROOT
ATOM      1  C   UNL     1      95.560 -61.186 104.872  1.00  0.00     0.010 C 
ENDROOT
BRANCH   1   2
ATOM      2  C   UNL     1      95.850 -59.674 104.834  1.00  0.00     0.005 C 
BRANCH   2   3
ATOM      3  C   UNL     1      94.591 -58.846 104.550  1.00  0.00     0.027 C 
BRANCH   3   4
ATOM      4  C   UNL     1      94.055 -59.107 103.170  1.00  0.00    -0.031 C 
ATOM      5  C   UNL     1      92.738 -59.202 102.934  1.00  0.00    -0.028 C 
BRANCH   5   6
ATOM      6  C   UNL     1      92.205 -59.421 101.538  1.00  0.00     0.005 C 
ATOM      7  C   UNL     1      92.842 -58.429 100.558  1.00  0.00     0.012 C 
ATOM      8  C   UNL     1      92.465 -60.862 101.082  1.00  0.00     0.012 C 
ENDBRANCH   5   6
ENDBRANCH   3   4
ENDBRANCH   2   3
ENDBRANCH   1   2
BRANCH   1   9
ATOM      9  C   UNL     1      96.808 -62.026 104.562  1.00  0.00     0.100 C 
BRANCH   9  10
ATOM     10  C   UNL     1      96.619 -62.835 103.312  1.00  0.00     0.220 C 
ATOM     11  O   UNL     1      97.478 -63.706 103.005  1.00  0.00    -0.275 OA
ATOM     12  N   UNL     1      95.442 -62.667 102.508  1.00  0.00    -0.352 N 
ATOM     13  H   UNL     1      94.821 -61.849 102.698  1.00  0.00     0.163 HD
BRANCH  12  14
ATOM     14  C   UNL     1      94.897 -63.760 101.708  1.00  0.00     0.151 C 
BRANCH  14  15
ATOM     15  C   UNL     1      93.514 -64.093 102.194  1.00  0.00    -0.025 A 
ATOM     16  C   UNL     1      92.618 -64.775 101.355  1.00  0.00     0.056 A 
ATOM     17  C   UNL     1      93.152 -63.837 103.525  1.00  0.00     0.009 A 
ATOM     18  C   UNL     1      91.365 -65.199 101.839  1.00  0.00     0.160 A 
ATOM     19  C   UNL     1      91.905 -64.240 104.005  1.00  0.00     0.050 A 
ATOM     20  C   UNL     1      91.012 -64.922 103.168  1.00  0.00     0.157 A 
BRANCH  18  21
ATOM     21  O   UNL     1      90.455 -65.908 101.039  1.00  0.00    -0.493 OA
ATOM     22  C   UNL     1      89.857 -65.395  99.854  1.00  0.00     0.278 C 
ENDBRANCH  18  21
BRANCH  20  23
ATOM     23  O   UNL     1      89.774 -65.340 103.653  1.00  0.00    -0.504 OA
ATOM     24  H   UNL     1      88.950 -64.756 103.575  1.00  0.00     0.293 HD
ENDBRANCH  20  23
ENDBRANCH  14  15
ENDBRANCH  12  14
ENDBRANCH   9  10
ENDBRANCH   1   9
TORSDOF 10
ENDMDL
MODEL 6
REMARK VINA RESULT:    -6.256      3.508      6.189
REMARK INTER + INTRA:         -10.518
REMARK INTER:                  -9.061
REMARK INTRA:                  -1.458
REMARK UNBOUND:                -0.788
REMARK SMILES COc1cc(CNC(=O)CCCCC=CC(C)C)ccc1O
REMARK SMILES IDX 11 1 12 2 13 3 14 4 15 5 16 6 17 7 18 8 10 9 8 10 9 11 7 12
REMARK SMILES IDX 6 14 5 15 4 16 19 17 3 18 20 19 21 20 2 21 1 22 22 23
REMARK H PARENT 7 13 22 24
REMARK Flexibility Score: inf
ROOT
ATOM      1  C   UNL     1      98.248 -59.736 105.474  1.00  0.00     0.010 C 
ENDROOT
BRANCH   1   2
ATOM      2  C   UNL     1      96.771 -60.167 105.424  1.00  0.00     0.005 C 
BRANCH   2   3
ATOM      3  C   UNL     1      95.866 -59.082 104.829  1.00  0.00     0.027 C 
BRANCH   3   4
ATOM      4  C   UNL     1      94.777 -59.673 103.977  1.00  0.00    -0.031 C 
ATOM      5  C   UNL     1      93.682 -58.971 103.650  1.00  0.00    -0.028 C 
BRANCH   5   6
ATOM      6  C   UNL     1      92.611 -59.556 102.759  1.00  0.00     0.005 C 
ATOM      7  C   UNL     1      92.110 -58.505 101.762  1.00  0.00     0.012 C 
ATOM      8  C   UNL     1      93.145 -60.786 102.014  1.00  0.00     0.012 C 
ENDBRANCH   5   6
ENDBRANCH   3   4
ENDBRANCH   2   3
ENDBRANCH   1   2
BRANCH   1   9
ATOM      9  C   UNL     1      99.094 -60.655 106.369  1.00  0.00     0.100 C 
BRANCH   9  10
ATOM     10  C   UNL     1      99.498 -61.900 105.637  1.00  0.00     0.220 C 
ATOM     11  O   UNL     1      99.956 -62.878 106.290  1.00  0.00    -0.275 OA
ATOM     12  N   UNL     1      99.307 -62.006 104.219  1.00  0.00    -0.352 N 
ATOM     13  H   UNL     1      99.065 -61.142 103.683  1.00  0.00     0.163 HD
BRANCH  12  14
ATOM     14  C   UNL     1      99.079 -63.293 103.569  1.00  0.00     0.151 C 
BRANCH  14  15
ATOM     15  C   UNL     1      97.651 -63.713 103.782  1.00  0.00    -0.025 A 
ATOM     16  C   UNL     1      97.349 -64.755 104.674  1.00  0.00     0.056 A 
ATOM     17  C   UNL     1      96.606 -62.991 103.188  1.00  0.00     0.009 A 
ATOM     18  C   UNL     1      96.011 -65.076 104.973  1.00  0.00     0.160 A 
ATOM     19  C   UNL     1      95.278 -63.316 103.468  1.00  0.00     0.050 A 
ATOM     20  C   UNL     1      94.977 -64.354 104.360  1.00  0.00     0.157 A 
BRANCH  18  21
ATOM     21  O   UNL     1      95.670 -66.091 105.881  1.00  0.00    -0.493 OA
ATOM     22  C   UNL     1      96.170 -66.180 107.211  1.00  0.00     0.278 C 
ENDBRANCH  18  21
BRANCH  20  23
ATOM     23  O   UNL     1      93.651 -64.666 104.652  1.00  0.00    -0.504 OA
ATOM     24  H   UNL     1      92.883 -64.260 104.131  1.00  0.00     0.293 HD
ENDBRANCH  20  23
ENDBRANCH  14  15
ENDBRANCH  12  14
ENDBRANCH   9  10
ENDBRANCH   1   9
TORSDOF 10
ENDMDL
MODEL 7
REMARK VINA RESULT:    -6.231      3.175      5.938
REMARK INTER + INTRA:         -10.479
REMARK INTER:                  -9.863
REMARK INTRA:                  -0.616
REMARK UNBOUND:                -0.788
REMARK SMILES COc1cc(CNC(=O)CCCCC=CC(C)C)ccc1O
REMARK SMILES IDX 11 1 12 2 13 3 14 4 15 5 16 6 17 7 18 8 10 9 8 10 9 11 7 12
REMARK SMILES IDX 6 14 5 15 4 16 19 17 3 18 20 19 21 20 2 21 1 22 22 23
REMARK H PARENT 7 13 22 24
REMARK Flexibility Score: inf
ROOT
ATOM      1  C   UNL     1      98.690 -60.892 105.509  1.00  0.00     0.010 C 
ENDROOT
BRANCH   1   2
ATOM      2  C   UNL     1      99.325 -61.890 106.494  1.00  0.00     0.005 C 
BRANCH   2   3
ATOM      3  C   UNL     1     100.586 -62.550 105.922  1.00  0.00     0.027 C 
BRANCH   3   4
ATOM      4  C   UNL     1     101.835 -61.851 106.382  1.00  0.00    -0.031 C 
ATOM      5  C   UNL     1     102.331 -60.793 105.724  1.00  0.00    -0.028 C 
BRANCH   5   6
ATOM      6  C   UNL     1     103.562 -60.068 106.215  1.00  0.00     0.005 C 
ATOM      7  C   UNL     1     104.347 -60.949 107.195  1.00  0.00     0.012 C 
ATOM      8  C   UNL     1     104.452 -59.660 105.036  1.00  0.00     0.012 C 
ENDBRANCH   5   6
ENDBRANCH   3   4
ENDBRANCH   2   3
ENDBRANCH   1   2
BRANCH   1   9
ATOM      9  C   UNL     1      97.234 -61.250 105.173  1.00  0.00     0.100 C 
BRANCH   9  10
ATOM     10  C   UNL     1      96.387 -60.018 105.053  1.00  0.00     0.220 C 
ATOM     11  O   UNL     1      96.923 -58.885 105.200  1.00  0.00    -0.275 OA
ATOM     12  N   UNL     1      94.998 -60.120 104.711  1.00  0.00    -0.352 N 
ATOM     13  H   UNL     1      94.546 -61.062 104.737  1.00  0.00     0.163 HD
BRANCH  12  14
ATOM     14  C   UNL     1      94.304 -59.055 103.993  1.00  0.00     0.151 C 
BRANCH  14  15
ATOM     15  C   UNL     1      93.611 -59.634 102.790  1.00  0.00    -0.025 A 
ATOM     16  C   UNL     1      93.539 -61.026 102.621  1.00  0.00     0.056 A 
ATOM     17  C   UNL     1      92.927 -58.795 101.898  1.00  0.00     0.009 A 
ATOM     18  C   UNL     1      92.790 -61.581 101.565  1.00  0.00     0.160 A 
ATOM     19  C   UNL     1      92.197 -59.340 100.840  1.00  0.00     0.050 A 
ATOM     20  C   UNL     1      92.124 -60.729 100.672  1.00  0.00     0.157 A 
BRANCH  18  21
ATOM     21  O   UNL     1      92.672 -62.967 101.380  1.00  0.00    -0.493 OA
ATOM     22  C   UNL     1      93.768 -63.875 101.379  1.00  0.00     0.278 C 
ENDBRANCH  18  21
BRANCH  20  23
ATOM     23  O   UNL     1      91.380 -61.272  99.626  1.00  0.00    -0.504 OA
ATOM     24  H   UNL     1      90.794 -60.694  99.037  1.00  0.00     0.293 HD
ENDBRANCH  20  23
ENDBRANCH  14  15
ENDBRANCH  12  14
ENDBRANCH   9  10
ENDBRANCH   1   9
TORSDOF 10
ENDMDL
MODEL 8
REMARK VINA RESULT:    -6.228      4.236      7.290
REMARK INTER + INTRA:         -10.474
REMARK INTER:                  -9.914
REMARK INTRA:                  -0.560
REMARK UNBOUND:                -0.788
REMARK SMILES COc1cc(CNC(=O)CCCCC=CC(C)C)ccc1O
REMARK SMILES IDX 11 1 12 2 13 3 14 4 15 5 16 6 17 7 18 8 10 9 8 10 9 11 7 12
REMARK SMILES IDX 6 14 5 15 4 16 19 17 3 18 20 19 21 20 2 21 1 22 22 23
REMARK H PARENT 7 13 22 24
REMARK Flexibility Score: inf
ROOT
ATOM      1  C   UNL     1     101.044 -61.376 106.596  1.00  0.00     0.010 C 
ENDROOT
BRANCH   1   2
ATOM      2  C   UNL     1     102.206 -60.763 105.793  1.00  0.00     0.005 C 
BRANCH   2   3
ATOM      3  C   UNL     1     103.503 -60.692 106.607  1.00  0.00     0.027 C 
BRANCH   3   4
ATOM      4  C   UNL     1     104.458 -59.677 106.042  1.00  0.00    -0.031 C 
ATOM      5  C   UNL     1     104.100 -58.852 105.047  1.00  0.00    -0.028 C 
BRANCH   5   6
ATOM      6  C   UNL     1     105.050 -57.806 104.514  1.00  0.00     0.005 C 
ATOM      7  C   UNL     1     105.275 -58.003 103.010  1.00  0.00     0.012 C 
ATOM      8  C   UNL     1     104.511 -56.398 104.791  1.00  0.00     0.012 C 
ENDBRANCH   5   6
ENDBRANCH   3   4
ENDBRANCH   2   3
ENDBRANCH   1   2
BRANCH   1   9
ATOM      9  C   UNL     1      99.725 -60.617 106.383  1.00  0.00     0.100 C 
BRANCH   9  10
ATOM     10  C   UNL     1      98.825 -61.351 105.433  1.00  0.00     0.220 C 
ATOM     11  O   UNL     1      99.178 -62.481 104.999  1.00  0.00    -0.275 OA
ATOM     12  N   UNL     1      97.548 -60.805 105.072  1.00  0.00    -0.352 N 
ATOM     13  H   UNL     1      97.340 -59.813 105.325  1.00  0.00     0.163 HD
BRANCH  12  14
ATOM     14  C   UNL     1      96.423 -61.662 104.708  1.00  0.00     0.151 C 
BRANCH  14  15
ATOM     15  C   UNL     1      95.348 -60.829 104.067  1.00  0.00    -0.025 A 
ATOM     16  C   UNL     1      94.514 -61.389 103.087  1.00  0.00     0.056 A 
ATOM     17  C   UNL     1      95.092 -59.530 104.529  1.00  0.00     0.009 A 
ATOM     18  C   UNL     1      93.428 -60.657 102.567  1.00  0.00     0.160 A 
ATOM     19  C   UNL     1      94.027 -58.794 104.006  1.00  0.00     0.050 A 
ATOM     20  C   UNL     1      93.193 -59.354 103.029  1.00  0.00     0.157 A 
BRANCH  18  21
ATOM     21  O   UNL     1      92.555 -61.193 101.608  1.00  0.00    -0.493 OA
ATOM     22  C   UNL     1      92.129 -62.551 101.579  1.00  0.00     0.278 C 
ENDBRANCH  18  21
BRANCH  20  23
ATOM     23  O   UNL     1      92.120 -58.625 102.520  1.00  0.00    -0.504 OA
ATOM     24  H   UNL     1      92.205 -57.640 102.300  1.00  0.00     0.293 HD
ENDBRANCH  20  23
ENDBRANCH  14  15
ENDBRANCH  12  14
ENDBRANCH   9  10
ENDBRANCH   1   9
TORSDOF 10
ENDMDL
MODEL 9
REMARK VINA RESULT:    -6.207      3.510      5.949
REMARK INTER + INTRA:         -10.442
REMARK INTER:                  -9.038
REMARK INTRA:                  -1.404
REMARK UNBOUND:                -0.788
REMARK SMILES COc1cc(CNC(=O)CCCCC=CC(C)C)ccc1O
REMARK SMILES IDX 11 1 12 2 13 3 14 4 15 5 16 6 17 7 18 8 10 9 8 10 9 11 7 12
REMARK SMILES IDX 6 14 5 15 4 16 19 17 3 18 20 19 21 20 2 21 1 22 22 23
REMARK H PARENT 7 13 22 24
REMARK Flexibility Score: inf
ROOT
ATOM      1  C   UNL     1      95.777 -60.098 104.789  1.00  0.00     0.010 C 
ENDROOT
BRANCH   1   2
ATOM      2  C   UNL     1      94.707 -59.076 104.365  1.00  0.00     0.005 C 
BRANCH   2   3
ATOM      3  C   UNL     1      94.009 -59.471 103.058  1.00  0.00     0.027 C 
BRANCH   3   4
ATOM      4  C   UNL     1      94.101 -60.951 102.806  1.00  0.00    -0.031 C 
ATOM      5  C   UNL     1      93.020 -61.742 102.867  1.00  0.00    -0.028 C 
BRANCH   5   6
ATOM      6  C   UNL     1      93.111 -63.220 102.570  1.00  0.00     0.005 C 
ATOM      7  C   UNL     1      94.570 -63.634 102.347  1.00  0.00     0.012 C 
ATOM      8  C   UNL     1      92.495 -64.038 103.712  1.00  0.00     0.012 C 
ENDBRANCH   5   6
ENDBRANCH   3   4
ENDBRANCH   2   3
ENDBRANCH   1   2
BRANCH   1   9
ATOM      9  C   UNL     1      96.997 -59.429 105.440  1.00  0.00     0.100 C 
BRANCH   9  10
ATOM     10  C   UNL     1      98.164 -60.370 105.501  1.00  0.00     0.220 C 
ATOM     11  O   UNL     1      99.123 -60.114 106.279  1.00  0.00    -0.275 OA
ATOM     12  N   UNL     1      98.161 -61.582 104.733  1.00  0.00    -0.352 N 
ATOM     13  H   UNL     1      97.432 -61.703 103.994  1.00  0.00     0.163 HD
BRANCH  12  14
ATOM     14  C   UNL     1      98.880 -62.773 105.177  1.00  0.00     0.151 C 
BRANCH  14  15
ATOM     15  C   UNL     1      97.931 -63.687 105.901  1.00  0.00    -0.025 A 
ATOM     16  C   UNL     1      96.900 -64.332 105.199  1.00  0.00     0.056 A 
ATOM     17  C   UNL     1      98.143 -63.998 107.252  1.00  0.00     0.009 A 
ATOM     18  C   UNL     1      96.082 -65.282 105.841  1.00  0.00     0.160 A 
ATOM     19  C   UNL     1      97.325 -64.927 107.897  1.00  0.00     0.050 A 
ATOM     20  C   UNL     1      96.298 -65.572 107.196  1.00  0.00     0.157 A 
BRANCH  18  21
ATOM     21  O   UNL     1      95.061 -65.968 105.165  1.00  0.00    -0.493 OA
ATOM     22  C   UNL     1      95.275 -67.071 104.291  1.00  0.00     0.278 C 
ENDBRANCH  18  21
BRANCH  20  23
ATOM     23  O   UNL     1      95.492 -66.512 107.836  1.00  0.00    -0.504 OA
ATOM     24  H   UNL     1      94.880 -67.128 107.315  1.00  0.00     0.293 HD
ENDBRANCH  20  23
ENDBRANCH  14  15
ENDBRANCH  12  14
ENDBRANCH   9  10
ENDBRANCH   1   9
TORSDOF 10
ENDMDL
