MODEL 1
REMARK VINA RESULT:    -7.656      0.000      0.000
REMARK INTER + INTRA:          -7.656
REMARK INTER:                  -7.656
REMARK INTRA:                   0.000
REMARK UNBOUND:                 0.000
REMARK SMILES C=C1CCC[C@@]2(C)CC(=O)C(=C(C)C)C[C@H]12
REMARK SMILES IDX 13 1 12 2 11 3 15 4 16 5 2 6 1 7 3 8 4 9 5 10 6 11 8 12 9 13
REMARK SMILES IDX 10 14 7 15 14 16
REMARK H PARENT
REMARK Flexibility Score: inf
ROOT
ATOM      1  C   UNL     1      31.247  59.259 141.641  1.00  0.00     0.039 C 
ATOM      2  C   UNL     1      30.611  58.229 140.736  1.00  0.00    -0.070 C 
ATOM      3  C   UNL     1      29.284  57.897 140.819  1.00  0.00    -0.006 C 
ATOM      4  C   UNL     1      28.721  56.795 139.919  1.00  0.00     0.047 C 
ATOM      5  C   UNL     1      27.413  56.178 140.466  1.00  0.00     0.025 C 
ATOM      6  C   UNL     1      26.835  55.073 139.578  1.00  0.00    -0.073 C 
ATOM      7  C   UNL     1      27.563  53.993 139.251  1.00  0.00     0.008 C 
ATOM      8  C   UNL     1      25.388  55.084 139.130  1.00  0.00     0.031 C 
ATOM      9  C   UNL     1      24.407  55.803 140.087  1.00  0.00     0.005 C 
ATOM     10  C   UNL     1      25.062  56.598 141.231  1.00  0.00     0.008 C 
ATOM     11  C   UNL     1      26.377  57.287 140.801  1.00  0.00    -0.018 C 
ATOM     12  C   UNL     1      26.940  58.099 141.988  1.00  0.00     0.088 C 
ATOM     13  C   UNL     1      28.315  58.645 141.696  1.00  0.00     0.159 C 
ATOM     14  O   UNL     1      28.616  59.755 142.210  1.00  0.00    -0.295 OA
ATOM     15  C   UNL     1      26.097  58.261 139.616  1.00  0.00     0.012 C 
ATOM     16  C   UNL     1      31.526  57.549 139.740  1.00  0.00     0.039 C 
ENDROOT
TORSDOF 0
ENDMDL
MODEL 2
REMARK VINA RESULT:    -7.449      1.377      4.830
REMARK INTER + INTRA:          -7.449
REMARK INTER:                  -7.449
REMARK INTRA:                   0.000
REMARK UNBOUND:                 0.000
REMARK SMILES C=C1CCC[C@@]2(C)CC(=O)C(=C(C)C)C[C@H]12
REMARK SMILES IDX 13 1 12 2 11 3 15 4 16 5 2 6 1 7 3 8 4 9 5 10 6 11 8 12 9 13
REMARK SMILES IDX 10 14 7 15 14 16
REMARK H PARENT
REMARK Flexibility Score: inf
ROOT
ATOM      1  C   UNL     1      25.001  54.853 139.556  1.00  0.00     0.039 C 
ATOM      2  C   UNL     1      26.497  55.050 139.647  1.00  0.00    -0.070 C 
ATOM      3  C   UNL     1      27.059  56.171 140.200  1.00  0.00    -0.006 C 
ATOM      4  C   UNL     1      28.581  56.337 140.195  1.00  0.00     0.047 C 
ATOM      5  C   UNL     1      29.028  57.808 140.347  1.00  0.00     0.025 C 
ATOM      6  C   UNL     1      30.547  57.993 140.345  1.00  0.00    -0.073 C 
ATOM      7  C   UNL     1      31.299  57.556 139.322  1.00  0.00     0.008 C 
ATOM      8  C   UNL     1      31.257  58.780 141.428  1.00  0.00     0.031 C 
ATOM      9  C   UNL     1      30.414  59.894 142.094  1.00  0.00     0.005 C 
ATOM     10  C   UNL     1      28.917  59.896 141.733  1.00  0.00     0.008 C 
ATOM     11  C   UNL     1      28.341  58.471 141.575  1.00  0.00    -0.018 C 
ATOM     12  C   UNL     1      26.831  58.562 141.262  1.00  0.00     0.088 C 
ATOM     13  C   UNL     1      26.245  57.218 140.912  1.00  0.00     0.159 C 
ATOM     14  O   UNL     1      25.049  57.004 141.247  1.00  0.00    -0.295 OA
ATOM     15  C   UNL     1      28.530  57.676 142.903  1.00  0.00     0.012 C 
ATOM     16  C   UNL     1      27.359  53.950 139.063  1.00  0.00     0.039 C 
ENDROOT
TORSDOF 0
ENDMDL
MODEL 3
REMARK VINA RESULT:    -7.310      2.130      4.031
REMARK INTER + INTRA:          -7.310
REMARK INTER:                  -7.310
REMARK INTRA:                   0.000
REMARK UNBOUND:                 0.000
REMARK SMILES C=C1CCC[C@@]2(C)CC(=O)C(=C(C)C)C[C@H]12
REMARK SMILES IDX 13 1 12 2 11 3 15 4 16 5 2 6 1 7 3 8 4 9 5 10 6 11 8 12 9 13
REMARK SMILES IDX 10 14 7 15 14 16
REMARK H PARENT
REMARK Flexibility Score: inf
ROOT
ATOM      1  C   UNL     1      26.409  58.520 144.639  1.00  0.00     0.039 C 
ATOM      2  C   UNL     1      26.465  57.795 143.314  1.00  0.00    -0.070 C 
ATOM      3  C   UNL     1      26.780  58.430 142.141  1.00  0.00    -0.006 C 
ATOM      4  C   UNL     1      26.749  57.650 140.825  1.00  0.00     0.047 C 
ATOM      5  C   UNL     1      26.599  58.562 139.586  1.00  0.00     0.025 C 
ATOM      6  C   UNL     1      26.567  57.798 138.260  1.00  0.00    -0.073 C 
ATOM      7  C   UNL     1      25.658  56.835 138.035  1.00  0.00     0.008 C 
ATOM      8  C   UNL     1      27.469  58.171 137.101  1.00  0.00     0.031 C 
ATOM      9  C   UNL     1      27.890  59.659 137.046  1.00  0.00     0.005 C 
ATOM     10  C   UNL     1      27.529  60.495 138.287  1.00  0.00     0.008 C 
ATOM     11  C   UNL     1      27.662  59.697 139.603  1.00  0.00    -0.018 C 
ATOM     12  C   UNL     1      27.331  60.618 140.797  1.00  0.00     0.088 C 
ATOM     13  C   UNL     1      27.260  59.857 142.096  1.00  0.00     0.159 C 
ATOM     14  O   UNL     1      27.626  60.460 143.140  1.00  0.00    -0.295 OA
ATOM     15  C   UNL     1      29.126  59.181 139.760  1.00  0.00     0.012 C 
ATOM     16  C   UNL     1      26.123  56.320 143.337  1.00  0.00     0.039 C 
ENDROOT
TORSDOF 0
ENDMDL
MODEL 4
REMARK VINA RESULT:    -7.158      1.927      5.409
REMARK INTER + INTRA:          -7.158
REMARK INTER:                  -7.158
REMARK INTRA:                   0.000
REMARK UNBOUND:                 0.000
REMARK SMILES C=C1CCC[C@@]2(C)CC(=O)C(=C(C)C)C[C@H]12
REMARK SMILES IDX 13 1 12 2 11 3 15 4 16 5 2 6 1 7 3 8 4 9 5 10 6 11 8 12 9 13
REMARK SMILES IDX 10 14 7 15 14 16
REMARK H PARENT
REMARK Flexibility Score: inf
ROOT
ATOM      1  C   UNL     1      25.158  54.642 139.443  1.00  0.00     0.039 C 
ATOM      2  C   UNL     1      25.343  56.131 139.624  1.00  0.00    -0.070 C 
ATOM      3  C   UNL     1      26.533  56.681 140.025  1.00  0.00    -0.006 C 
ATOM      4  C   UNL     1      26.630  58.190 140.256  1.00  0.00     0.047 C 
ATOM      5  C   UNL     1      27.805  58.586 141.179  1.00  0.00     0.025 C 
ATOM      6  C   UNL     1      27.918  60.093 141.421  1.00  0.00    -0.073 C 
ATOM      7  C   UNL     1      26.890  60.794 141.926  1.00  0.00     0.008 C 
ATOM      8  C   UNL     1      29.221  60.838 141.219  1.00  0.00     0.031 C 
ATOM      9  C   UNL     1      30.502  59.995 141.426  1.00  0.00     0.005 C 
ATOM     10  C   UNL     1      30.279  58.479 141.578  1.00  0.00     0.008 C 
ATOM     11  C   UNL     1      29.135  57.952 140.682  1.00  0.00    -0.018 C 
ATOM     12  C   UNL     1      29.010  56.423 140.858  1.00  0.00     0.088 C 
ATOM     13  C   UNL     1      27.796  55.872 140.155  1.00  0.00     0.159 C 
ATOM     14  O   UNL     1      27.884  54.710 139.675  1.00  0.00    -0.295 OA
ATOM     15  C   UNL     1      29.455  58.260 139.187  1.00  0.00     0.012 C 
ATOM     16  C   UNL     1      24.128  56.998 139.366  1.00  0.00     0.039 C 
ENDROOT
TORSDOF 0
ENDMDL
MODEL 5
REMARK VINA RESULT:    -7.043      2.615      4.326
REMARK INTER + INTRA:          -7.043
REMARK INTER:                  -7.043
REMARK INTRA:                   0.000
REMARK UNBOUND:                 0.000
REMARK SMILES C=C1CCC[C@@]2(C)CC(=O)C(=C(C)C)C[C@H]12
REMARK SMILES IDX 13 1 12 2 11 3 15 4 16 5 2 6 1 7 3 8 4 9 5 10 6 11 8 12 9 13
REMARK SMILES IDX 10 14 7 15 14 16
REMARK H PARENT
REMARK Flexibility Score: inf
ROOT
ATOM      1  C   UNL     1      27.367  59.627 136.307  1.00  0.00     0.039 C 
ATOM      2  C   UNL     1      27.732  59.802 137.763  1.00  0.00    -0.070 C 
ATOM      3  C   UNL     1      27.273  58.961 138.743  1.00  0.00    -0.006 C 
ATOM      4  C   UNL     1      27.625  59.238 140.206  1.00  0.00     0.047 C 
ATOM      5  C   UNL     1      26.649  58.569 141.200  1.00  0.00     0.025 C 
ATOM      6  C   UNL     1      26.987  58.835 142.668  1.00  0.00    -0.073 C 
ATOM      7  C   UNL     1      27.085  60.088 143.143  1.00  0.00     0.008 C 
ATOM      8  C   UNL     1      27.105  57.711 143.677  1.00  0.00     0.031 C 
ATOM      9  C   UNL     1      26.255  56.455 143.368  1.00  0.00     0.005 C 
ATOM     10  C   UNL     1      25.596  56.429 141.977  1.00  0.00     0.008 C 
ATOM     11  C   UNL     1      26.489  57.055 140.882  1.00  0.00    -0.018 C 
ATOM     12  C   UNL     1      25.778  56.945 139.516  1.00  0.00     0.088 C 
ATOM     13  C   UNL     1      26.509  57.700 138.436  1.00  0.00     0.159 C 
ATOM     14  O   UNL     1      26.462  57.229 137.268  1.00  0.00    -0.295 OA
ATOM     15  C   UNL     1      27.844  56.285 140.805  1.00  0.00     0.012 C 
ATOM     16  C   UNL     1      28.618  60.984 138.099  1.00  0.00     0.039 C 
ENDROOT
TORSDOF 0
ENDMDL
MODEL 6
REMARK VINA RESULT:    -6.839      1.921      2.455
REMARK INTER + INTRA:          -6.839
REMARK INTER:                  -6.839
REMARK INTRA:                   0.000
REMARK UNBOUND:                 0.000
REMARK SMILES C=C1CCC[C@@]2(C)CC(=O)C(=C(C)C)C[C@H]12
REMARK SMILES IDX 13 1 12 2 11 3 15 4 16 5 2 6 1 7 3 8 4 9 5 10 6 11 8 12 9 13
REMARK SMILES IDX 10 14 7 15 14 16
REMARK H PARENT
REMARK Flexibility Score: inf
ROOT
ATOM      1  C   UNL     1      30.120  60.996 141.235  1.00  0.00     0.039 C 
ATOM      2  C   UNL     1      29.518  59.655 141.587  1.00  0.00    -0.070 C 
ATOM      3  C   UNL     1      28.410  59.156 140.954  1.00  0.00    -0.006 C 
ATOM      4  C   UNL     1      27.813  57.823 141.408  1.00  0.00     0.047 C 
ATOM      5  C   UNL     1      26.332  57.654 140.998  1.00  0.00     0.025 C 
ATOM      6  C   UNL     1      25.718  56.325 141.444  1.00  0.00    -0.073 C 
ATOM      7  C   UNL     1      25.714  55.961 142.737  1.00  0.00     0.008 C 
ATOM      8  C   UNL     1      24.982  55.421 140.477  1.00  0.00     0.031 C 
ATOM      9  C   UNL     1      24.310  56.140 139.283  1.00  0.00     0.005 C 
ATOM     10  C   UNL     1      24.673  57.627 139.117  1.00  0.00     0.008 C 
ATOM     11  C   UNL     1      26.146  57.925 139.478  1.00  0.00    -0.018 C 
ATOM     12  C   UNL     1      26.439  59.422 139.239  1.00  0.00     0.088 C 
ATOM     13  C   UNL     1      27.802  59.818 139.746  1.00  0.00     0.159 C 
ATOM     14  O   UNL     1      28.413  60.721 139.113  1.00  0.00    -0.295 OA
ATOM     15  C   UNL     1      27.091  57.078 138.571  1.00  0.00     0.012 C 
ATOM     16  C   UNL     1      30.189  58.889 142.709  1.00  0.00     0.039 C 
ENDROOT
TORSDOF 0
ENDMDL
MODEL 7
REMARK VINA RESULT:    -6.784      2.527      4.148
REMARK INTER + INTRA:          -6.784
REMARK INTER:                  -6.784
REMARK INTRA:                   0.000
REMARK UNBOUND:                 0.000
REMARK SMILES C=C1CCC[C@@]2(C)CC(=O)C(=C(C)C)C[C@H]12
REMARK SMILES IDX 13 1 12 2 11 3 15 4 16 5 2 6 1 7 3 8 4 9 5 10 6 11 8 12 9 13
REMARK SMILES IDX 10 14 7 15 14 16
REMARK H PARENT
REMARK Flexibility Score: inf
ROOT
ATOM      1  C   UNL     1      26.613  58.241 144.625  1.00  0.00     0.039 C 
ATOM      2  C   UNL     1      26.742  59.025 143.339  1.00  0.00    -0.070 C 
ATOM      3  C   UNL     1      26.794  58.420 142.110  1.00  0.00    -0.006 C 
ATOM      4  C   UNL     1      26.995  59.270 140.854  1.00  0.00     0.047 C 
ATOM      5  C   UNL     1      27.551  58.462 139.660  1.00  0.00     0.025 C 
ATOM      6  C   UNL     1      27.759  59.297 138.395  1.00  0.00    -0.073 C 
ATOM      7  C   UNL     1      28.538  60.390 138.404  1.00  0.00     0.008 C 
ATOM      8  C   UNL     1      27.201  58.866 137.053  1.00  0.00     0.031 C 
ATOM      9  C   UNL     1      27.033  57.339 136.868  1.00  0.00     0.005 C 
ATOM     10  C   UNL     1      27.234  56.493 138.139  1.00  0.00     0.008 C 
ATOM     11  C   UNL     1      26.695  57.188 139.409  1.00  0.00    -0.018 C 
ATOM     12  C   UNL     1      26.890  56.256 140.625  1.00  0.00     0.088 C 
ATOM     13  C   UNL     1      26.557  56.944 141.924  1.00  0.00     0.159 C 
ATOM     14  O   UNL     1      26.065  56.237 142.843  1.00  0.00    -0.295 OA
ATOM     15  C   UNL     1      25.172  57.481 139.243  1.00  0.00     0.012 C 
ATOM     16  C   UNL     1      26.844  60.530 143.475  1.00  0.00     0.039 C 
ENDROOT
TORSDOF 0
ENDMDL
MODEL 8
REMARK VINA RESULT:    -6.063      2.491      4.607
REMARK INTER + INTRA:          -6.063
REMARK INTER:                  -6.063
REMARK INTRA:                   0.000
REMARK UNBOUND:                 0.000
REMARK SMILES C=C1CCC[C@@]2(C)CC(=O)C(=C(C)C)C[C@H]12
REMARK SMILES IDX 13 1 12 2 11 3 15 4 16 5 2 6 1 7 3 8 4 9 5 10 6 11 8 12 9 13
REMARK SMILES IDX 10 14 7 15 14 16
REMARK H PARENT
REMARK Flexibility Score: inf
ROOT
ATOM      1  C   UNL     1      26.123  56.249 143.884  1.00  0.00     0.039 C 
ATOM      2  C   UNL     1      26.505  57.494 143.117  1.00  0.00    -0.070 C 
ATOM      3  C   UNL     1      26.690  57.494 141.759  1.00  0.00    -0.006 C 
ATOM      4  C   UNL     1      27.145  58.775 141.056  1.00  0.00     0.047 C 
ATOM      5  C   UNL     1      27.805  58.509 139.684  1.00  0.00     0.025 C 
ATOM      6  C   UNL     1      28.266  59.780 138.966  1.00  0.00    -0.073 C 
ATOM      7  C   UNL     1      29.120  60.636 139.549  1.00  0.00     0.008 C 
ATOM      8  C   UNL     1      27.881  60.069 137.530  1.00  0.00     0.031 C 
ATOM      9  C   UNL     1      27.620  58.821 136.652  1.00  0.00     0.005 C 
ATOM     10  C   UNL     1      27.561  57.482 137.409  1.00  0.00     0.008 C 
ATOM     11  C   UNL     1      26.896  57.611 138.798  1.00  0.00    -0.018 C 
ATOM     12  C   UNL     1      26.833  56.220 139.467  1.00  0.00     0.088 C 
ATOM     13  C   UNL     1      26.366  56.303 140.898  1.00  0.00     0.159 C 
ATOM     14  O   UNL     1      25.687  55.337 141.340  1.00  0.00    -0.295 OA
ATOM     15  C   UNL     1      25.443  58.156 138.638  1.00  0.00     0.012 C 
ATOM     16  C   UNL     1      26.706  58.754 143.934  1.00  0.00     0.039 C 
ENDROOT
TORSDOF 0
ENDMDL
MODEL 9
REMARK VINA RESULT:    -6.006      2.511      5.057
REMARK INTER + INTRA:          -6.006
REMARK INTER:                  -6.006
REMARK INTRA:                   0.000
REMARK UNBOUND:                 0.000
REMARK SMILES C=C1CCC[C@@]2(C)CC(=O)C(=C(C)C)C[C@H]12
REMARK SMILES IDX 13 1 12 2 11 3 15 4 16 5 2 6 1 7 3 8 4 9 5 10 6 11 8 12 9 13
REMARK SMILES IDX 10 14 7 15 14 16
REMARK H PARENT
REMARK Flexibility Score: inf
ROOT
ATOM      1  C   UNL     1      25.329  58.848 146.059  1.00  0.00     0.039 C 
ATOM      2  C   UNL     1      26.041  59.602 144.959  1.00  0.00    -0.070 C 
ATOM      3  C   UNL     1      26.612  58.972 143.885  1.00  0.00    -0.006 C 
ATOM      4  C   UNL     1      27.377  59.791 142.843  1.00  0.00     0.047 C 
ATOM      5  C   UNL     1      28.379  58.944 142.026  1.00  0.00     0.025 C 
ATOM      6  C   UNL     1      29.153  59.748 140.978  1.00  0.00    -0.073 C 
ATOM      7  C   UNL     1      29.882  60.821 141.326  1.00  0.00     0.008 C 
ATOM      8  C   UNL     1      29.235  59.305 139.532  1.00  0.00     0.031 C 
ATOM      9  C   UNL     1      29.117  57.779 139.302  1.00  0.00     0.005 C 
ATOM     10  C   UNL     1      28.707  56.954 140.535  1.00  0.00     0.008 C 
ATOM     11  C   UNL     1      27.682  57.688 141.429  1.00  0.00    -0.018 C 
ATOM     12  C   UNL     1      27.288  56.776 142.611  1.00  0.00     0.088 C 
ATOM     13  C   UNL     1      26.436  57.499 143.622  1.00  0.00     0.159 C 
ATOM     14  O   UNL     1      25.565  56.823 144.232  1.00  0.00    -0.295 OA
ATOM     15  C   UNL     1      26.402  58.017 140.602  1.00  0.00     0.012 C 
ATOM     16  C   UNL     1      26.120  61.107 145.115  1.00  0.00     0.039 C 
ENDROOT
TORSDOF 0
ENDMDL
