MODEL 1
REMARK VINA RESULT:    -7.853      0.000      0.000
REMARK INTER + INTRA:          -9.181
REMARK INTER:                  -9.001
REMARK INTRA:                  -0.180
REMARK UNBOUND:                -0.180
REMARK SMILES O=c1c(-c2ccc(O)cc2)coc2c(O)c(O)ccc12
REMARK SMILES IDX 3 1 11 2 12 3 13 4 20 5 2 6 1 7 19 8 18 9 16 10 14 11 4 12
REMARK SMILES IDX 5 13 6 14 7 15 10 16 9 17 8 18 15 20 17 22
REMARK H PARENT 8 19 15 21 17 23
REMARK Flexibility Score: inf
ROOT
ATOM      1  C   UNL     1     -11.052 -66.552 -32.661  1.00  0.00     0.065 A 
ATOM      2  C   UNL     1     -10.772 -67.293 -31.504  1.00  0.00     0.208 A 
ATOM      3  O   UNL     1      -9.576 -67.235 -30.928  1.00  0.00    -0.459 OA
ATOM      4  C   UNL     1      -8.584 -66.487 -31.398  1.00  0.00     0.183 A 
ATOM      5  C   UNL     1      -8.777 -65.701 -32.559  1.00  0.00     0.069 A 
ATOM      6  C   UNL     1     -10.034 -65.735 -33.189  1.00  0.00     0.200 A 
ATOM      7  O   UNL     1     -10.253 -65.025 -34.209  1.00  0.00    -0.288 OA
ATOM      8  C   UNL     1      -7.721 -64.911 -33.043  1.00  0.00     0.020 A 
ATOM      9  C   UNL     1      -6.490 -64.904 -32.384  1.00  0.00     0.051 A 
ATOM     10  C   UNL     1      -6.293 -65.679 -31.238  1.00  0.00     0.161 A 
ATOM     11  C   UNL     1      -7.340 -66.474 -30.740  1.00  0.00     0.201 A 
ENDROOT
BRANCH   1  12
ATOM     12  C   UNL     1     -12.394 -66.639 -33.290  1.00  0.00    -0.011 A 
ATOM     13  C   UNL     1     -12.566 -67.284 -34.528  1.00  0.00     0.013 A 
ATOM     14  C   UNL     1     -13.834 -67.371 -35.111  1.00  0.00     0.047 A 
ATOM     15  C   UNL     1     -14.946 -66.818 -34.462  1.00  0.00     0.115 A 
ATOM     16  C   UNL     1     -13.517 -66.094 -32.643  1.00  0.00     0.013 A 
ATOM     17  C   UNL     1     -14.783 -66.182 -33.228  1.00  0.00     0.047 A 
BRANCH  15  18
ATOM     18  O   UNL     1     -16.213 -66.898 -35.034  1.00  0.00    -0.508 OA
ATOM     19  H   UNL     1     -16.410 -66.500 -35.944  1.00  0.00     0.293 HD
ENDBRANCH  15  18
ENDBRANCH   1  12
BRANCH  11  20
ATOM     20  O   UNL     1      -7.133 -67.244 -29.594  1.00  0.00    -0.502 OA
ATOM     21  H   UNL     1      -7.658 -68.092 -29.411  1.00  0.00     0.293 HD
ENDBRANCH  11  20
BRANCH  10  22
ATOM     22  O   UNL     1      -5.050 -65.646 -30.607  1.00  0.00    -0.504 OA
ATOM     23  H   UNL     1      -4.610 -66.482 -30.241  1.00  0.00     0.293 HD
ENDBRANCH  10  22
TORSDOF 4
ENDMDL
MODEL 2
REMARK VINA RESULT:    -7.608      0.965      2.373
REMARK INTER + INTRA:          -8.900
REMARK INTER:                  -8.704
REMARK INTRA:                  -0.196
REMARK UNBOUND:                -0.180
REMARK SMILES O=c1c(-c2ccc(O)cc2)coc2c(O)c(O)ccc12
REMARK SMILES IDX 3 1 11 2 12 3 13 4 20 5 2 6 1 7 19 8 18 9 16 10 14 11 4 12
REMARK SMILES IDX 5 13 6 14 7 15 10 16 9 17 8 18 15 20 17 22
REMARK H PARENT 8 19 15 21 17 23
REMARK Flexibility Score: inf
ROOT
ATOM      1  C   UNL     1     -10.970 -66.188 -33.200  1.00  0.00     0.065 A 
ATOM      2  C   UNL     1     -10.197 -65.290 -33.953  1.00  0.00     0.208 A 
ATOM      3  O   UNL     1      -8.945 -65.013 -33.610  1.00  0.00    -0.459 OA
ATOM      4  C   UNL     1      -8.349 -65.555 -32.553  1.00  0.00     0.183 A 
ATOM      5  C   UNL     1      -9.049 -66.475 -31.738  1.00  0.00     0.069 A 
ATOM      6  C   UNL     1     -10.375 -66.795 -32.077  1.00  0.00     0.200 A 
ATOM      7  O   UNL     1     -11.022 -67.635 -31.392  1.00  0.00    -0.288 OA
ATOM      8  C   UNL     1      -8.405 -67.045 -30.627  1.00  0.00     0.020 A 
ATOM      9  C   UNL     1      -7.085 -66.701 -30.328  1.00  0.00     0.051 A 
ATOM     10  C   UNL     1      -6.389 -65.791 -31.128  1.00  0.00     0.161 A 
ATOM     11  C   UNL     1      -7.018 -65.214 -32.245  1.00  0.00     0.201 A 
ENDROOT
BRANCH   1  12
ATOM     12  C   UNL     1     -12.371 -66.476 -33.599  1.00  0.00    -0.011 A 
ATOM     13  C   UNL     1     -13.448 -65.987 -32.839  1.00  0.00     0.013 A 
ATOM     14  C   UNL     1     -14.765 -66.255 -33.226  1.00  0.00     0.047 A 
ATOM     15  C   UNL     1     -15.021 -67.009 -34.378  1.00  0.00     0.115 A 
ATOM     16  C   UNL     1     -12.637 -67.226 -34.758  1.00  0.00     0.013 A 
ATOM     17  C   UNL     1     -13.954 -67.492 -35.142  1.00  0.00     0.047 A 
BRANCH  15  18
ATOM     18  O   UNL     1     -16.329 -67.282 -34.772  1.00  0.00    -0.508 OA
ATOM     19  H   UNL     1     -17.075 -66.613 -34.630  1.00  0.00     0.293 HD
ENDBRANCH  15  18
ENDBRANCH   1  12
BRANCH  11  20
ATOM     20  O   UNL     1      -6.314 -64.307 -33.039  1.00  0.00    -0.502 OA
ATOM     21  H   UNL     1      -6.150 -64.467 -34.027  1.00  0.00     0.293 HD
ENDBRANCH  11  20
BRANCH  10  22
ATOM     22  O   UNL     1      -5.072 -65.473 -30.799  1.00  0.00    -0.504 OA
ATOM     23  H   UNL     1      -4.294 -66.071 -31.050  1.00  0.00     0.293 HD
ENDBRANCH  10  22
TORSDOF 4
ENDMDL
MODEL 3
REMARK VINA RESULT:    -7.491      1.607      7.376
REMARK INTER + INTRA:          -8.767
REMARK INTER:                  -8.610
REMARK INTRA:                  -0.157
REMARK UNBOUND:                -0.180
REMARK SMILES O=c1c(-c2ccc(O)cc2)coc2c(O)c(O)ccc12
REMARK SMILES IDX 3 1 11 2 12 3 13 4 20 5 2 6 1 7 19 8 18 9 16 10 14 11 4 12
REMARK SMILES IDX 5 13 6 14 7 15 10 16 9 17 8 18 15 20 17 22
REMARK H PARENT 8 19 15 21 17 23
REMARK Flexibility Score: inf
ROOT
ATOM      1  C   UNL     1     -11.498 -66.800 -33.425  1.00  0.00     0.065 A 
ATOM      2  C   UNL     1     -11.410 -67.277 -34.742  1.00  0.00     0.208 A 
ATOM      3  O   UNL     1     -12.494 -67.392 -35.500  1.00  0.00    -0.459 OA
ATOM      4  C   UNL     1     -13.711 -67.070 -35.074  1.00  0.00     0.183 A 
ATOM      5  C   UNL     1     -13.895 -66.576 -33.762  1.00  0.00     0.069 A 
ATOM      6  C   UNL     1     -12.767 -66.436 -32.935  1.00  0.00     0.200 A 
ATOM      7  O   UNL     1     -12.887 -65.969 -31.768  1.00  0.00    -0.288 OA
ATOM      8  C   UNL     1     -15.186 -66.235 -33.326  1.00  0.00     0.020 A 
ATOM      9  C   UNL     1     -16.279 -66.386 -34.182  1.00  0.00     0.051 A 
ATOM     10  C   UNL     1     -16.104 -66.876 -35.479  1.00  0.00     0.161 A 
ATOM     11  C   UNL     1     -14.817 -67.220 -35.931  1.00  0.00     0.201 A 
ENDROOT
BRANCH   1  12
ATOM     12  C   UNL     1     -10.273 -66.687 -32.594  1.00  0.00    -0.011 A 
ATOM     13  C   UNL     1     -10.087 -67.517 -31.474  1.00  0.00     0.013 A 
ATOM     14  C   UNL     1      -8.926 -67.411 -30.701  1.00  0.00     0.047 A 
ATOM     15  C   UNL     1      -7.936 -66.480 -31.041  1.00  0.00     0.115 A 
ATOM     16  C   UNL     1      -9.271 -65.760 -32.932  1.00  0.00     0.013 A 
ATOM     17  C   UNL     1      -8.112 -65.658 -32.158  1.00  0.00     0.047 A 
BRANCH  15  18
ATOM     18  O   UNL     1      -6.777 -66.366 -30.278  1.00  0.00    -0.508 OA
ATOM     19  H   UNL     1      -6.181 -65.549 -30.338  1.00  0.00     0.293 HD
ENDBRANCH  15  18
ENDBRANCH   1  12
BRANCH  11  20
ATOM     20  O   UNL     1     -14.653 -67.707 -37.229  1.00  0.00    -0.502 OA
ATOM     21  H   UNL     1     -14.287 -67.132 -37.979  1.00  0.00     0.293 HD
ENDBRANCH  11  20
BRANCH  10  22
ATOM     22  O   UNL     1     -17.219 -67.013 -36.304  1.00  0.00    -0.504 OA
ATOM     23  H   UNL     1     -18.164 -66.935 -35.950  1.00  0.00     0.293 HD
ENDBRANCH  10  22
TORSDOF 4
ENDMDL
MODEL 4
REMARK VINA RESULT:    -7.483      1.657      7.230
REMARK INTER + INTRA:          -8.758
REMARK INTER:                  -8.568
REMARK INTRA:                  -0.190
REMARK UNBOUND:                -0.180
REMARK SMILES O=c1c(-c2ccc(O)cc2)coc2c(O)c(O)ccc12
REMARK SMILES IDX 3 1 11 2 12 3 13 4 20 5 2 6 1 7 19 8 18 9 16 10 14 11 4 12
REMARK SMILES IDX 5 13 6 14 7 15 10 16 9 17 8 18 15 20 17 22
REMARK H PARENT 8 19 15 21 17 23
REMARK Flexibility Score: inf
ROOT
ATOM      1  C   UNL     1     -11.780 -66.260 -33.076  1.00  0.00     0.065 A 
ATOM      2  C   UNL     1     -12.742 -65.919 -32.112  1.00  0.00     0.208 A 
ATOM      3  O   UNL     1     -14.033 -66.138 -32.330  1.00  0.00    -0.459 OA
ATOM      4  C   UNL     1     -14.495 -66.683 -33.450  1.00  0.00     0.183 A 
ATOM      5  C   UNL     1     -13.598 -67.063 -34.475  1.00  0.00     0.069 A 
ATOM      6  C   UNL     1     -12.223 -66.851 -34.275  1.00  0.00     0.200 A 
ATOM      7  O   UNL     1     -11.389 -67.205 -35.154  1.00  0.00    -0.288 OA
ATOM      8  C   UNL     1     -14.099 -67.643 -35.653  1.00  0.00     0.020 A 
ATOM      9  C   UNL     1     -15.473 -67.839 -35.810  1.00  0.00     0.051 A 
ATOM     10  C   UNL     1     -16.364 -67.464 -34.801  1.00  0.00     0.161 A 
ATOM     11  C   UNL     1     -15.878 -66.884 -33.616  1.00  0.00     0.201 A 
ENDROOT
BRANCH   1  12
ATOM     12  C   UNL     1     -10.343 -65.998 -32.813  1.00  0.00    -0.011 A 
ATOM     13  C   UNL     1      -9.658 -64.986 -33.508  1.00  0.00     0.013 A 
ATOM     14  C   UNL     1      -8.306 -64.739 -33.249  1.00  0.00     0.047 A 
ATOM     15  C   UNL     1      -7.624 -65.498 -32.289  1.00  0.00     0.115 A 
ATOM     16  C   UNL     1      -9.651 -66.750 -31.846  1.00  0.00     0.013 A 
ATOM     17  C   UNL     1      -8.300 -66.501 -31.589  1.00  0.00     0.047 A 
BRANCH  15  18
ATOM     18  O   UNL     1      -6.277 -65.261 -32.024  1.00  0.00    -0.508 OA
ATOM     19  H   UNL     1      -5.977 -64.455 -31.488  1.00  0.00     0.293 HD
ENDBRANCH  15  18
ENDBRANCH   1  12
BRANCH  11  20
ATOM     20  O   UNL     1     -16.777 -66.514 -32.614  1.00  0.00    -0.502 OA
ATOM     21  H   UNL     1     -16.468 -66.183 -31.706  1.00  0.00     0.293 HD
ENDBRANCH  11  20
BRANCH  10  22
ATOM     22  O   UNL     1     -17.728 -67.675 -34.993  1.00  0.00    -0.504 OA
ATOM     23  H   UNL     1     -18.417 -67.415 -34.298  1.00  0.00     0.293 HD
ENDBRANCH  10  22
TORSDOF 4
ENDMDL
MODEL 5
REMARK VINA RESULT:    -7.165      3.189      6.091
REMARK INTER + INTRA:          -8.392
REMARK INTER:                  -8.112
REMARK INTRA:                  -0.280
REMARK UNBOUND:                -0.180
REMARK SMILES O=c1c(-c2ccc(O)cc2)coc2c(O)c(O)ccc12
REMARK SMILES IDX 3 1 11 2 12 3 13 4 20 5 2 6 1 7 19 8 18 9 16 10 14 11 4 12
REMARK SMILES IDX 5 13 6 14 7 15 10 16 9 17 8 18 15 20 17 22
REMARK H PARENT 8 19 15 21 17 23
REMARK Flexibility Score: inf
ROOT
ATOM      1  C   UNL     1      -8.802 -67.585 -30.031  1.00  0.00     0.065 A 
ATOM      2  C   UNL     1      -7.587 -66.895 -30.164  1.00  0.00     0.208 A 
ATOM      3  O   UNL     1      -7.389 -66.047 -31.166  1.00  0.00    -0.459 OA
ATOM      4  C   UNL     1      -8.308 -65.798 -32.093  1.00  0.00     0.183 A 
ATOM      5  C   UNL     1      -9.565 -66.444 -32.038  1.00  0.00     0.069 A 
ATOM      6  C   UNL     1      -9.809 -67.343 -30.985  1.00  0.00     0.200 A 
ATOM      7  O   UNL     1     -10.930 -67.916 -30.884  1.00  0.00    -0.288 OA
ATOM      8  C   UNL     1     -10.529 -66.167 -33.021  1.00  0.00     0.020 A 
ATOM      9  C   UNL     1     -10.246 -65.264 -34.048  1.00  0.00     0.051 A 
ATOM     10  C   UNL     1      -9.005 -64.624 -34.109  1.00  0.00     0.161 A 
ATOM     11  C   UNL     1      -8.030 -64.889 -33.131  1.00  0.00     0.201 A 
ENDROOT
BRANCH   1  12
ATOM     12  C   UNL     1      -8.996 -68.533 -28.906  1.00  0.00    -0.011 A 
ATOM     13  C   UNL     1      -9.537 -68.096 -27.684  1.00  0.00     0.013 A 
ATOM     14  C   UNL     1      -9.727 -68.997 -26.632  1.00  0.00     0.047 A 
ATOM     15  C   UNL     1      -9.382 -70.347 -26.789  1.00  0.00     0.115 A 
ATOM     16  C   UNL     1      -8.660 -69.890 -29.058  1.00  0.00     0.013 A 
ATOM     17  C   UNL     1      -8.850 -70.789 -28.004  1.00  0.00     0.047 A 
BRANCH  15  18
ATOM     18  O   UNL     1      -9.566 -71.252 -25.747  1.00  0.00    -0.508 OA
ATOM     19  H   UNL     1      -8.785 -71.596 -25.201  1.00  0.00     0.293 HD
ENDBRANCH  15  18
ENDBRANCH   1  12
BRANCH  11  20
ATOM     20  O   UNL     1      -6.794 -64.243 -33.201  1.00  0.00    -0.502 OA
ATOM     21  H   UNL     1      -5.924 -64.718 -32.991  1.00  0.00     0.293 HD
ENDBRANCH  11  20
BRANCH  10  22
ATOM     22  O   UNL     1      -8.759 -63.728 -35.149  1.00  0.00    -0.504 OA
ATOM     23  H   UNL     1      -9.023 -63.928 -36.106  1.00  0.00     0.293 HD
ENDBRANCH  10  22
TORSDOF 4
ENDMDL
MODEL 6
REMARK VINA RESULT:    -6.946      5.577      7.697
REMARK INTER + INTRA:          -8.142
REMARK INTER:                  -8.174
REMARK INTRA:                   0.032
REMARK UNBOUND:                -0.180
REMARK SMILES O=c1c(-c2ccc(O)cc2)coc2c(O)c(O)ccc12
REMARK SMILES IDX 3 1 11 2 12 3 13 4 20 5 2 6 1 7 19 8 18 9 16 10 14 11 4 12
REMARK SMILES IDX 5 13 6 14 7 15 10 16 9 17 8 18 15 20 17 22
REMARK H PARENT 8 19 15 21 17 23
REMARK Flexibility Score: inf
ROOT
ATOM      1  C   UNL     1     -15.574 -66.914 -34.816  1.00  0.00     0.065 A 
ATOM      2  C   UNL     1     -16.566 -66.717 -35.789  1.00  0.00     0.208 A 
ATOM      3  O   UNL     1     -16.288 -66.837 -37.082  1.00  0.00    -0.459 OA
ATOM      4  C   UNL     1     -15.078 -67.147 -37.535  1.00  0.00     0.183 A 
ATOM      5  C   UNL     1     -14.017 -67.369 -36.627  1.00  0.00     0.069 A 
ATOM      6  C   UNL     1     -14.279 -67.255 -35.250  1.00  0.00     0.200 A 
ATOM      7  O   UNL     1     -13.364 -67.476 -34.408  1.00  0.00    -0.288 OA
ATOM      8  C   UNL     1     -12.743 -67.700 -37.119  1.00  0.00     0.020 A 
ATOM      9  C   UNL     1     -12.527 -67.806 -38.494  1.00  0.00     0.051 A 
ATOM     10  C   UNL     1     -13.572 -67.586 -39.396  1.00  0.00     0.161 A 
ATOM     11  C   UNL     1     -14.853 -67.255 -38.920  1.00  0.00     0.201 A 
ENDROOT
BRANCH   1  12
ATOM     12  C   UNL     1     -15.908 -66.767 -33.377  1.00  0.00    -0.011 A 
ATOM     13  C   UNL     1     -15.138 -65.936 -32.544  1.00  0.00     0.013 A 
ATOM     14  C   UNL     1     -15.462 -65.795 -31.191  1.00  0.00     0.047 A 
ATOM     15  C   UNL     1     -16.563 -66.477 -30.656  1.00  0.00     0.115 A 
ATOM     16  C   UNL     1     -17.015 -67.442 -32.834  1.00  0.00     0.013 A 
ATOM     17  C   UNL     1     -17.337 -67.299 -31.481  1.00  0.00     0.047 A 
BRANCH  15  18
ATOM     18  O   UNL     1     -16.895 -66.344 -29.311  1.00  0.00    -0.508 OA
ATOM     19  H   UNL     1     -17.123 -65.442 -28.908  1.00  0.00     0.293 HD
ENDBRANCH  15  18
ENDBRANCH   1  12
BRANCH  11  20
ATOM     20  O   UNL     1     -15.889 -67.039 -39.829  1.00  0.00    -0.502 OA
ATOM     21  H   UNL     1     -15.843 -66.316 -40.539  1.00  0.00     0.293 HD
ENDBRANCH  11  20
BRANCH  10  22
ATOM     22  O   UNL     1     -13.318 -67.701 -40.762  1.00  0.00    -0.504 OA
ATOM     23  H   UNL     1     -12.404 -67.516 -41.158  1.00  0.00     0.293 HD
ENDBRANCH  10  22
TORSDOF 4
ENDMDL
MODEL 7
REMARK VINA RESULT:    -6.900      5.738      7.891
REMARK INTER + INTRA:          -8.088
REMARK INTER:                  -8.094
REMARK INTRA:                   0.005
REMARK UNBOUND:                -0.180
REMARK SMILES O=c1c(-c2ccc(O)cc2)coc2c(O)c(O)ccc12
REMARK SMILES IDX 3 1 11 2 12 3 13 4 20 5 2 6 1 7 19 8 18 9 16 10 14 11 4 12
REMARK SMILES IDX 5 13 6 14 7 15 10 16 9 17 8 18 15 20 17 22
REMARK H PARENT 8 19 15 21 17 23
REMARK Flexibility Score: inf
ROOT
ATOM      1  C   UNL     1     -15.586 -66.894 -34.165  1.00  0.00     0.065 A 
ATOM      2  C   UNL     1     -14.259 -67.269 -34.423  1.00  0.00     0.208 A 
ATOM      3  O   UNL     1     -13.819 -67.412 -35.667  1.00  0.00    -0.459 OA
ATOM      4  C   UNL     1     -14.588 -67.215 -36.733  1.00  0.00     0.183 A 
ATOM      5  C   UNL     1     -15.939 -66.830 -36.570  1.00  0.00     0.069 A 
ATOM      6  C   UNL     1     -16.435 -66.664 -35.265  1.00  0.00     0.200 A 
ATOM      7  O   UNL     1     -17.628 -66.291 -35.080  1.00  0.00    -0.288 OA
ATOM      8  C   UNL     1     -16.740 -66.620 -37.705  1.00  0.00     0.020 A 
ATOM      9  C   UNL     1     -16.206 -66.794 -38.983  1.00  0.00     0.051 A 
ATOM     10  C   UNL     1     -14.872 -67.176 -39.150  1.00  0.00     0.161 A 
ATOM     11  C   UNL     1     -14.057 -67.388 -38.024  1.00  0.00     0.201 A 
ENDROOT
BRANCH   1  12
ATOM     12  C   UNL     1     -16.057 -66.748 -32.765  1.00  0.00    -0.011 A 
ATOM     13  C   UNL     1     -17.195 -67.439 -32.314  1.00  0.00     0.013 A 
ATOM     14  C   UNL     1     -17.627 -67.303 -30.991  1.00  0.00     0.047 A 
ATOM     15  C   UNL     1     -16.925 -66.479 -30.102  1.00  0.00     0.115 A 
ATOM     16  C   UNL     1     -15.354 -65.928 -31.864  1.00  0.00     0.013 A 
ATOM     17  C   UNL     1     -15.789 -65.794 -30.542  1.00  0.00     0.047 A 
BRANCH  15  18
ATOM     18  O   UNL     1     -17.348 -66.336 -28.783  1.00  0.00    -0.508 OA
ATOM     19  H   UNL     1     -16.944 -65.637 -28.170  1.00  0.00     0.293 HD
ENDBRANCH  15  18
ENDBRANCH   1  12
BRANCH  11  20
ATOM     20  O   UNL     1     -12.726 -67.768 -38.202  1.00  0.00    -0.502 OA
ATOM     21  H   UNL     1     -11.958 -67.112 -38.105  1.00  0.00     0.293 HD
ENDBRANCH  11  20
BRANCH  10  22
ATOM     22  O   UNL     1     -14.374 -67.339 -40.442  1.00  0.00    -0.504 OA
ATOM     23  H   UNL     1     -13.389 -67.490 -40.625  1.00  0.00     0.293 HD
ENDBRANCH  10  22
TORSDOF 4
ENDMDL
MODEL 8
REMARK VINA RESULT:    -6.865      2.739      5.736
REMARK INTER + INTRA:          -8.049
REMARK INTER:                  -7.772
REMARK INTRA:                  -0.277
REMARK UNBOUND:                -0.180
REMARK SMILES O=c1c(-c2ccc(O)cc2)coc2c(O)c(O)ccc12
REMARK SMILES IDX 3 1 11 2 12 3 13 4 20 5 2 6 1 7 19 8 18 9 16 10 14 11 4 12
REMARK SMILES IDX 5 13 6 14 7 15 10 16 9 17 8 18 15 20 17 22
REMARK H PARENT 8 19 15 21 17 23
REMARK Flexibility Score: inf
ROOT
ATOM      1  C   UNL     1      -7.928 -64.460 -33.615  1.00  0.00     0.065 A 
ATOM      2  C   UNL     1      -6.953 -64.802 -32.666  1.00  0.00     0.208 A 
ATOM      3  O   UNL     1      -7.211 -65.686 -31.710  1.00  0.00    -0.459 OA
ATOM      4  C   UNL     1      -8.385 -66.296 -31.587  1.00  0.00     0.183 A 
ATOM      5  C   UNL     1      -9.427 -66.017 -32.502  1.00  0.00     0.069 A 
ATOM      6  C   UNL     1      -9.185 -65.090 -33.530  1.00  0.00     0.200 A 
ATOM      7  O   UNL     1     -10.081 -64.837 -34.384  1.00  0.00    -0.288 OA
ATOM      8  C   UNL     1     -10.663 -66.672 -32.364  1.00  0.00     0.020 A 
ATOM      9  C   UNL     1     -10.860 -67.589 -31.329  1.00  0.00     0.051 A 
ATOM     10  C   UNL     1      -9.834 -67.867 -30.422  1.00  0.00     0.161 A 
ATOM     11  C   UNL     1      -8.591 -67.221 -30.547  1.00  0.00     0.201 A 
ENDROOT
BRANCH   1  12
ATOM     12  C   UNL     1      -7.619 -63.463 -34.670  1.00  0.00    -0.011 A 
ATOM     13  C   UNL     1      -7.009 -63.858 -35.874  1.00  0.00     0.013 A 
ATOM     14  C   UNL     1      -6.729 -62.914 -36.867  1.00  0.00     0.047 A 
ATOM     15  C   UNL     1      -7.058 -61.566 -36.672  1.00  0.00     0.115 A 
ATOM     16  C   UNL     1      -7.952 -62.109 -34.485  1.00  0.00     0.013 A 
ATOM     17  C   UNL     1      -7.671 -61.169 -35.480  1.00  0.00     0.047 A 
BRANCH  15  18
ATOM     18  O   UNL     1      -6.783 -60.619 -37.654  1.00  0.00    -0.508 OA
ATOM     19  H   UNL     1      -7.097 -60.740 -38.610  1.00  0.00     0.293 HD
ENDBRANCH  15  18
ENDBRANCH   1  12
BRANCH  11  20
ATOM     20  O   UNL     1      -7.573 -67.507 -29.636  1.00  0.00    -0.502 OA
ATOM     21  H   UNL     1      -7.762 -67.706 -28.659  1.00  0.00     0.293 HD
ENDBRANCH  11  20
BRANCH  10  22
ATOM     22  O   UNL     1     -10.068 -68.788 -29.402  1.00  0.00    -0.504 OA
ATOM     23  H   UNL     1     -10.003 -69.788 -29.553  1.00  0.00     0.293 HD
ENDBRANCH  10  22
TORSDOF 4
ENDMDL
MODEL 9
REMARK VINA RESULT:    -6.698      4.486      6.353
REMARK INTER + INTRA:          -7.857
REMARK INTER:                  -7.773
REMARK INTRA:                  -0.084
REMARK UNBOUND:                -0.180
REMARK SMILES O=c1c(-c2ccc(O)cc2)coc2c(O)c(O)ccc12
REMARK SMILES IDX 3 1 11 2 12 3 13 4 20 5 2 6 1 7 19 8 18 9 16 10 14 11 4 12
REMARK SMILES IDX 5 13 6 14 7 15 10 16 9 17 8 18 15 20 17 22
REMARK H PARENT 8 19 15 21 17 23
REMARK Flexibility Score: inf
ROOT
ATOM      1  C   UNL     1      -6.880 -65.786 -30.706  1.00  0.00     0.065 A 
ATOM      2  C   UNL     1      -6.125 -65.261 -29.647  1.00  0.00     0.208 A 
ATOM      3  O   UNL     1      -6.359 -65.630 -28.393  1.00  0.00    -0.459 OA
ATOM      4  C   UNL     1      -7.304 -66.503 -28.061  1.00  0.00     0.183 A 
ATOM      5  C   UNL     1      -8.112 -67.088 -29.064  1.00  0.00     0.069 A 
ATOM      6  C   UNL     1      -7.886 -66.724 -30.403  1.00  0.00     0.200 A 
ATOM      7  O   UNL     1      -8.566 -67.249 -31.329  1.00  0.00    -0.288 OA
ATOM      8  C   UNL     1      -9.104 -68.014 -28.700  1.00  0.00     0.020 A 
ATOM      9  C   UNL     1      -9.293 -68.350 -27.358  1.00  0.00     0.051 A 
ATOM     10  C   UNL     1      -8.499 -67.773 -26.363  1.00  0.00     0.161 A 
ATOM     11  C   UNL     1      -7.501 -66.846 -26.710  1.00  0.00     0.201 A 
ENDROOT
BRANCH   1  12
ATOM     12  C   UNL     1      -6.604 -65.354 -32.099  1.00  0.00    -0.011 A 
ATOM     13  C   UNL     1      -7.596 -64.711 -32.861  1.00  0.00     0.013 A 
ATOM     14  C   UNL     1      -7.327 -64.298 -34.169  1.00  0.00     0.047 A 
ATOM     15  C   UNL     1      -6.062 -64.517 -34.731  1.00  0.00     0.115 A 
ATOM     16  C   UNL     1      -5.335 -65.563 -32.668  1.00  0.00     0.013 A 
ATOM     17  C   UNL     1      -5.069 -65.149 -33.976  1.00  0.00     0.047 A 
BRANCH  15  18
ATOM     18  O   UNL     1      -5.783 -64.110 -36.033  1.00  0.00    -0.508 OA
ATOM     19  H   UNL     1      -4.832 -64.043 -36.375  1.00  0.00     0.293 HD
ENDBRANCH  15  18
ENDBRANCH   1  12
BRANCH  11  20
ATOM     20  O   UNL     1      -6.713 -66.277 -25.709  1.00  0.00    -0.502 OA
ATOM     21  H   UNL     1      -6.117 -65.474 -25.880  1.00  0.00     0.293 HD
ENDBRANCH  11  20
BRANCH  10  22
ATOM     22  O   UNL     1      -8.717 -68.132 -25.033  1.00  0.00    -0.504 OA
ATOM     23  H   UNL     1      -8.013 -68.000 -24.317  1.00  0.00     0.293 HD
ENDBRANCH  10  22
TORSDOF 4
ENDMDL
