MODEL 1
REMARK VINA RESULT:    -4.191      0.000      0.000
REMARK INTER + INTRA:          -9.010
REMARK INTER:                  -7.376
REMARK INTRA:                  -1.634
REMARK UNBOUND:                -1.634
REMARK SMILES CCCCCCCCCCCCCCC(=O)[O-]
REMARK SMILES IDX 9 1 10 2 11 3 12 4 13 5 14 6 15 7 16 8 17 9 8 10 7 11 6 12
REMARK SMILES IDX 5 13 4 14 3 15 2 16 1 17
REMARK H PARENT
REMARK Flexibility Score: inf
ROOT
ATOM      1  C   UNL     1      86.903  74.288  67.480  1.00  0.00     0.000 C 
ENDROOT
BRANCH   1   2
ATOM      2  C   UNL     1      88.074  73.296  67.632  1.00  0.00     0.000 C 
BRANCH   2   3
ATOM      3  C   UNL     1      89.071  73.636  68.754  1.00  0.00     0.000 C 
BRANCH   3   4
ATOM      4  C   UNL     1      88.632  73.101  70.124  1.00  0.00     0.000 C 
BRANCH   4   5
ATOM      5  C   UNL     1      89.845  72.652  70.952  1.00  0.00     0.006 C 
BRANCH   5   6
ATOM      6  C   UNL     1      89.472  72.342  72.408  1.00  0.00     0.053 C 
BRANCH   6   7
ATOM      7  C   UNL     1      89.004  73.566  73.134  1.00  0.00     0.041 C 
ATOM      8  O   UNL     1      87.773  73.797  73.260  1.00  0.00    -0.550 OA
ATOM      9  O   UNL     1      89.930  74.469  73.642  1.00  0.00    -0.550 OA
ENDBRANCH   6   7
ENDBRANCH   5   6
ENDBRANCH   4   5
ENDBRANCH   3   4
ENDBRANCH   2   3
ENDBRANCH   1   2
BRANCH   1  10
ATOM     10  C   UNL     1      87.313  75.748  67.199  1.00  0.00     0.000 C 
BRANCH  10  11
ATOM     11  C   UNL     1      86.214  76.796  67.452  1.00  0.00    -0.000 C 
BRANCH  11  12
ATOM     12  C   UNL     1      86.456  77.617  68.730  1.00  0.00    -0.000 C 
BRANCH  12  13
ATOM     13  C   UNL     1      87.649  77.096  69.548  1.00  0.00    -0.000 C 
BRANCH  13  14
ATOM     14  C   UNL     1      87.219  76.422  70.860  1.00  0.00    -0.000 C 
BRANCH  14  15
ATOM     15  C   UNL     1      85.725  76.079  70.836  1.00  0.00    -0.000 C 
BRANCH  15  16
ATOM     16  C   UNL     1      85.505  74.567  70.961  1.00  0.00    -0.003 C 
ATOM     17  C   UNL     1      84.134  74.257  71.556  1.00  0.00     0.004 C 
ENDBRANCH  15  16
ENDBRANCH  14  15
ENDBRANCH  13  14
ENDBRANCH  12  13
ENDBRANCH  11  12
ENDBRANCH  10  11
ENDBRANCH   1  10
TORSDOF 13
ENDMDL
MODEL 2
REMARK VINA RESULT:    -4.085     13.259     14.807
REMARK INTER + INTRA:          -8.823
REMARK INTER:                  -7.444
REMARK INTRA:                  -1.379
REMARK UNBOUND:                -1.634
REMARK SMILES CCCCCCCCCCCCCCC(=O)[O-]
REMARK SMILES IDX 9 1 10 2 11 3 12 4 13 5 14 6 15 7 16 8 17 9 8 10 7 11 6 12
REMARK SMILES IDX 5 13 4 14 3 15 2 16 1 17
REMARK H PARENT
REMARK Flexibility Score: inf
ROOT
ATOM      1  C   UNL     1      95.452  85.002  78.819  1.00  0.00     0.000 C 
ENDROOT
BRANCH   1   2
ATOM      2  C   UNL     1      96.190  83.743  78.324  1.00  0.00     0.000 C 
BRANCH   2   3
ATOM      3  C   UNL     1      95.701  82.420  78.941  1.00  0.00     0.000 C 
BRANCH   3   4
ATOM      4  C   UNL     1      96.818  81.647  79.657  1.00  0.00     0.000 C 
BRANCH   4   5
ATOM      5  C   UNL     1      98.190  82.270  79.365  1.00  0.00     0.006 C 
BRANCH   5   6
ATOM      6  C   UNL     1      99.178  82.067  80.522  1.00  0.00     0.053 C 
BRANCH   6   7
ATOM      7  C   UNL     1      99.331  83.310  81.345  1.00  0.00     0.041 C 
ATOM      8  O   UNL     1     100.184  83.357  82.269  1.00  0.00    -0.550 OA
ATOM      9  O   UNL     1      98.507  84.404  81.111  1.00  0.00    -0.550 OA
ENDBRANCH   6   7
ENDBRANCH   5   6
ENDBRANCH   4   5
ENDBRANCH   3   4
ENDBRANCH   2   3
ENDBRANCH   1   2
BRANCH   1  10
ATOM     10  C   UNL     1      94.758  85.831  77.718  1.00  0.00     0.000 C 
BRANCH  10  11
ATOM     11  C   UNL     1      94.221  85.015  76.527  1.00  0.00    -0.000 C 
BRANCH  11  12
ATOM     12  C   UNL     1      92.736  84.644  76.681  1.00  0.00    -0.000 C 
BRANCH  12  13
ATOM     13  C   UNL     1      92.533  83.163  77.040  1.00  0.00    -0.000 C 
BRANCH  13  14
ATOM     14  C   UNL     1      91.714  82.971  78.326  1.00  0.00    -0.000 C 
BRANCH  14  15
ATOM     15  C   UNL     1      91.055  84.287  78.757  1.00  0.00    -0.000 C 
BRANCH  15  16
ATOM     16  C   UNL     1      89.539  84.244  78.532  1.00  0.00    -0.003 C 
ATOM     17  C   UNL     1      88.910  83.052  79.248  1.00  0.00     0.004 C 
ENDBRANCH  15  16
ENDBRANCH  14  15
ENDBRANCH  13  14
ENDBRANCH  12  13
ENDBRANCH  11  12
ENDBRANCH  10  11
ENDBRANCH   1  10
TORSDOF 13
ENDMDL
MODEL 3
REMARK VINA RESULT:    -4.028     13.027     14.729
REMARK INTER + INTRA:          -8.723
REMARK INTER:                  -7.074
REMARK INTRA:                  -1.648
REMARK UNBOUND:                -1.634
REMARK SMILES CCCCCCCCCCCCCCC(=O)[O-]
REMARK SMILES IDX 9 1 10 2 11 3 12 4 13 5 14 6 15 7 16 8 17 9 8 10 7 11 6 12
REMARK SMILES IDX 5 13 4 14 3 15 2 16 1 17
REMARK H PARENT
REMARK Flexibility Score: inf
ROOT
ATOM      1  C   UNL     1      94.431  85.741  77.971  1.00  0.00     0.000 C 
ENDROOT
BRANCH   1   2
ATOM      2  C   UNL     1      95.589  84.755  77.722  1.00  0.00     0.000 C 
BRANCH   2   3
ATOM      3  C   UNL     1      96.073  83.994  78.970  1.00  0.00     0.000 C 
BRANCH   3   4
ATOM      4  C   UNL     1      95.592  82.537  79.004  1.00  0.00     0.000 C 
BRANCH   4   5
ATOM      5  C   UNL     1      96.647  81.627  79.649  1.00  0.00     0.006 C 
BRANCH   5   6
ATOM      6  C   UNL     1      98.075  82.007  79.232  1.00  0.00     0.053 C 
BRANCH   6   7
ATOM      7  C   UNL     1      98.934  82.320  80.420  1.00  0.00     0.041 C 
ATOM      8  O   UNL     1     100.188  82.271  80.325  1.00  0.00    -0.550 OA
ATOM      9  O   UNL     1      98.347  82.633  81.639  1.00  0.00    -0.550 OA
ENDBRANCH   6   7
ENDBRANCH   5   6
ENDBRANCH   4   5
ENDBRANCH   3   4
ENDBRANCH   2   3
ENDBRANCH   1   2
BRANCH   1  10
ATOM     10  C   UNL     1      94.122  86.030  79.454  1.00  0.00     0.000 C 
BRANCH  10  11
ATOM     11  C   UNL     1      92.644  85.875  79.857  1.00  0.00    -0.000 C 
BRANCH  11  12
ATOM     12  C   UNL     1      92.272  84.425  80.211  1.00  0.00    -0.000 C 
BRANCH  12  13
ATOM     13  C   UNL     1      91.340  83.783  79.169  1.00  0.00    -0.000 C 
BRANCH  13  14
ATOM     14  C   UNL     1      92.099  82.932  78.140  1.00  0.00    -0.000 C 
BRANCH  14  15
ATOM     15  C   UNL     1      91.684  83.300  76.710  1.00  0.00    -0.000 C 
BRANCH  15  16
ATOM     16  C   UNL     1      90.285  83.927  76.687  1.00  0.00    -0.003 C 
ATOM     17  C   UNL     1      90.245  85.153  75.780  1.00  0.00     0.004 C 
ENDBRANCH  15  16
ENDBRANCH  14  15
ENDBRANCH  13  14
ENDBRANCH  12  13
ENDBRANCH  11  12
ENDBRANCH  10  11
ENDBRANCH   1  10
TORSDOF 13
ENDMDL
MODEL 4
REMARK VINA RESULT:    -3.979     13.023     14.592
REMARK INTER + INTRA:          -8.636
REMARK INTER:                  -7.038
REMARK INTRA:                  -1.598
REMARK UNBOUND:                -1.634
REMARK SMILES CCCCCCCCCCCCCCC(=O)[O-]
REMARK SMILES IDX 9 1 10 2 11 3 12 4 13 5 14 6 15 7 16 8 17 9 8 10 7 11 6 12
REMARK SMILES IDX 5 13 4 14 3 15 2 16 1 17
REMARK H PARENT
REMARK Flexibility Score: inf
ROOT
ATOM      1  C   UNL     1      93.995  84.924  76.398  1.00  0.00     0.000 C 
ENDROOT
BRANCH   1   2
ATOM      2  C   UNL     1      94.781  85.317  77.665  1.00  0.00     0.000 C 
BRANCH   2   3
ATOM      3  C   UNL     1      95.863  84.312  78.096  1.00  0.00     0.000 C 
BRANCH   3   4
ATOM      4  C   UNL     1      95.404  83.393  79.237  1.00  0.00     0.000 C 
BRANCH   4   5
ATOM      5  C   UNL     1      96.117  82.035  79.168  1.00  0.00     0.006 C 
BRANCH   5   6
ATOM      6  C   UNL     1      97.617  82.180  78.875  1.00  0.00     0.053 C 
BRANCH   6   7
ATOM      7  C   UNL     1      98.380  82.607  80.091  1.00  0.00     0.041 C 
ATOM      8  O   UNL     1      98.610  81.785  81.016  1.00  0.00    -0.550 OA
ATOM      9  O   UNL     1      98.808  83.923  80.217  1.00  0.00    -0.550 OA
ENDBRANCH   6   7
ENDBRANCH   5   6
ENDBRANCH   4   5
ENDBRANCH   3   4
ENDBRANCH   2   3
ENDBRANCH   1   2
BRANCH   1  10
ATOM     10  C   UNL     1      92.526  84.521  76.636  1.00  0.00     0.000 C 
BRANCH  10  11
ATOM     11  C   UNL     1      92.321  83.118  77.238  1.00  0.00    -0.000 C 
BRANCH  11  12
ATOM     12  C   UNL     1      91.376  83.123  78.452  1.00  0.00    -0.000 C 
BRANCH  12  13
ATOM     13  C   UNL     1      90.568  84.426  78.565  1.00  0.00    -0.000 C 
BRANCH  13  14
ATOM     14  C   UNL     1      90.800  85.154  79.898  1.00  0.00    -0.000 C 
BRANCH  14  15
ATOM     15  C   UNL     1      92.030  84.593  80.622  1.00  0.00    -0.000 C 
BRANCH  15  16
ATOM     16  C   UNL     1      91.692  84.210  82.067  1.00  0.00    -0.003 C 
ATOM     17  C   UNL     1      90.231  83.788  82.198  1.00  0.00     0.004 C 
ENDBRANCH  15  16
ENDBRANCH  14  15
ENDBRANCH  13  14
ENDBRANCH  12  13
ENDBRANCH  11  12
ENDBRANCH  10  11
ENDBRANCH   1  10
TORSDOF 13
ENDMDL
MODEL 5
REMARK VINA RESULT:    -3.951     13.976     15.520
REMARK INTER + INTRA:          -8.587
REMARK INTER:                  -7.797
REMARK INTRA:                  -0.790
REMARK UNBOUND:                -1.634
REMARK SMILES CCCCCCCCCCCCCCC(=O)[O-]
REMARK SMILES IDX 9 1 10 2 11 3 12 4 13 5 14 6 15 7 16 8 17 9 8 10 7 11 6 12
REMARK SMILES IDX 5 13 4 14 3 15 2 16 1 17
REMARK H PARENT
REMARK Flexibility Score: inf
ROOT
ATOM      1  C   UNL     1      96.377  84.007  78.115  1.00  0.00     0.000 C 
ENDROOT
BRANCH   1   2
ATOM      2  C   UNL     1      96.863  83.135  79.289  1.00  0.00     0.000 C 
BRANCH   2   3
ATOM      3  C   UNL     1      97.876  82.040  78.909  1.00  0.00     0.000 C 
BRANCH   3   4
ATOM      4  C   UNL     1      99.118  82.036  79.811  1.00  0.00     0.000 C 
BRANCH   4   5
ATOM      5  C   UNL     1      98.742  82.362  81.264  1.00  0.00     0.006 C 
BRANCH   5   6
ATOM      6  C   UNL     1      99.934  82.903  82.065  1.00  0.00     0.053 C 
BRANCH   6   7
ATOM      7  C   UNL     1      99.875  82.476  83.501  1.00  0.00     0.041 C 
ATOM      8  O   UNL     1      99.359  81.372  83.813  1.00  0.00    -0.550 OA
ATOM      9  O   UNL     1     100.362  83.315  84.495  1.00  0.00    -0.550 OA
ENDBRANCH   6   7
ENDBRANCH   5   6
ENDBRANCH   4   5
ENDBRANCH   3   4
ENDBRANCH   2   3
ENDBRANCH   1   2
BRANCH   1  10
ATOM     10  C   UNL     1      95.779  85.372  78.515  1.00  0.00     0.000 C 
BRANCH  10  11
ATOM     11  C   UNL     1      94.739  85.943  77.533  1.00  0.00    -0.000 C 
BRANCH  11  12
ATOM     12  C   UNL     1      94.197  84.885  76.558  1.00  0.00    -0.000 C 
BRANCH  12  13
ATOM     13  C   UNL     1      92.695  84.615  76.755  1.00  0.00    -0.000 C 
BRANCH  13  14
ATOM     14  C   UNL     1      92.380  83.123  76.936  1.00  0.00    -0.000 C 
BRANCH  14  15
ATOM     15  C   UNL     1      91.787  82.852  78.324  1.00  0.00    -0.000 C 
BRANCH  15  16
ATOM     16  C   UNL     1      90.690  83.869  78.662  1.00  0.00    -0.003 C 
ATOM     17  C   UNL     1      89.465  83.180  79.258  1.00  0.00     0.004 C 
ENDBRANCH  15  16
ENDBRANCH  14  15
ENDBRANCH  13  14
ENDBRANCH  12  13
ENDBRANCH  11  12
ENDBRANCH  10  11
ENDBRANCH   1  10
TORSDOF 13
ENDMDL
MODEL 6
REMARK VINA RESULT:    -3.929     16.105     18.121
REMARK INTER + INTRA:          -8.548
REMARK INTER:                  -6.772
REMARK INTRA:                  -1.776
REMARK UNBOUND:                -1.634
REMARK SMILES CCCCCCCCCCCCCCC(=O)[O-]
REMARK SMILES IDX 9 1 10 2 11 3 12 4 13 5 14 6 15 7 16 8 17 9 8 10 7 11 6 12
REMARK SMILES IDX 5 13 4 14 3 15 2 16 1 17
REMARK H PARENT
REMARK Flexibility Score: inf
ROOT
ATOM      1  C   UNL     1     100.220  83.072  81.237  1.00  0.00     0.000 C 
ENDROOT
BRANCH   1   2
ATOM      2  C   UNL     1      99.521  82.135  80.233  1.00  0.00     0.000 C 
BRANCH   2   3
ATOM      3  C   UNL     1      97.984  82.218  80.230  1.00  0.00     0.000 C 
BRANCH   3   4
ATOM      4  C   UNL     1      97.404  82.502  78.837  1.00  0.00     0.000 C 
BRANCH   4   5
ATOM      5  C   UNL     1      96.045  83.209  78.942  1.00  0.00     0.006 C 
BRANCH   5   6
ATOM      6  C   UNL     1      95.858  84.274  77.852  1.00  0.00     0.053 C 
BRANCH   6   7
ATOM      7  C   UNL     1      94.452  84.298  77.337  1.00  0.00     0.041 C 
ATOM      8  O   UNL     1      94.165  84.963  76.307  1.00  0.00    -0.550 OA
ATOM      9  O   UNL     1      93.451  83.612  78.014  1.00  0.00    -0.550 OA
ENDBRANCH   6   7
ENDBRANCH   5   6
ENDBRANCH   4   5
ENDBRANCH   3   4
ENDBRANCH   2   3
ENDBRANCH   1   2
BRANCH   1  10
ATOM     10  C   UNL     1     101.473  83.794  80.698  1.00  0.00     0.000 C 
BRANCH  10  11
ATOM     11  C   UNL     1     101.819  85.118  81.403  1.00  0.00    -0.000 C 
BRANCH  11  12
ATOM     12  C   UNL     1     102.589  86.092  80.496  1.00  0.00    -0.000 C 
BRANCH  12  13
ATOM     13  C   UNL     1     101.768  86.533  79.272  1.00  0.00    -0.000 C 
BRANCH  13  14
ATOM     14  C   UNL     1     100.657  87.531  79.631  1.00  0.00    -0.000 C 
BRANCH  14  15
ATOM     15  C   UNL     1      99.365  87.211  78.870  1.00  0.00    -0.000 C 
BRANCH  15  16
ATOM     16  C   UNL     1      98.690  85.955  79.434  1.00  0.00    -0.003 C 
ATOM     17  C   UNL     1      98.203  86.184  80.861  1.00  0.00     0.004 C 
ENDBRANCH  15  16
ENDBRANCH  14  15
ENDBRANCH  13  14
ENDBRANCH  12  13
ENDBRANCH  11  12
ENDBRANCH  10  11
ENDBRANCH   1  10
TORSDOF 13
ENDMDL
MODEL 7
REMARK VINA RESULT:    -3.898     14.289     15.895
REMARK INTER + INTRA:          -8.495
REMARK INTER:                  -7.457
REMARK INTRA:                  -1.037
REMARK UNBOUND:                -1.634
REMARK SMILES CCCCCCCCCCCCCCC(=O)[O-]
REMARK SMILES IDX 9 1 10 2 11 3 12 4 13 5 14 6 15 7 16 8 17 9 8 10 7 11 6 12
REMARK SMILES IDX 5 13 4 14 3 15 2 16 1 17
REMARK H PARENT
REMARK Flexibility Score: inf
ROOT
ATOM      1  C   UNL     1      95.835  82.926  79.126  1.00  0.00     0.000 C 
ENDROOT
BRANCH   1   2
ATOM      2  C   UNL     1      96.702  81.663  79.297  1.00  0.00     0.000 C 
BRANCH   2   3
ATOM      3  C   UNL     1      98.195  81.931  79.556  1.00  0.00     0.000 C 
BRANCH   3   4
ATOM      4  C   UNL     1      98.468  82.481  80.963  1.00  0.00     0.000 C 
BRANCH   4   5
ATOM      5  C   UNL     1      99.276  83.785  80.895  1.00  0.00     0.006 C 
BRANCH   5   6
ATOM      6  C   UNL     1     100.776  83.529  80.688  1.00  0.00     0.053 C 
BRANCH   6   7
ATOM      7  C   UNL     1     101.588  84.762  80.944  1.00  0.00     0.041 C 
ATOM      8  O   UNL     1     102.242  85.296  80.010  1.00  0.00    -0.550 OA
ATOM      9  O   UNL     1     101.649  85.300  82.223  1.00  0.00    -0.550 OA
ENDBRANCH   6   7
ENDBRANCH   5   6
ENDBRANCH   4   5
ENDBRANCH   3   4
ENDBRANCH   2   3
ENDBRANCH   1   2
BRANCH   1  10
ATOM     10  C   UNL     1      96.385  83.969  78.132  1.00  0.00     0.000 C 
BRANCH  10  11
ATOM     11  C   UNL     1      95.429  85.132  77.808  1.00  0.00    -0.000 C 
BRANCH  11  12
ATOM     12  C   UNL     1      93.968  84.822  78.174  1.00  0.00    -0.000 C 
BRANCH  12  13
ATOM     13  C   UNL     1      93.096  84.544  76.938  1.00  0.00    -0.000 C 
BRANCH  13  14
ATOM     14  C   UNL     1      92.543  83.111  76.913  1.00  0.00    -0.000 C 
BRANCH  14  15
ATOM     15  C   UNL     1      91.842  82.771  78.234  1.00  0.00    -0.000 C 
BRANCH  15  16
ATOM     16  C   UNL     1      90.447  83.404  78.297  1.00  0.00    -0.003 C 
ATOM     17  C   UNL     1      90.004  83.620  79.741  1.00  0.00     0.004 C 
ENDBRANCH  15  16
ENDBRANCH  14  15
ENDBRANCH  13  14
ENDBRANCH  12  13
ENDBRANCH  11  12
ENDBRANCH  10  11
ENDBRANCH   1  10
TORSDOF 13
ENDMDL
MODEL 8
REMARK VINA RESULT:    -3.855     13.831     16.126
REMARK INTER + INTRA:          -8.419
REMARK INTER:                  -7.326
REMARK INTRA:                  -1.093
REMARK UNBOUND:                -1.634
REMARK SMILES CCCCCCCCCCCCCCC(=O)[O-]
REMARK SMILES IDX 9 1 10 2 11 3 12 4 13 5 14 6 15 7 16 8 17 9 8 10 7 11 6 12
REMARK SMILES IDX 5 13 4 14 3 15 2 16 1 17
REMARK H PARENT
REMARK Flexibility Score: inf
ROOT
ATOM      1  C   UNL     1      95.748  84.290  77.742  1.00  0.00     0.000 C 
ENDROOT
BRANCH   1   2
ATOM      2  C   UNL     1      94.781  85.240  78.475  1.00  0.00     0.000 C 
BRANCH   2   3
ATOM      3  C   UNL     1      93.366  84.678  78.702  1.00  0.00     0.000 C 
BRANCH   3   4
ATOM      4  C   UNL     1      93.215  83.228  78.222  1.00  0.00     0.000 C 
BRANCH   4   5
ATOM      5  C   UNL     1      92.302  83.150  76.990  1.00  0.00     0.006 C 
BRANCH   5   6
ATOM      6  C   UNL     1      91.728  84.520  76.605  1.00  0.00     0.053 C 
BRANCH   6   7
ATOM      7  C   UNL     1      90.230  84.508  76.589  1.00  0.00     0.041 C 
ATOM      8  O   UNL     1      89.596  85.356  75.907  1.00  0.00    -0.550 OA
ATOM      9  O   UNL     1      89.533  83.580  77.353  1.00  0.00    -0.550 OA
ENDBRANCH   6   7
ENDBRANCH   5   6
ENDBRANCH   4   5
ENDBRANCH   3   4
ENDBRANCH   2   3
ENDBRANCH   1   2
BRANCH   1  10
ATOM     10  C   UNL     1      96.959  83.819  78.573  1.00  0.00     0.000 C 
BRANCH  10  11
ATOM     11  C   UNL     1      96.990  82.311  78.886  1.00  0.00    -0.000 C 
BRANCH  11  12
ATOM     12  C   UNL     1      97.766  81.987  80.174  1.00  0.00    -0.000 C 
BRANCH  12  13
ATOM     13  C   UNL     1      99.286  82.151  80.005  1.00  0.00    -0.000 C 
BRANCH  13  14
ATOM     14  C   UNL     1      99.969  82.684  81.274  1.00  0.00    -0.000 C 
BRANCH  14  15
ATOM     15  C   UNL     1     100.856  83.893  80.952  1.00  0.00    -0.000 C 
BRANCH  15  16
ATOM     16  C   UNL     1     100.123  85.207  81.247  1.00  0.00    -0.003 C 
ATOM     17  C   UNL     1      99.893  86.009  79.969  1.00  0.00     0.004 C 
ENDBRANCH  15  16
ENDBRANCH  14  15
ENDBRANCH  13  14
ENDBRANCH  12  13
ENDBRANCH  11  12
ENDBRANCH  10  11
ENDBRANCH   1  10
TORSDOF 13
ENDMDL
MODEL 9
REMARK VINA RESULT:    -3.833     13.513     15.735
REMARK INTER + INTRA:          -8.380
REMARK INTER:                  -6.926
REMARK INTRA:                  -1.453
REMARK UNBOUND:                -1.634
REMARK SMILES CCCCCCCCCCCCCCC(=O)[O-]
REMARK SMILES IDX 9 1 10 2 11 3 12 4 13 5 14 6 15 7 16 8 17 9 8 10 7 11 6 12
REMARK SMILES IDX 5 13 4 14 3 15 2 16 1 17
REMARK H PARENT
REMARK Flexibility Score: inf
ROOT
ATOM      1  C   UNL     1      96.525  83.892  78.310  1.00  0.00     0.000 C 
ENDROOT
BRANCH   1   2
ATOM      2  C   UNL     1      95.501  84.922  77.794  1.00  0.00     0.000 C 
BRANCH   2   3
ATOM      3  C   UNL     1      94.336  84.330  76.981  1.00  0.00     0.000 C 
BRANCH   3   4
ATOM      4  C   UNL     1      92.968  84.878  77.410  1.00  0.00     0.000 C 
BRANCH   4   5
ATOM      5  C   UNL     1      91.861  83.845  77.159  1.00  0.00     0.006 C 
BRANCH   5   6
ATOM      6  C   UNL     1      91.385  83.176  78.456  1.00  0.00     0.053 C 
BRANCH   6   7
ATOM      7  C   UNL     1      89.896  83.250  78.604  1.00  0.00     0.041 C 
ATOM      8  O   UNL     1      89.362  83.084  79.732  1.00  0.00    -0.550 OA
ATOM      9  O   UNL     1      89.097  83.470  77.489  1.00  0.00    -0.550 OA
ENDBRANCH   6   7
ENDBRANCH   5   6
ENDBRANCH   4   5
ENDBRANCH   3   4
ENDBRANCH   2   3
ENDBRANCH   1   2
BRANCH   1  10
ATOM     10  C   UNL     1      95.917  82.615  78.925  1.00  0.00     0.000 C 
BRANCH  10  11
ATOM     11  C   UNL     1      96.928  81.664  79.591  1.00  0.00    -0.000 C 
BRANCH  11  12
ATOM     12  C   UNL     1      98.342  82.263  79.677  1.00  0.00    -0.000 C 
BRANCH  12  13
ATOM     13  C   UNL     1      98.989  82.053  81.057  1.00  0.00    -0.000 C 
BRANCH  13  14
ATOM     14  C   UNL     1      99.017  83.337  81.900  1.00  0.00    -0.000 C 
BRANCH  14  15
ATOM     15  C   UNL     1      98.777  84.573  81.025  1.00  0.00    -0.000 C 
BRANCH  15  16
ATOM     16  C   UNL     1      97.617  85.416  81.569  1.00  0.00    -0.003 C 
ATOM     17  C   UNL     1      96.510  84.531  82.133  1.00  0.00     0.004 C 
ENDBRANCH  15  16
ENDBRANCH  14  15
ENDBRANCH  13  14
ENDBRANCH  12  13
ENDBRANCH  11  12
ENDBRANCH  10  11
ENDBRANCH   1  10
TORSDOF 13
ENDMDL
