MODEL 1
REMARK VINA RESULT:    -0.776      0.000      0.000
REMARK INTER + INTRA:          -1.428
REMARK INTER:                  -1.185
REMARK INTRA:                  -0.243
REMARK UNBOUND:                -0.243
REMARK SMILES CC1=CCC[C@@H](C)C(=O)C[C@H](C(C)C)C(=O)C1
REMARK SMILES IDX 8 1 9 2 6 3 7 4 5 5 4 6 3 7 2 8 1 9 10 11 11 12 15 13 16 14
REMARK SMILES IDX 17 15 12 17 13 18 14 19
REMARK H PARENT
REMARK Flexibility Score: 70.00
ROOT
ATOM      1  C   UNL     1      92.278  29.299  11.186  1.00  0.00     0.136 C 
ATOM      2  O   UNL     1      91.561  29.311  10.195  1.00  0.00    -0.299 OA
ENDROOT
BRANCH   1   3
ATOM      3  C   UNL     1      92.123  28.189  12.209  1.00  0.00     0.053 C 
ATOM      4  C   UNL     1      92.406  26.824  11.567  1.00  0.00     0.016 C 
BRANCH   3   5
ATOM      5  C   UNL     1      90.708  28.227  12.829  1.00  0.00     0.015 C 
BRANCH   5   6
ATOM      6  C   UNL     1      90.540  29.393  13.824  1.00  0.00     0.028 C 
BRANCH   6   7
ATOM      7  C   UNL     1      91.606  29.364  14.889  1.00  0.00    -0.028 C 
ATOM      8  C   UNL     1      92.375  30.417  15.251  1.00  0.00    -0.070 CG0
ATOM      9  C   UNL     1      93.353  30.223  16.382  1.00  0.00     0.039 C 
ATOM     10  G   UNL     1      92.290  31.782  14.583  1.00  0.00     0.000 G0
ENDBRANCH   6   7
ENDBRANCH   5   6
ENDBRANCH   3   5
ENDBRANCH   1   3
BRANCH   1  11
ATOM     11  C   UNL     1      93.303  30.393  11.368  1.00  0.00     0.087 C 
BRANCH  11  12
ATOM     12  C   UNL     1      92.690  31.688  11.963  1.00  0.00     0.066 C 
BRANCH  12  13
ATOM     13  C   UNL     1      93.186  31.919  13.387  1.00  0.00     0.140 C 
ATOM     14  O   UNL     1      94.369  32.167  13.563  1.00  0.00    -0.299 OA
BRANCH  13  15
ATOM     15  C   UNL     1      92.274  31.777  14.585  1.00  0.00     0.106 CG0
ATOM     16  G   UNL     1      92.395  30.411  15.242  1.00  0.00     0.000 G0
ENDBRANCH  13  15
ENDBRANCH  12  13
BRANCH  12  17
ATOM     17  C   UNL     1      92.924  32.944  11.064  1.00  0.00    -0.006 C 
ATOM     18  C   UNL     1      93.514  32.580   9.690  1.00  0.00     0.008 C 
ATOM     19  C   UNL     1      91.611  33.720  10.846  1.00  0.00     0.008 C 
ENDBRANCH  12  17
ENDBRANCH  11  12
ENDBRANCH   1  11
TORSDOF 1
ENDMDL
MODEL 2
REMARK VINA RESULT:    -0.730      3.460      5.242
REMARK INTER + INTRA:          -1.356
REMARK INTER:                  -1.119
REMARK INTRA:                  -0.237
REMARK UNBOUND:                -0.243
REMARK SMILES CC1=CCC[C@@H](C)C(=O)C[C@H](C(C)C)C(=O)C1
REMARK SMILES IDX 8 1 9 2 6 3 7 4 5 5 4 6 3 7 2 8 1 9 10 11 11 12 15 13 16 14
REMARK SMILES IDX 17 15 12 17 13 18 14 19
REMARK H PARENT
REMARK Flexibility Score: 70.00
ROOT
ATOM      1  C   UNL     1      89.662  29.818  13.987  1.00  0.00     0.136 C 
ATOM      2  O   UNL     1      90.423  29.881  13.031  1.00  0.00    -0.299 OA
ENDROOT
BRANCH   1   3
ATOM      3  C   UNL     1      88.954  31.070  14.466  1.00  0.00     0.053 C 
ATOM      4  C   UNL     1      88.481  31.911  13.271  1.00  0.00     0.016 C 
BRANCH   3   5
ATOM      5  C   UNL     1      89.883  31.892  15.386  1.00  0.00     0.015 C 
BRANCH   5   6
ATOM      6  C   UNL     1      89.904  31.346  16.829  1.00  0.00     0.028 C 
BRANCH   6   7
ATOM      7  C   UNL     1      91.290  30.913  17.233  1.00  0.00    -0.028 C 
ATOM      8  C   UNL     1      91.680  29.632  17.426  1.00  0.00    -0.070 CG0
ATOM      9  C   UNL     1      93.126  29.379  17.770  1.00  0.00     0.039 C 
ATOM     10  G   UNL     1      90.739  28.443  17.300  1.00  0.00     0.000 G0
ENDBRANCH   6   7
ENDBRANCH   5   6
ENDBRANCH   3   5
ENDBRANCH   1   3
BRANCH   1  11
ATOM     11  C   UNL     1      89.447  28.487  14.669  1.00  0.00     0.087 C 
BRANCH  11  12
ATOM     12  C   UNL     1      90.750  27.651  14.766  1.00  0.00     0.066 C 
BRANCH  12  13
ATOM     13  C   UNL     1      91.172  27.469  16.220  1.00  0.00     0.140 C 
ATOM     14  O   UNL     1      91.829  26.484  16.521  1.00  0.00    -0.299 OA
BRANCH  13  15
ATOM     15  C   UNL     1      90.740  28.429  17.305  1.00  0.00     0.106 CG0
ATOM     16  G   UNL     1      91.672  29.626  17.419  1.00  0.00     0.000 G0
ENDBRANCH  13  15
ENDBRANCH  12  13
BRANCH  12  17
ATOM     17  C   UNL     1      90.654  26.281  14.020  1.00  0.00    -0.006 C 
ATOM     18  C   UNL     1      89.222  25.967  13.551  1.00  0.00     0.008 C 
ATOM     19  C   UNL     1      91.591  26.250  12.798  1.00  0.00     0.008 C 
ENDBRANCH  12  17
ENDBRANCH  11  12
ENDBRANCH   1  11
TORSDOF 1
ENDMDL
MODEL 3
REMARK VINA RESULT:    -0.639      2.361      4.934
REMARK INTER + INTRA:          -1.218
REMARK INTER:                  -0.991
REMARK INTRA:                  -0.227
REMARK UNBOUND:                -0.243
REMARK SMILES CC1=CCC[C@@H](C)C(=O)C[C@H](C(C)C)C(=O)C1
REMARK SMILES IDX 8 1 9 2 6 3 7 4 5 5 4 6 3 7 2 8 1 9 10 11 11 12 15 13 16 14
REMARK SMILES IDX 17 15 12 17 13 18 14 19
REMARK H PARENT
REMARK Flexibility Score: 70.00
ROOT
ATOM      1  C   UNL     1      92.395  31.331  13.063  1.00  0.00     0.136 C 
ATOM      2  O   UNL     1      92.037  32.489  13.227  1.00  0.00    -0.299 OA
ENDROOT
BRANCH   1   3
ATOM      3  C   UNL     1      93.164  30.953  11.811  1.00  0.00     0.053 C 
ATOM      4  C   UNL     1      94.462  31.768  11.713  1.00  0.00     0.016 C 
BRANCH   3   5
ATOM      5  C   UNL     1      92.283  31.163  10.560  1.00  0.00     0.015 C 
BRANCH   5   6
ATOM      6  C   UNL     1      91.239  30.040  10.389  1.00  0.00     0.028 C 
BRANCH   6   7
ATOM      7  C   UNL     1      91.883  28.679  10.444  1.00  0.00    -0.028 C 
ATOM      8  C   UNL     1      91.462  27.650  11.216  1.00  0.00    -0.070 CG0
ATOM      9  C   UNL     1      92.192  26.335  11.099  1.00  0.00     0.039 C 
ATOM     10  G   UNL     1      90.289  27.752  12.179  1.00  0.00     0.000 G0
ENDBRANCH   6   7
ENDBRANCH   5   6
ENDBRANCH   3   5
ENDBRANCH   1   3
BRANCH   1  11
ATOM     11  C   UNL     1      92.061  30.301  14.116  1.00  0.00     0.087 C 
BRANCH  11  12
ATOM     12  C   UNL     1      90.645  29.696  13.927  1.00  0.00     0.066 C 
BRANCH  12  13
ATOM     13  C   UNL     1      90.731  28.224  13.537  1.00  0.00     0.140 C 
ATOM     14  O   UNL     1      91.219  27.434  14.330  1.00  0.00    -0.299 OA
BRANCH  13  15
ATOM     15  C   UNL     1      90.298  27.730  12.175  1.00  0.00     0.106 CG0
ATOM     16  G   UNL     1      91.456  27.667  11.190  1.00  0.00     0.000 G0
ENDBRANCH  13  15
ENDBRANCH  12  13
BRANCH  12  17
ATOM     17  C   UNL     1      89.719  29.907  15.168  1.00  0.00    -0.006 C 
ATOM     18  C   UNL     1      90.272  30.966  16.139  1.00  0.00     0.008 C 
ATOM     19  C   UNL     1      88.302  30.328  14.735  1.00  0.00     0.008 C 
ENDBRANCH  12  17
ENDBRANCH  11  12
ENDBRANCH   1  11
TORSDOF 1
ENDMDL
MODEL 4
REMARK VINA RESULT:    -0.578      3.037      4.006
REMARK INTER + INTRA:          -1.125
REMARK INTER:                  -0.862
REMARK INTRA:                  -0.263
REMARK UNBOUND:                -0.243
REMARK SMILES CC1=CCC[C@@H](C)C(=O)C[C@H](C(C)C)C(=O)C1
REMARK SMILES IDX 8 1 9 2 6 3 7 4 5 5 4 6 3 7 2 8 1 9 10 11 11 12 15 13 16 14
REMARK SMILES IDX 17 15 12 17 13 18 14 19
REMARK H PARENT
REMARK Flexibility Score: 70.00
ROOT
ATOM      1  C   UNL     1      90.712  29.164  13.194  1.00  0.00     0.136 C 
ATOM      2  O   UNL     1      90.066  29.844  12.408  1.00  0.00    -0.299 OA
ENDROOT
BRANCH   1   3
ATOM      3  C   UNL     1      90.635  27.651  13.117  1.00  0.00     0.053 C 
ATOM      4  C   UNL     1      91.081  27.160  11.733  1.00  0.00     0.016 C 
BRANCH   3   5
ATOM      5  C   UNL     1      89.201  27.173  13.439  1.00  0.00     0.015 C 
BRANCH   5   6
ATOM      6  C   UNL     1      88.844  27.364  14.927  1.00  0.00     0.028 C 
BRANCH   6   7
ATOM      7  C   UNL     1      89.845  26.682  15.824  1.00  0.00    -0.028 C 
ATOM      8  C   UNL     1      90.425  27.243  16.910  1.00  0.00    -0.070 CG0
ATOM      9  C   UNL     1      91.361  26.390  17.730  1.00  0.00     0.039 C 
ATOM     10  G   UNL     1      90.170  28.677  17.348  1.00  0.00     0.000 G0
ENDBRANCH   6   7
ENDBRANCH   5   6
ENDBRANCH   3   5
ENDBRANCH   1   3
BRANCH   1  11
ATOM     11  C   UNL     1      91.575  29.852  14.225  1.00  0.00     0.087 C 
BRANCH  11  12
ATOM     12  C   UNL     1      90.748  30.410  15.414  1.00  0.00     0.066 C 
BRANCH  12  13
ATOM     13  C   UNL     1      91.103  29.686  16.709  1.00  0.00     0.140 C 
ATOM     14  O   UNL     1      92.202  29.880  17.208  1.00  0.00    -0.299 OA
BRANCH  13  15
ATOM     15  C   UNL     1      90.168  28.684  17.348  1.00  0.00     0.106 CG0
ATOM     16  G   UNL     1      90.446  27.261  16.887  1.00  0.00     0.000 G0
ENDBRANCH  13  15
ENDBRANCH  12  13
BRANCH  12  17
ATOM     17  C   UNL     1      90.872  31.959  15.571  1.00  0.00    -0.006 C 
ATOM     18  C   UNL     1      90.572  32.708  14.260  1.00  0.00     0.008 C 
ATOM     19  C   UNL     1      89.921  32.481  16.665  1.00  0.00     0.008 C 
ENDBRANCH  12  17
ENDBRANCH  11  12
ENDBRANCH   1  11
TORSDOF 1
ENDMDL
MODEL 5
REMARK VINA RESULT:    -0.505      2.313      4.628
REMARK INTER + INTRA:          -1.013
REMARK INTER:                  -0.725
REMARK INTRA:                  -0.288
REMARK UNBOUND:                -0.243
REMARK SMILES CC1=CCC[C@@H](C)C(=O)C[C@H](C(C)C)C(=O)C1
REMARK SMILES IDX 8 1 9 2 6 3 7 4 5 5 4 6 3 7 2 8 1 9 10 11 11 12 15 13 16 14
REMARK SMILES IDX 17 15 12 17 13 18 14 19
REMARK H PARENT
REMARK Flexibility Score: 70.00
ROOT
ATOM      1  C   UNL     1      89.709  30.448  14.862  1.00  0.00     0.136 C 
ATOM      2  O   UNL     1      89.555  29.473  15.585  1.00  0.00    -0.299 OA
ENDROOT
BRANCH   1   3
ATOM      3  C   UNL     1      89.012  30.501  13.516  1.00  0.00     0.053 C 
ATOM      4  C   UNL     1      87.491  30.386  13.694  1.00  0.00     0.016 C 
BRANCH   3   5
ATOM      5  C   UNL     1      89.547  29.384  12.592  1.00  0.00     0.015 C 
BRANCH   5   6
ATOM      6  C   UNL     1      90.760  29.847  11.761  1.00  0.00     0.028 C 
BRANCH   6   7
ATOM      7  C   UNL     1      90.609  31.280  11.320  1.00  0.00    -0.028 C 
ATOM      8  C   UNL     1      91.485  32.275  11.591  1.00  0.00    -0.070 CG0
ATOM      9  C   UNL     1      91.204  33.641  11.017  1.00  0.00     0.039 C 
ATOM     10  G   UNL     1      92.739  32.079  12.431  1.00  0.00     0.000 G0
ENDBRANCH   6   7
ENDBRANCH   5   6
ENDBRANCH   3   5
ENDBRANCH   1   3
BRANCH   1  11
ATOM     11  C   UNL     1      90.594  31.579  15.329  1.00  0.00     0.087 C 
BRANCH  11  12
ATOM     12  C   UNL     1      92.078  31.380  14.921  1.00  0.00     0.066 C 
BRANCH  12  13
ATOM     13  C   UNL     1      92.506  32.430  13.902  1.00  0.00     0.140 C 
ATOM     14  O   UNL     1      92.599  33.594  14.262  1.00  0.00    -0.299 OA
BRANCH  13  15
ATOM     15  C   UNL     1      92.747  32.085  12.449  1.00  0.00     0.106 CG0
ATOM     16  G   UNL     1      91.500  32.272  11.599  1.00  0.00     0.000 G0
ENDBRANCH  13  15
ENDBRANCH  12  13
BRANCH  12  17
ATOM     17  C   UNL     1      93.048  31.339  16.145  1.00  0.00    -0.006 C 
ATOM     18  C   UNL     1      92.414  31.931  17.417  1.00  0.00     0.008 C 
ATOM     19  C   UNL     1      93.500  29.898  16.445  1.00  0.00     0.008 C 
ENDBRANCH  12  17
ENDBRANCH  11  12
ENDBRANCH   1  11
TORSDOF 1
ENDMDL
MODEL 6
REMARK VINA RESULT:    -0.495      2.625      3.865
REMARK INTER + INTRA:          -0.997
REMARK INTER:                  -0.705
REMARK INTRA:                  -0.292
REMARK UNBOUND:                -0.243
REMARK SMILES CC1=CCC[C@@H](C)C(=O)C[C@H](C(C)C)C(=O)C1
REMARK SMILES IDX 8 1 9 2 6 3 7 4 5 5 4 6 3 7 2 8 1 9 10 11 11 12 15 13 16 14
REMARK SMILES IDX 17 15 12 17 13 18 14 19
REMARK H PARENT
REMARK Flexibility Score: 70.00
ROOT
ATOM      1  C   UNL     1      91.414  30.391  10.358  1.00  0.00     0.136 C 
ATOM      2  O   UNL     1      91.169  31.332   9.617  1.00  0.00    -0.299 OA
ENDROOT
BRANCH   1   3
ATOM      3  C   UNL     1      91.292  28.972   9.833  1.00  0.00     0.053 C 
ATOM      4  C   UNL     1      92.224  28.763   8.631  1.00  0.00     0.016 C 
BRANCH   3   5
ATOM      5  C   UNL     1      89.826  28.665   9.456  1.00  0.00     0.015 C 
BRANCH   5   6
ATOM      6  C   UNL     1      89.009  28.160  10.663  1.00  0.00     0.028 C 
BRANCH   6   7
ATOM      7  C   UNL     1      89.756  27.097  11.426  1.00  0.00    -0.028 C 
ATOM      8  C   UNL     1      90.037  27.140  12.749  1.00  0.00    -0.070 CG0
ATOM      9  C   UNL     1      90.743  25.956  13.360  1.00  0.00     0.039 C 
ATOM     10  G   UNL     1      89.667  28.313  13.645  1.00  0.00     0.000 G0
ENDBRANCH   6   7
ENDBRANCH   5   6
ENDBRANCH   3   5
ENDBRANCH   1   3
BRANCH   1  11
ATOM     11  C   UNL     1      91.832  30.664  11.783  1.00  0.00     0.087 C 
BRANCH  11  12
ATOM     12  C   UNL     1      90.637  30.620  12.772  1.00  0.00     0.066 C 
BRANCH  12  13
ATOM     13  C   UNL     1      90.725  29.395  13.676  1.00  0.00     0.140 C 
ATOM     14  O   UNL     1      91.712  29.258  14.384  1.00  0.00    -0.299 OA
BRANCH  13  15
ATOM     15  C   UNL     1      89.667  28.315  13.666  1.00  0.00     0.106 CG0
ATOM     16  G   UNL     1      90.038  27.155  12.755  1.00  0.00     0.000 G0
ENDBRANCH  13  15
ENDBRANCH  12  13
BRANCH  12  17
ATOM     17  C   UNL     1      90.481  31.935  13.601  1.00  0.00    -0.006 C 
ATOM     18  C   UNL     1      90.397  33.186  12.707  1.00  0.00     0.008 C 
ATOM     19  C   UNL     1      89.226  31.881  14.492  1.00  0.00     0.008 C 
ENDBRANCH  12  17
ENDBRANCH  11  12
ENDBRANCH   1  11
TORSDOF 1
ENDMDL
MODEL 7
REMARK VINA RESULT:    -0.460      2.743      4.285
REMARK INTER + INTRA:          -0.945
REMARK INTER:                  -1.079
REMARK INTRA:                   0.134
REMARK UNBOUND:                -0.243
REMARK SMILES CC1=CCC[C@@H](C)C(=O)C[C@H](C(C)C)C(=O)C1
REMARK SMILES IDX 8 1 9 2 6 3 7 4 5 5 4 6 3 7 2 8 1 9 10 11 11 12 15 13 16 14
REMARK SMILES IDX 17 15 12 17 13 18 14 19
REMARK H PARENT
REMARK Flexibility Score: 70.00
ROOT
ATOM      1  C   UNL     1      90.914  30.056  13.229  1.00  0.00     0.136 C 
ATOM      2  O   UNL     1      89.855  30.635  13.425  1.00  0.00    -0.299 OA
ENDROOT
BRANCH   1   3
ATOM      3  C   UNL     1      91.101  29.242  11.962  1.00  0.00     0.053 C 
ATOM      4  C   UNL     1      90.541  29.999  10.750  1.00  0.00     0.016 C 
BRANCH   3   5
ATOM      5  C   UNL     1      90.428  27.860  12.111  1.00  0.00     0.015 C 
BRANCH   5   6
ATOM      6  C   UNL     1      91.197  26.939  13.080  1.00  0.00     0.028 C 
BRANCH   6   7
ATOM      7  C   UNL     1      90.342  26.540  14.255  1.00  0.00    -0.028 C 
ATOM      8  C   UNL     1      90.528  26.956  15.529  1.00  0.00    -0.070 CG0
ATOM      9  C   UNL     1      89.536  26.503  16.571  1.00  0.00     0.039 C 
ATOM     10  G   UNL     1      91.674  27.862  15.955  1.00  0.00     0.000 G0
ENDBRANCH   6   7
ENDBRANCH   5   6
ENDBRANCH   3   5
ENDBRANCH   1   3
BRANCH   1  11
ATOM     11  C   UNL     1      92.015  30.166  14.257  1.00  0.00     0.087 C 
BRANCH  11  12
ATOM     12  C   UNL     1      91.473  30.484  15.676  1.00  0.00     0.066 C 
BRANCH  12  13
ATOM     13  C   UNL     1      91.226  29.202  16.463  1.00  0.00     0.140 C 
ATOM     14  O   UNL     1      90.693  29.280  17.560  1.00  0.00    -0.299 OA
BRANCH  13  15
ATOM     15  C   UNL     1      91.687  27.852  15.960  1.00  0.00     0.106 CG0
ATOM     16  G   UNL     1      90.524  26.974  15.524  1.00  0.00     0.000 G0
ENDBRANCH  13  15
ENDBRANCH  12  13
BRANCH  12  17
ATOM     17  C   UNL     1      92.381  31.479  16.468  1.00  0.00    -0.006 C 
ATOM     18  C   UNL     1      93.660  30.809  17.000  1.00  0.00     0.008 C 
ATOM     19  C   UNL     1      92.782  32.680  15.591  1.00  0.00     0.008 C 
ENDBRANCH  12  17
ENDBRANCH  11  12
ENDBRANCH   1  11
TORSDOF 1
ENDMDL
MODEL 8
REMARK VINA RESULT:    -0.458      3.386      5.473
REMARK INTER + INTRA:          -0.941
REMARK INTER:                  -0.933
REMARK INTRA:                  -0.008
REMARK UNBOUND:                -0.243
REMARK SMILES CC1=CCC[C@@H](C)C(=O)C[C@H](C(C)C)C(=O)C1
REMARK SMILES IDX 8 1 9 2 6 3 7 4 5 5 4 6 3 7 2 8 1 9 10 11 11 12 15 13 16 14
REMARK SMILES IDX 17 15 12 17 13 18 14 19
REMARK H PARENT
REMARK Flexibility Score: 70.00
ROOT
ATOM      1  C   UNL     1      90.650  27.276   9.239  1.00  0.00     0.136 C 
ATOM      2  O   UNL     1      90.093  26.354   9.818  1.00  0.00    -0.299 OA
ENDROOT
BRANCH   1   3
ATOM      3  C   UNL     1      91.596  26.979   8.091  1.00  0.00     0.053 C 
ATOM      4  C   UNL     1      90.874  26.187   6.991  1.00  0.00     0.016 C 
BRANCH   3   5
ATOM      5  C   UNL     1      92.834  26.211   8.604  1.00  0.00     0.015 C 
BRANCH   5   6
ATOM      6  C   UNL     1      93.986  27.158   8.995  1.00  0.00     0.028 C 
BRANCH   6   7
ATOM      7  C   UNL     1      94.209  28.215   7.944  1.00  0.00    -0.028 C 
ATOM      8  C   UNL     1      94.156  29.550   8.159  1.00  0.00    -0.070 CG0
ATOM      9  C   UNL     1      94.466  30.464   7.000  1.00  0.00     0.039 C 
ATOM     10  G   UNL     1      93.815  30.167   9.507  1.00  0.00     0.000 G0
ENDBRANCH   6   7
ENDBRANCH   5   6
ENDBRANCH   3   5
ENDBRANCH   1   3
BRANCH   1  11
ATOM     11  C   UNL     1      90.380  28.695   9.682  1.00  0.00     0.087 C 
BRANCH  11  12
ATOM     12  C   UNL     1      91.540  29.284  10.527  1.00  0.00     0.066 C 
BRANCH  12  13
ATOM     13  C   UNL     1      92.328  30.313   9.724  1.00  0.00     0.140 C 
ATOM     14  O   UNL     1      91.724  31.237   9.199  1.00  0.00    -0.299 OA
BRANCH  13  15
ATOM     15  C   UNL     1      93.818  30.182   9.498  1.00  0.00     0.106 CG0
ATOM     16  G   UNL     1      94.143  29.561   8.148  1.00  0.00     0.000 G0
ENDBRANCH  13  15
ENDBRANCH  12  13
BRANCH  12  17
ATOM     17  C   UNL     1      91.064  29.867  11.896  1.00  0.00    -0.006 C 
ATOM     18  C   UNL     1      90.917  28.782  12.977  1.00  0.00     0.008 C 
ATOM     19  C   UNL     1      92.041  30.943  12.408  1.00  0.00     0.008 C 
ENDBRANCH  12  17
ENDBRANCH  11  12
ENDBRANCH   1  11
TORSDOF 1
ENDMDL
MODEL 9
REMARK VINA RESULT:    -0.448      2.219      4.490
REMARK INTER + INTRA:          -0.927
REMARK INTER:                  -0.826
REMARK INTRA:                  -0.101
REMARK UNBOUND:                -0.243
REMARK SMILES CC1=CCC[C@@H](C)C(=O)C[C@H](C(C)C)C(=O)C1
REMARK SMILES IDX 8 1 9 2 6 3 7 4 5 5 4 6 3 7 2 8 1 9 10 11 11 12 15 13 16 14
REMARK SMILES IDX 17 15 12 17 13 18 14 19
REMARK H PARENT
REMARK Flexibility Score: 70.00
ROOT
ATOM      1  C   UNL     1      91.246  32.611  14.547  1.00  0.00     0.136 C 
ATOM      2  O   UNL     1      91.979  33.354  13.909  1.00  0.00    -0.299 OA
ENDROOT
BRANCH   1   3
ATOM      3  C   UNL     1      91.365  32.558  16.059  1.00  0.00     0.053 C 
ATOM      4  C   UNL     1      91.070  33.935  16.670  1.00  0.00     0.016 C 
BRANCH   3   5
ATOM      5  C   UNL     1      92.770  32.061  16.468  1.00  0.00     0.015 C 
BRANCH   5   6
ATOM      6  C   UNL     1      93.010  30.594  16.056  1.00  0.00     0.028 C 
BRANCH   6   7
ATOM      7  C   UNL     1      92.084  29.659  16.789  1.00  0.00    -0.028 C 
ATOM      8  C   UNL     1      91.374  28.658  16.217  1.00  0.00    -0.070 CG0
ATOM      9  C   UNL     1      90.542  27.779  17.115  1.00  0.00     0.039 C 
ATOM     10  G   UNL     1      91.388  28.373  14.722  1.00  0.00     0.000 G0
ENDBRANCH   6   7
ENDBRANCH   5   6
ENDBRANCH   3   5
ENDBRANCH   1   3
BRANCH   1  11
ATOM     11  C   UNL     1      90.238  31.761  13.812  1.00  0.00     0.087 C 
BRANCH  11  12
ATOM     12  C   UNL     1      90.872  30.486  13.196  1.00  0.00     0.066 C 
BRANCH  12  13
ATOM     13  C   UNL     1      90.418  29.238  13.945  1.00  0.00     0.140 C 
ATOM     14  O   UNL     1      89.225  28.970  13.972  1.00  0.00    -0.299 OA
BRANCH  13  15
ATOM     15  C   UNL     1      91.386  28.367  14.714  1.00  0.00     0.106 CG0
ATOM     16  G   UNL     1      91.358  28.653  16.207  1.00  0.00     0.000 G0
ENDBRANCH  13  15
ENDBRANCH  12  13
BRANCH  12  17
ATOM     17  C   UNL     1      90.618  30.357  11.660  1.00  0.00    -0.006 C 
ATOM     18  C   UNL     1      91.440  31.370  10.843  1.00  0.00     0.008 C 
ATOM     19  C   UNL     1      90.950  28.938  11.162  1.00  0.00     0.008 C 
ENDBRANCH  12  17
ENDBRANCH  11  12
ENDBRANCH   1  11
TORSDOF 1
ENDMDL
