MODEL 1
REMARK VINA RESULT:    -8.621      0.000      0.000
REMARK INTER + INTRA:         -10.955
REMARK INTER:                 -10.637
REMARK INTRA:                  -0.318
REMARK UNBOUND:                -0.318
REMARK SMILES O=c1c(O)c(-c2cc(O)c(O)c(O)c2)oc2cc(O)cc(O)c12
REMARK SMILES IDX 5 1 3 2 2 3 1 4 23 5 21 6 20 7 18 8 17 9 16 10 15 11 6 12
REMARK SMILES IDX 7 13 8 14 14 15 10 16 12 17 9 18 11 20 13 22 4 24 22 26
REMARK SMILES IDX 19 28
REMARK H PARENT 9 19 11 21 13 23 4 25 22 27 19 29
REMARK Flexibility Score: inf
ROOT
ATOM      1  C   UNL     1     -31.355  16.954  57.243  1.00  0.00     0.180 A 
ATOM      2  C   UNL     1     -30.084  16.392  57.034  1.00  0.00     0.208 A 
ATOM      3  C   UNL     1     -28.958  17.232  57.040  1.00  0.00     0.238 A 
ATOM      4  O   UNL     1     -27.818  16.714  56.908  1.00  0.00    -0.285 OA
ATOM      5  C   UNL     1     -29.119  18.625  57.238  1.00  0.00     0.111 A 
ATOM      6  C   UNL     1     -28.054  19.573  57.222  1.00  0.00     0.134 A 
ATOM      7  C   UNL     1     -28.313  20.908  57.558  1.00  0.00     0.093 A 
ATOM      8  C   UNL     1     -29.610  21.340  57.845  1.00  0.00     0.123 A 
ATOM      9  C   UNL     1     -30.666  20.433  57.804  1.00  0.00     0.094 A 
ATOM     10  C   UNL     1     -30.433  19.088  57.508  1.00  0.00     0.146 A 
ATOM     11  O   UNL     1     -31.467  18.254  57.490  1.00  0.00    -0.452 OA
ENDROOT
BRANCH   1  12
ATOM     12  C   UNL     1     -32.590  16.137  57.226  1.00  0.00     0.029 A 
ATOM     13  C   UNL     1     -33.451  16.138  56.118  1.00  0.00     0.062 A 
ATOM     14  C   UNL     1     -34.624  15.379  56.127  1.00  0.00     0.162 A 
ATOM     15  C   UNL     1     -32.941  15.393  58.360  1.00  0.00     0.062 A 
ATOM     16  C   UNL     1     -34.964  14.613  57.257  1.00  0.00     0.200 A 
ATOM     17  C   UNL     1     -34.111  14.627  58.387  1.00  0.00     0.162 A 
BRANCH  14  18
ATOM     18  O   UNL     1     -35.448  15.405  55.000  1.00  0.00    -0.504 OA
ATOM     19  H   UNL     1     -35.217  15.943  54.174  1.00  0.00     0.293 HD
ENDBRANCH  14  18
BRANCH  16  20
ATOM     20  O   UNL     1     -36.142  13.862  57.221  1.00  0.00    -0.502 OA
ATOM     21  H   UNL     1     -37.030  14.181  57.580  1.00  0.00     0.293 HD
ENDBRANCH  16  20
BRANCH  17  22
ATOM     22  O   UNL     1     -34.386  13.902  59.549  1.00  0.00    -0.504 OA
ATOM     23  H   UNL     1     -33.722  13.755  60.296  1.00  0.00     0.293 HD
ENDBRANCH  17  22
ENDBRANCH   1  12
BRANCH   2  24
ATOM     24  O   UNL     1     -29.945  15.012  56.863  1.00  0.00    -0.502 OA
ATOM     25  H   UNL     1     -29.050  14.542  56.931  1.00  0.00     0.293 HD
ENDBRANCH   2  24
BRANCH   6  26
ATOM     26  O   UNL     1     -26.739  19.265  56.860  1.00  0.00    -0.507 OA
ATOM     27  H   UNL     1     -26.449  18.981  55.936  1.00  0.00     0.293 HD
ENDBRANCH   6  26
BRANCH   8  28
ATOM     28  O   UNL     1     -29.861  22.673  58.164  1.00  0.00    -0.508 OA
ATOM     29  H   UNL     1     -29.766  23.409  57.474  1.00  0.00     0.293 HD
ENDBRANCH   8  28
TORSDOF 7
ENDMDL
MODEL 2
REMARK VINA RESULT:    -8.529      2.053      3.066
REMARK INTER + INTRA:         -10.842
REMARK INTER:                 -10.519
REMARK INTRA:                  -0.323
REMARK UNBOUND:                -0.318
REMARK SMILES O=c1c(O)c(-c2cc(O)c(O)c(O)c2)oc2cc(O)cc(O)c12
REMARK SMILES IDX 5 1 3 2 2 3 1 4 23 5 21 6 20 7 18 8 17 9 16 10 15 11 6 12
REMARK SMILES IDX 7 13 8 14 14 15 10 16 12 17 9 18 11 20 13 22 4 24 22 26
REMARK SMILES IDX 19 28
REMARK H PARENT 9 19 11 21 13 23 4 25 22 27 19 29
REMARK Flexibility Score: inf
ROOT
ATOM      1  C   UNL     1     -31.325  16.789  56.497  1.00  0.00     0.180 A 
ATOM      2  C   UNL     1     -31.307  17.451  57.738  1.00  0.00     0.208 A 
ATOM      3  C   UNL     1     -30.422  18.525  57.924  1.00  0.00     0.238 A 
ATOM      4  O   UNL     1     -30.451  19.148  59.017  1.00  0.00    -0.285 OA
ATOM      5  C   UNL     1     -29.556  18.915  56.874  1.00  0.00     0.111 A 
ATOM      6  C   UNL     1     -28.592  19.962  56.966  1.00  0.00     0.134 A 
ATOM      7  C   UNL     1     -27.879  20.347  55.824  1.00  0.00     0.093 A 
ATOM      8  C   UNL     1     -28.048  19.677  54.609  1.00  0.00     0.123 A 
ATOM      9  C   UNL     1     -28.943  18.614  54.525  1.00  0.00     0.094 A 
ATOM     10  C   UNL     1     -29.696  18.231  55.638  1.00  0.00     0.146 A 
ATOM     11  O   UNL     1     -30.546  17.219  55.511  1.00  0.00    -0.452 OA
ENDROOT
BRANCH   1  12
ATOM     12  C   UNL     1     -32.211  15.632  56.234  1.00  0.00     0.029 A 
ATOM     13  C   UNL     1     -31.719  14.318  56.244  1.00  0.00     0.062 A 
ATOM     14  C   UNL     1     -32.564  13.239  55.971  1.00  0.00     0.162 A 
ATOM     15  C   UNL     1     -33.556  15.854  55.910  1.00  0.00     0.062 A 
ATOM     16  C   UNL     1     -33.920  13.460  55.669  1.00  0.00     0.200 A 
ATOM     17  C   UNL     1     -34.417  14.785  55.635  1.00  0.00     0.162 A 
BRANCH  14  18
ATOM     18  O   UNL     1     -32.032  11.949  55.998  1.00  0.00    -0.504 OA
ATOM     19  H   UNL     1     -32.540  11.148  55.643  1.00  0.00     0.293 HD
ENDBRANCH  14  18
BRANCH  16  20
ATOM     20  O   UNL     1     -34.733  12.352  55.411  1.00  0.00    -0.502 OA
ATOM     21  H   UNL     1     -34.903  11.607  56.070  1.00  0.00     0.293 HD
ENDBRANCH  16  20
BRANCH  17  22
ATOM     22  O   UNL     1     -35.747  15.086  55.333  1.00  0.00    -0.504 OA
ATOM     23  H   UNL     1     -36.511  14.430  55.420  1.00  0.00     0.293 HD
ENDBRANCH  17  22
ENDBRANCH   1  12
BRANCH   2  24
ATOM     24  O   UNL     1     -32.186  17.064  58.753  1.00  0.00    -0.502 OA
ATOM     25  H   UNL     1     -33.024  16.524  58.571  1.00  0.00     0.293 HD
ENDBRANCH   2  24
BRANCH   6  26
ATOM     26  O   UNL     1     -28.279  20.634  58.152  1.00  0.00    -0.507 OA
ATOM     27  H   UNL     1     -27.694  21.455  58.209  1.00  0.00     0.293 HD
ENDBRANCH   6  26
BRANCH   8  28
ATOM     28  O   UNL     1     -27.324  20.056  53.481  1.00  0.00    -0.508 OA
ATOM     29  H   UNL     1     -27.123  21.030  53.284  1.00  0.00     0.293 HD
ENDBRANCH   8  28
TORSDOF 7
ENDMDL
MODEL 3
REMARK VINA RESULT:    -8.428      2.004      3.073
REMARK INTER + INTRA:         -10.717
REMARK INTER:                 -10.452
REMARK INTRA:                  -0.265
REMARK UNBOUND:                -0.318
REMARK SMILES O=c1c(O)c(-c2cc(O)c(O)c(O)c2)oc2cc(O)cc(O)c12
REMARK SMILES IDX 5 1 3 2 2 3 1 4 23 5 21 6 20 7 18 8 17 9 16 10 15 11 6 12
REMARK SMILES IDX 7 13 8 14 14 15 10 16 12 17 9 18 11 20 13 22 4 24 22 26
REMARK SMILES IDX 19 28
REMARK H PARENT 9 19 11 21 13 23 4 25 22 27 19 29
REMARK Flexibility Score: inf
ROOT
ATOM      1  C   UNL     1     -30.841  16.556  57.001  1.00  0.00     0.180 A 
ATOM      2  C   UNL     1     -31.095  17.503  55.993  1.00  0.00     0.208 A 
ATOM      3  C   UNL     1     -30.212  18.584  55.836  1.00  0.00     0.238 A 
ATOM      4  O   UNL     1     -30.415  19.397  54.897  1.00  0.00    -0.285 OA
ATOM      5  C   UNL     1     -29.096  18.713  56.698  1.00  0.00     0.111 A 
ATOM      6  C   UNL     1     -28.160  19.789  56.655  1.00  0.00     0.134 A 
ATOM      7  C   UNL     1     -27.022  19.747  57.470  1.00  0.00     0.093 A 
ATOM      8  C   UNL     1     -26.820  18.700  58.372  1.00  0.00     0.123 A 
ATOM      9  C   UNL     1     -27.759  17.676  58.464  1.00  0.00     0.094 A 
ATOM     10  C   UNL     1     -28.886  17.671  57.638  1.00  0.00     0.146 A 
ATOM     11  O   UNL     1     -29.751  16.670  57.751  1.00  0.00    -0.452 OA
ENDROOT
BRANCH   1  12
ATOM     12  C   UNL     1     -31.739  15.404  57.244  1.00  0.00     0.029 A 
ATOM     13  C   UNL     1     -32.546  15.337  58.390  1.00  0.00     0.062 A 
ATOM     14  C   UNL     1     -33.371  14.232  58.616  1.00  0.00     0.162 A 
ATOM     15  C   UNL     1     -31.743  14.330  56.344  1.00  0.00     0.062 A 
ATOM     16  C   UNL     1     -33.393  13.164  57.700  1.00  0.00     0.200 A 
ATOM     17  C   UNL     1     -32.563  13.216  56.554  1.00  0.00     0.162 A 
BRANCH  14  18
ATOM     18  O   UNL     1     -34.162  14.210  59.766  1.00  0.00    -0.504 OA
ATOM     19  H   UNL     1     -33.837  13.810  60.638  1.00  0.00     0.293 HD
ENDBRANCH  14  18
BRANCH  16  20
ATOM     20  O   UNL     1     -34.239  12.082  57.959  1.00  0.00    -0.502 OA
ATOM     21  H   UNL     1     -33.927  11.190  58.312  1.00  0.00     0.293 HD
ENDBRANCH  16  20
BRANCH  17  22
ATOM     22  O   UNL     1     -32.521  12.192  55.605  1.00  0.00    -0.504 OA
ATOM     23  H   UNL     1     -32.264  12.325  54.637  1.00  0.00     0.293 HD
ENDBRANCH  17  22
ENDBRANCH   1  12
BRANCH   2  24
ATOM     24  O   UNL     1     -32.190  17.344  55.140  1.00  0.00    -0.502 OA
ATOM     25  H   UNL     1     -33.071  17.821  55.290  1.00  0.00     0.293 HD
ENDBRANCH   2  24
BRANCH   6  26
ATOM     26  O   UNL     1     -28.314  20.927  55.856  1.00  0.00    -0.507 OA
ATOM     27  H   UNL     1     -27.722  21.163  55.073  1.00  0.00     0.293 HD
ENDBRANCH   6  26
BRANCH   8  28
ATOM     28  O   UNL     1     -25.692  18.674  59.190  1.00  0.00    -0.508 OA
ATOM     29  H   UNL     1     -25.133  19.504  59.347  1.00  0.00     0.293 HD
ENDBRANCH   8  28
TORSDOF 7
ENDMDL
MODEL 4
REMARK VINA RESULT:    -8.163      1.511      7.463
REMARK INTER + INTRA:         -10.390
REMARK INTER:                 -10.027
REMARK INTRA:                  -0.362
REMARK UNBOUND:                -0.318
REMARK SMILES O=c1c(O)c(-c2cc(O)c(O)c(O)c2)oc2cc(O)cc(O)c12
REMARK SMILES IDX 5 1 3 2 2 3 1 4 23 5 21 6 20 7 18 8 17 9 16 10 15 11 6 12
REMARK SMILES IDX 7 13 8 14 14 15 10 16 12 17 9 18 11 20 13 22 4 24 22 26
REMARK SMILES IDX 19 28
REMARK H PARENT 9 19 11 21 13 23 4 25 22 27 19 29
REMARK Flexibility Score: inf
ROOT
ATOM      1  C   UNL     1     -32.774  15.934  57.235  1.00  0.00     0.180 A 
ATOM      2  C   UNL     1     -33.483  15.871  56.022  1.00  0.00     0.208 A 
ATOM      3  C   UNL     1     -34.639  15.078  55.949  1.00  0.00     0.238 A 
ATOM      4  O   UNL     1     -35.299  15.070  54.877  1.00  0.00    -0.285 OA
ATOM      5  C   UNL     1     -35.063  14.344  57.083  1.00  0.00     0.111 A 
ATOM      6  C   UNL     1     -36.196  13.478  57.110  1.00  0.00     0.134 A 
ATOM      7  C   UNL     1     -36.598  12.904  58.323  1.00  0.00     0.093 A 
ATOM      8  C   UNL     1     -35.870  13.114  59.496  1.00  0.00     0.123 A 
ATOM      9  C   UNL     1     -34.727  13.911  59.467  1.00  0.00     0.094 A 
ATOM     10  C   UNL     1     -34.322  14.526  58.280  1.00  0.00     0.146 A 
ATOM     11  O   UNL     1     -33.233  15.286  58.299  1.00  0.00    -0.452 OA
ENDROOT
BRANCH   1  12
ATOM     12  C   UNL     1     -31.533  16.728  57.382  1.00  0.00     0.029 A 
ATOM     13  C   UNL     1     -30.270  16.155  57.166  1.00  0.00     0.062 A 
ATOM     14  C   UNL     1     -29.107  16.913  57.331  1.00  0.00     0.162 A 
ATOM     15  C   UNL     1     -31.614  18.062  57.802  1.00  0.00     0.062 A 
ATOM     16  C   UNL     1     -29.189  18.260  57.730  1.00  0.00     0.200 A 
ATOM     17  C   UNL     1     -30.460  18.836  57.971  1.00  0.00     0.162 A 
BRANCH  14  18
ATOM     18  O   UNL     1     -27.873  16.304  57.100  1.00  0.00    -0.504 OA
ATOM     19  H   UNL     1     -27.746  15.590  56.393  1.00  0.00     0.293 HD
ENDBRANCH  14  18
BRANCH  16  20
ATOM     20  O   UNL     1     -28.003  18.984  57.875  1.00  0.00    -0.502 OA
ATOM     21  H   UNL     1     -27.562  19.506  57.133  1.00  0.00     0.293 HD
ENDBRANCH  16  20
BRANCH  17  22
ATOM     22  O   UNL     1     -30.622  20.162  58.380  1.00  0.00    -0.504 OA
ATOM     23  H   UNL     1     -31.028  20.437  59.263  1.00  0.00     0.293 HD
ENDBRANCH  17  22
ENDBRANCH   1  12
BRANCH   2  24
ATOM     24  O   UNL     1     -33.059  16.620  54.921  1.00  0.00    -0.502 OA
ATOM     25  H   UNL     1     -32.481  16.229  54.186  1.00  0.00     0.293 HD
ENDBRANCH   2  24
BRANCH   6  26
ATOM     26  O   UNL     1     -36.939  13.128  55.978  1.00  0.00    -0.507 OA
ATOM     27  H   UNL     1     -37.448  13.781  55.401  1.00  0.00     0.293 HD
ENDBRANCH   6  26
BRANCH   8  28
ATOM     28  O   UNL     1     -36.267  12.528  60.695  1.00  0.00    -0.508 OA
ATOM     29  H   UNL     1     -36.398  13.079  61.536  1.00  0.00     0.293 HD
ENDBRANCH   8  28
TORSDOF 7
ENDMDL
MODEL 5
REMARK VINA RESULT:    -7.996      1.561      7.255
REMARK INTER + INTRA:         -10.184
REMARK INTER:                  -9.830
REMARK INTRA:                  -0.354
REMARK UNBOUND:                -0.318
REMARK SMILES O=c1c(O)c(-c2cc(O)c(O)c(O)c2)oc2cc(O)cc(O)c12
REMARK SMILES IDX 5 1 3 2 2 3 1 4 23 5 21 6 20 7 18 8 17 9 16 10 15 11 6 12
REMARK SMILES IDX 7 13 8 14 14 15 10 16 12 17 9 18 11 20 13 22 4 24 22 26
REMARK SMILES IDX 19 28
REMARK H PARENT 9 19 11 21 13 23 4 25 22 27 19 29
REMARK Flexibility Score: inf
ROOT
ATOM      1  C   UNL     1     -32.115  16.429  57.404  1.00  0.00     0.180 A 
ATOM      2  C   UNL     1     -32.728  16.450  56.140  1.00  0.00     0.208 A 
ATOM      3  C   UNL     1     -33.895  15.695  55.935  1.00  0.00     0.238 A 
ATOM      4  O   UNL     1     -34.470  15.762  54.818  1.00  0.00    -0.285 OA
ATOM      5  C   UNL     1     -34.424  14.916  56.993  1.00  0.00     0.111 A 
ATOM      6  C   UNL     1     -35.576  14.081  56.886  1.00  0.00     0.134 A 
ATOM      7  C   UNL     1     -36.085  13.457  58.032  1.00  0.00     0.093 A 
ATOM      8  C   UNL     1     -35.444  13.585  59.266  1.00  0.00     0.123 A 
ATOM      9  C   UNL     1     -34.284  14.348  59.368  1.00  0.00     0.094 A 
ATOM     10  C   UNL     1     -33.773  15.013  58.251  1.00  0.00     0.146 A 
ATOM     11  O   UNL     1     -32.671  15.740  58.394  1.00  0.00    -0.452 OA
ENDROOT
BRANCH   1  12
ATOM     12  C   UNL     1     -30.870  17.179  57.689  1.00  0.00     0.029 A 
ATOM     13  C   UNL     1     -30.905  18.484  58.201  1.00  0.00     0.062 A 
ATOM     14  C   UNL     1     -29.721  19.187  58.442  1.00  0.00     0.162 A 
ATOM     15  C   UNL     1     -29.631  16.598  57.386  1.00  0.00     0.062 A 
ATOM     16  C   UNL     1     -28.476  18.595  58.161  1.00  0.00     0.200 A 
ATOM     17  C   UNL     1     -28.435  17.287  57.622  1.00  0.00     0.162 A 
BRANCH  14  18
ATOM     18  O   UNL     1     -29.803  20.481  58.958  1.00  0.00    -0.504 OA
ATOM     19  H   UNL     1     -29.002  21.099  59.000  1.00  0.00     0.293 HD
ENDBRANCH  14  18
BRANCH  16  20
ATOM     20  O   UNL     1     -27.316  19.329  58.424  1.00  0.00    -0.502 OA
ATOM     21  H   UNL     1     -27.089  19.729  59.323  1.00  0.00     0.293 HD
ENDBRANCH  16  20
BRANCH  17  22
ATOM     22  O   UNL     1     -27.240  16.637  57.306  1.00  0.00    -0.504 OA
ATOM     23  H   UNL     1     -26.950  15.756  57.706  1.00  0.00     0.293 HD
ENDBRANCH  17  22
ENDBRANCH   1  12
BRANCH   2  24
ATOM     24  O   UNL     1     -32.202  17.243  55.117  1.00  0.00    -0.502 OA
ATOM     25  H   UNL     1     -31.351  17.782  55.228  1.00  0.00     0.293 HD
ENDBRANCH   2  24
BRANCH   6  26
ATOM     26  O   UNL     1     -36.238  13.813  55.684  1.00  0.00    -0.507 OA
ATOM     27  H   UNL     1     -36.423  14.497  54.966  1.00  0.00     0.293 HD
ENDBRANCH   6  26
BRANCH   8  28
ATOM     28  O   UNL     1     -35.948  12.948  60.399  1.00  0.00    -0.508 OA
ATOM     29  H   UNL     1     -36.651  12.221  60.328  1.00  0.00     0.293 HD
ENDBRANCH   8  28
TORSDOF 7
ENDMDL
MODEL 6
REMARK VINA RESULT:    -7.975      2.128      6.899
REMARK INTER + INTRA:         -10.158
REMARK INTER:                  -9.800
REMARK INTRA:                  -0.357
REMARK UNBOUND:                -0.318
REMARK SMILES O=c1c(O)c(-c2cc(O)c(O)c(O)c2)oc2cc(O)cc(O)c12
REMARK SMILES IDX 5 1 3 2 2 3 1 4 23 5 21 6 20 7 18 8 17 9 16 10 15 11 6 12
REMARK SMILES IDX 7 13 8 14 14 15 10 16 12 17 9 18 11 20 13 22 4 24 22 26
REMARK SMILES IDX 19 28
REMARK H PARENT 9 19 11 21 13 23 4 25 22 27 19 29
REMARK Flexibility Score: inf
ROOT
ATOM      1  C   UNL     1     -31.779  16.361  56.345  1.00  0.00     0.180 A 
ATOM      2  C   UNL     1     -31.047  15.166  56.459  1.00  0.00     0.208 A 
ATOM      3  C   UNL     1     -31.700  13.944  56.231  1.00  0.00     0.238 A 
ATOM      4  O   UNL     1     -31.026  12.881  56.279  1.00  0.00    -0.285 OA
ATOM      5  C   UNL     1     -33.078  13.930  55.908  1.00  0.00     0.111 A 
ATOM      6  C   UNL     1     -33.849  12.749  55.696  1.00  0.00     0.134 A 
ATOM      7  C   UNL     1     -35.174  12.858  55.254  1.00  0.00     0.093 A 
ATOM      8  C   UNL     1     -35.774  14.107  55.080  1.00  0.00     0.123 A 
ATOM      9  C   UNL     1     -35.048  15.267  55.342  1.00  0.00     0.094 A 
ATOM     10  C   UNL     1     -33.713  15.190  55.748  1.00  0.00     0.146 A 
ATOM     11  O   UNL     1     -33.054  16.319  55.978  1.00  0.00    -0.452 OA
ENDROOT
BRANCH   1  12
ATOM     12  C   UNL     1     -31.166  17.686  56.596  1.00  0.00     0.029 A 
ATOM     13  C   UNL     1     -30.529  18.401  55.570  1.00  0.00     0.062 A 
ATOM     14  C   UNL     1     -29.935  19.640  55.828  1.00  0.00     0.162 A 
ATOM     15  C   UNL     1     -31.170  18.214  57.894  1.00  0.00     0.062 A 
ATOM     16  C   UNL     1     -29.960  20.181  57.127  1.00  0.00     0.200 A 
ATOM     17  C   UNL     1     -30.582  19.453  58.170  1.00  0.00     0.162 A 
BRANCH  14  18
ATOM     18  O   UNL     1     -29.317  20.318  54.777  1.00  0.00    -0.504 OA
ATOM     19  H   UNL     1     -29.036  21.288  54.850  1.00  0.00     0.293 HD
ENDBRANCH  14  18
BRANCH  16  20
ATOM     20  O   UNL     1     -29.363  21.426  57.340  1.00  0.00    -0.502 OA
ATOM     21  H   UNL     1     -29.274  21.866  58.244  1.00  0.00     0.293 HD
ENDBRANCH  16  20
BRANCH  17  22
ATOM     22  O   UNL     1     -30.637  19.918  59.486  1.00  0.00    -0.504 OA
ATOM     23  H   UNL     1     -30.047  20.650  59.855  1.00  0.00     0.293 HD
ENDBRANCH  17  22
ENDBRANCH   1  12
BRANCH   2  24
ATOM     24  O   UNL     1     -29.682  15.203  56.757  1.00  0.00    -0.502 OA
ATOM     25  H   UNL     1     -29.027  14.520  56.395  1.00  0.00     0.293 HD
ENDBRANCH   2  24
BRANCH   6  26
ATOM     26  O   UNL     1     -33.375  11.454  55.929  1.00  0.00    -0.507 OA
ATOM     27  H   UNL     1     -33.828  10.611  55.608  1.00  0.00     0.293 HD
ENDBRANCH   6  26
BRANCH   8  28
ATOM     28  O   UNL     1     -37.097  14.208  54.655  1.00  0.00    -0.508 OA
ATOM     29  H   UNL     1     -37.865  13.898  55.238  1.00  0.00     0.293 HD
ENDBRANCH   8  28
TORSDOF 7
ENDMDL
MODEL 7
REMARK VINA RESULT:    -7.843      2.186      7.552
REMARK INTER + INTRA:          -9.996
REMARK INTER:                  -9.659
REMARK INTRA:                  -0.336
REMARK UNBOUND:                -0.318
REMARK SMILES O=c1c(O)c(-c2cc(O)c(O)c(O)c2)oc2cc(O)cc(O)c12
REMARK SMILES IDX 5 1 3 2 2 3 1 4 23 5 21 6 20 7 18 8 17 9 16 10 15 11 6 12
REMARK SMILES IDX 7 13 8 14 14 15 10 16 12 17 9 18 11 20 13 22 4 24 22 26
REMARK SMILES IDX 19 28
REMARK H PARENT 9 19 11 21 13 23 4 25 22 27 19 29
REMARK Flexibility Score: inf
ROOT
ATOM      1  C   UNL     1     -31.524  15.975  56.923  1.00  0.00     0.180 A 
ATOM      2  C   UNL     1     -32.242  16.148  58.120  1.00  0.00     0.208 A 
ATOM      3  C   UNL     1     -33.277  15.252  58.429  1.00  0.00     0.238 A 
ATOM      4  O   UNL     1     -33.878  15.379  59.528  1.00  0.00    -0.285 OA
ATOM      5  C   UNL     1     -33.593  14.203  57.532  1.00  0.00     0.111 A 
ATOM      6  C   UNL     1     -34.647  13.262  57.725  1.00  0.00     0.134 A 
ATOM      7  C   UNL     1     -34.786  12.188  56.836  1.00  0.00     0.093 A 
ATOM      8  C   UNL     1     -33.948  12.059  55.726  1.00  0.00     0.123 A 
ATOM      9  C   UNL     1     -32.954  13.007  55.496  1.00  0.00     0.094 A 
ATOM     10  C   UNL     1     -32.768  14.069  56.385  1.00  0.00     0.146 A 
ATOM     11  O   UNL     1     -31.802  14.944  56.134  1.00  0.00    -0.452 OA
ENDROOT
BRANCH   1  12
ATOM     12  C   UNL     1     -30.437  16.895  56.517  1.00  0.00     0.029 A 
ATOM     13  C   UNL     1     -29.138  16.760  57.030  1.00  0.00     0.062 A 
ATOM     14  C   UNL     1     -28.128  17.650  56.654  1.00  0.00     0.162 A 
ATOM     15  C   UNL     1     -30.720  17.957  55.648  1.00  0.00     0.062 A 
ATOM     16  C   UNL     1     -28.407  18.703  55.762  1.00  0.00     0.200 A 
ATOM     17  C   UNL     1     -29.721  18.857  55.259  1.00  0.00     0.162 A 
BRANCH  14  18
ATOM     18  O   UNL     1     -26.849  17.476  57.184  1.00  0.00    -0.504 OA
ATOM     19  H   UNL     1     -26.015  17.782  56.698  1.00  0.00     0.293 HD
ENDBRANCH  14  18
BRANCH  16  20
ATOM     20  O   UNL     1     -27.367  19.565  55.405  1.00  0.00    -0.502 OA
ATOM     21  H   UNL     1     -26.428  19.264  55.189  1.00  0.00     0.293 HD
ENDBRANCH  16  20
BRANCH  17  22
ATOM     22  O   UNL     1     -30.079  19.882  54.380  1.00  0.00    -0.504 OA
ATOM     23  H   UNL     1     -31.031  20.112  54.134  1.00  0.00     0.293 HD
ENDBRANCH  17  22
ENDBRANCH   1  12
BRANCH   2  24
ATOM     24  O   UNL     1     -31.899  17.177  59.002  1.00  0.00    -0.502 OA
ATOM     25  H   UNL     1     -32.442  18.029  59.082  1.00  0.00     0.293 HD
ENDBRANCH   2  24
BRANCH   6  26
ATOM     26  O   UNL     1     -35.595  13.349  58.749  1.00  0.00    -0.507 OA
ATOM     27  H   UNL     1     -35.411  13.713  59.672  1.00  0.00     0.293 HD
ENDBRANCH   6  26
BRANCH   8  28
ATOM     28  O   UNL     1     -34.102  10.997  54.838  1.00  0.00    -0.508 OA
ATOM     29  H   UNL     1     -33.994  10.035  55.140  1.00  0.00     0.293 HD
ENDBRANCH   8  28
TORSDOF 7
ENDMDL
MODEL 8
REMARK VINA RESULT:    -7.839      2.219      7.380
REMARK INTER + INTRA:          -9.991
REMARK INTER:                  -9.654
REMARK INTRA:                  -0.337
REMARK UNBOUND:                -0.318
REMARK SMILES O=c1c(O)c(-c2cc(O)c(O)c(O)c2)oc2cc(O)cc(O)c12
REMARK SMILES IDX 5 1 3 2 2 3 1 4 23 5 21 6 20 7 18 8 17 9 16 10 15 11 6 12
REMARK SMILES IDX 7 13 8 14 14 15 10 16 12 17 9 18 11 20 13 22 4 24 22 26
REMARK SMILES IDX 19 28
REMARK H PARENT 9 19 11 21 13 23 4 25 22 27 19 29
REMARK Flexibility Score: inf
ROOT
ATOM      1  C   UNL     1     -31.553  15.981  56.955  1.00  0.00     0.180 A 
ATOM      2  C   UNL     1     -32.268  16.145  58.154  1.00  0.00     0.208 A 
ATOM      3  C   UNL     1     -33.296  15.241  58.464  1.00  0.00     0.238 A 
ATOM      4  O   UNL     1     -33.894  15.360  59.565  1.00  0.00    -0.285 OA
ATOM      5  C   UNL     1     -33.609  14.194  57.563  1.00  0.00     0.111 A 
ATOM      6  C   UNL     1     -34.657  13.245  57.756  1.00  0.00     0.134 A 
ATOM      7  C   UNL     1     -34.791  12.174  56.864  1.00  0.00     0.093 A 
ATOM      8  C   UNL     1     -33.957  12.055  55.750  1.00  0.00     0.123 A 
ATOM      9  C   UNL     1     -32.969  13.010  55.520  1.00  0.00     0.094 A 
ATOM     10  C   UNL     1     -32.787  14.069  56.413  1.00  0.00     0.146 A 
ATOM     11  O   UNL     1     -31.827  14.951  56.162  1.00  0.00    -0.452 OA
ENDROOT
BRANCH   1  12
ATOM     12  C   UNL     1     -30.473  16.909  56.548  1.00  0.00     0.029 A 
ATOM     13  C   UNL     1     -30.701  17.930  55.613  1.00  0.00     0.062 A 
ATOM     14  C   UNL     1     -29.665  18.782  55.222  1.00  0.00     0.162 A 
ATOM     15  C   UNL     1     -29.181  16.730  57.061  1.00  0.00     0.062 A 
ATOM     16  C   UNL     1     -28.373  18.618  55.755  1.00  0.00     0.200 A 
ATOM     17  C   UNL     1     -28.132  17.575  56.682  1.00  0.00     0.162 A 
BRANCH  14  18
ATOM     18  O   UNL     1     -29.938  19.787  54.293  1.00  0.00    -0.504 OA
ATOM     19  H   UNL     1     -29.214  20.216  53.731  1.00  0.00     0.293 HD
ENDBRANCH  14  18
BRANCH  16  20
ATOM     20  O   UNL     1     -27.367  19.498  55.345  1.00  0.00    -0.502 OA
ATOM     21  H   UNL     1     -26.779  20.021  55.976  1.00  0.00     0.293 HD
ENDBRANCH  16  20
BRANCH  17  22
ATOM     22  O   UNL     1     -26.875  17.342  57.246  1.00  0.00    -0.504 OA
ATOM     23  H   UNL     1     -26.091  16.951  56.743  1.00  0.00     0.293 HD
ENDBRANCH  17  22
ENDBRANCH   1  12
BRANCH   2  24
ATOM     24  O   UNL     1     -31.928  17.172  59.039  1.00  0.00    -0.502 OA
ATOM     25  H   UNL     1     -31.021  17.622  59.029  1.00  0.00     0.293 HD
ENDBRANCH   2  24
BRANCH   6  26
ATOM     26  O   UNL     1     -35.602  13.323  58.784  1.00  0.00    -0.507 OA
ATOM     27  H   UNL     1     -36.567  13.587  58.657  1.00  0.00     0.293 HD
ENDBRANCH   6  26
BRANCH   8  28
ATOM     28  O   UNL     1     -34.107  10.995  54.859  1.00  0.00    -0.508 OA
ATOM     29  H   UNL     1     -34.673  10.186  55.089  1.00  0.00     0.293 HD
ENDBRANCH   8  28
TORSDOF 7
ENDMDL
MODEL 9
REMARK VINA RESULT:    -7.759      1.591      7.105
REMARK INTER + INTRA:          -9.891
REMARK INTER:                  -9.616
REMARK INTRA:                  -0.275
REMARK UNBOUND:                -0.318
REMARK SMILES O=c1c(O)c(-c2cc(O)c(O)c(O)c2)oc2cc(O)cc(O)c12
REMARK SMILES IDX 5 1 3 2 2 3 1 4 23 5 21 6 20 7 18 8 17 9 16 10 15 11 6 12
REMARK SMILES IDX 7 13 8 14 14 15 10 16 12 17 9 18 11 20 13 22 4 24 22 26
REMARK SMILES IDX 19 28
REMARK H PARENT 9 19 11 21 13 23 4 25 22 27 19 29
REMARK Flexibility Score: inf
ROOT
ATOM      1  C   UNL     1     -31.515  16.609  57.534  1.00  0.00     0.180 A 
ATOM      2  C   UNL     1     -31.751  16.100  56.244  1.00  0.00     0.208 A 
ATOM      3  C   UNL     1     -32.744  15.123  56.069  1.00  0.00     0.238 A 
ATOM      4  O   UNL     1     -32.989  14.712  54.905  1.00  0.00    -0.285 OA
ATOM      5  C   UNL     1     -33.478  14.655  57.187  1.00  0.00     0.111 A 
ATOM      6  C   UNL     1     -34.478  13.639  57.131  1.00  0.00     0.134 A 
ATOM      7  C   UNL     1     -35.230  13.348  58.276  1.00  0.00     0.093 A 
ATOM      8  C   UNL     1     -34.973  13.990  59.490  1.00  0.00     0.123 A 
ATOM      9  C   UNL     1     -33.957  14.940  59.568  1.00  0.00     0.094 A 
ATOM     10  C   UNL     1     -33.215  15.279  58.434  1.00  0.00     0.146 A 
ATOM     11  O   UNL     1     -32.263  16.197  58.550  1.00  0.00    -0.452 OA
ENDROOT
BRANCH   1  12
ATOM     12  C   UNL     1     -30.468  17.622  57.801  1.00  0.00     0.029 A 
ATOM     13  C   UNL     1     -29.105  17.301  57.721  1.00  0.00     0.062 A 
ATOM     14  C   UNL     1     -28.129  18.262  57.999  1.00  0.00     0.162 A 
ATOM     15  C   UNL     1     -30.843  18.912  58.199  1.00  0.00     0.062 A 
ATOM     16  C   UNL     1     -28.505  19.565  58.376  1.00  0.00     0.200 A 
ATOM     17  C   UNL     1     -29.880  19.888  58.480  1.00  0.00     0.162 A 
BRANCH  14  18
ATOM     18  O   UNL     1     -26.785  17.900  57.902  1.00  0.00    -0.504 OA
ATOM     19  H   UNL     1     -26.295  17.433  58.654  1.00  0.00     0.293 HD
ENDBRANCH  14  18
BRANCH  16  20
ATOM     20  O   UNL     1     -27.498  20.498  58.637  1.00  0.00    -0.502 OA
ATOM     21  H   UNL     1     -27.246  20.818  59.560  1.00  0.00     0.293 HD
ENDBRANCH  16  20
BRANCH  17  22
ATOM     22  O   UNL     1     -30.331  21.154  58.859  1.00  0.00    -0.504 OA
ATOM     23  H   UNL     1     -30.561  21.415  59.808  1.00  0.00     0.293 HD
ENDBRANCH  17  22
ENDBRANCH   1  12
BRANCH   2  24
ATOM     24  O   UNL     1     -31.031  16.592  55.152  1.00  0.00    -0.502 OA
ATOM     25  H   UNL     1     -30.195  16.139  54.803  1.00  0.00     0.293 HD
ENDBRANCH   2  24
BRANCH   6  26
ATOM     26  O   UNL     1     -34.752  12.874  55.994  1.00  0.00    -0.507 OA
ATOM     27  H   UNL     1     -34.053  12.415  55.428  1.00  0.00     0.293 HD
ENDBRANCH   6  26
BRANCH   8  28
ATOM     28  O   UNL     1     -35.715  13.683  60.628  1.00  0.00    -0.508 OA
ATOM     29  H   UNL     1     -36.644  13.282  60.562  1.00  0.00     0.293 HD
ENDBRANCH   8  28
TORSDOF 7
ENDMDL
