MODEL 1
REMARK VINA RESULT:    -4.093      0.000      0.000
REMARK INTER + INTRA:          -6.264
REMARK INTER:                  -5.050
REMARK INTRA:                  -1.214
REMARK UNBOUND:                -1.214
REMARK SMILES C=C(CCC=C(C)C)[C@H]1CC=C(C)CC1
REMARK SMILES IDX 3 1 2 2 1 3 9 4 13 5 12 6 11 7 14 8 10 9 15 10 4 11 5 12
REMARK SMILES IDX 6 13 7 14 8 15
REMARK H PARENT
REMARK Flexibility Score: inf
ROOT
ATOM      1  C   UNL     1      10.940   5.747  18.063  1.00  0.00     0.035 C 
ENDROOT
BRANCH   1   2
ATOM      2  C   UNL     1      11.585   6.115  16.741  1.00  0.00    -0.074 C 
ATOM      3  C   UNL     1      10.910   6.896  15.876  1.00  0.00     0.008 C 
BRANCH   2   4
ATOM      4  C   UNL     1      12.968   5.577  16.400  1.00  0.00     0.018 C 
ATOM      5  C   UNL     1      17.202   4.476  16.355  1.00  0.00     0.039 C 
ATOM      6  C   UNL     1      15.769   4.901  16.515  1.00  0.00    -0.077 C 
ATOM      7  C   UNL     1      15.419   6.163  16.186  1.00  0.00    -0.027 C 
ATOM      8  C   UNL     1      14.738   3.863  16.916  1.00  0.00     0.031 C 
ATOM      9  C   UNL     1      14.019   6.700  16.359  1.00  0.00     0.035 C 
ATOM     10  C   UNL     1      13.416   4.483  17.383  1.00  0.00     0.013 C 
ENDBRANCH   2   4
ENDBRANCH   1   2
BRANCH   1  11
ATOM     11  C   UNL     1      11.259   6.772  19.162  1.00  0.00     0.032 C 
BRANCH  11  12
ATOM     12  C   UNL     1      11.968   6.143  20.338  1.00  0.00    -0.028 C 
ATOM     13  C   UNL     1      13.255   6.407  20.648  1.00  0.00    -0.080 C 
ATOM     14  C   UNL     1      13.895   5.744  21.840  1.00  0.00     0.039 C 
ATOM     15  C   UNL     1      14.084   7.370  19.835  1.00  0.00     0.039 C 
ENDBRANCH  11  12
ENDBRANCH   1  11
TORSDOF 4
ENDMDL
MODEL 2
REMARK VINA RESULT:    -4.065      1.768      3.048
REMARK INTER + INTRA:          -6.229
REMARK INTER:                  -4.970
REMARK INTRA:                  -1.259
REMARK UNBOUND:                -1.214
REMARK SMILES C=C(CCC=C(C)C)[C@H]1CC=C(C)CC1
REMARK SMILES IDX 3 1 2 2 1 3 9 4 13 5 12 6 11 7 14 8 10 9 15 10 4 11 5 12
REMARK SMILES IDX 6 13 7 14 8 15
REMARK H PARENT
REMARK Flexibility Score: inf
ROOT
ATOM      1  C   UNL     1      11.268   6.569  18.987  1.00  0.00     0.035 C 
ENDROOT
BRANCH   1   2
ATOM      2  C   UNL     1      11.546   5.570  17.880  1.00  0.00    -0.074 C 
ATOM      3  C   UNL     1      10.879   5.679  16.716  1.00  0.00     0.008 C 
BRANCH   2   4
ATOM      4  C   UNL     1      12.550   4.449  18.109  1.00  0.00     0.018 C 
ATOM      5  C   UNL     1      16.124   2.036  18.848  1.00  0.00     0.039 C 
ATOM      6  C   UNL     1      14.981   2.988  18.627  1.00  0.00    -0.077 C 
ATOM      7  C   UNL     1      14.775   3.487  17.390  1.00  0.00    -0.027 C 
ATOM      8  C   UNL     1      14.019   3.254  19.768  1.00  0.00     0.031 C 
ATOM      9  C   UNL     1      13.689   4.488  17.077  1.00  0.00     0.035 C 
ATOM     10  C   UNL     1      13.135   4.485  19.530  1.00  0.00     0.013 C 
ENDBRANCH   2   4
ENDBRANCH   1   2
BRANCH   1  11
ATOM     11  C   UNL     1      11.758   7.979  18.624  1.00  0.00     0.032 C 
BRANCH  11  12
ATOM     12  C   UNL     1      13.237   8.006  18.318  1.00  0.00    -0.028 C 
ATOM     13  C   UNL     1      13.733   8.343  17.109  1.00  0.00    -0.080 C 
ATOM     14  C   UNL     1      15.222   8.351  16.879  1.00  0.00     0.039 C 
ATOM     15  C   UNL     1      12.831   8.731  15.964  1.00  0.00     0.039 C 
ENDBRANCH  11  12
ENDBRANCH   1  11
TORSDOF 4
ENDMDL
MODEL 3
REMARK VINA RESULT:    -4.044      2.026      4.378
REMARK INTER + INTRA:          -6.203
REMARK INTER:                  -5.017
REMARK INTRA:                  -1.186
REMARK UNBOUND:                -1.214
REMARK SMILES C=C(CCC=C(C)C)[C@H]1CC=C(C)CC1
REMARK SMILES IDX 3 1 2 2 1 3 9 4 13 5 12 6 11 7 14 8 10 9 15 10 4 11 5 12
REMARK SMILES IDX 6 13 7 14 8 15
REMARK H PARENT
REMARK Flexibility Score: inf
ROOT
ATOM      1  C   UNL     1      15.311   6.352  16.707  1.00  0.00     0.035 C 
ENDROOT
BRANCH   1   2
ATOM      2  C   UNL     1      14.821   4.935  16.935  1.00  0.00    -0.074 C 
ATOM      3  C   UNL     1      14.459   4.189  15.875  1.00  0.00     0.008 C 
BRANCH   2   4
ATOM      4  C   UNL     1      14.720   4.390  18.353  1.00  0.00     0.018 C 
ATOM      5  C   UNL     1      13.938   2.013  21.942  1.00  0.00     0.039 C 
ATOM      6  C   UNL     1      14.159   2.709  20.627  1.00  0.00    -0.077 C 
ATOM      7  C   UNL     1      13.154   3.438  20.095  1.00  0.00    -0.027 C 
ATOM      8  C   UNL     1      15.542   2.680  20.006  1.00  0.00     0.031 C 
ATOM      9  C   UNL     1      13.259   4.130  18.758  1.00  0.00     0.035 C 
ATOM     10  C   UNL     1      15.546   3.106  18.534  1.00  0.00     0.013 C 
ENDBRANCH   2   4
ENDBRANCH   1   2
BRANCH   1  11
ATOM     11  C   UNL     1      14.192   7.270  16.192  1.00  0.00     0.032 C 
BRANCH  11  12
ATOM     12  C   UNL     1      13.152   7.550  17.253  1.00  0.00    -0.028 C 
ATOM     13  C   UNL     1      11.865   7.158  17.143  1.00  0.00    -0.080 C 
ATOM     14  C   UNL     1      10.885   7.470  18.244  1.00  0.00     0.039 C 
ATOM     15  C   UNL     1      11.370   6.396  15.940  1.00  0.00     0.039 C 
ENDBRANCH  11  12
ENDBRANCH   1  11
TORSDOF 4
ENDMDL
MODEL 4
REMARK VINA RESULT:    -3.975      1.548      4.623
REMARK INTER + INTRA:          -6.118
REMARK INTER:                  -5.003
REMARK INTRA:                  -1.115
REMARK UNBOUND:                -1.214
REMARK SMILES C=C(CCC=C(C)C)[C@H]1CC=C(C)CC1
REMARK SMILES IDX 3 1 2 2 1 3 9 4 13 5 12 6 11 7 14 8 10 9 15 10 4 11 5 12
REMARK SMILES IDX 6 13 7 14 8 15
REMARK H PARENT
REMARK Flexibility Score: inf
ROOT
ATOM      1  C   UNL     1      11.900   6.042  16.162  1.00  0.00     0.035 C 
ENDROOT
BRANCH   1   2
ATOM      2  C   UNL     1      11.528   7.300  16.923  1.00  0.00    -0.074 C 
ATOM      3  C   UNL     1      10.933   8.312  16.264  1.00  0.00     0.008 C 
BRANCH   2   4
ATOM      4  C   UNL     1      11.854   7.410  18.406  1.00  0.00     0.018 C 
ATOM      5  C   UNL     1      11.735   7.636  22.773  1.00  0.00     0.039 C 
ATOM      6  C   UNL     1      11.627   7.522  21.278  1.00  0.00    -0.077 C 
ATOM      7  C   UNL     1      11.306   8.618  20.558  1.00  0.00    -0.027 C 
ATOM      8  C   UNL     1      12.011   6.213  20.614  1.00  0.00     0.031 C 
ATOM      9  C   UNL     1      11.123   8.594  19.060  1.00  0.00     0.035 C 
ATOM     10  C   UNL     1      11.525   6.114  19.163  1.00  0.00     0.013 C 
ENDBRANCH   2   4
ENDBRANCH   1   2
BRANCH   1  11
ATOM     11  C   UNL     1      13.422   5.858  16.067  1.00  0.00     0.032 C 
BRANCH  11  12
ATOM     12  C   UNL     1      13.867   4.515  16.600  1.00  0.00    -0.028 C 
ATOM     13  C   UNL     1      14.648   4.380  17.693  1.00  0.00    -0.080 C 
ATOM     14  C   UNL     1      15.049   3.007  18.168  1.00  0.00     0.039 C 
ATOM     15  C   UNL     1      15.130   5.576  18.475  1.00  0.00     0.039 C 
ENDBRANCH  11  12
ENDBRANCH   1  11
TORSDOF 4
ENDMDL
MODEL 5
REMARK VINA RESULT:    -3.925      1.458      4.608
REMARK INTER + INTRA:          -6.056
REMARK INTER:                  -4.974
REMARK INTRA:                  -1.082
REMARK UNBOUND:                -1.214
REMARK SMILES C=C(CCC=C(C)C)[C@H]1CC=C(C)CC1
REMARK SMILES IDX 3 1 2 2 1 3 9 4 13 5 12 6 11 7 14 8 10 9 15 10 4 11 5 12
REMARK SMILES IDX 6 13 7 14 8 15
REMARK H PARENT
REMARK Flexibility Score: inf
ROOT
ATOM      1  C   UNL     1      12.739   7.492  17.520  1.00  0.00     0.035 C 
ENDROOT
BRANCH   1   2
ATOM      2  C   UNL     1      11.802   6.330  17.786  1.00  0.00    -0.074 C 
ATOM      3  C   UNL     1      10.879   6.008  16.861  1.00  0.00     0.008 C 
BRANCH   2   4
ATOM      4  C   UNL     1      11.900   5.565  19.099  1.00  0.00     0.018 C 
ATOM      5  C   UNL     1      13.209   3.637  22.801  1.00  0.00     0.039 C 
ATOM      6  C   UNL     1      12.899   4.363  21.521  1.00  0.00    -0.077 C 
ATOM      7  C   UNL     1      13.138   3.746  20.344  1.00  0.00    -0.027 C 
ATOM      8  C   UNL     1      12.206   5.710  21.593  1.00  0.00     0.031 C 
ATOM      9  C   UNL     1      12.909   4.408  19.008  1.00  0.00     0.035 C 
ATOM     10  C   UNL     1      12.271   6.486  20.273  1.00  0.00     0.013 C 
ENDBRANCH   2   4
ENDBRANCH   1   2
BRANCH   1  11
ATOM     11  C   UNL     1      13.559   7.286  16.238  1.00  0.00     0.032 C 
BRANCH  11  12
ATOM     12  C   UNL     1      14.984   6.878  16.532  1.00  0.00    -0.028 C 
ATOM     13  C   UNL     1      15.436   5.616  16.373  1.00  0.00    -0.080 C 
ATOM     14  C   UNL     1      16.873   5.285  16.683  1.00  0.00     0.039 C 
ATOM     15  C   UNL     1      14.539   4.511  15.876  1.00  0.00     0.039 C 
ENDBRANCH  11  12
ENDBRANCH   1  11
TORSDOF 4
ENDMDL
MODEL 6
REMARK VINA RESULT:    -3.909      1.546      5.153
REMARK INTER + INTRA:          -6.037
REMARK INTER:                  -4.884
REMARK INTRA:                  -1.152
REMARK UNBOUND:                -1.214
REMARK SMILES C=C(CCC=C(C)C)[C@H]1CC=C(C)CC1
REMARK SMILES IDX 3 1 2 2 1 3 9 4 13 5 12 6 11 7 14 8 10 9 15 10 4 11 5 12
REMARK SMILES IDX 6 13 7 14 8 15
REMARK H PARENT
REMARK Flexibility Score: inf
ROOT
ATOM      1  C   UNL     1      14.685   6.010  17.370  1.00  0.00     0.035 C 
ENDROOT
BRANCH   1   2
ATOM      2  C   UNL     1      14.071   4.711  17.854  1.00  0.00    -0.074 C 
ATOM      3  C   UNL     1      14.258   3.589  17.133  1.00  0.00     0.008 C 
BRANCH   2   4
ATOM      4  C   UNL     1      13.233   4.699  19.125  1.00  0.00     0.018 C 
ATOM      5  C   UNL     1      11.738   4.992  23.226  1.00  0.00     0.039 C 
ATOM      6  C   UNL     1      12.380   4.960  21.867  1.00  0.00    -0.077 C 
ATOM      7  C   UNL     1      13.118   3.885  21.516  1.00  0.00    -0.027 C 
ATOM      8  C   UNL     1      12.071   6.073  20.885  1.00  0.00     0.031 C 
ATOM      9  C   UNL     1      13.844   3.780  20.197  1.00  0.00     0.035 C 
ATOM     10  C   UNL     1      13.043   6.112  19.700  1.00  0.00     0.013 C 
ENDBRANCH   2   4
ENDBRANCH   1   2
BRANCH   1  11
ATOM     11  C   UNL     1      14.033   6.504  16.069  1.00  0.00     0.032 C 
BRANCH  11  12
ATOM     12  C   UNL     1      13.090   7.661  16.309  1.00  0.00    -0.028 C 
ATOM     13  C   UNL     1      11.752   7.514  16.396  1.00  0.00    -0.080 C 
ATOM     14  C   UNL     1      10.875   8.715  16.639  1.00  0.00     0.039 C 
ATOM     15  C   UNL     1      11.094   6.163  16.267  1.00  0.00     0.039 C 
ENDBRANCH  11  12
ENDBRANCH   1  11
TORSDOF 4
ENDMDL
MODEL 7
REMARK VINA RESULT:    -3.872      2.550      5.660
REMARK INTER + INTRA:          -5.991
REMARK INTER:                  -5.110
REMARK INTRA:                  -0.881
REMARK UNBOUND:                -1.214
REMARK SMILES C=C(CCC=C(C)C)[C@H]1CC=C(C)CC1
REMARK SMILES IDX 3 1 2 2 1 3 9 4 13 5 12 6 11 7 14 8 10 9 15 10 4 11 5 12
REMARK SMILES IDX 6 13 7 14 8 15
REMARK H PARENT
REMARK Flexibility Score: inf
ROOT
ATOM      1  C   UNL     1      13.063   4.121  18.081  1.00  0.00     0.035 C 
ENDROOT
BRANCH   1   2
ATOM      2  C   UNL     1      13.738   4.294  19.428  1.00  0.00    -0.074 C 
ATOM      3  C   UNL     1      14.877   5.009  19.502  1.00  0.00     0.008 C 
BRANCH   2   4
ATOM      4  C   UNL     1      13.139   3.639  20.664  1.00  0.00     0.018 C 
ATOM      5  C   UNL     1      12.371   1.971  24.635  1.00  0.00     0.039 C 
ATOM      6  C   UNL     1      12.766   2.600  23.327  1.00  0.00    -0.077 C 
ATOM      7  C   UNL     1      13.487   1.877  22.444  1.00  0.00    -0.027 C 
ATOM      8  C   UNL     1      12.231   3.978  22.987  1.00  0.00     0.031 C 
ATOM      9  C   UNL     1      13.975   2.435  21.129  1.00  0.00     0.035 C 
ATOM     10  C   UNL     1      12.978   4.637  21.821  1.00  0.00     0.013 C 
ENDBRANCH   2   4
ENDBRANCH   1   2
BRANCH   1  11
ATOM     11  C   UNL     1      11.575   4.503  18.132  1.00  0.00     0.032 C 
BRANCH  11  12
ATOM     12  C   UNL     1      11.249   5.646  17.200  1.00  0.00    -0.028 C 
ATOM     13  C   UNL     1      11.205   6.934  17.602  1.00  0.00    -0.080 C 
ATOM     14  C   UNL     1      10.875   8.022  16.613  1.00  0.00     0.039 C 
ATOM     15  C   UNL     1      11.490   7.328  19.029  1.00  0.00     0.039 C 
ENDBRANCH  11  12
ENDBRANCH   1  11
TORSDOF 4
ENDMDL
MODEL 8
REMARK VINA RESULT:    -1.245      1.455      3.894
REMARK INTER + INTRA:          -2.749
REMARK INTER:                  -1.545
REMARK INTRA:                  -1.204
REMARK UNBOUND:                -1.214
REMARK SMILES C=C(CCC=C(C)C)[C@H]1CC=C(C)CC1
REMARK SMILES IDX 3 1 2 2 1 3 9 4 13 5 12 6 11 7 14 8 10 9 15 10 4 11 5 12
REMARK SMILES IDX 6 13 7 14 8 15
REMARK H PARENT
REMARK Flexibility Score: inf
ROOT
ATOM      1  C   UNL     1      14.081   3.112  19.893  1.00  0.00     0.035 C 
ENDROOT
BRANCH   1   2
ATOM      2  C   UNL     1      14.515   3.452  18.480  1.00  0.00    -0.074 C 
ATOM      3  C   UNL     1      15.716   3.027  18.044  1.00  0.00     0.008 C 
BRANCH   2   4
ATOM      4  C   UNL     1      13.604   4.287  17.591  1.00  0.00     0.018 C 
ATOM      5  C   UNL     1      10.875   7.269  15.920  1.00  0.00     0.039 C 
ATOM      6  C   UNL     1      11.822   6.334  16.619  1.00  0.00    -0.077 C 
ATOM      7  C   UNL     1      11.318   5.348  17.391  1.00  0.00    -0.027 C 
ATOM      8  C   UNL     1      13.307   6.444  16.330  1.00  0.00     0.031 C 
ATOM      9  C   UNL     1      12.185   4.391  18.173  1.00  0.00     0.035 C 
ATOM     10  C   UNL     1      14.172   5.695  17.350  1.00  0.00     0.013 C 
ENDBRANCH   2   4
ENDBRANCH   1   2
BRANCH   1  11
ATOM     11  C   UNL     1      14.452   4.220  20.890  1.00  0.00     0.032 C 
BRANCH  11  12
ATOM     12  C   UNL     1      13.265   4.664  21.714  1.00  0.00    -0.028 C 
ATOM     13  C   UNL     1      12.750   5.910  21.650  1.00  0.00    -0.080 C 
ATOM     14  C   UNL     1      11.562   6.280  22.500  1.00  0.00     0.039 C 
ATOM     15  C   UNL     1      13.326   6.959  20.731  1.00  0.00     0.039 C 
ENDBRANCH  11  12
ENDBRANCH   1  11
TORSDOF 4
ENDMDL
