MODEL 1
REMARK VINA RESULT:    -3.310      0.000      0.000
REMARK INTER + INTRA:          -4.256
REMARK INTER:                  -4.181
REMARK INTRA:                  -0.075
REMARK UNBOUND:                -0.075
REMARK SMILES CCCCCCO
REMARK SMILES IDX 4 1 3 2 2 3 1 4 5 5 6 6 7 7
REMARK H PARENT 7 8
REMARK Flexibility Score: inf
ROOT
ATOM      1  C   UNL     1      35.392  -6.730  24.402  1.00  0.00     0.002 C 
ENDROOT
BRANCH   1   2
ATOM      2  C   UNL     1      36.203  -7.747  25.232  1.00  0.00    -0.000 C 
BRANCH   2   3
ATOM      3  C   UNL     1      35.507  -9.110  25.389  1.00  0.00    -0.003 C 
ATOM      4  C   UNL     1      34.065  -9.108  24.886  1.00  0.00     0.004 C 
ENDBRANCH   2   3
ENDBRANCH   1   2
BRANCH   1   5
ATOM      5  C   UNL     1      36.244  -5.535  23.952  1.00  0.00     0.028 C 
BRANCH   5   6
ATOM      6  C   UNL     1      35.363  -4.360  23.520  1.00  0.00     0.156 C 
BRANCH   6   7
ATOM      7  O   UNL     1      34.016  -4.747  23.499  1.00  0.00    -0.396 OA
ATOM      8  H   UNL     1      33.501  -4.005  23.911  1.00  0.00     0.210 HD
ENDBRANCH   6   7
ENDBRANCH   5   6
ENDBRANCH   1   5
TORSDOF 5
ENDMDL
MODEL 2
REMARK VINA RESULT:    -2.966     14.584     15.396
REMARK INTER + INTRA:          -3.821
REMARK INTER:                  -3.749
REMARK INTRA:                  -0.072
REMARK UNBOUND:                -0.075
REMARK SMILES CCCCCCO
REMARK SMILES IDX 4 1 3 2 2 3 1 4 5 5 6 6 7 7
REMARK H PARENT 7 8
REMARK Flexibility Score: inf
ROOT
ATOM      1  C   UNL     1      35.740 -12.219  37.414  1.00  0.00     0.002 C 
ENDROOT
BRANCH   1   2
ATOM      2  C   UNL     1      34.305 -12.336  37.969  1.00  0.00    -0.000 C 
BRANCH   2   3
ATOM      3  C   UNL     1      33.245 -11.659  37.085  1.00  0.00    -0.003 C 
ATOM      4  C   UNL     1      32.061 -12.568  36.766  1.00  0.00     0.004 C 
ENDBRANCH   2   3
ENDBRANCH   1   2
BRANCH   1   5
ATOM      5  C   UNL     1      36.801 -12.306  38.521  1.00  0.00     0.028 C 
BRANCH   5   6
ATOM      6  C   UNL     1      36.238 -12.988  39.771  1.00  0.00     0.156 C 
BRANCH   6   7
ATOM      7  O   UNL     1      36.873 -14.221  39.978  1.00  0.00    -0.396 OA
ATOM      8  H   UNL     1      37.190 -14.223  40.919  1.00  0.00     0.210 HD
ENDBRANCH   6   7
ENDBRANCH   5   6
ENDBRANCH   1   5
TORSDOF 5
ENDMDL
MODEL 3
REMARK VINA RESULT:    -2.846      2.341      4.064
REMARK INTER + INTRA:          -3.669
REMARK INTER:                  -3.588
REMARK INTRA:                  -0.081
REMARK UNBOUND:                -0.075
REMARK SMILES CCCCCCO
REMARK SMILES IDX 4 1 3 2 2 3 1 4 5 5 6 6 7 7
REMARK H PARENT 7 8
REMARK Flexibility Score: inf
ROOT
ATOM      1  C   UNL     1      35.626  -7.217  24.748  1.00  0.00     0.002 C 
ENDROOT
BRANCH   1   2
ATOM      2  C   UNL     1      36.663  -6.143  24.358  1.00  0.00    -0.000 C 
BRANCH   2   3
ATOM      3  C   UNL     1      36.033  -4.815  23.906  1.00  0.00    -0.003 C 
ATOM      4  C   UNL     1      34.936  -4.997  22.860  1.00  0.00     0.004 C 
ENDBRANCH   2   3
ENDBRANCH   1   2
BRANCH   1   5
ATOM      5  C   UNL     1      36.263  -8.391  25.506  1.00  0.00     0.028 C 
BRANCH   5   6
ATOM      6  C   UNL     1      35.625  -8.568  26.887  1.00  0.00     0.156 C 
BRANCH   6   7
ATOM      7  O   UNL     1      35.977  -7.499  27.723  1.00  0.00    -0.396 OA
ATOM      8  H   UNL     1      36.946  -7.596  27.915  1.00  0.00     0.210 HD
ENDBRANCH   6   7
ENDBRANCH   5   6
ENDBRANCH   1   5
TORSDOF 5
ENDMDL
MODEL 4
REMARK VINA RESULT:    -2.779     13.300     14.120
REMARK INTER + INTRA:          -3.584
REMARK INTER:                  -3.392
REMARK INTRA:                  -0.192
REMARK UNBOUND:                -0.075
REMARK SMILES CCCCCCO
REMARK SMILES IDX 4 1 3 2 2 3 1 4 5 5 6 6 7 7
REMARK H PARENT 7 8
REMARK Flexibility Score: inf
ROOT
ATOM      1  C   UNL     1      34.965 -12.490  38.284  1.00  0.00     0.002 C 
ENDROOT
BRANCH   1   2
ATOM      2  C   UNL     1      34.012 -11.544  37.524  1.00  0.00    -0.000 C 
BRANCH   2   3
ATOM      3  C   UNL     1      32.727 -12.229  37.030  1.00  0.00    -0.003 C 
ATOM      4  C   UNL     1      32.863 -12.816  35.628  1.00  0.00     0.004 C 
ENDBRANCH   2   3
ENDBRANCH   1   2
BRANCH   1   5
ATOM      5  C   UNL     1      36.439 -12.225  37.947  1.00  0.00     0.028 C 
BRANCH   5   6
ATOM      6  C   UNL     1      36.690 -12.339  36.441  1.00  0.00     0.156 C 
BRANCH   6   7
ATOM      7  O   UNL     1      36.512 -13.665  36.020  1.00  0.00    -0.396 OA
ATOM      8  H   UNL     1      36.302 -13.629  35.050  1.00  0.00     0.210 HD
ENDBRANCH   6   7
ENDBRANCH   5   6
ENDBRANCH   1   5
TORSDOF 5
ENDMDL
MODEL 5
REMARK VINA RESULT:    -2.685     13.862     14.591
REMARK INTER + INTRA:          -3.466
REMARK INTER:                  -3.368
REMARK INTRA:                  -0.099
REMARK UNBOUND:                -0.075
REMARK SMILES CCCCCCO
REMARK SMILES IDX 4 1 3 2 2 3 1 4 5 5 6 6 7 7
REMARK H PARENT 7 8
REMARK Flexibility Score: inf
ROOT
ATOM      1  C   UNL     1      35.018 -11.465  36.802  1.00  0.00     0.002 C 
ENDROOT
BRANCH   1   2
ATOM      2  C   UNL     1      33.707 -11.556  37.612  1.00  0.00    -0.000 C 
BRANCH   2   3
ATOM      3  C   UNL     1      32.646 -12.463  36.967  1.00  0.00    -0.003 C 
ATOM      4  C   UNL     1      31.773 -11.733  35.948  1.00  0.00     0.004 C 
ENDBRANCH   2   3
ENDBRANCH   1   2
BRANCH   1   5
ATOM      5  C   UNL     1      36.011 -12.574  37.175  1.00  0.00     0.028 C 
BRANCH   5   6
ATOM      6  C   UNL     1      36.535 -12.388  38.602  1.00  0.00     0.156 C 
BRANCH   6   7
ATOM      7  O   UNL     1      36.316 -13.551  39.354  1.00  0.00    -0.396 OA
ATOM      8  H   UNL     1      36.460 -14.317  38.740  1.00  0.00     0.210 HD
ENDBRANCH   6   7
ENDBRANCH   5   6
ENDBRANCH   1   5
TORSDOF 5
ENDMDL
MODEL 6
REMARK VINA RESULT:    -2.639      8.778      9.132
REMARK INTER + INTRA:          -3.408
REMARK INTER:                  -3.274
REMARK INTRA:                  -0.134
REMARK UNBOUND:                -0.075
REMARK SMILES CCCCCCO
REMARK SMILES IDX 4 1 3 2 2 3 1 4 5 5 6 6 7 7
REMARK H PARENT 7 8
REMARK Flexibility Score: inf
ROOT
ATOM      1  C   UNL     1      34.901  -6.844  33.431  1.00  0.00     0.002 C 
ENDROOT
BRANCH   1   2
ATOM      2  C   UNL     1      33.737  -7.223  32.492  1.00  0.00    -0.000 C 
BRANCH   2   3
ATOM      3  C   UNL     1      32.613  -6.174  32.449  1.00  0.00    -0.003 C 
ATOM      4  C   UNL     1      31.247  -6.772  32.124  1.00  0.00     0.004 C 
ENDBRANCH   2   3
ENDBRANCH   1   2
BRANCH   1   5
ATOM      5  C   UNL     1      35.805  -5.758  32.828  1.00  0.00     0.028 C 
BRANCH   5   6
ATOM      6  C   UNL     1      35.963  -4.577  33.789  1.00  0.00     0.156 C 
BRANCH   6   7
ATOM      7  O   UNL     1      34.869  -4.513  34.664  1.00  0.00    -0.396 OA
ATOM      8  H   UNL     1      34.505  -3.593  34.596  1.00  0.00     0.210 HD
ENDBRANCH   6   7
ENDBRANCH   5   6
ENDBRANCH   1   5
TORSDOF 5
ENDMDL
MODEL 7
REMARK VINA RESULT:    -2.573     19.092     20.735
REMARK INTER + INTRA:          -3.324
REMARK INTER:                  -3.182
REMARK INTRA:                  -0.142
REMARK UNBOUND:                -0.075
REMARK SMILES CCCCCCO
REMARK SMILES IDX 4 1 3 2 2 3 1 4 5 5 6 6 7 7
REMARK H PARENT 7 8
REMARK Flexibility Score: inf
ROOT
ATOM      1  C   UNL     1      26.863 -20.830  36.608  1.00  0.00     0.002 C 
ENDROOT
BRANCH   1   2
ATOM      2  C   UNL     1      27.953 -20.834  35.515  1.00  0.00    -0.000 C 
BRANCH   2   3
ATOM      3  C   UNL     1      28.956 -19.675  35.641  1.00  0.00    -0.003 C 
ATOM      4  C   UNL     1      28.570 -18.663  36.717  1.00  0.00     0.004 C 
ENDBRANCH   2   3
ENDBRANCH   1   2
BRANCH   1   5
ATOM      5  C   UNL     1      26.631 -22.227  37.203  1.00  0.00     0.028 C 
BRANCH   5   6
ATOM      6  C   UNL     1      27.674 -23.225  36.692  1.00  0.00     0.156 C 
BRANCH   6   7
ATOM      7  O   UNL     1      28.538 -23.597  37.731  1.00  0.00    -0.396 OA
ATOM      8  H   UNL     1      29.460 -23.423  37.409  1.00  0.00     0.210 HD
ENDBRANCH   6   7
ENDBRANCH   5   6
ENDBRANCH   1   5
TORSDOF 5
ENDMDL
MODEL 8
REMARK VINA RESULT:    -2.521     15.932     16.691
REMARK INTER + INTRA:          -3.258
REMARK INTER:                  -3.046
REMARK INTRA:                  -0.213
REMARK UNBOUND:                -0.075
REMARK SMILES CCCCCCO
REMARK SMILES IDX 4 1 3 2 2 3 1 4 5 5 6 6 7 7
REMARK H PARENT 7 8
REMARK Flexibility Score: inf
ROOT
ATOM      1  C   UNL     1      30.724 -21.368  22.147  1.00  0.00     0.002 C 
ENDROOT
BRANCH   1   2
ATOM      2  C   UNL     1      29.605 -20.609  21.402  1.00  0.00    -0.000 C 
BRANCH   2   3
ATOM      3  C   UNL     1      28.304 -20.480  22.211  1.00  0.00    -0.003 C 
ATOM      4  C   UNL     1      28.470 -20.863  23.679  1.00  0.00     0.004 C 
ENDBRANCH   2   3
ENDBRANCH   1   2
BRANCH   1   5
ATOM      5  C   UNL     1      31.173 -22.628  21.393  1.00  0.00     0.028 C 
BRANCH   5   6
ATOM      6  C   UNL     1      30.165 -23.766  21.570  1.00  0.00     0.156 C 
BRANCH   6   7
ATOM      7  O   UNL     1      30.070 -24.124  22.922  1.00  0.00    -0.396 OA
ATOM      8  H   UNL     1      30.941 -23.892  23.339  1.00  0.00     0.210 HD
ENDBRANCH   6   7
ENDBRANCH   5   6
ENDBRANCH   1   5
TORSDOF 5
ENDMDL
MODEL 9
REMARK VINA RESULT:    -2.023     19.333     20.772
REMARK INTER + INTRA:          -2.630
REMARK INTER:                  -2.424
REMARK INTRA:                  -0.206
REMARK UNBOUND:                -0.075
REMARK SMILES CCCCCCO
REMARK SMILES IDX 4 1 3 2 2 3 1 4 5 5 6 6 7 7
REMARK H PARENT 7 8
REMARK Flexibility Score: inf
ROOT
ATOM      1  C   UNL     1      29.743 -23.241  34.570  1.00  0.00     0.002 C 
ENDROOT
BRANCH   1   2
ATOM      2  C   UNL     1      28.405 -22.494  34.389  1.00  0.00    -0.000 C 
BRANCH   2   3
ATOM      3  C   UNL     1      28.558 -20.966  34.306  1.00  0.00    -0.003 C 
ATOM      4  C   UNL     1      28.598 -20.292  35.675  1.00  0.00     0.004 C 
ENDBRANCH   2   3
ENDBRANCH   1   2
BRANCH   1   5
ATOM      5  C   UNL     1      29.899 -23.820  35.984  1.00  0.00     0.028 C 
BRANCH   5   6
ATOM      6  C   UNL     1      28.536 -24.125  36.610  1.00  0.00     0.156 C 
BRANCH   6   7
ATOM      7  O   UNL     1      28.356 -23.364  37.774  1.00  0.00    -0.396 OA
ATOM      8  H   UNL     1      27.612 -23.788  38.277  1.00  0.00     0.210 HD
ENDBRANCH   6   7
ENDBRANCH   5   6
ENDBRANCH   1   5
TORSDOF 5
ENDMDL
