MODEL 1
REMARK VINA RESULT:    -2.755      0.000      0.000
REMARK INTER + INTRA:          -3.089
REMARK INTER:                  -3.077
REMARK INTRA:                  -0.012
REMARK UNBOUND:                -0.012
REMARK SMILES CCCC(=O)[O-]
REMARK SMILES IDX 3 1 4 2 5 3 6 4 2 5 1 6
REMARK H PARENT
REMARK Flexibility Score: inf
ROOT
ATOM      1  C   UNL     1      -3.358   2.289   0.285  1.00  0.00     0.052 C 
ENDROOT
BRANCH   1   2
ATOM      2  C   UNL     1      -3.381   3.599   1.009  1.00  0.00     0.041 C 
ATOM      3  O   UNL     1      -3.777   4.640   0.422  1.00  0.00    -0.550 OA
ATOM      4  O   UNL     1      -2.921   3.678   2.317  1.00  0.00    -0.550 OA
ENDBRANCH   1   2
BRANCH   1   5
ATOM      5  C   UNL     1      -4.783   1.831  -0.039  1.00  0.00     0.003 C 
ATOM      6  C   UNL     1      -5.056   0.442   0.529  1.00  0.00     0.004 C 
ENDBRANCH   1   5
TORSDOF 2
ENDMDL
MODEL 2
REMARK VINA RESULT:    -2.749      0.095      1.322
REMARK INTER + INTRA:          -3.083
REMARK INTER:                  -3.064
REMARK INTRA:                  -0.018
REMARK UNBOUND:                -0.012
REMARK SMILES CCCC(=O)[O-]
REMARK SMILES IDX 3 1 4 2 5 3 6 4 2 5 1 6
REMARK H PARENT
REMARK Flexibility Score: inf
ROOT
ATOM      1  C   UNL     1      -3.344   2.285   0.243  1.00  0.00     0.052 C 
ENDROOT
BRANCH   1   2
ATOM      2  C   UNL     1      -3.344   3.559   1.029  1.00  0.00     0.041 C 
ATOM      3  O   UNL     1      -2.900   3.577   2.208  1.00  0.00    -0.550 OA
ATOM      4  O   UNL     1      -3.878   4.716   0.477  1.00  0.00    -0.550 OA
ENDBRANCH   1   2
BRANCH   1   5
ATOM      5  C   UNL     1      -4.778   1.831  -0.040  1.00  0.00     0.003 C 
ATOM      6  C   UNL     1      -5.064   0.479   0.606  1.00  0.00     0.004 C 
ENDBRANCH   1   5
TORSDOF 2
ENDMDL
MODEL 3
REMARK VINA RESULT:    -2.727      1.308      1.872
REMARK INTER + INTRA:          -3.058
REMARK INTER:                  -3.021
REMARK INTRA:                  -0.037
REMARK UNBOUND:                -0.012
REMARK SMILES CCCC(=O)[O-]
REMARK SMILES IDX 3 1 4 2 5 3 6 4 2 5 1 6
REMARK H PARENT
REMARK Flexibility Score: inf
ROOT
ATOM      1  C   UNL     1      -4.840   2.191   1.015  1.00  0.00     0.052 C 
ENDROOT
BRANCH   1   2
ATOM      2  C   UNL     1      -3.439   2.568   0.646  1.00  0.00     0.041 C 
ATOM      3  O   UNL     1      -2.639   2.974   1.530  1.00  0.00    -0.550 OA
ATOM      4  O   UNL     1      -3.032   2.516  -0.681  1.00  0.00    -0.550 OA
ENDBRANCH   1   2
BRANCH   1   5
ATOM      5  C   UNL     1      -5.370   1.111   0.068  1.00  0.00     0.003 C 
ATOM      6  C   UNL     1      -5.256  -0.275   0.696  1.00  0.00     0.004 C 
ENDBRANCH   1   5
TORSDOF 2
ENDMDL
MODEL 4
REMARK VINA RESULT:    -2.679      8.258      8.630
REMARK INTER + INTRA:          -3.004
REMARK INTER:                  -2.992
REMARK INTRA:                  -0.012
REMARK UNBOUND:                -0.012
REMARK SMILES CCCC(=O)[O-]
REMARK SMILES IDX 3 1 4 2 5 3 6 4 2 5 1 6
REMARK H PARENT
REMARK Flexibility Score: inf
ROOT
ATOM      1  C   UNL     1       4.212   1.949  -1.829  1.00  0.00     0.052 C 
ENDROOT
BRANCH   1   2
ATOM      2  C   UNL     1       3.363   2.102  -3.053  1.00  0.00     0.041 C 
ATOM      3  O   UNL     1       3.136   1.110  -3.794  1.00  0.00    -0.550 OA
ATOM      4  O   UNL     1       2.864   3.351  -3.400  1.00  0.00    -0.550 OA
ENDBRANCH   1   2
BRANCH   1   5
ATOM      5  C   UNL     1       4.249   0.485  -1.384  1.00  0.00     0.003 C 
ATOM      6  C   UNL     1       4.490   0.373   0.119  1.00  0.00     0.004 C 
ENDBRANCH   1   5
TORSDOF 2
ENDMDL
MODEL 5
REMARK VINA RESULT:    -2.521      9.322     10.030
REMARK INTER + INTRA:          -2.827
REMARK INTER:                  -2.796
REMARK INTRA:                  -0.032
REMARK UNBOUND:                -0.012
REMARK SMILES CCCC(=O)[O-]
REMARK SMILES IDX 3 1 4 2 5 3 6 4 2 5 1 6
REMARK H PARENT
REMARK Flexibility Score: inf
ROOT
ATOM      1  C   UNL     1       4.752   0.235   0.221  1.00  0.00     0.052 C 
ENDROOT
BRANCH   1   2
ATOM      2  C   UNL     1       4.467  -0.247  -1.167  1.00  0.00     0.041 C 
ATOM      3  O   UNL     1       4.772  -1.420  -1.506  1.00  0.00    -0.550 OA
ATOM      4  O   UNL     1       3.908   0.616  -2.101  1.00  0.00    -0.550 OA
ENDBRANCH   1   2
BRANCH   1   5
ATOM      5  C   UNL     1       6.262   0.267   0.476  1.00  0.00     0.003 C 
ATOM      6  C   UNL     1       6.623  -0.515   1.735  1.00  0.00     0.004 C 
ENDBRANCH   1   5
TORSDOF 2
ENDMDL
MODEL 6
REMARK VINA RESULT:    -2.498      8.389      8.934
REMARK INTER + INTRA:          -2.802
REMARK INTER:                  -2.765
REMARK INTRA:                  -0.037
REMARK UNBOUND:                -0.012
REMARK SMILES CCCC(=O)[O-]
REMARK SMILES IDX 3 1 4 2 5 3 6 4 2 5 1 6
REMARK H PARENT
REMARK Flexibility Score: inf
ROOT
ATOM      1  C   UNL     1       4.328   1.727  -1.540  1.00  0.00     0.052 C 
ENDROOT
BRANCH   1   2
ATOM      2  C   UNL     1       4.317   0.429  -0.794  1.00  0.00     0.041 C 
ATOM      3  O   UNL     1       4.352  -0.663  -1.422  1.00  0.00    -0.550 OA
ATOM      4  O   UNL     1       4.218   0.423   0.591  1.00  0.00    -0.550 OA
ENDBRANCH   1   2
BRANCH   1   5
ATOM      5  C   UNL     1       3.382   1.662  -2.742  1.00  0.00     0.003 C 
ATOM      6  C   UNL     1       4.125   1.956  -4.042  1.00  0.00     0.004 C 
ENDBRANCH   1   5
TORSDOF 2
ENDMDL
MODEL 7
REMARK VINA RESULT:    -2.487     10.981     11.676
REMARK INTER + INTRA:          -2.790
REMARK INTER:                  -2.764
REMARK INTRA:                  -0.026
REMARK UNBOUND:                -0.012
REMARK SMILES CCCC(=O)[O-]
REMARK SMILES IDX 3 1 4 2 5 3 6 4 2 5 1 6
REMARK H PARENT
REMARK Flexibility Score: inf
ROOT
ATOM      1  C   UNL     1       5.329  -2.207   6.739  1.00  0.00     0.052 C 
ENDROOT
BRANCH   1   2
ATOM      2  C   UNL     1       5.055  -0.893   7.402  1.00  0.00     0.041 C 
ATOM      3  O   UNL     1       6.006  -0.194   7.841  1.00  0.00    -0.550 OA
ATOM      4  O   UNL     1       3.746  -0.463   7.579  1.00  0.00    -0.550 OA
ENDBRANCH   1   2
BRANCH   1   5
ATOM      5  C   UNL     1       4.924  -2.156   5.264  1.00  0.00     0.003 C 
ATOM      6  C   UNL     1       6.152  -2.116   4.358  1.00  0.00     0.004 C 
ENDBRANCH   1   5
TORSDOF 2
ENDMDL
MODEL 8
REMARK VINA RESULT:    -2.483      2.601      3.389
REMARK INTER + INTRA:          -2.785
REMARK INTER:                  -2.724
REMARK INTRA:                  -0.062
REMARK UNBOUND:                -0.012
REMARK SMILES CCCC(=O)[O-]
REMARK SMILES IDX 3 1 4 2 5 3 6 4 2 5 1 6
REMARK H PARENT
REMARK Flexibility Score: inf
ROOT
ATOM      1  C   UNL     1      -4.809   2.051  -0.304  1.00  0.00     0.052 C 
ENDROOT
BRANCH   1   2
ATOM      2  C   UNL     1      -5.362   1.023   0.634  1.00  0.00     0.041 C 
ATOM      3  O   UNL     1      -5.029  -0.186   0.515  1.00  0.00    -0.550 OA
ATOM      4  O   UNL     1      -6.280   1.393   1.607  1.00  0.00    -0.550 OA
ENDBRANCH   1   2
BRANCH   1   5
ATOM      5  C   UNL     1      -3.328   2.302  -0.010  1.00  0.00     0.003 C 
ATOM      6  C   UNL     1      -3.152   3.157   1.241  1.00  0.00     0.004 C 
ENDBRANCH   1   5
TORSDOF 2
ENDMDL
MODEL 9
REMARK VINA RESULT:    -2.446      2.254      3.362
REMARK INTER + INTRA:          -2.744
REMARK INTER:                  -2.706
REMARK INTRA:                  -0.037
REMARK UNBOUND:                -0.012
REMARK SMILES CCCC(=O)[O-]
REMARK SMILES IDX 3 1 4 2 5 3 6 4 2 5 1 6
REMARK H PARENT
REMARK Flexibility Score: inf
ROOT
ATOM      1  C   UNL     1      -4.686   1.532   0.168  1.00  0.00     0.052 C 
ENDROOT
BRANCH   1   2
ATOM      2  C   UNL     1      -5.729   2.143  -0.715  1.00  0.00     0.041 C 
ATOM      3  O   UNL     1      -6.850   1.587  -0.849  1.00  0.00    -0.550 OA
ATOM      4  O   UNL     1      -5.444   3.301  -1.428  1.00  0.00    -0.550 OA
ENDBRANCH   1   2
BRANCH   1   5
ATOM      5  C   UNL     1      -3.368   2.303   0.053  1.00  0.00     0.003 C 
ATOM      6  C   UNL     1      -3.132   3.175   1.282  1.00  0.00     0.004 C 
ENDBRANCH   1   5
TORSDOF 2
ENDMDL
