MODEL 1
REMARK VINA RESULT:    -5.382      0.000      0.000
REMARK INTER + INTRA:          -8.856
REMARK INTER:                  -7.112
REMARK INTRA:                  -1.744
REMARK UNBOUND:                -1.744
REMARK SMILES CC[C@@H](C=C[C@H](C)[C@H]1CC[C@H]2C3=CC[C@H]4C[C@@H](O)CC[C@]4(C)[C@@H]3CC[C@@]12C)C(C)C
REMARK SMILES IDX 6 1 7 2 5 3 4 4 3 5 2 6 1 7 28 8 29 9 30 10 8 11 9 12 26 13
REMARK SMILES IDX 10 14 11 15 25 16 27 17 12 18 24 19 23 20 13 21 21 22 14 23
REMARK SMILES IDX 15 24 20 25 22 26 16 27 19 28 17 29 18 30
REMARK H PARENT 18 31
REMARK Flexibility Score: inf
ROOT
ATOM      1  C   UNL     1       6.905  -6.537  -3.533  1.00  0.00     0.012 C 
ATOM      2  C   UNL     1       6.429  -7.539  -2.476  1.00  0.00     0.012 C 
ENDROOT
BRANCH   1   3
ATOM      3  C   UNL     1       8.422  -6.580  -3.626  1.00  0.00    -0.028 C 
ATOM      4  C   UNL     1       9.270  -5.616  -3.210  1.00  0.00    -0.027 C 
BRANCH   4   5
ATOM      5  C   UNL     1       8.874  -4.336  -2.491  1.00  0.00     0.014 C 
BRANCH   5   6
ATOM      6  C   UNL     1       8.850  -3.125  -3.467  1.00  0.00     0.004 C 
ATOM      7  C   UNL     1       7.757  -2.080  -3.234  1.00  0.00     0.004 C 
ENDBRANCH   5   6
BRANCH   5   8
ATOM      8  C   UNL     1       9.672  -4.148  -1.156  1.00  0.00    -0.011 C 
ATOM      9  C   UNL     1      11.122  -3.702  -1.393  1.00  0.00     0.008 C 
ATOM     10  C   UNL     1       9.620  -5.349  -0.195  1.00  0.00     0.008 C 
ENDBRANCH   5   8
ENDBRANCH   4   5
ENDBRANCH   1   3
BRANCH   1  11
ATOM     11  C   UNL     1       6.150  -6.675  -4.902  1.00  0.00     0.002 C 
ATOM     12  C   UNL     1       4.747  -7.288  -4.759  1.00  0.00     0.005 C 
ATOM     13  C   UNL     1       5.967  -5.456  -5.861  1.00  0.00    -0.023 C 
ATOM     14  C   UNL     1       3.957  -6.880  -6.003  1.00  0.00     0.009 C 
ATOM     15  C   UNL     1       4.894  -6.000  -6.837  1.00  0.00     0.021 C 
ATOM     16  C   UNL     1       5.458  -4.185  -5.112  1.00  0.00     0.008 C 
ATOM     17  C   UNL     1       7.257  -5.126  -6.656  1.00  0.00     0.012 C 
ATOM     18  C   UNL     1       4.178  -4.901  -7.608  1.00  0.00    -0.067 C 
ATOM     19  C   UNL     1       4.831  -3.123  -6.029  1.00  0.00     0.009 C 
ATOM     20  C   UNL     1       3.640  -3.714  -6.815  1.00  0.00     0.021 C 
ATOM     21  C   UNL     1       4.249  -4.897  -8.961  1.00  0.00    -0.027 C 
ATOM     22  C   UNL     1       2.814  -2.696  -7.699  1.00  0.00    -0.023 C 
ATOM     23  C   UNL     1       3.705  -3.796  -9.825  1.00  0.00     0.031 C 
ATOM     24  C   UNL     1       3.553  -2.476  -9.057  1.00  0.00     0.002 C 
ATOM     25  C   UNL     1       2.651  -1.311  -6.999  1.00  0.00     0.010 C 
ATOM     26  C   UNL     1       1.398  -3.318  -7.907  1.00  0.00     0.012 C 
ATOM     27  C   UNL     1       2.875  -1.408  -9.947  1.00  0.00     0.036 C 
ATOM     28  C   UNL     1       1.945  -0.272  -7.883  1.00  0.00     0.032 C 
ATOM     29  C   UNL     1       2.700  -0.074  -9.204  1.00  0.00     0.114 C 
BRANCH  29  30
ATOM     30  O   UNL     1       1.976   0.818 -10.010  1.00  0.00    -0.393 OA
ATOM     31  H   UNL     1       1.012   0.604  -9.897  1.00  0.00     0.210 HD
ENDBRANCH  29  30
ENDBRANCH   1  11
TORSDOF 6
ENDMDL
MODEL 2
REMARK VINA RESULT:    -5.292      1.890      2.954
REMARK INTER + INTRA:          -8.737
REMARK INTER:                  -6.970
REMARK INTRA:                  -1.768
REMARK UNBOUND:                -1.744
REMARK SMILES CC[C@@H](C=C[C@H](C)[C@H]1CC[C@H]2C3=CC[C@H]4C[C@@H](O)CC[C@]4(C)[C@@H]3CC[C@@]12C)C(C)C
REMARK SMILES IDX 6 1 7 2 5 3 4 4 3 5 2 6 1 7 28 8 29 9 30 10 8 11 9 12 26 13
REMARK SMILES IDX 10 14 11 15 25 16 27 17 12 18 24 19 23 20 13 21 21 22 14 23
REMARK SMILES IDX 15 24 20 25 22 26 16 27 19 28 17 29 18 30
REMARK H PARENT 18 31
REMARK Flexibility Score: inf
ROOT
ATOM      1  C   UNL     1       4.125  -8.456  -5.491  1.00  0.00     0.012 C 
ATOM      2  C   UNL     1       3.529  -9.737  -4.899  1.00  0.00     0.012 C 
ENDROOT
BRANCH   1   3
ATOM      3  C   UNL     1       5.637  -8.595  -5.585  1.00  0.00    -0.028 C 
ATOM      4  C   UNL     1       6.545  -7.813  -4.965  1.00  0.00    -0.027 C 
BRANCH   4   5
ATOM      5  C   UNL     1       6.231  -6.692  -3.987  1.00  0.00     0.014 C 
BRANCH   5   6
ATOM      6  C   UNL     1       6.764  -5.326  -4.503  1.00  0.00     0.004 C 
ATOM      7  C   UNL     1       6.051  -4.074  -3.989  1.00  0.00     0.004 C 
ENDBRANCH   5   6
BRANCH   5   8
ATOM      8  C   UNL     1       6.604  -7.082  -2.516  1.00  0.00    -0.011 C 
ATOM      9  C   UNL     1       8.109  -6.961  -2.237  1.00  0.00     0.008 C 
ATOM     10  C   UNL     1       6.071  -8.451  -2.054  1.00  0.00     0.008 C 
ENDBRANCH   5   8
ENDBRANCH   4   5
ENDBRANCH   1   3
BRANCH   1  11
ATOM     11  C   UNL     1       3.416  -7.997  -6.815  1.00  0.00     0.002 C 
ATOM     12  C   UNL     1       1.883  -8.111  -6.750  1.00  0.00     0.005 C 
ATOM     13  C   UNL     1       3.695  -6.596  -7.448  1.00  0.00    -0.023 C 
ATOM     14  C   UNL     1       1.324  -7.174  -7.821  1.00  0.00     0.009 C 
ATOM     15  C   UNL     1       2.534  -6.493  -8.469  1.00  0.00     0.021 C 
ATOM     16  C   UNL     1       3.626  -5.447  -6.395  1.00  0.00     0.008 C 
ATOM     17  C   UNL     1       5.046  -6.545  -8.206  1.00  0.00     0.012 C 
ATOM     18  C   UNL     1       2.265  -5.066  -8.921  1.00  0.00    -0.067 C 
ATOM     19  C   UNL     1       3.432  -4.048  -7.002  1.00  0.00     0.009 C 
ATOM     20  C   UNL     1       2.138  -3.992  -7.844  1.00  0.00     0.021 C 
ATOM     21  C   UNL     1       2.380  -4.763 -10.236  1.00  0.00    -0.027 C 
ATOM     22  C   UNL     1       1.742  -2.574  -8.419  1.00  0.00    -0.023 C 
ATOM     23  C   UNL     1       2.276  -3.369 -10.787  1.00  0.00     0.031 C 
ATOM     24  C   UNL     1       2.558  -2.301  -9.722  1.00  0.00     0.002 C 
ATOM     25  C   UNL     1       2.039  -1.427  -7.404  1.00  0.00     0.010 C 
ATOM     26  C   UNL     1       0.206  -2.608  -8.696  1.00  0.00     0.012 C 
ATOM     27  C   UNL     1       2.317  -0.886 -10.299  1.00  0.00     0.036 C 
ATOM     28  C   UNL     1       1.762  -0.030  -7.981  1.00  0.00     0.032 C 
ATOM     29  C   UNL     1       2.584   0.209  -9.255  1.00  0.00     0.114 C 
BRANCH  29  30
ATOM     30  O   UNL     1       2.238   1.460  -9.789  1.00  0.00    -0.393 OA
ATOM     31  H   UNL     1       3.043   1.817 -10.252  1.00  0.00     0.210 HD
ENDBRANCH  29  30
ENDBRANCH   1  11
TORSDOF 6
ENDMDL
MODEL 3
REMARK VINA RESULT:    -5.079     14.632     16.986
REMARK INTER + INTRA:          -8.457
REMARK INTER:                  -6.909
REMARK INTRA:                  -1.547
REMARK UNBOUND:                -1.744
REMARK SMILES CC[C@@H](C=C[C@H](C)[C@H]1CC[C@H]2C3=CC[C@H]4C[C@@H](O)CC[C@]4(C)[C@@H]3CC[C@@]12C)C(C)C
REMARK SMILES IDX 6 1 7 2 5 3 4 4 3 5 2 6 1 7 28 8 29 9 30 10 8 11 9 12 26 13
REMARK SMILES IDX 10 14 11 15 25 16 27 17 12 18 24 19 23 20 13 21 21 22 14 23
REMARK SMILES IDX 15 24 20 25 22 26 16 27 19 28 17 29 18 30
REMARK H PARENT 18 31
REMARK Flexibility Score: inf
ROOT
ATOM      1  C   UNL     1      -3.443   8.704  -1.469  1.00  0.00     0.012 C 
ATOM      2  C   UNL     1      -3.305   8.601  -2.992  1.00  0.00     0.012 C 
ENDROOT
BRANCH   1   3
ATOM      3  C   UNL     1      -2.773   9.981  -0.984  1.00  0.00    -0.028 C 
ATOM      4  C   UNL     1      -1.593  10.060  -0.334  1.00  0.00    -0.027 C 
BRANCH   4   5
ATOM      5  C   UNL     1      -0.666   8.892  -0.034  1.00  0.00     0.014 C 
BRANCH   5   6
ATOM      6  C   UNL     1       0.072   8.415  -1.318  1.00  0.00     0.004 C 
ATOM      7  C   UNL     1       1.489   8.950  -1.532  1.00  0.00     0.004 C 
ENDBRANCH   5   6
BRANCH   5   8
ATOM      8  C   UNL     1      -1.377   7.789   0.820  1.00  0.00    -0.011 C 
ATOM      9  C   UNL     1      -0.892   7.765   2.276  1.00  0.00     0.008 C 
ATOM     10  C   UNL     1      -1.344   6.375   0.209  1.00  0.00     0.008 C 
ENDBRANCH   5   8
ENDBRANCH   4   5
ENDBRANCH   1   3
BRANCH   1  11
ATOM     11  C   UNL     1      -4.914   8.493  -0.964  1.00  0.00     0.002 C 
ATOM     12  C   UNL     1      -5.944   8.443  -2.107  1.00  0.00     0.005 C 
ATOM     13  C   UNL     1      -5.293   7.306  -0.022  1.00  0.00    -0.023 C 
ATOM     14  C   UNL     1      -7.178   7.725  -1.559  1.00  0.00     0.009 C 
ATOM     15  C   UNL     1      -6.839   7.328  -0.119  1.00  0.00     0.021 C 
ATOM     16  C   UNL     1      -4.713   5.946  -0.522  1.00  0.00     0.008 C 
ATOM     17  C   UNL     1      -4.872   7.558   1.449  1.00  0.00     0.012 C 
ATOM     18  C   UNL     1      -7.481   6.021   0.324  1.00  0.00    -0.067 C 
ATOM     19  C   UNL     1      -5.408   4.710   0.073  1.00  0.00     0.009 C 
ATOM     20  C   UNL     1      -6.918   4.724  -0.250  1.00  0.00     0.021 C 
ATOM     21  C   UNL     1      -8.349   6.038   1.364  1.00  0.00    -0.027 C 
ATOM     22  C   UNL     1      -7.736   3.443   0.185  1.00  0.00    -0.023 C 
ATOM     23  C   UNL     1      -8.940   4.803   1.981  1.00  0.00     0.031 C 
ATOM     24  C   UNL     1      -8.096   3.552   1.701  1.00  0.00     0.002 C 
ATOM     25  C   UNL     1      -6.924   2.129  -0.033  1.00  0.00     0.010 C 
ATOM     26  C   UNL     1      -9.014   3.393  -0.709  1.00  0.00     0.012 C 
ATOM     27  C   UNL     1      -8.804   2.289   2.245  1.00  0.00     0.036 C 
ATOM     28  C   UNL     1      -7.655   0.880   0.482  1.00  0.00     0.032 C 
ATOM     29  C   UNL     1      -7.987   1.016   1.974  1.00  0.00     0.114 C 
BRANCH  29  30
ATOM     30  O   UNL     1      -8.724  -0.108   2.378  1.00  0.00    -0.393 OA
ATOM     31  H   UNL     1      -9.625   0.213   2.655  1.00  0.00     0.210 HD
ENDBRANCH  29  30
ENDBRANCH   1  11
TORSDOF 6
ENDMDL
MODEL 4
REMARK VINA RESULT:    -4.956      1.533      2.319
REMARK INTER + INTRA:          -8.294
REMARK INTER:                  -6.333
REMARK INTRA:                  -1.960
REMARK UNBOUND:                -1.744
REMARK SMILES CC[C@@H](C=C[C@H](C)[C@H]1CC[C@H]2C3=CC[C@H]4C[C@@H](O)CC[C@]4(C)[C@@H]3CC[C@@]12C)C(C)C
REMARK SMILES IDX 6 1 7 2 5 3 4 4 3 5 2 6 1 7 28 8 29 9 30 10 8 11 9 12 26 13
REMARK SMILES IDX 10 14 11 15 25 16 27 17 12 18 24 19 23 20 13 21 21 22 14 23
REMARK SMILES IDX 15 24 20 25 22 26 16 27 19 28 17 29 18 30
REMARK H PARENT 18 31
REMARK Flexibility Score: inf
ROOT
ATOM      1  C   UNL     1       5.590  -6.547  -5.133  1.00  0.00     0.012 C 
ATOM      2  C   UNL     1       5.166  -7.687  -4.202  1.00  0.00     0.012 C 
ENDROOT
BRANCH   1   3
ATOM      3  C   UNL     1       7.092  -6.614  -5.366  1.00  0.00    -0.028 C 
ATOM      4  C   UNL     1       7.942  -5.566  -5.370  1.00  0.00    -0.027 C 
BRANCH   4   5
ATOM      5  C   UNL     1       7.573  -4.123  -5.060  1.00  0.00     0.014 C 
BRANCH   5   6
ATOM      6  C   UNL     1       8.520  -3.130  -5.792  1.00  0.00     0.004 C 
ATOM      7  C   UNL     1       7.851  -2.033  -6.623  1.00  0.00     0.004 C 
ENDBRANCH   5   6
BRANCH   5   8
ATOM      8  C   UNL     1       7.363  -3.894  -3.525  1.00  0.00    -0.011 C 
ATOM      9  C   UNL     1       6.128  -3.034  -3.220  1.00  0.00     0.008 C 
ATOM     10  C   UNL     1       8.598  -3.363  -2.774  1.00  0.00     0.008 C 
ENDBRANCH   5   8
ENDBRANCH   4   5
ENDBRANCH   1   3
BRANCH   1  11
ATOM     11  C   UNL     1       4.719  -6.452  -6.435  1.00  0.00     0.002 C 
ATOM     12  C   UNL     1       3.247  -6.838  -6.206  1.00  0.00     0.005 C 
ATOM     13  C   UNL     1       4.671  -5.148  -7.293  1.00  0.00    -0.023 C 
ATOM     14  C   UNL     1       2.444  -6.210  -7.346  1.00  0.00     0.009 C 
ATOM     15  C   UNL     1       3.448  -5.433  -8.202  1.00  0.00     0.021 C 
ATOM     16  C   UNL     1       4.444  -3.874  -6.422  1.00  0.00     0.008 C 
ATOM     17  C   UNL     1       5.932  -4.972  -8.178  1.00  0.00     0.012 C 
ATOM     18  C   UNL     1       2.872  -4.174  -8.834  1.00  0.00    -0.067 C 
ATOM     19  C   UNL     1       3.936  -2.655  -7.210  1.00  0.00     0.009 C 
ATOM     20  C   UNL     1       2.605  -2.981  -7.921  1.00  0.00     0.021 C 
ATOM     21  C   UNL     1       2.837  -4.077 -10.184  1.00  0.00    -0.027 C 
ATOM     22  C   UNL     1       1.897  -1.776  -8.661  1.00  0.00    -0.023 C 
ATOM     23  C   UNL     1       2.422  -2.837 -10.924  1.00  0.00     0.031 C 
ATOM     24  C   UNL     1       2.555  -1.575 -10.062  1.00  0.00     0.002 C 
ATOM     25  C   UNL     1       2.026  -0.442  -7.861  1.00  0.00     0.010 C 
ATOM     26  C   UNL     1       0.384  -2.140  -8.780  1.00  0.00     0.012 C 
ATOM     27  C   UNL     1       2.000  -0.344 -10.818  1.00  0.00     0.036 C 
ATOM     28  C   UNL     1       1.439   0.764  -8.611  1.00  0.00     0.032 C 
ATOM     29  C   UNL     1       2.112   0.939  -9.979  1.00  0.00     0.114 C 
BRANCH  29  30
ATOM     30  O   UNL     1       1.489   1.998 -10.658  1.00  0.00    -0.393 OA
ATOM     31  H   UNL     1       0.964   2.511  -9.987  1.00  0.00     0.210 HD
ENDBRANCH  29  30
ENDBRANCH   1  11
TORSDOF 6
ENDMDL
MODEL 5
REMARK VINA RESULT:    -4.840      3.041      7.157
REMARK INTER + INTRA:          -8.140
REMARK INTER:                  -6.306
REMARK INTRA:                  -1.834
REMARK UNBOUND:                -1.744
REMARK SMILES CC[C@@H](C=C[C@H](C)[C@H]1CC[C@H]2C3=CC[C@H]4C[C@@H](O)CC[C@]4(C)[C@@H]3CC[C@@]12C)C(C)C
REMARK SMILES IDX 6 1 7 2 5 3 4 4 3 5 2 6 1 7 28 8 29 9 30 10 8 11 9 12 26 13
REMARK SMILES IDX 10 14 11 15 25 16 27 17 12 18 24 19 23 20 13 21 21 22 14 23
REMARK SMILES IDX 15 24 20 25 22 26 16 27 19 28 17 29 18 30
REMARK H PARENT 18 31
REMARK Flexibility Score: inf
ROOT
ATOM      1  C   UNL     1       4.695  -8.629  -5.809  1.00  0.00     0.012 C 
ATOM      2  C   UNL     1       5.541  -9.875  -5.527  1.00  0.00     0.012 C 
ENDROOT
BRANCH   1   3
ATOM      3  C   UNL     1       3.247  -9.039  -6.032  1.00  0.00    -0.028 C 
ATOM      4  C   UNL     1       2.393  -8.485  -6.918  1.00  0.00    -0.027 C 
BRANCH   4   5
ATOM      5  C   UNL     1       2.740  -7.399  -7.924  1.00  0.00     0.014 C 
BRANCH   5   6
ATOM      6  C   UNL     1       1.502  -6.516  -8.248  1.00  0.00     0.004 C 
ATOM      7  C   UNL     1       1.745  -5.008  -8.353  1.00  0.00     0.004 C 
ENDBRANCH   5   6
BRANCH   5   8
ATOM      8  C   UNL     1       3.535  -7.970  -9.146  1.00  0.00    -0.011 C 
ATOM      9  C   UNL     1       4.951  -7.387  -9.255  1.00  0.00     0.008 C 
ATOM     10  C   UNL     1       2.801  -7.879 -10.497  1.00  0.00     0.008 C 
ENDBRANCH   5   8
ENDBRANCH   4   5
ENDBRANCH   1   3
BRANCH   1  11
ATOM     11  C   UNL     1       4.907  -7.483  -4.758  1.00  0.00     0.002 C 
ATOM     12  C   UNL     1       5.743  -7.925  -3.544  1.00  0.00     0.005 C 
ATOM     13  C   UNL     1       5.488  -6.093  -5.170  1.00  0.00    -0.023 C 
ATOM     14  C   UNL     1       6.308  -6.653  -2.910  1.00  0.00     0.009 C 
ATOM     15  C   UNL     1       5.831  -5.489  -3.784  1.00  0.00     0.021 C 
ATOM     16  C   UNL     1       6.763  -6.225  -6.060  1.00  0.00     0.008 C 
ATOM     17  C   UNL     1       4.438  -5.194  -5.871  1.00  0.00     0.012 C 
ATOM     18  C   UNL     1       6.821  -4.337  -3.867  1.00  0.00    -0.067 C 
ATOM     19  C   UNL     1       7.627  -4.955  -6.113  1.00  0.00     0.009 C 
ATOM     20  C   UNL     1       8.085  -4.546  -4.696  1.00  0.00     0.021 C 
ATOM     21  C   UNL     1       6.447  -3.118  -3.409  1.00  0.00    -0.027 C 
ATOM     22  C   UNL     1       9.093  -3.332  -4.612  1.00  0.00    -0.023 C 
ATOM     23  C   UNL     1       7.278  -1.876  -3.559  1.00  0.00     0.031 C 
ATOM     24  C   UNL     1       8.296  -1.992  -4.702  1.00  0.00     0.002 C 
ATOM     25  C   UNL     1      10.138  -3.358  -5.771  1.00  0.00     0.010 C 
ATOM     26  C   UNL     1       9.852  -3.462  -3.255  1.00  0.00     0.012 C 
ATOM     27  C   UNL     1       9.211  -0.746  -4.739  1.00  0.00     0.036 C 
ATOM     28  C   UNL     1      11.062  -2.131  -5.773  1.00  0.00     0.032 C 
ATOM     29  C   UNL     1      10.248  -0.833  -5.870  1.00  0.00     0.114 C 
BRANCH  29  30
ATOM     30  O   UNL     1      11.125   0.259  -5.786  1.00  0.00    -0.393 OA
ATOM     31  H   UNL     1      11.146   0.549  -4.834  1.00  0.00     0.210 HD
ENDBRANCH  29  30
ENDBRANCH   1  11
TORSDOF 6
ENDMDL
MODEL 6
REMARK VINA RESULT:    -4.814      3.313      8.411
REMARK INTER + INTRA:          -8.105
REMARK INTER:                  -6.503
REMARK INTRA:                  -1.602
REMARK UNBOUND:                -1.744
REMARK SMILES CC[C@@H](C=C[C@H](C)[C@H]1CC[C@H]2C3=CC[C@H]4C[C@@H](O)CC[C@]4(C)[C@@H]3CC[C@@]12C)C(C)C
REMARK SMILES IDX 6 1 7 2 5 3 4 4 3 5 2 6 1 7 28 8 29 9 30 10 8 11 9 12 26 13
REMARK SMILES IDX 10 14 11 15 25 16 27 17 12 18 24 19 23 20 13 21 21 22 14 23
REMARK SMILES IDX 15 24 20 25 22 26 16 27 19 28 17 29 18 30
REMARK H PARENT 18 31
REMARK Flexibility Score: inf
ROOT
ATOM      1  C   UNL     1       3.471  -2.600  -9.752  1.00  0.00     0.012 C 
ATOM      2  C   UNL     1       4.837  -2.104 -10.239  1.00  0.00     0.012 C 
ENDROOT
BRANCH   1   3
ATOM      3  C   UNL     1       2.385  -2.098 -10.692  1.00  0.00    -0.028 C 
ATOM      4  C   UNL     1       1.124  -1.769 -10.343  1.00  0.00    -0.027 C 
BRANCH   4   5
ATOM      5  C   UNL     1       0.570  -1.757  -8.927  1.00  0.00     0.014 C 
BRANCH   5   6
ATOM      6  C   UNL     1      -0.960  -2.034  -8.918  1.00  0.00     0.004 C 
ATOM      7  C   UNL     1      -1.486  -3.003  -9.979  1.00  0.00     0.004 C 
ENDBRANCH   5   6
BRANCH   5   8
ATOM      8  C   UNL     1       1.063  -0.508  -8.120  1.00  0.00    -0.011 C 
ATOM      9  C   UNL     1       1.560   0.625  -9.030  1.00  0.00     0.008 C 
ATOM     10  C   UNL     1       2.093  -0.814  -7.017  1.00  0.00     0.008 C 
ENDBRANCH   5   8
ENDBRANCH   4   5
ENDBRANCH   1   3
BRANCH   1  11
ATOM     11  C   UNL     1       3.439  -4.141  -9.461  1.00  0.00     0.002 C 
ATOM     12  C   UNL     1       4.530  -4.922 -10.214  1.00  0.00     0.005 C 
ATOM     13  C   UNL     1       3.472  -4.699  -8.002  1.00  0.00    -0.023 C 
ATOM     14  C   UNL     1       4.729  -6.239  -9.464  1.00  0.00     0.009 C 
ATOM     15  C   UNL     1       3.784  -6.195  -8.260  1.00  0.00     0.021 C 
ATOM     16  C   UNL     1       4.586  -4.029  -7.138  1.00  0.00     0.008 C 
ATOM     17  C   UNL     1       2.100  -4.580  -7.290  1.00  0.00     0.012 C 
ATOM     18  C   UNL     1       4.322  -6.910  -7.030  1.00  0.00    -0.067 C 
ATOM     19  C   UNL     1       4.972  -4.827  -5.882  1.00  0.00     0.009 C 
ATOM     20  C   UNL     1       5.459  -6.242  -6.262  1.00  0.00     0.021 C 
ATOM     21  C   UNL     1       3.637  -7.968  -6.535  1.00  0.00    -0.027 C 
ATOM     22  C   UNL     1       6.018  -7.129  -5.078  1.00  0.00    -0.023 C 
ATOM     23  C   UNL     1       3.988  -8.669  -5.254  1.00  0.00     0.031 C 
ATOM     24  C   UNL     1       4.822  -7.784  -4.318  1.00  0.00     0.002 C 
ATOM     25  C   UNL     1       6.846  -6.287  -4.058  1.00  0.00     0.010 C 
ATOM     26  C   UNL     1       6.955  -8.202  -5.715  1.00  0.00     0.012 C 
ATOM     27  C   UNL     1       5.265  -8.585  -3.071  1.00  0.00     0.036 C 
ATOM     28  C   UNL     1       7.308  -7.106  -2.842  1.00  0.00     0.032 C 
ATOM     29  C   UNL     1       6.110  -7.729  -2.114  1.00  0.00     0.114 C 
BRANCH  29  30
ATOM     30  O   UNL     1       6.585  -8.531  -1.065  1.00  0.00    -0.393 OA
ATOM     31  H   UNL     1       6.882  -9.393  -1.462  1.00  0.00     0.210 HD
ENDBRANCH  29  30
ENDBRANCH   1  11
TORSDOF 6
ENDMDL
MODEL 7
REMARK VINA RESULT:    -4.790      3.179      8.104
REMARK INTER + INTRA:          -8.074
REMARK INTER:                  -6.184
REMARK INTRA:                  -1.891
REMARK UNBOUND:                -1.744
REMARK SMILES CC[C@@H](C=C[C@H](C)[C@H]1CC[C@H]2C3=CC[C@H]4C[C@@H](O)CC[C@]4(C)[C@@H]3CC[C@@]12C)C(C)C
REMARK SMILES IDX 6 1 7 2 5 3 4 4 3 5 2 6 1 7 28 8 29 9 30 10 8 11 9 12 26 13
REMARK SMILES IDX 10 14 11 15 25 16 27 17 12 18 24 19 23 20 13 21 21 22 14 23
REMARK SMILES IDX 15 24 20 25 22 26 16 27 19 28 17 29 18 30
REMARK H PARENT 18 31
REMARK Flexibility Score: inf
ROOT
ATOM      1  C   UNL     1       1.356  -3.991  -9.268  1.00  0.00     0.012 C 
ATOM      2  C   UNL     1       0.004  -3.270  -9.286  1.00  0.00     0.012 C 
ENDROOT
BRANCH   1   3
ATOM      3  C   UNL     1       1.628  -4.592 -10.639  1.00  0.00    -0.028 C 
ATOM      4  C   UNL     1       2.156  -5.810 -10.880  1.00  0.00    -0.027 C 
BRANCH   4   5
ATOM      5  C   UNL     1       2.504  -6.851  -9.827  1.00  0.00     0.014 C 
BRANCH   5   6
ATOM      6  C   UNL     1       3.625  -7.806 -10.327  1.00  0.00     0.004 C 
ATOM      7  C   UNL     1       4.735  -8.140  -9.329  1.00  0.00     0.004 C 
ENDBRANCH   5   6
BRANCH   5   8
ATOM      8  C   UNL     1       1.222  -7.523  -9.229  1.00  0.00    -0.011 C 
ATOM      9  C   UNL     1       1.331  -7.760  -7.716  1.00  0.00     0.008 C 
ATOM     10  C   UNL     1       0.765  -8.804  -9.951  1.00  0.00     0.008 C 
ENDBRANCH   5   8
ENDBRANCH   4   5
ENDBRANCH   1   3
BRANCH   1  11
ATOM     11  C   UNL     1       2.520  -3.114  -8.684  1.00  0.00     0.002 C 
ATOM     12  C   UNL     1       2.059  -2.171  -7.559  1.00  0.00     0.005 C 
ATOM     13  C   UNL     1       3.844  -3.756  -8.162  1.00  0.00    -0.023 C 
ATOM     14  C   UNL     1       3.305  -1.803  -6.753  1.00  0.00     0.009 C 
ATOM     15  C   UNL     1       4.470  -2.566  -7.390  1.00  0.00     0.021 C 
ATOM     16  C   UNL     1       3.581  -4.968  -7.216  1.00  0.00     0.008 C 
ATOM     17  C   UNL     1       4.796  -4.173  -9.312  1.00  0.00     0.012 C 
ATOM     18  C   UNL     1       5.537  -2.998  -6.396  1.00  0.00    -0.067 C 
ATOM     19  C   UNL     1       4.777  -5.343  -6.325  1.00  0.00     0.009 C 
ATOM     20  C   UNL     1       5.200  -4.145  -5.447  1.00  0.00     0.021 C 
ATOM     21  C   UNL     1       6.797  -2.523  -6.541  1.00  0.00    -0.027 C 
ATOM     22  C   UNL     1       6.335  -4.427  -4.383  1.00  0.00    -0.023 C 
ATOM     23  C   UNL     1       7.965  -2.979  -5.713  1.00  0.00     0.031 C 
ATOM     24  C   UNL     1       7.728  -4.359  -5.084  1.00  0.00     0.002 C 
ATOM     25  C   UNL     1       6.184  -5.836  -3.727  1.00  0.00     0.010 C 
ATOM     26  C   UNL     1       6.195  -3.343  -3.269  1.00  0.00     0.012 C 
ATOM     27  C   UNL     1       8.897  -4.731  -4.143  1.00  0.00     0.036 C 
ATOM     28  C   UNL     1       7.335  -6.176  -2.769  1.00  0.00     0.032 C 
ATOM     29  C   UNL     1       8.688  -6.107  -3.490  1.00  0.00     0.114 C 
BRANCH  29  30
ATOM     30  O   UNL     1       9.711  -6.344  -2.559  1.00  0.00    -0.393 OA
ATOM     31  H   UNL     1       9.678  -5.609  -1.890  1.00  0.00     0.210 HD
ENDBRANCH  29  30
ENDBRANCH   1  11
TORSDOF 6
ENDMDL
MODEL 8
REMARK VINA RESULT:    -4.742     14.097     16.317
REMARK INTER + INTRA:          -8.011
REMARK INTER:                  -6.258
REMARK INTRA:                  -1.753
REMARK UNBOUND:                -1.744
REMARK SMILES CC[C@@H](C=C[C@H](C)[C@H]1CC[C@H]2C3=CC[C@H]4C[C@@H](O)CC[C@]4(C)[C@@H]3CC[C@@]12C)C(C)C
REMARK SMILES IDX 6 1 7 2 5 3 4 4 3 5 2 6 1 7 28 8 29 9 30 10 8 11 9 12 26 13
REMARK SMILES IDX 10 14 11 15 25 16 27 17 12 18 24 19 23 20 13 21 21 22 14 23
REMARK SMILES IDX 15 24 20 25 22 26 16 27 19 28 17 29 18 30
REMARK H PARENT 18 31
REMARK Flexibility Score: inf
ROOT
ATOM      1  C   UNL     1      -2.147   8.004   1.780  1.00  0.00     0.012 C 
ATOM      2  C   UNL     1      -1.014   7.171   2.388  1.00  0.00     0.012 C 
ENDROOT
BRANCH   1   3
ATOM      3  C   UNL     1      -2.664   8.990   2.817  1.00  0.00    -0.028 C 
ATOM      4  C   UNL     1      -3.782   8.849   3.558  1.00  0.00    -0.027 C 
BRANCH   4   5
ATOM      5  C   UNL     1      -4.698   7.634   3.559  1.00  0.00     0.014 C 
BRANCH   5   6
ATOM      6  C   UNL     1      -4.089   6.470   4.391  1.00  0.00     0.004 C 
ATOM      7  C   UNL     1      -3.442   6.847   5.725  1.00  0.00     0.004 C 
ENDBRANCH   5   6
BRANCH   5   8
ATOM      8  C   UNL     1      -5.198   7.282   2.118  1.00  0.00    -0.011 C 
ATOM      9  C   UNL     1      -6.401   8.133   1.685  1.00  0.00     0.008 C 
ATOM     10  C   UNL     1      -5.470   5.786   1.873  1.00  0.00     0.008 C 
ENDBRANCH   5   8
ENDBRANCH   4   5
ENDBRANCH   1   3
BRANCH   1  11
ATOM     11  C   UNL     1      -1.778   8.634   0.391  1.00  0.00     0.002 C 
ATOM     12  C   UNL     1      -0.543   7.985  -0.257  1.00  0.00     0.005 C 
ATOM     13  C   UNL     1      -2.829   8.749  -0.759  1.00  0.00    -0.023 C 
ATOM     14  C   UNL     1      -0.618   8.288  -1.754  1.00  0.00     0.009 C 
ATOM     15  C   UNL     1      -1.915   9.074  -1.968  1.00  0.00     0.021 C 
ATOM     16  C   UNL     1      -3.611   7.418  -0.982  1.00  0.00     0.008 C 
ATOM     17  C   UNL     1      -3.820   9.921  -0.542  1.00  0.00     0.012 C 
ATOM     18  C   UNL     1      -2.583   8.802  -3.308  1.00  0.00    -0.067 C 
ATOM     19  C   UNL     1      -4.303   7.316  -2.351  1.00  0.00     0.009 C 
ATOM     20  C   UNL     1      -3.275   7.454  -3.495  1.00  0.00     0.021 C 
ATOM     21  C   UNL     1      -2.742   9.825  -4.181  1.00  0.00    -0.027 C 
ATOM     22  C   UNL     1      -3.827   7.235  -4.960  1.00  0.00    -0.023 C 
ATOM     23  C   UNL     1      -3.504   9.716  -5.470  1.00  0.00     0.031 C 
ATOM     24  C   UNL     1      -4.503   8.551  -5.458  1.00  0.00     0.002 C 
ATOM     25  C   UNL     1      -4.884   6.088  -5.021  1.00  0.00     0.010 C 
ATOM     26  C   UNL     1      -2.610   6.838  -5.852  1.00  0.00     0.012 C 
ATOM     27  C   UNL     1      -5.173   8.399  -6.844  1.00  0.00     0.036 C 
ATOM     28  C   UNL     1      -5.514   5.927  -6.412  1.00  0.00     0.032 C 
ATOM     29  C   UNL     1      -6.175   7.235  -6.868  1.00  0.00     0.114 C 
BRANCH  29  30
ATOM     30  O   UNL     1      -6.663   7.065  -8.173  1.00  0.00    -0.393 OA
ATOM     31  H   UNL     1      -7.432   6.436  -8.122  1.00  0.00     0.210 HD
ENDBRANCH  29  30
ENDBRANCH   1  11
TORSDOF 6
ENDMDL
MODEL 9
REMARK VINA RESULT:    -4.730      3.544      8.792
REMARK INTER + INTRA:          -7.996
REMARK INTER:                  -6.370
REMARK INTRA:                  -1.625
REMARK UNBOUND:                -1.744
REMARK SMILES CC[C@@H](C=C[C@H](C)[C@H]1CC[C@H]2C3=CC[C@H]4C[C@@H](O)CC[C@]4(C)[C@@H]3CC[C@@]12C)C(C)C
REMARK SMILES IDX 6 1 7 2 5 3 4 4 3 5 2 6 1 7 28 8 29 9 30 10 8 11 9 12 26 13
REMARK SMILES IDX 10 14 11 15 25 16 27 17 12 18 24 19 23 20 13 21 21 22 14 23
REMARK SMILES IDX 15 24 20 25 22 26 16 27 19 28 17 29 18 30
REMARK H PARENT 18 31
REMARK Flexibility Score: inf
ROOT
ATOM      1  C   UNL     1       0.471  -2.663  -9.278  1.00  0.00     0.012 C 
ATOM      2  C   UNL     1       0.052  -3.793 -10.225  1.00  0.00     0.012 C 
ENDROOT
BRANCH   1   3
ATOM      3  C   UNL     1      -0.760  -1.882  -8.844  1.00  0.00    -0.028 C 
ATOM      4  C   UNL     1      -1.070  -0.621  -9.210  1.00  0.00    -0.027 C 
BRANCH   4   5
ATOM      5  C   UNL     1      -0.289   0.233 -10.196  1.00  0.00     0.014 C 
BRANCH   5   6
ATOM      6  C   UNL     1       0.983   0.836  -9.535  1.00  0.00     0.004 C 
ATOM      7  C   UNL     1       2.257   0.841 -10.382  1.00  0.00     0.004 C 
ENDBRANCH   5   6
BRANCH   5   8
ATOM      8  C   UNL     1      -1.220   1.229 -10.968  1.00  0.00    -0.011 C 
ATOM      9  C   UNL     1      -0.874   2.698 -10.690  1.00  0.00     0.008 C 
ATOM     10  C   UNL     1      -2.729   0.979 -10.786  1.00  0.00     0.008 C 
ENDBRANCH   5   8
ENDBRANCH   4   5
ENDBRANCH   1   3
BRANCH   1  11
ATOM     11  C   UNL     1       1.398  -3.146  -8.108  1.00  0.00     0.002 C 
ATOM     12  C   UNL     1       1.781  -4.633  -8.215  1.00  0.00     0.005 C 
ATOM     13  C   UNL     1       2.729  -2.406  -7.761  1.00  0.00    -0.023 C 
ATOM     14  C   UNL     1       3.049  -4.824  -7.382  1.00  0.00     0.009 C 
ATOM     15  C   UNL     1       3.415  -3.441  -6.833  1.00  0.00     0.021 C 
ATOM     16  C   UNL     1       3.595  -2.121  -9.027  1.00  0.00     0.008 C 
ATOM     17  C   UNL     1       2.491  -1.094  -6.970  1.00  0.00     0.012 C 
ATOM     18  C   UNL     1       4.912  -3.214  -6.693  1.00  0.00    -0.067 C 
ATOM     19  C   UNL     1       5.074  -1.827  -8.725  1.00  0.00     0.009 C 
ATOM     20  C   UNL     1       5.722  -3.008  -7.970  1.00  0.00     0.021 C 
ATOM     21  C   UNL     1       5.425  -2.972  -5.462  1.00  0.00    -0.027 C 
ATOM     22  C   UNL     1       7.278  -2.902  -7.712  1.00  0.00    -0.023 C 
ATOM     23  C   UNL     1       6.858  -2.597  -5.211  1.00  0.00     0.031 C 
ATOM     24  C   UNL     1       7.531  -2.007  -6.457  1.00  0.00     0.002 C 
ATOM     25  C   UNL     1       8.029  -2.270  -8.925  1.00  0.00     0.010 C 
ATOM     26  C   UNL     1       7.806  -4.355  -7.501  1.00  0.00     0.012 C 
ATOM     27  C   UNL     1       9.034  -1.754  -6.191  1.00  0.00     0.036 C 
ATOM     28  C   UNL     1       9.527  -2.056  -8.656  1.00  0.00     0.032 C 
ATOM     29  C   UNL     1       9.741  -1.169  -7.423  1.00  0.00     0.114 C 
BRANCH  29  30
ATOM     30  O   UNL     1      11.118  -1.070  -7.169  1.00  0.00    -0.393 OA
ATOM     31  H   UNL     1      11.302  -1.577  -6.334  1.00  0.00     0.210 HD
ENDBRANCH  29  30
ENDBRANCH   1  11
TORSDOF 6
ENDMDL
