MODEL 1
REMARK VINA RESULT:    -4.719      0.000      0.000
REMARK INTER + INTRA:          -7.560
REMARK INTER:                  -7.202
REMARK INTRA:                  -0.359
REMARK UNBOUND:                -0.359
REMARK SMILES CC1=CCC[C@@H](C)C(=O)C[C@@H](C(C)C)C(=O)C1
REMARK SMILES IDX 8 1 9 2 6 3 7 4 5 5 4 6 3 7 2 8 1 9 10 11 11 12 15 13 16 14
REMARK SMILES IDX 17 15 12 17 13 18 14 19
REMARK H PARENT
REMARK Flexibility Score: 70.00
ROOT
ATOM      1  C   UNL     1     118.809 178.492 125.943  1.00  0.00     0.136 C 
ATOM      2  O   UNL     1     118.703 179.641 125.539  1.00  0.00    -0.299 OA
ENDROOT
BRANCH   1   3
ATOM      3  C   UNL     1     118.243 177.364 125.096  1.00  0.00     0.053 C 
ATOM      4  C   UNL     1     117.929 177.896 123.693  1.00  0.00     0.016 C 
BRANCH   3   5
ATOM      5  C   UNL     1     116.986 176.700 125.719  1.00  0.00     0.015 C 
BRANCH   5   6
ATOM      6  C   UNL     1     117.212 175.340 126.417  1.00  0.00     0.028 C 
BRANCH   6   7
ATOM      7  C   UNL     1     116.908 175.277 127.895  1.00  0.00    -0.028 C 
ATOM      8  C   UNL     1     117.817 175.156 128.890  1.00  0.00    -0.070 CG0
ATOM      9  C   UNL     1     117.327 175.368 130.302  1.00  0.00     0.039 C 
ATOM     10  G   UNL     1     119.293 174.881 128.646  1.00  0.00     0.000 G0
ENDBRANCH   6   7
ENDBRANCH   5   6
ENDBRANCH   3   5
ENDBRANCH   1   3
BRANCH   1  11
ATOM     11  C   UNL     1     119.367 178.245 127.331  1.00  0.00     0.087 C 
BRANCH  11  12
ATOM     12  C   UNL     1     120.325 177.030 127.432  1.00  0.00     0.066 C 
BRANCH  12  13
ATOM     13  C   UNL     1     120.130 176.130 128.652  1.00  0.00     0.140 C 
ATOM     14  O   UNL     1     120.678 176.459 129.695  1.00  0.00    -0.299 OA
BRANCH  13  15
ATOM     15  C   UNL     1     119.296 174.865 128.657  1.00  0.00     0.106 CG0
ATOM     16  G   UNL     1     117.826 175.177 128.887  1.00  0.00     0.000 G0
ENDBRANCH  13  15
ENDBRANCH  12  13
BRANCH  12  17
ATOM     17  C   UNL     1     121.810 177.490 127.276  1.00  0.00    -0.006 C 
ATOM     18  C   UNL     1     121.998 178.973 127.636  1.00  0.00     0.008 C 
ATOM     19  C   UNL     1     122.387 177.213 125.875  1.00  0.00     0.008 C 
ENDBRANCH  12  17
ENDBRANCH  11  12
ENDBRANCH   1  11
TORSDOF 1
ENDMDL
MODEL 2
REMARK VINA RESULT:    -4.599      1.691      2.403
REMARK INTER + INTRA:          -7.377
REMARK INTER:                  -7.062
REMARK INTRA:                  -0.315
REMARK UNBOUND:                -0.359
REMARK SMILES CC1=CCC[C@@H](C)C(=O)C[C@@H](C(C)C)C(=O)C1
REMARK SMILES IDX 8 1 9 2 6 3 7 4 5 5 4 6 3 7 2 8 1 9 10 11 11 12 15 13 16 14
REMARK SMILES IDX 17 15 12 17 13 18 14 19
REMARK H PARENT
REMARK Flexibility Score: 70.00
ROOT
ATOM      1  C   UNL     1     117.303 178.639 125.945  1.00  0.00     0.136 C 
ATOM      2  O   UNL     1     116.763 179.278 126.837  1.00  0.00    -0.299 OA
ENDROOT
BRANCH   1   3
ATOM      3  C   UNL     1     116.525 177.521 125.272  1.00  0.00     0.053 C 
ATOM      4  C   UNL     1     115.292 178.113 124.577  1.00  0.00     0.016 C 
BRANCH   3   5
ATOM      5  C   UNL     1     116.108 176.389 126.248  1.00  0.00     0.015 C 
BRANCH   5   6
ATOM      6  C   UNL     1     117.187 175.326 126.554  1.00  0.00     0.028 C 
BRANCH   6   7
ATOM      7  C   UNL     1     117.837 175.391 127.915  1.00  0.00    -0.028 C 
ATOM      8  C   UNL     1     119.150 175.609 128.160  1.00  0.00    -0.070 CG0
ATOM      9  C   UNL     1     119.548 175.890 129.590  1.00  0.00     0.039 C 
ATOM     10  G   UNL     1     120.211 175.641 127.071  1.00  0.00     0.000 G0
ENDBRANCH   6   7
ENDBRANCH   5   6
ENDBRANCH   3   5
ENDBRANCH   1   3
BRANCH   1  11
ATOM     11  C   UNL     1     118.768 178.885 125.644  1.00  0.00     0.087 C 
BRANCH  11  12
ATOM     12  C   UNL     1     119.588 177.602 125.349  1.00  0.00     0.066 C 
BRANCH  12  13
ATOM     13  C   UNL     1     120.390 177.041 126.523  1.00  0.00     0.140 C 
ATOM     14  O   UNL     1     121.216 177.773 127.049  1.00  0.00    -0.299 OA
BRANCH  13  15
ATOM     15  C   UNL     1     120.221 175.644 127.083  1.00  0.00     0.106 CG0
ATOM     16  G   UNL     1     119.138 175.606 128.151  1.00  0.00     0.000 G0
ENDBRANCH  13  15
ENDBRANCH  12  13
BRANCH  12  17
ATOM     17  C   UNL     1     120.474 177.799 124.078  1.00  0.00    -0.006 C 
ATOM     18  C   UNL     1     119.655 178.283 122.870  1.00  0.00     0.008 C 
ATOM     19  C   UNL     1     121.277 176.541 123.697  1.00  0.00     0.008 C 
ENDBRANCH  12  17
ENDBRANCH  11  12
ENDBRANCH   1  11
TORSDOF 1
ENDMDL
MODEL 3
REMARK VINA RESULT:    -4.593      2.049      4.015
REMARK INTER + INTRA:          -7.368
REMARK INTER:                  -7.130
REMARK INTRA:                  -0.238
REMARK UNBOUND:                -0.359
REMARK SMILES CC1=CCC[C@@H](C)C(=O)C[C@@H](C(C)C)C(=O)C1
REMARK SMILES IDX 8 1 9 2 6 3 7 4 5 5 4 6 3 7 2 8 1 9 10 11 11 12 15 13 16 14
REMARK SMILES IDX 17 15 12 17 13 18 14 19
REMARK H PARENT
REMARK Flexibility Score: 70.00
ROOT
ATOM      1  C   UNL     1     120.295 177.640 127.644  1.00  0.00     0.136 C 
ATOM      2  O   UNL     1     121.139 178.171 128.351  1.00  0.00    -0.299 OA
ENDROOT
BRANCH   1   3
ATOM      3  C   UNL     1     120.682 177.214 126.237  1.00  0.00     0.053 C 
ATOM      4  C   UNL     1     122.179 177.472 126.028  1.00  0.00     0.016 C 
BRANCH   3   5
ATOM      5  C   UNL     1     119.850 177.916 125.132  1.00  0.00     0.015 C 
BRANCH   5   6
ATOM      6  C   UNL     1     118.624 177.137 124.607  1.00  0.00     0.028 C 
BRANCH   6   7
ATOM      7  C   UNL     1     117.276 177.798 124.775  1.00  0.00    -0.028 C 
ATOM      8  C   UNL     1     116.263 177.354 125.554  1.00  0.00    -0.070 CG0
ATOM      9  C   UNL     1     115.102 178.294 125.778  1.00  0.00     0.039 C 
ATOM     10  G   UNL     1     116.273 176.002 126.249  1.00  0.00     0.000 G0
ENDBRANCH   6   7
ENDBRANCH   5   6
ENDBRANCH   3   5
ENDBRANCH   1   3
BRANCH   1  11
ATOM     11  C   UNL     1     118.864 177.557 128.136  1.00  0.00     0.087 C 
BRANCH  11  12
ATOM     12  C   UNL     1     118.237 176.140 128.057  1.00  0.00     0.066 C 
BRANCH  12  13
ATOM     13  C   UNL     1     116.759 176.088 127.675  1.00  0.00     0.140 C 
ATOM     14  O   UNL     1     115.936 176.139 128.578  1.00  0.00    -0.299 OA
BRANCH  13  15
ATOM     15  C   UNL     1     116.247 175.987 126.253  1.00  0.00     0.106 CG0
ATOM     16  G   UNL     1     116.251 177.345 125.569  1.00  0.00     0.000 G0
ENDBRANCH  13  15
ENDBRANCH  12  13
BRANCH  12  17
ATOM     17  C   UNL     1     118.531 175.338 129.366  1.00  0.00    -0.006 C 
ATOM     18  C   UNL     1     118.795 176.263 130.565  1.00  0.00     0.008 C 
ATOM     19  C   UNL     1     119.689 174.333 129.213  1.00  0.00     0.008 C 
ENDBRANCH  12  17
ENDBRANCH  11  12
ENDBRANCH   1  11
TORSDOF 1
ENDMDL
MODEL 4
REMARK VINA RESULT:    -4.512      1.581      3.887
REMARK INTER + INTRA:          -7.244
REMARK INTER:                  -7.187
REMARK INTRA:                  -0.057
REMARK UNBOUND:                -0.359
REMARK SMILES CC1=CCC[C@@H](C)C(=O)C[C@@H](C(C)C)C(=O)C1
REMARK SMILES IDX 8 1 9 2 6 3 7 4 5 5 4 6 3 7 2 8 1 9 10 11 11 12 15 13 16 14
REMARK SMILES IDX 17 15 12 17 13 18 14 19
REMARK H PARENT
REMARK Flexibility Score: 70.00
ROOT
ATOM      1  C   UNL     1     118.713 176.111 129.056  1.00  0.00     0.136 C 
ATOM      2  O   UNL     1     118.875 176.729 130.099  1.00  0.00    -0.299 OA
ENDROOT
BRANCH   1   3
ATOM      3  C   UNL     1     117.645 175.031 129.004  1.00  0.00     0.053 C 
ATOM      4  C   UNL     1     117.558 174.343 130.372  1.00  0.00     0.016 C 
BRANCH   3   5
ATOM      5  C   UNL     1     117.884 173.984 127.884  1.00  0.00     0.015 C 
BRANCH   5   6
ATOM      6  C   UNL     1     117.256 174.306 126.510  1.00  0.00     0.028 C 
BRANCH   6   7
ATOM      7  C   UNL     1     116.440 175.574 126.417  1.00  0.00    -0.028 C 
ATOM      8  C   UNL     1     116.823 176.724 125.814  1.00  0.00    -0.070 CG0
ATOM      9  C   UNL     1     115.765 177.782 125.612  1.00  0.00     0.039 C 
ATOM     10  G   UNL     1     118.230 176.966 125.290  1.00  0.00     0.000 G0
ENDBRANCH   6   7
ENDBRANCH   5   6
ENDBRANCH   3   5
ENDBRANCH   1   3
BRANCH   1  11
ATOM     11  C   UNL     1     119.671 176.341 127.905  1.00  0.00     0.087 C 
BRANCH  11  12
ATOM     12  C   UNL     1     119.707 177.799 127.379  1.00  0.00     0.066 C 
BRANCH  12  13
ATOM     13  C   UNL     1     118.958 178.052 126.071  1.00  0.00     0.140 C 
ATOM     14  O   UNL     1     118.948 179.193 125.631  1.00  0.00    -0.299 OA
BRANCH  13  15
ATOM     15  C   UNL     1     118.235 176.981 125.280  1.00  0.00     0.106 CG0
ATOM     16  G   UNL     1     116.846 176.723 125.843  1.00  0.00     0.000 G0
ENDBRANCH  13  15
ENDBRANCH  12  13
BRANCH  12  17
ATOM     17  C   UNL     1     121.177 178.325 127.321  1.00  0.00    -0.006 C 
ATOM     18  C   UNL     1     122.019 177.575 126.275  1.00  0.00     0.008 C 
ATOM     19  C   UNL     1     121.887 178.292 128.687  1.00  0.00     0.008 C 
ENDBRANCH  12  17
ENDBRANCH  11  12
ENDBRANCH   1  11
TORSDOF 1
ENDMDL
MODEL 5
REMARK VINA RESULT:    -4.483      2.325      4.145
REMARK INTER + INTRA:          -7.201
REMARK INTER:                  -6.857
REMARK INTRA:                  -0.344
REMARK UNBOUND:                -0.359
REMARK SMILES CC1=CCC[C@@H](C)C(=O)C[C@@H](C(C)C)C(=O)C1
REMARK SMILES IDX 8 1 9 2 6 3 7 4 5 5 4 6 3 7 2 8 1 9 10 11 11 12 15 13 16 14
REMARK SMILES IDX 17 15 12 17 13 18 14 19
REMARK H PARENT
REMARK Flexibility Score: 70.00
ROOT
ATOM      1  C   UNL     1     119.609 176.255 125.598  1.00  0.00     0.136 C 
ATOM      2  O   UNL     1     120.253 175.229 125.431  1.00  0.00    -0.299 OA
ENDROOT
BRANCH   1   3
ATOM      3  C   UNL     1     120.249 177.587 125.242  1.00  0.00     0.053 C 
ATOM      4  C   UNL     1     120.452 177.659 123.723  1.00  0.00     0.016 C 
BRANCH   3   5
ATOM      5  C   UNL     1     121.590 177.840 125.981  1.00  0.00     0.015 C 
BRANCH   5   6
ATOM      6  C   UNL     1     121.491 178.597 127.325  1.00  0.00     0.028 C 
BRANCH   6   7
ATOM      7  C   UNL     1     121.643 177.773 128.581  1.00  0.00    -0.028 C 
ATOM      8  C   UNL     1     120.662 177.483 129.467  1.00  0.00    -0.070 CG0
ATOM      9  C   UNL     1     120.964 176.438 130.514  1.00  0.00     0.039 C 
ATOM     10  G   UNL     1     119.276 178.108 129.415  1.00  0.00     0.000 G0
ENDBRANCH   6   7
ENDBRANCH   5   6
ENDBRANCH   3   5
ENDBRANCH   1   3
BRANCH   1  11
ATOM     11  C   UNL     1     118.260 176.177 126.284  1.00  0.00     0.087 C 
BRANCH  11  12
ATOM     12  C   UNL     1     117.935 177.384 127.202  1.00  0.00     0.066 C 
BRANCH  12  13
ATOM     13  C   UNL     1     118.289 177.210 128.678  1.00  0.00     0.140 C 
ATOM     14  O   UNL     1     117.754 176.295 129.288  1.00  0.00    -0.299 OA
BRANCH  13  15
ATOM     15  C   UNL     1     119.267 178.089 129.432  1.00  0.00     0.106 CG0
ATOM     16  G   UNL     1     120.658 177.475 129.450  1.00  0.00     0.000 G0
ENDBRANCH  13  15
ENDBRANCH  12  13
BRANCH  12  17
ATOM     17  C   UNL     1     116.452 177.837 127.007  1.00  0.00    -0.006 C 
ATOM     18  C   UNL     1     115.601 176.753 126.326  1.00  0.00     0.008 C 
ATOM     19  C   UNL     1     116.320 179.166 126.241  1.00  0.00     0.008 C 
ENDBRANCH  12  17
ENDBRANCH  11  12
ENDBRANCH   1  11
TORSDOF 1
ENDMDL
MODEL 6
REMARK VINA RESULT:    -4.399      1.880      4.244
REMARK INTER + INTRA:          -7.073
REMARK INTER:                  -6.821
REMARK INTRA:                  -0.252
REMARK UNBOUND:                -0.359
REMARK SMILES CC1=CCC[C@@H](C)C(=O)C[C@@H](C(C)C)C(=O)C1
REMARK SMILES IDX 8 1 9 2 6 3 7 4 5 5 4 6 3 7 2 8 1 9 10 11 11 12 15 13 16 14
REMARK SMILES IDX 17 15 12 17 13 18 14 19
REMARK H PARENT
REMARK Flexibility Score: 70.00
ROOT
ATOM      1  C   UNL     1     118.613 177.481 124.403  1.00  0.00     0.136 C 
ATOM      2  O   UNL     1     117.667 177.899 123.749  1.00  0.00    -0.299 OA
ENDROOT
BRANCH   1   3
ATOM      3  C   UNL     1     120.023 177.764 123.912  1.00  0.00     0.053 C 
ATOM      4  C   UNL     1     119.956 178.346 122.494  1.00  0.00     0.016 C 
BRANCH   3   5
ATOM      5  C   UNL     1     120.946 176.517 123.945  1.00  0.00     0.015 C 
BRANCH   5   6
ATOM      6  C   UNL     1     122.067 176.531 125.007  1.00  0.00     0.028 C 
BRANCH   6   7
ATOM      7  C   UNL     1     122.103 177.718 125.940  1.00  0.00    -0.028 C 
ATOM      8  C   UNL     1     121.514 177.792 127.156  1.00  0.00    -0.070 CG0
ATOM      9  C   UNL     1     121.883 178.966 128.031  1.00  0.00     0.039 C 
ATOM     10  G   UNL     1     120.561 176.734 127.691  1.00  0.00     0.000 G0
ENDBRANCH   6   7
ENDBRANCH   5   6
ENDBRANCH   3   5
ENDBRANCH   1   3
BRANCH   1  11
ATOM     11  C   UNL     1     118.348 176.579 125.591  1.00  0.00     0.087 C 
BRANCH  11  12
ATOM     12  C   UNL     1     118.055 177.330 126.916  1.00  0.00     0.066 C 
BRANCH  12  13
ATOM     13  C   UNL     1     119.170 177.292 127.961  1.00  0.00     0.140 C 
ATOM     14  O   UNL     1     118.925 177.744 129.070  1.00  0.00    -0.299 OA
BRANCH  13  15
ATOM     15  C   UNL     1     120.552 176.723 127.715  1.00  0.00     0.106 CG0
ATOM     16  G   UNL     1     121.489 177.778 127.150  1.00  0.00     0.000 G0
ENDBRANCH  13  15
ENDBRANCH  12  13
BRANCH  12  17
ATOM     17  C   UNL     1     116.682 176.878 127.510  1.00  0.00    -0.006 C 
ATOM     18  C   UNL     1     116.343 175.424 127.143  1.00  0.00     0.008 C 
ATOM     19  C   UNL     1     115.517 177.804 127.116  1.00  0.00     0.008 C 
ENDBRANCH  12  17
ENDBRANCH  11  12
ENDBRANCH   1  11
TORSDOF 1
ENDMDL
MODEL 7
REMARK VINA RESULT:    -4.287      6.748      9.140
REMARK INTER + INTRA:          -6.902
REMARK INTER:                  -6.768
REMARK INTRA:                  -0.134
REMARK UNBOUND:                -0.359
REMARK SMILES CC1=CCC[C@@H](C)C(=O)C[C@@H](C(C)C)C(=O)C1
REMARK SMILES IDX 8 1 9 2 6 3 7 4 5 5 4 6 3 7 2 8 1 9 10 11 11 12 15 13 16 14
REMARK SMILES IDX 17 15 12 17 13 18 14 19
REMARK H PARENT
REMARK Flexibility Score: 70.00
ROOT
ATOM      1  C   UNL     1     122.556 177.041 121.418  1.00  0.00     0.136 C 
ATOM      2  O   UNL     1     121.414 177.255 121.037  1.00  0.00    -0.299 OA
ENDROOT
BRANCH   1   3
ATOM      3  C   UNL     1     122.765 176.431 122.794  1.00  0.00     0.053 C 
ATOM      4  C   UNL     1     121.552 176.751 123.677  1.00  0.00     0.016 C 
BRANCH   3   5
ATOM      5  C   UNL     1     124.075 176.899 123.481  1.00  0.00     0.015 C 
BRANCH   5   6
ATOM      6  C   UNL     1     124.989 175.781 124.032  1.00  0.00     0.028 C 
BRANCH   6   7
ATOM      7  C   UNL     1     125.231 174.595 123.129  1.00  0.00    -0.028 C 
ATOM      8  C   UNL     1     125.882 174.619 121.942  1.00  0.00    -0.070 CG0
ATOM      9  C   UNL     1     126.237 173.288 121.324  1.00  0.00     0.039 C 
ATOM     10  G   UNL     1     126.316 175.902 121.251  1.00  0.00     0.000 G0
ENDBRANCH   6   7
ENDBRANCH   5   6
ENDBRANCH   3   5
ENDBRANCH   1   3
BRANCH   1  11
ATOM     11  C   UNL     1     123.719 177.522 120.574  1.00  0.00     0.087 C 
BRANCH  11  12
ATOM     12  C   UNL     1     124.284 176.460 119.594  1.00  0.00     0.066 C 
BRANCH  12  13
ATOM     13  C   UNL     1     125.721 176.012 119.859  1.00  0.00     0.140 C 
ATOM     14  O   UNL     1     126.421 175.745 118.892  1.00  0.00    -0.299 OA
BRANCH  13  15
ATOM     15  C   UNL     1     126.337 175.885 121.237  1.00  0.00     0.106 CG0
ATOM     16  G   UNL     1     125.861 174.622 121.939  1.00  0.00     0.000 G0
ENDBRANCH  13  15
ENDBRANCH  12  13
BRANCH  12  17
ATOM     17  C   UNL     1     124.077 176.916 118.115  1.00  0.00    -0.006 C 
ATOM     18  C   UNL     1     124.302 178.427 117.937  1.00  0.00     0.008 C 
ATOM     19  C   UNL     1     122.703 176.520 117.545  1.00  0.00     0.008 C 
ENDBRANCH  12  17
ENDBRANCH  11  12
ENDBRANCH   1  11
TORSDOF 1
ENDMDL
MODEL 8
REMARK VINA RESULT:    -4.269      2.151      4.022
REMARK INTER + INTRA:          -6.874
REMARK INTER:                  -7.017
REMARK INTRA:                   0.143
REMARK UNBOUND:                -0.359
REMARK SMILES CC1=CCC[C@@H](C)C(=O)C[C@@H](C(C)C)C(=O)C1
REMARK SMILES IDX 8 1 9 2 6 3 7 4 5 5 4 6 3 7 2 8 1 9 10 11 11 12 15 13 16 14
REMARK SMILES IDX 17 15 12 17 13 18 14 19
REMARK H PARENT
REMARK Flexibility Score: 70.00
ROOT
ATOM      1  C   UNL     1     116.137 176.582 127.130  1.00  0.00     0.136 C 
ATOM      2  O   UNL     1     116.074 175.878 126.132  1.00  0.00    -0.299 OA
ENDROOT
BRANCH   1   3
ATOM      3  C   UNL     1     115.794 178.057 127.005  1.00  0.00     0.053 C 
ATOM      4  C   UNL     1     114.809 178.250 125.846  1.00  0.00     0.016 C 
BRANCH   3   5
ATOM      5  C   UNL     1     117.039 178.964 126.817  1.00  0.00     0.015 C 
BRANCH   5   6
ATOM      6  C   UNL     1     118.056 178.506 125.747  1.00  0.00     0.028 C 
BRANCH   6   7
ATOM      7  C   UNL     1     119.486 178.334 126.200  1.00  0.00    -0.028 C 
ATOM      8  C   UNL     1     120.151 177.160 126.310  1.00  0.00    -0.070 CG0
ATOM      9  C   UNL     1     121.643 177.231 126.534  1.00  0.00     0.039 C 
ATOM     10  G   UNL     1     119.482 175.803 126.160  1.00  0.00     0.000 G0
ENDBRANCH   6   7
ENDBRANCH   5   6
ENDBRANCH   3   5
ENDBRANCH   1   3
BRANCH   1  11
ATOM     11  C   UNL     1     116.691 175.997 128.414  1.00  0.00     0.087 C 
BRANCH  11  12
ATOM     12  C   UNL     1     118.236 176.056 128.533  1.00  0.00     0.066 C 
BRANCH  12  13
ATOM     13  C   UNL     1     119.013 175.243 127.499  1.00  0.00     0.140 C 
ATOM     14  O   UNL     1     119.263 174.076 127.763  1.00  0.00    -0.299 OA
BRANCH  13  15
ATOM     15  C   UNL     1     119.485 175.785 126.165  1.00  0.00     0.106 CG0
ATOM     16  G   UNL     1     120.144 177.146 126.326  1.00  0.00     0.000 G0
ENDBRANCH  13  15
ENDBRANCH  12  13
BRANCH  12  17
ATOM     17  C   UNL     1     118.685 175.726 129.993  1.00  0.00    -0.006 C 
ATOM     18  C   UNL     1     117.498 175.335 130.889  1.00  0.00     0.008 C 
ATOM     19  C   UNL     1     119.487 176.863 130.652  1.00  0.00     0.008 C 
ENDBRANCH  12  17
ENDBRANCH  11  12
ENDBRANCH   1  11
TORSDOF 1
ENDMDL
MODEL 9
REMARK VINA RESULT:    -4.229      2.255      5.288
REMARK INTER + INTRA:          -6.813
REMARK INTER:                  -6.900
REMARK INTRA:                   0.087
REMARK UNBOUND:                -0.359
REMARK SMILES CC1=CCC[C@@H](C)C(=O)C[C@@H](C(C)C)C(=O)C1
REMARK SMILES IDX 8 1 9 2 6 3 7 4 5 5 4 6 3 7 2 8 1 9 10 11 11 12 15 13 16 14
REMARK SMILES IDX 17 15 12 17 13 18 14 19
REMARK H PARENT
REMARK Flexibility Score: 70.00
ROOT
ATOM      1  C   UNL     1     119.109 176.505 128.604  1.00  0.00     0.136 C 
ATOM      2  O   UNL     1     118.568 175.413 128.709  1.00  0.00    -0.299 OA
ENDROOT
BRANCH   1   3
ATOM      3  C   UNL     1     120.472 176.710 129.243  1.00  0.00     0.053 C 
ATOM      4  C   UNL     1     120.394 176.334 130.728  1.00  0.00     0.016 C 
BRANCH   3   5
ATOM      5  C   UNL     1     121.018 178.152 129.075  1.00  0.00     0.015 C 
BRANCH   5   6
ATOM      6  C   UNL     1     121.808 178.432 127.777  1.00  0.00     0.028 C 
BRANCH   6   7
ATOM      7  C   UNL     1     121.852 177.320 126.756  1.00  0.00    -0.028 C 
ATOM      8  C   UNL     1     121.078 177.223 125.650  1.00  0.00    -0.070 CG0
ATOM      9  C   UNL     1     121.455 176.172 124.634  1.00  0.00     0.039 C 
ATOM     10  G   UNL     1     119.906 178.150 125.365  1.00  0.00     0.000 G0
ENDBRANCH   6   7
ENDBRANCH   5   6
ENDBRANCH   3   5
ENDBRANCH   1   3
BRANCH   1  11
ATOM     11  C   UNL     1     118.344 177.651 127.972  1.00  0.00     0.087 C 
BRANCH  11  12
ATOM     12  C   UNL     1     117.681 177.308 126.612  1.00  0.00     0.066 C 
BRANCH  12  13
ATOM     13  C   UNL     1     118.583 177.429 125.384  1.00  0.00     0.140 C 
ATOM     14  O   UNL     1     118.207 176.899 124.348  1.00  0.00    -0.299 OA
BRANCH  13  15
ATOM     15  C   UNL     1     119.905 178.169 125.365  1.00  0.00     0.106 CG0
ATOM     16  G   UNL     1     121.065 177.230 125.658  1.00  0.00     0.000 G0
ENDBRANCH  13  15
ENDBRANCH  12  13
BRANCH  12  17
ATOM     17  C   UNL     1     116.347 178.104 126.438  1.00  0.00    -0.006 C 
ATOM     18  C   UNL     1     116.506 179.588 126.805  1.00  0.00     0.008 C 
ATOM     19  C   UNL     1     115.171 177.493 127.221  1.00  0.00     0.008 C 
ENDBRANCH  12  17
ENDBRANCH  11  12
ENDBRANCH   1  11
TORSDOF 1
ENDMDL
