MODEL 1
REMARK VINA RESULT:    -4.526      0.000      0.000
REMARK INTER + INTRA:          -5.976
REMARK INTER:                  -5.849
REMARK INTRA:                  -0.128
REMARK UNBOUND:                -0.128
REMARK SMILES CCCCCCC(=O)[O-]
REMARK SMILES IDX 5 1 6 2 7 3 8 4 9 5 4 6 3 7 2 8 1 9
REMARK H PARENT
REMARK Flexibility Score: inf
ROOT
ATOM      1  C   UNL     1      25.166  -2.474  62.091  1.00  0.00     0.006 C 
ENDROOT
BRANCH   1   2
ATOM      2  C   UNL     1      25.507  -3.656  61.175  1.00  0.00     0.053 C 
BRANCH   2   3
ATOM      3  C   UNL     1      24.661  -3.661  59.938  1.00  0.00     0.041 C 
ATOM      4  O   UNL     1      23.461  -4.039  59.991  1.00  0.00    -0.550 OA
ATOM      5  O   UNL     1      25.189  -3.217  58.733  1.00  0.00    -0.550 OA
ENDBRANCH   2   3
ENDBRANCH   1   2
BRANCH   1   6
ATOM      6  C   UNL     1      25.878  -1.182  61.663  1.00  0.00     0.000 C 
BRANCH   6   7
ATOM      7  C   UNL     1      25.046   0.052  62.031  1.00  0.00    -0.000 C 
BRANCH   7   8
ATOM      8  C   UNL     1      25.916   1.124  62.698  1.00  0.00    -0.003 C 
ATOM      9  C   UNL     1      25.440   2.527  62.333  1.00  0.00     0.004 C 
ENDBRANCH   7   8
ENDBRANCH   6   7
ENDBRANCH   1   6
TORSDOF 5
ENDMDL
MODEL 2
REMARK VINA RESULT:    -4.479      5.373      6.860
REMARK INTER + INTRA:          -5.916
REMARK INTER:                  -5.558
REMARK INTRA:                  -0.359
REMARK UNBOUND:                -0.128
REMARK SMILES CCCCCCC(=O)[O-]
REMARK SMILES IDX 5 1 6 2 7 3 8 4 9 5 4 6 3 7 2 8 1 9
REMARK H PARENT
REMARK Flexibility Score: inf
ROOT
ATOM      1  C   UNL     1      22.482   3.518  63.815  1.00  0.00     0.006 C 
ENDROOT
BRANCH   1   2
ATOM      2  C   UNL     1      22.424   2.620  65.056  1.00  0.00     0.053 C 
BRANCH   2   3
ATOM      3  C   UNL     1      23.543   2.913  66.007  1.00  0.00     0.041 C 
ATOM      4  O   UNL     1      23.354   2.851  67.250  1.00  0.00    -0.550 OA
ATOM      5  O   UNL     1      24.806   3.223  65.520  1.00  0.00    -0.550 OA
ENDBRANCH   2   3
ENDBRANCH   1   2
BRANCH   1   6
ATOM      6  C   UNL     1      22.734   2.718  62.528  1.00  0.00     0.000 C 
BRANCH   6   7
ATOM      7  C   UNL     1      23.782   3.408  61.647  1.00  0.00    -0.000 C 
BRANCH   7   8
ATOM      8  C   UNL     1      25.200   2.984  62.046  1.00  0.00    -0.003 C 
ATOM      9  C   UNL     1      25.274   1.483  62.313  1.00  0.00     0.004 C 
ENDBRANCH   7   8
ENDBRANCH   6   7
ENDBRANCH   1   6
TORSDOF 5
ENDMDL
MODEL 3
REMARK VINA RESULT:    -4.473      2.022      3.321
REMARK INTER + INTRA:          -5.908
REMARK INTER:                  -5.545
REMARK INTRA:                  -0.363
REMARK UNBOUND:                -0.128
REMARK SMILES CCCCCCC(=O)[O-]
REMARK SMILES IDX 5 1 6 2 7 3 8 4 9 5 4 6 3 7 2 8 1 9
REMARK H PARENT
REMARK Flexibility Score: inf
ROOT
ATOM      1  C   UNL     1      22.444  -3.446  60.394  1.00  0.00     0.006 C 
ENDROOT
BRANCH   1   2
ATOM      2  C   UNL     1      22.394  -2.577  59.131  1.00  0.00     0.053 C 
BRANCH   2   3
ATOM      3  C   UNL     1      23.529  -2.884  58.202  1.00  0.00     0.041 C 
ATOM      4  O   UNL     1      23.361  -2.828  56.955  1.00  0.00    -0.550 OA
ATOM      5  O   UNL     1      24.781  -3.199  58.713  1.00  0.00    -0.550 OA
ENDBRANCH   2   3
ENDBRANCH   1   2
BRANCH   1   6
ATOM      6  C   UNL     1      22.812  -2.633  61.645  1.00  0.00     0.000 C 
BRANCH   6   7
ATOM      7  C   UNL     1      23.861  -3.367  62.489  1.00  0.00    -0.000 C 
BRANCH   7   8
ATOM      8  C   UNL     1      25.276  -2.881  62.153  1.00  0.00    -0.003 C 
ATOM      9  C   UNL     1      25.282  -1.395  61.808  1.00  0.00     0.004 C 
ENDBRANCH   7   8
ENDBRANCH   6   7
ENDBRANCH   1   6
TORSDOF 5
ENDMDL
MODEL 4
REMARK VINA RESULT:    -4.430      4.243      5.697
REMARK INTER + INTRA:          -5.852
REMARK INTER:                  -5.494
REMARK INTRA:                  -0.358
REMARK UNBOUND:                -0.128
REMARK SMILES CCCCCCC(=O)[O-]
REMARK SMILES IDX 5 1 6 2 7 3 8 4 9 5 4 6 3 7 2 8 1 9
REMARK H PARENT
REMARK Flexibility Score: inf
ROOT
ATOM      1  C   UNL     1      25.456   3.345  64.729  1.00  0.00     0.006 C 
ENDROOT
BRANCH   1   2
ATOM      2  C   UNL     1      26.156   2.063  64.262  1.00  0.00     0.053 C 
BRANCH   2   3
ATOM      3  C   UNL     1      25.786   1.710  62.854  1.00  0.00     0.041 C 
ATOM      4  O   UNL     1      25.509   2.615  62.024  1.00  0.00    -0.550 OA
ATOM      5  O   UNL     1      25.780   0.381  62.449  1.00  0.00    -0.550 OA
ENDBRANCH   2   3
ENDBRANCH   1   2
BRANCH   1   6
ATOM      6  C   UNL     1      24.016   3.083  65.198  1.00  0.00     0.000 C 
BRANCH   6   7
ATOM      7  C   UNL     1      23.002   3.733  64.250  1.00  0.00    -0.000 C 
BRANCH   7   8
ATOM      8  C   UNL     1      21.809   2.804  63.999  1.00  0.00    -0.003 C 
ATOM      9  C   UNL     1      22.064   1.889  62.805  1.00  0.00     0.004 C 
ENDBRANCH   7   8
ENDBRANCH   6   7
ENDBRANCH   1   6
TORSDOF 5
ENDMDL
MODEL 5
REMARK VINA RESULT:    -4.428      2.688      4.168
REMARK INTER + INTRA:          -5.850
REMARK INTER:                  -5.481
REMARK INTRA:                  -0.369
REMARK UNBOUND:                -0.128
REMARK SMILES CCCCCCC(=O)[O-]
REMARK SMILES IDX 5 1 6 2 7 3 8 4 9 5 4 6 3 7 2 8 1 9
REMARK H PARENT
REMARK Flexibility Score: inf
ROOT
ATOM      1  C   UNL     1      25.321  -3.399  59.410  1.00  0.00     0.006 C 
ENDROOT
BRANCH   1   2
ATOM      2  C   UNL     1      26.114  -2.175  59.884  1.00  0.00     0.053 C 
BRANCH   2   3
ATOM      3  C   UNL     1      25.822  -1.846  61.317  1.00  0.00     0.041 C 
ATOM      4  O   UNL     1      25.777  -0.646  61.696  1.00  0.00    -0.550 OA
ATOM      5  O   UNL     1      25.567  -2.864  62.226  1.00  0.00    -0.550 OA
ENDBRANCH   2   3
ENDBRANCH   1   2
BRANCH   1   6
ATOM      6  C   UNL     1      23.870  -3.047  59.046  1.00  0.00     0.000 C 
BRANCH   6   7
ATOM      7  C   UNL     1      22.886  -3.672  60.041  1.00  0.00    -0.000 C 
BRANCH   7   8
ATOM      8  C   UNL     1      21.740  -2.706  60.362  1.00  0.00    -0.003 C 
ATOM      9  C   UNL     1      22.078  -1.827  61.564  1.00  0.00     0.004 C 
ENDBRANCH   7   8
ENDBRANCH   6   7
ENDBRANCH   1   6
TORSDOF 5
ENDMDL
MODEL 6
REMARK VINA RESULT:    -4.417      5.390      6.246
REMARK INTER + INTRA:          -5.836
REMARK INTER:                  -5.506
REMARK INTRA:                  -0.330
REMARK UNBOUND:                -0.128
REMARK SMILES CCCCCCC(=O)[O-]
REMARK SMILES IDX 5 1 6 2 7 3 8 4 9 5 4 6 3 7 2 8 1 9
REMARK H PARENT
REMARK Flexibility Score: inf
ROOT
ATOM      1  C   UNL     1      25.487   3.168  62.357  1.00  0.00     0.006 C 
ENDROOT
BRANCH   1   2
ATOM      2  C   UNL     1      25.803   1.902  63.162  1.00  0.00     0.053 C 
BRANCH   2   3
ATOM      3  C   UNL     1      26.234   2.225  64.560  1.00  0.00     0.041 C 
ATOM      4  O   UNL     1      27.379   1.891  64.965  1.00  0.00    -0.550 OA
ATOM      5  O   UNL     1      25.384   2.926  65.406  1.00  0.00    -0.550 OA
ENDBRANCH   2   3
ENDBRANCH   1   2
BRANCH   1   6
ATOM      6  C   UNL     1      24.114   3.096  61.674  1.00  0.00     0.000 C 
BRANCH   6   7
ATOM      7  C   UNL     1      23.099   2.359  62.555  1.00  0.00    -0.000 C 
BRANCH   7   8
ATOM      8  C   UNL     1      22.407   3.325  63.523  1.00  0.00    -0.003 C 
ATOM      9  C   UNL     1      21.667   2.569  64.624  1.00  0.00     0.004 C 
ENDBRANCH   7   8
ENDBRANCH   6   7
ENDBRANCH   1   6
TORSDOF 5
ENDMDL
MODEL 7
REMARK VINA RESULT:    -4.379      2.369      3.786
REMARK INTER + INTRA:          -5.787
REMARK INTER:                  -5.513
REMARK INTRA:                  -0.274
REMARK UNBOUND:                -0.128
REMARK SMILES CCCCCCC(=O)[O-]
REMARK SMILES IDX 5 1 6 2 7 3 8 4 9 5 4 6 3 7 2 8 1 9
REMARK H PARENT
REMARK Flexibility Score: inf
ROOT
ATOM      1  C   UNL     1      25.481  -3.127  61.998  1.00  0.00     0.006 C 
ENDROOT
BRANCH   1   2
ATOM      2  C   UNL     1      25.750  -1.895  61.126  1.00  0.00     0.053 C 
BRANCH   2   3
ATOM      3  C   UNL     1      26.218  -2.276  59.755  1.00  0.00     0.041 C 
ATOM      4  O   UNL     1      27.361  -1.931  59.354  1.00  0.00    -0.550 OA
ATOM      5  O   UNL     1      25.404  -3.043  58.931  1.00  0.00    -0.550 OA
ENDBRANCH   2   3
ENDBRANCH   1   2
BRANCH   1   6
ATOM      6  C   UNL     1      24.044  -3.154  62.540  1.00  0.00     0.000 C 
BRANCH   6   7
ATOM      7  C   UNL     1      23.105  -2.331  61.650  1.00  0.00    -0.000 C 
BRANCH   7   8
ATOM      8  C   UNL     1      22.342  -3.233  60.674  1.00  0.00    -0.003 C 
ATOM      9  C   UNL     1      21.388  -2.420  59.802  1.00  0.00     0.004 C 
ENDBRANCH   7   8
ENDBRANCH   6   7
ENDBRANCH   1   6
TORSDOF 5
ENDMDL
MODEL 8
REMARK VINA RESULT:    -4.378      4.375      6.162
REMARK INTER + INTRA:          -5.785
REMARK INTER:                  -5.632
REMARK INTRA:                  -0.153
REMARK UNBOUND:                -0.128
REMARK SMILES CCCCCCC(=O)[O-]
REMARK SMILES IDX 5 1 6 2 7 3 8 4 9 5 4 6 3 7 2 8 1 9
REMARK H PARENT
REMARK Flexibility Score: inf
ROOT
ATOM      1  C   UNL     1      25.203   2.534  62.325  1.00  0.00     0.006 C 
ENDROOT
BRANCH   1   2
ATOM      2  C   UNL     1      23.691   2.462  62.569  1.00  0.00     0.053 C 
BRANCH   2   3
ATOM      3  C   UNL     1      23.244   3.466  63.588  1.00  0.00     0.041 C 
ATOM      4  O   UNL     1      24.079   4.242  64.123  1.00  0.00    -0.550 OA
ATOM      5  O   UNL     1      21.900   3.568  63.921  1.00  0.00    -0.550 OA
ENDBRANCH   2   3
ENDBRANCH   1   2
BRANCH   1   6
ATOM      6  C   UNL     1      25.908   1.208  62.652  1.00  0.00     0.000 C 
BRANCH   6   7
ATOM      7  C   UNL     1      25.058   0.011  62.213  1.00  0.00    -0.000 C 
BRANCH   7   8
ATOM      8  C   UNL     1      25.929  -1.079  61.579  1.00  0.00    -0.003 C 
ATOM      9  C   UNL     1      25.422  -2.473  61.941  1.00  0.00     0.004 C 
ENDBRANCH   7   8
ENDBRANCH   6   7
ENDBRANCH   1   6
TORSDOF 5
ENDMDL
MODEL 9
REMARK VINA RESULT:    -4.327      3.561      5.443
REMARK INTER + INTRA:          -5.719
REMARK INTER:                  -5.585
REMARK INTRA:                  -0.134
REMARK UNBOUND:                -0.128
REMARK SMILES CCCCCCC(=O)[O-]
REMARK SMILES IDX 5 1 6 2 7 3 8 4 9 5 4 6 3 7 2 8 1 9
REMARK H PARENT
REMARK Flexibility Score: inf
ROOT
ATOM      1  C   UNL     1      25.131   0.087  62.021  1.00  0.00     0.006 C 
ENDROOT
BRANCH   1   2
ATOM      2  C   UNL     1      25.970   1.135  62.762  1.00  0.00     0.053 C 
BRANCH   2   3
ATOM      3  C   UNL     1      25.416   2.516  62.584  1.00  0.00     0.041 C 
ATOM      4  O   UNL     1      24.561   2.747  61.689  1.00  0.00    -0.550 OA
ATOM      5  O   UNL     1      25.819   3.541  63.430  1.00  0.00    -0.550 OA
ENDBRANCH   2   3
ENDBRANCH   1   2
BRANCH   1   6
ATOM      6  C   UNL     1      25.967  -1.128  61.589  1.00  0.00     0.000 C 
BRANCH   6   7
ATOM      7  C   UNL     1      25.267  -2.439  61.965  1.00  0.00    -0.000 C 
BRANCH   7   8
ATOM      8  C   UNL     1      25.605  -3.550  60.964  1.00  0.00    -0.003 C 
ATOM      9  C   UNL     1      25.428  -3.070  59.526  1.00  0.00     0.004 C 
ENDBRANCH   7   8
ENDBRANCH   6   7
ENDBRANCH   1   6
TORSDOF 5
ENDMDL
