MODEL 1
REMARK VINA RESULT:    -4.292      0.000      0.000
REMARK INTER + INTRA:          -6.882
REMARK INTER:                  -6.551
REMARK INTRA:                  -0.331
REMARK UNBOUND:                -0.331
REMARK SMILES CC1=CCC[C@@H](C)C(=O)C[C@H](C(C)C)C(=O)C1
REMARK SMILES IDX 8 1 9 2 6 3 7 4 5 5 4 6 3 7 2 8 1 9 10 11 11 12 15 13 16 14
REMARK SMILES IDX 17 15 12 17 13 18 14 19
REMARK H PARENT
REMARK Flexibility Score: 70.00
ROOT
ATOM      1  C   UNL     1      34.105  31.295 -14.174  1.00  0.00     0.136 C 
ATOM      2  O   UNL     1      35.021  30.803 -14.819  1.00  0.00    -0.299 OA
ENDROOT
BRANCH   1   3
ATOM      3  C   UNL     1      34.003  31.034 -12.686  1.00  0.00     0.053 C 
ATOM      4  C   UNL     1      35.297  31.485 -12.002  1.00  0.00     0.016 C 
BRANCH   3   5
ATOM      5  C   UNL     1      33.727  29.543 -12.380  1.00  0.00     0.015 C 
BRANCH   5   6
ATOM      6  C   UNL     1      32.297  29.106 -12.731  1.00  0.00     0.028 C 
BRANCH   6   7
ATOM      7  C   UNL     1      31.273  30.008 -12.086  1.00  0.00    -0.028 C 
ATOM      8  C   UNL     1      30.244  30.615 -12.720  1.00  0.00    -0.070 CG0
ATOM      9  C   UNL     1      29.328  31.490 -11.902  1.00  0.00     0.039 C 
ATOM     10  G   UNL     1      29.992  30.492 -14.211  1.00  0.00     0.000 G0
ENDBRANCH   6   7
ENDBRANCH   5   6
ENDBRANCH   3   5
ENDBRANCH   1   3
BRANCH   1  11
ATOM     11  C   UNL     1      33.117  32.190 -14.877  1.00  0.00     0.087 C 
BRANCH  11  12
ATOM     12  C   UNL     1      32.044  31.375 -15.644  1.00  0.00     0.066 C 
BRANCH  12  13
ATOM     13  C   UNL     1      30.689  31.595 -14.990  1.00  0.00     0.140 C 
ATOM     14  O   UNL     1      30.106  32.658 -15.157  1.00  0.00    -0.299 OA
BRANCH  13  15
ATOM     15  C   UNL     1      30.001  30.499 -14.216  1.00  0.00     0.106 CG0
ATOM     16  G   UNL     1      30.272  30.628 -12.730  1.00  0.00     0.000 G0
ENDBRANCH  13  15
ENDBRANCH  12  13
BRANCH  12  17
ATOM     17  C   UNL     1      31.984  31.750 -17.162  1.00  0.00    -0.006 C 
ATOM     18  C   UNL     1      33.378  32.069 -17.738  1.00  0.00     0.008 C 
ATOM     19  C   UNL     1      31.356  30.618 -18.000  1.00  0.00     0.008 C 
ENDBRANCH  12  17
ENDBRANCH  11  12
ENDBRANCH   1  11
TORSDOF 1
ENDMDL
MODEL 2
REMARK VINA RESULT:    -4.188      1.584      4.240
REMARK INTER + INTRA:          -6.723
REMARK INTER:                  -6.457
REMARK INTRA:                  -0.267
REMARK UNBOUND:                -0.331
REMARK SMILES CC1=CCC[C@@H](C)C(=O)C[C@H](C(C)C)C(=O)C1
REMARK SMILES IDX 8 1 9 2 6 3 7 4 5 5 4 6 3 7 2 8 1 9 10 11 11 12 15 13 16 14
REMARK SMILES IDX 17 15 12 17 13 18 14 19
REMARK H PARENT
REMARK Flexibility Score: 70.00
ROOT
ATOM      1  C   UNL     1      33.369  31.908 -15.806  1.00  0.00     0.136 C 
ATOM      2  O   UNL     1      33.600  33.109 -15.767  1.00  0.00    -0.299 OA
ENDROOT
BRANCH   1   3
ATOM      3  C   UNL     1      32.216  31.387 -16.637  1.00  0.00     0.053 C 
ATOM      4  C   UNL     1      32.460  31.723 -18.112  1.00  0.00     0.016 C 
BRANCH   3   5
ATOM      5  C   UNL     1      30.861  31.969 -16.173  1.00  0.00     0.015 C 
BRANCH   5   6
ATOM      6  C   UNL     1      30.579  31.737 -14.681  1.00  0.00     0.028 C 
BRANCH   6   7
ATOM      7  C   UNL     1      30.432  30.267 -14.372  1.00  0.00    -0.028 C 
ATOM      8  C   UNL     1      31.059  29.603 -13.374  1.00  0.00    -0.070 CG0
ATOM      9  C   UNL     1      30.787  28.126 -13.230  1.00  0.00     0.039 C 
ATOM     10  G   UNL     1      32.044  30.257 -12.425  1.00  0.00     0.000 G0
ENDBRANCH   6   7
ENDBRANCH   5   6
ENDBRANCH   3   5
ENDBRANCH   1   3
BRANCH   1  11
ATOM     11  C   UNL     1      34.272  30.967 -15.050  1.00  0.00     0.087 C 
BRANCH  11  12
ATOM     12  C   UNL     1      34.226  31.225 -13.522  1.00  0.00     0.066 C 
BRANCH  12  13
ATOM     13  C   UNL     1      33.474  30.089 -12.847  1.00  0.00     0.140 C 
ATOM     14  O   UNL     1      34.062  29.047 -12.592  1.00  0.00    -0.299 OA
BRANCH  13  15
ATOM     15  C   UNL     1      32.044  30.249 -12.396  1.00  0.00     0.106 CG0
ATOM     16  G   UNL     1      31.087  29.605 -13.381  1.00  0.00     0.000 G0
ENDBRANCH  13  15
ENDBRANCH  12  13
BRANCH  12  17
ATOM     17  C   UNL     1      35.654  31.379 -12.902  1.00  0.00    -0.006 C 
ATOM     18  C   UNL     1      36.520  32.391 -13.676  1.00  0.00     0.008 C 
ATOM     19  C   UNL     1      35.585  31.823 -11.427  1.00  0.00     0.008 C 
ENDBRANCH  12  17
ENDBRANCH  11  12
ENDBRANCH   1  11
TORSDOF 1
ENDMDL
MODEL 3
REMARK VINA RESULT:    -4.123      2.452      4.675
REMARK INTER + INTRA:          -6.623
REMARK INTER:                  -6.328
REMARK INTRA:                  -0.295
REMARK UNBOUND:                -0.331
REMARK SMILES CC1=CCC[C@@H](C)C(=O)C[C@H](C(C)C)C(=O)C1
REMARK SMILES IDX 8 1 9 2 6 3 7 4 5 5 4 6 3 7 2 8 1 9 10 11 11 12 15 13 16 14
REMARK SMILES IDX 17 15 12 17 13 18 14 19
REMARK H PARENT
REMARK Flexibility Score: 70.00
ROOT
ATOM      1  C   UNL     1      34.557  31.034 -12.414  1.00  0.00     0.136 C 
ATOM      2  O   UNL     1      35.209  31.984 -12.002  1.00  0.00    -0.299 OA
ENDROOT
BRANCH   1   3
ATOM      3  C   UNL     1      34.425  30.800 -13.904  1.00  0.00     0.053 C 
ATOM      4  C   UNL     1      35.820  30.702 -14.529  1.00  0.00     0.016 C 
BRANCH   3   5
ATOM      5  C   UNL     1      33.606  31.917 -14.593  1.00  0.00     0.015 C 
BRANCH   5   6
ATOM      6  C   UNL     1      32.090  31.766 -14.401  1.00  0.00     0.028 C 
BRANCH   6   7
ATOM      7  C   UNL     1      31.665  30.321 -14.500  1.00  0.00    -0.028 C 
ATOM      8  C   UNL     1      30.972  29.636 -13.563  1.00  0.00    -0.070 CG0
ATOM      9  C   UNL     1      30.646  28.190 -13.842  1.00  0.00     0.039 C 
ATOM     10  G   UNL     1      30.543  30.234 -12.237  1.00  0.00     0.000 G0
ENDBRANCH   6   7
ENDBRANCH   5   6
ENDBRANCH   3   5
ENDBRANCH   1   3
BRANCH   1  11
ATOM     11  C   UNL     1      33.933  30.091 -11.419  1.00  0.00     0.087 C 
BRANCH  11  12
ATOM     12  C   UNL     1      32.669  30.701 -10.760  1.00  0.00     0.066 C 
BRANCH  12  13
ATOM     13  C   UNL     1      31.460  29.851 -11.117  1.00  0.00     0.140 C 
ATOM     14  O   UNL     1      31.192  28.872 -10.435  1.00  0.00    -0.299 OA
BRANCH  13  15
ATOM     15  C   UNL     1      30.527  30.240 -12.236  1.00  0.00     0.106 CG0
ATOM     16  G   UNL     1      30.972  29.633 -13.552  1.00  0.00     0.000 G0
ENDBRANCH  13  15
ENDBRANCH  12  13
BRANCH  12  17
ATOM     17  C   UNL     1      32.810  30.824  -9.206  1.00  0.00    -0.006 C 
ATOM     18  C   UNL     1      34.222  30.447  -8.718  1.00  0.00     0.008 C 
ATOM     19  C   UNL     1      32.490  32.252  -8.721  1.00  0.00     0.008 C 
ENDBRANCH  12  17
ENDBRANCH  11  12
ENDBRANCH   1  11
TORSDOF 1
ENDMDL
MODEL 4
REMARK VINA RESULT:    -4.116      8.690     10.888
REMARK INTER + INTRA:          -6.613
REMARK INTER:                  -6.534
REMARK INTRA:                  -0.079
REMARK UNBOUND:                -0.331
REMARK SMILES CC1=CCC[C@@H](C)C(=O)C[C@H](C(C)C)C(=O)C1
REMARK SMILES IDX 8 1 9 2 6 3 7 4 5 5 4 6 3 7 2 8 1 9 10 11 11 12 15 13 16 14
REMARK SMILES IDX 17 15 12 17 13 18 14 19
REMARK H PARENT
REMARK Flexibility Score: 70.00
ROOT
ATOM      1  C   UNL     1      20.532  27.997 -15.794  1.00  0.00     0.136 C 
ATOM      2  O   UNL     1      20.145  28.642 -16.759  1.00  0.00    -0.299 OA
ENDROOT
BRANCH   1   3
ATOM      3  C   UNL     1      19.571  27.670 -14.671  1.00  0.00     0.053 C 
ATOM      4  C   UNL     1      18.189  27.366 -15.257  1.00  0.00     0.016 C 
BRANCH   3   5
ATOM      5  C   UNL     1      19.475  28.820 -13.641  1.00  0.00     0.015 C 
BRANCH   5   6
ATOM      6  C   UNL     1      20.391  28.624 -12.424  1.00  0.00     0.028 C 
BRANCH   6   7
ATOM      7  C   UNL     1      21.389  29.750 -12.301  1.00  0.00    -0.028 C 
ATOM      8  C   UNL     1      22.677  29.713 -12.712  1.00  0.00    -0.070 CG0
ATOM      9  C   UNL     1      23.523  30.942 -12.494  1.00  0.00     0.039 C 
ATOM     10  G   UNL     1      23.318  28.491 -13.340  1.00  0.00     0.000 G0
ENDBRANCH   6   7
ENDBRANCH   5   6
ENDBRANCH   3   5
ENDBRANCH   1   3
BRANCH   1  11
ATOM     11  C   UNL     1      21.956  27.506 -15.768  1.00  0.00     0.087 C 
BRANCH  11  12
ATOM     12  C   UNL     1      22.970  28.666 -15.951  1.00  0.00     0.066 C 
BRANCH  12  13
ATOM     13  C   UNL     1      23.859  28.750 -14.721  1.00  0.00     0.140 C 
ATOM     14  O   UNL     1      25.017  29.126 -14.841  1.00  0.00    -0.299 OA
BRANCH  13  15
ATOM     15  C   UNL     1      23.322  28.470 -13.340  1.00  0.00     0.106 CG0
ATOM     16  G   UNL     1      22.678  29.708 -12.745  1.00  0.00     0.000 G0
ENDBRANCH  13  15
ENDBRANCH  12  13
BRANCH  12  17
ATOM     17  C   UNL     1      23.838  28.497 -17.242  1.00  0.00    -0.006 C 
ATOM     18  C   UNL     1      24.363  27.057 -17.406  1.00  0.00     0.008 C 
ATOM     19  C   UNL     1      23.046  28.875 -18.510  1.00  0.00     0.008 C 
ENDBRANCH  12  17
ENDBRANCH  11  12
ENDBRANCH   1  11
TORSDOF 1
ENDMDL
MODEL 5
REMARK VINA RESULT:    -4.052      8.659     11.727
REMARK INTER + INTRA:          -6.515
REMARK INTER:                  -6.534
REMARK INTRA:                   0.019
REMARK UNBOUND:                -0.331
REMARK SMILES CC1=CCC[C@@H](C)C(=O)C[C@H](C(C)C)C(=O)C1
REMARK SMILES IDX 8 1 9 2 6 3 7 4 5 5 4 6 3 7 2 8 1 9 10 11 11 12 15 13 16 14
REMARK SMILES IDX 17 15 12 17 13 18 14 19
REMARK H PARENT
REMARK Flexibility Score: 70.00
ROOT
ATOM      1  C   UNL     1      19.629  28.344 -13.090  1.00  0.00     0.136 C 
ATOM      2  O   UNL     1      19.054  27.376 -12.612  1.00  0.00    -0.299 OA
ENDROOT
BRANCH   1   3
ATOM      3  C   UNL     1      19.682  28.527 -14.593  1.00  0.00     0.053 C 
ATOM      4  C   UNL     1      18.284  28.309 -15.179  1.00  0.00     0.016 C 
BRANCH   3   5
ATOM      5  C   UNL     1      20.696  27.565 -15.255  1.00  0.00     0.015 C 
BRANCH   5   6
ATOM      6  C   UNL     1      21.975  28.267 -15.734  1.00  0.00     0.028 C 
BRANCH   6   7
ATOM      7  C   UNL     1      23.168  27.863 -14.901  1.00  0.00    -0.028 C 
ATOM      8  C   UNL     1      23.749  28.612 -13.936  1.00  0.00    -0.070 CG0
ATOM      9  C   UNL     1      24.942  28.035 -13.217  1.00  0.00     0.039 C 
ATOM     10  G   UNL     1      23.286  30.009 -13.571  1.00  0.00     0.000 G0
ENDBRANCH   6   7
ENDBRANCH   5   6
ENDBRANCH   3   5
ENDBRANCH   1   3
BRANCH   1  11
ATOM     11  C   UNL     1      20.240  29.361 -12.161  1.00  0.00     0.087 C 
BRANCH  11  12
ATOM     12  C   UNL     1      21.688  28.979 -11.758  1.00  0.00     0.066 C 
BRANCH  12  13
ATOM     13  C   UNL     1      22.640  30.069 -12.224  1.00  0.00     0.140 C 
ATOM     14  O   UNL     1      22.945  30.970 -11.455  1.00  0.00    -0.299 OA
BRANCH  13  15
ATOM     15  C   UNL     1      23.293  30.016 -13.582  1.00  0.00     0.106 CG0
ATOM     16  G   UNL     1      23.735  28.606 -13.921  1.00  0.00     0.000 G0
ENDBRANCH  13  15
ENDBRANCH  12  13
BRANCH  12  17
ATOM     17  C   UNL     1      21.835  28.749 -10.217  1.00  0.00    -0.006 C 
ATOM     18  C   UNL     1      20.566  28.132  -9.597  1.00  0.00     0.008 C 
ATOM     19  C   UNL     1      23.032  27.832  -9.895  1.00  0.00     0.008 C 
ENDBRANCH  12  17
ENDBRANCH  11  12
ENDBRANCH   1  11
TORSDOF 1
ENDMDL
MODEL 6
REMARK VINA RESULT:    -4.042      9.191     12.061
REMARK INTER + INTRA:          -6.501
REMARK INTER:                  -6.443
REMARK INTRA:                  -0.058
REMARK UNBOUND:                -0.331
REMARK SMILES CC1=CCC[C@@H](C)C(=O)C[C@H](C(C)C)C(=O)C1
REMARK SMILES IDX 8 1 9 2 6 3 7 4 5 5 4 6 3 7 2 8 1 9 10 11 11 12 15 13 16 14
REMARK SMILES IDX 17 15 12 17 13 18 14 19
REMARK H PARENT
REMARK Flexibility Score: 70.00
ROOT
ATOM      1  C   UNL     1      19.537  28.277 -13.126  1.00  0.00     0.136 C 
ATOM      2  O   UNL     1      19.370  27.413 -12.277  1.00  0.00    -0.299 OA
ENDROOT
BRANCH   1   3
ATOM      3  C   UNL     1      18.534  28.437 -14.249  1.00  0.00     0.053 C 
ATOM      4  C   UNL     1      17.710  27.152 -14.380  1.00  0.00     0.016 C 
BRANCH   3   5
ATOM      5  C   UNL     1      19.221  28.771 -15.594  1.00  0.00     0.015 C 
BRANCH   5   6
ATOM      6  C   UNL     1      20.020  27.595 -16.176  1.00  0.00     0.028 C 
BRANCH   6   7
ATOM      7  C   UNL     1      21.134  28.079 -17.073  1.00  0.00    -0.028 C 
ATOM      8  C   UNL     1      22.447  28.113 -16.753  1.00  0.00    -0.070 CG0
ATOM      9  C   UNL     1      23.412  28.641 -17.786  1.00  0.00     0.039 C 
ATOM     10  G   UNL     1      22.990  27.686 -15.403  1.00  0.00     0.000 G0
ENDBRANCH   6   7
ENDBRANCH   5   6
ENDBRANCH   3   5
ENDBRANCH   1   3
BRANCH   1  11
ATOM     11  C   UNL     1      20.726  29.196 -13.009  1.00  0.00     0.087 C 
BRANCH  11  12
ATOM     12  C   UNL     1      22.065  28.415 -13.045  1.00  0.00     0.066 C 
BRANCH  12  13
ATOM     13  C   UNL     1      22.790  28.729 -14.345  1.00  0.00     0.140 C 
ATOM     14  O   UNL     1      23.278  29.839 -14.508  1.00  0.00    -0.299 OA
BRANCH  13  15
ATOM     15  C   UNL     1      23.005  27.674 -15.401  1.00  0.00     0.106 CG0
ATOM     16  G   UNL     1      22.450  28.122 -16.739  1.00  0.00     0.000 G0
ENDBRANCH  13  15
ENDBRANCH  12  13
BRANCH  12  17
ATOM     17  C   UNL     1      22.979  28.743 -11.818  1.00  0.00    -0.006 C 
ATOM     18  C   UNL     1      22.165  28.959 -10.527  1.00  0.00     0.008 C 
ATOM     19  C   UNL     1      24.008  27.623 -11.565  1.00  0.00     0.008 C 
ENDBRANCH  12  17
ENDBRANCH  11  12
ENDBRANCH   1  11
TORSDOF 1
ENDMDL
MODEL 7
REMARK VINA RESULT:    -4.006      1.433      2.030
REMARK INTER + INTRA:          -6.444
REMARK INTER:                  -6.480
REMARK INTRA:                   0.036
REMARK UNBOUND:                -0.331
REMARK SMILES CC1=CCC[C@@H](C)C(=O)C[C@H](C(C)C)C(=O)C1
REMARK SMILES IDX 8 1 9 2 6 3 7 4 5 5 4 6 3 7 2 8 1 9 10 11 11 12 15 13 16 14
REMARK SMILES IDX 17 15 12 17 13 18 14 19
REMARK H PARENT
REMARK Flexibility Score: 70.00
ROOT
ATOM      1  C   UNL     1      33.553  31.620 -15.052  1.00  0.00     0.136 C 
ATOM      2  O   UNL     1      33.893  31.423 -16.210  1.00  0.00    -0.299 OA
ENDROOT
BRANCH   1   3
ATOM      3  C   UNL     1      34.563  31.480 -13.933  1.00  0.00     0.053 C 
ATOM      4  C   UNL     1      35.978  31.518 -14.519  1.00  0.00     0.016 C 
BRANCH   3   5
ATOM      5  C   UNL     1      34.353  30.179 -13.125  1.00  0.00     0.015 C 
BRANCH   5   6
ATOM      6  C   UNL     1      33.678  30.410 -11.765  1.00  0.00     0.028 C 
BRANCH   6   7
ATOM      7  C   UNL     1      32.559  29.423 -11.532  1.00  0.00    -0.028 C 
ATOM      8  C   UNL     1      31.266  29.595 -11.889  1.00  0.00    -0.070 CG0
ATOM      9  C   UNL     1      30.291  28.493 -11.561  1.00  0.00     0.039 C 
ATOM     10  G   UNL     1      30.746  30.851 -12.563  1.00  0.00     0.000 G0
ENDBRANCH   6   7
ENDBRANCH   5   6
ENDBRANCH   3   5
ENDBRANCH   1   3
BRANCH   1  11
ATOM     11  C   UNL     1      32.134  32.041 -14.771  1.00  0.00     0.087 C 
BRANCH  11  12
ATOM     12  C   UNL     1      31.115  30.943 -15.173  1.00  0.00     0.066 C 
BRANCH  12  13
ATOM     13  C   UNL     1      30.263  30.586 -13.965  1.00  0.00     0.140 C 
ATOM     14  O   UNL     1      29.203  29.998 -14.130  1.00  0.00    -0.299 OA
BRANCH  13  15
ATOM     15  C   UNL     1      30.738  30.856 -12.560  1.00  0.00     0.106 CG0
ATOM     16  G   UNL     1      31.263  29.591 -11.909  1.00  0.00     0.000 G0
ENDBRANCH  13  15
ENDBRANCH  12  13
BRANCH  12  17
ATOM     17  C   UNL     1      30.208  31.383 -16.370  1.00  0.00    -0.006 C 
ATOM     18  C   UNL     1      29.736  32.844 -16.236  1.00  0.00     0.008 C 
ATOM     19  C   UNL     1      30.937  31.227 -17.719  1.00  0.00     0.008 C 
ENDBRANCH  12  17
ENDBRANCH  11  12
ENDBRANCH   1  11
TORSDOF 1
ENDMDL
MODEL 8
REMARK VINA RESULT:    -3.999      1.757      3.669
REMARK INTER + INTRA:          -6.435
REMARK INTER:                  -6.384
REMARK INTRA:                  -0.051
REMARK UNBOUND:                -0.331
REMARK SMILES CC1=CCC[C@@H](C)C(=O)C[C@H](C(C)C)C(=O)C1
REMARK SMILES IDX 8 1 9 2 6 3 7 4 5 5 4 6 3 7 2 8 1 9 10 11 11 12 15 13 16 14
REMARK SMILES IDX 17 15 12 17 13 18 14 19
REMARK H PARENT
REMARK Flexibility Score: 70.00
ROOT
ATOM      1  C   UNL     1      32.590  29.377 -11.830  1.00  0.00     0.136 C 
ATOM      2  O   UNL     1      33.565  28.833 -11.330  1.00  0.00    -0.299 OA
ENDROOT
BRANCH   1   3
ATOM      3  C   UNL     1      31.260  28.654 -11.873  1.00  0.00     0.053 C 
ATOM      4  C   UNL     1      31.319  27.547 -12.930  1.00  0.00     0.016 C 
BRANCH   3   5
ATOM      5  C   UNL     1      30.089  29.618 -12.172  1.00  0.00     0.015 C 
BRANCH   5   6
ATOM      6  C   UNL     1      29.432  29.371 -13.538  1.00  0.00     0.028 C 
BRANCH   6   7
ATOM      7  C   UNL     1      29.205  30.666 -14.281  1.00  0.00    -0.028 C 
ATOM      8  C   UNL     1      30.082  31.256 -15.125  1.00  0.00    -0.070 CG0
ATOM      9  C   UNL     1      29.674  32.558 -15.768  1.00  0.00     0.039 C 
ATOM     10  G   UNL     1      31.460  30.698 -15.422  1.00  0.00     0.000 G0
ENDBRANCH   6   7
ENDBRANCH   5   6
ENDBRANCH   3   5
ENDBRANCH   1   3
BRANCH   1  11
ATOM     11  C   UNL     1      32.729  30.782 -12.358  1.00  0.00     0.087 C 
BRANCH  11  12
ATOM     12  C   UNL     1      33.464  30.815 -13.723  1.00  0.00     0.066 C 
BRANCH  12  13
ATOM     13  C   UNL     1      32.561  31.465 -14.759  1.00  0.00     0.140 C 
ATOM     14  O   UNL     1      32.780  32.617 -15.110  1.00  0.00    -0.299 OA
BRANCH  13  15
ATOM     15  C   UNL     1      31.458  30.693 -15.437  1.00  0.00     0.106 CG0
ATOM     16  G   UNL     1      30.098  31.272 -15.096  1.00  0.00     0.000 G0
ENDBRANCH  13  15
ENDBRANCH  12  13
BRANCH  12  17
ATOM     17  C   UNL     1      34.833  31.570 -13.642  1.00  0.00    -0.006 C 
ATOM     18  C   UNL     1      35.435  31.534 -12.224  1.00  0.00     0.008 C 
ATOM     19  C   UNL     1      35.863  30.977 -14.624  1.00  0.00     0.008 C 
ENDBRANCH  12  17
ENDBRANCH  11  12
ENDBRANCH   1  11
TORSDOF 1
ENDMDL
MODEL 9
REMARK VINA RESULT:    -3.716      9.069     11.281
REMARK INTER + INTRA:          -6.002
REMARK INTER:                  -5.795
REMARK INTRA:                  -0.207
REMARK UNBOUND:                -0.331
REMARK SMILES CC1=CCC[C@@H](C)C(=O)C[C@H](C(C)C)C(=O)C1
REMARK SMILES IDX 8 1 9 2 6 3 7 4 5 5 4 6 3 7 2 8 1 9 10 11 11 12 15 13 16 14
REMARK SMILES IDX 17 15 12 17 13 18 14 19
REMARK H PARENT
REMARK Flexibility Score: 70.00
ROOT
ATOM      1  C   UNL     1      21.649  27.925 -15.729  1.00  0.00     0.136 C 
ATOM      2  O   UNL     1      21.202  26.845 -16.089  1.00  0.00    -0.299 OA
ENDROOT
BRANCH   1   3
ATOM      3  C   UNL     1      23.054  28.331 -16.122  1.00  0.00     0.053 C 
ATOM      4  C   UNL     1      23.186  28.291 -17.648  1.00  0.00     0.016 C 
BRANCH   3   5
ATOM      5  C   UNL     1      24.120  27.422 -15.469  1.00  0.00     0.015 C 
BRANCH   5   6
ATOM      6  C   UNL     1      24.111  27.480 -13.934  1.00  0.00     0.028 C 
BRANCH   6   7
ATOM      7  C   UNL     1      24.180  28.905 -13.438  1.00  0.00    -0.028 C 
ATOM      8  C   UNL     1      23.378  29.454 -12.499  1.00  0.00    -0.070 CG0
ATOM      9  C   UNL     1      23.598  30.903 -12.142  1.00  0.00     0.039 C 
ATOM     10  G   UNL     1      22.249  28.702 -11.820  1.00  0.00     0.000 G0
ENDBRANCH   6   7
ENDBRANCH   5   6
ENDBRANCH   3   5
ENDBRANCH   1   3
BRANCH   1  11
ATOM     11  C   UNL     1      20.766  28.850 -14.932  1.00  0.00     0.087 C 
BRANCH  11  12
ATOM     12  C   UNL     1      20.334  28.217 -13.584  1.00  0.00     0.066 C 
BRANCH  12  13
ATOM     13  C   UNL     1      20.907  29.039 -12.440  1.00  0.00     0.140 C 
ATOM     14  O   UNL     1      20.242  29.946 -11.960  1.00  0.00    -0.299 OA
BRANCH  13  15
ATOM     15  C   UNL     1      22.239  28.703 -11.819  1.00  0.00     0.106 CG0
ATOM     16  G   UNL     1      23.367  29.442 -12.513  1.00  0.00     0.000 G0
ENDBRANCH  13  15
ENDBRANCH  12  13
BRANCH  12  17
ATOM     17  C   UNL     1      18.779  28.107 -13.450  1.00  0.00    -0.006 C 
ATOM     18  C   UNL     1      18.101  27.770 -14.793  1.00  0.00     0.008 C 
ATOM     19  C   UNL     1      18.376  27.034 -12.418  1.00  0.00     0.008 C 
ENDBRANCH  12  17
ENDBRANCH  11  12
ENDBRANCH   1  11
TORSDOF 1
ENDMDL
