MODEL 1
REMARK VINA RESULT:    -4.503      0.000      0.000
REMARK INTER + INTRA:          -5.030
REMARK INTER:                  -5.030
REMARK INTRA:                   0.000
REMARK UNBOUND:                 0.000
REMARK SMILES Oc1cc(O)c2c(c1)CCc1cc(O)c(O)cc1-2
REMARK SMILES IDX 10 1 9 2 7 3 6 4 18 5 17 6 15 7 13 8 12 9 11 10 4 11 3 12
REMARK SMILES IDX 2 13 8 14 14 15 5 17 1 19 16 21
REMARK H PARENT 14 16 5 18 1 20 16 22
REMARK Flexibility Score: inf
ROOT
ATOM      1  C   UNL     1     132.888 130.834 110.784  1.00  0.00     0.041 C 
ATOM      2  C   UNL     1     133.286 131.682 109.571  1.00  0.00     0.041 C 
ATOM      3  C   UNL     1     132.081 131.979 108.714  1.00  0.00    -0.032 A 
ATOM      4  C   UNL     1     131.061 131.008 108.563  1.00  0.00     0.027 A 
ATOM      5  C   UNL     1     131.239 129.688 109.249  1.00  0.00    -0.007 A 
ATOM      6  C   UNL     1     130.627 128.506 108.788  1.00  0.00     0.059 A 
ATOM      7  C   UNL     1     130.815 127.290 109.462  1.00  0.00     0.158 A 
ATOM      8  C   UNL     1     131.644 127.240 110.594  1.00  0.00     0.157 A 
ATOM      9  C   UNL     1     132.302 128.393 111.023  1.00  0.00     0.054 A 
ATOM     10  C   UNL     1     132.133 129.606 110.341  1.00  0.00    -0.036 A 
ATOM     11  C   UNL     1     129.895 131.354 107.836  1.00  0.00     0.127 A 
ATOM     12  C   UNL     1     129.823 132.589 107.176  1.00  0.00     0.093 A 
ATOM     13  C   UNL     1     130.872 133.509 107.267  1.00  0.00     0.119 A 
ATOM     14  C   UNL     1     131.993 133.206 108.041  1.00  0.00     0.050 A 
ENDROOT
BRANCH   8  15
ATOM     15  O   UNL     1     131.835 126.049 111.294  1.00  0.00    -0.504 OA
ATOM     16  H   UNL     1     131.385 125.869 112.184  1.00  0.00     0.293 HD
ENDBRANCH   8  15
BRANCH  11  17
ATOM     17  O   UNL     1     128.791 130.503 107.798  1.00  0.00    -0.507 OA
ATOM     18  H   UNL     1     128.179 130.458 106.991  1.00  0.00     0.293 HD
ENDBRANCH  11  17
BRANCH  13  19
ATOM     19  O   UNL     1     130.804 134.732 106.605  1.00  0.00    -0.508 OA
ATOM     20  H   UNL     1     130.414 134.810 105.674  1.00  0.00     0.293 HD
ENDBRANCH  13  19
BRANCH   7  21
ATOM     21  O   UNL     1     130.187 126.132 109.006  1.00  0.00    -0.504 OA
ATOM     22  H   UNL     1     129.178 126.049 108.981  1.00  0.00     0.293 HD
ENDBRANCH   7  21
TORSDOF 4
ENDMDL
MODEL 2
REMARK VINA RESULT:    -4.471     11.462     13.197
REMARK INTER + INTRA:          -4.994
REMARK INTER:                  -4.994
REMARK INTRA:                   0.000
REMARK UNBOUND:                 0.000
REMARK SMILES Oc1cc(O)c2c(c1)CCc1cc(O)c(O)cc1-2
REMARK SMILES IDX 10 1 9 2 7 3 6 4 18 5 17 6 15 7 13 8 12 9 11 10 4 11 3 12
REMARK SMILES IDX 2 13 8 14 14 15 5 17 1 19 16 21
REMARK H PARENT 14 16 5 18 1 20 16 22
REMARK Flexibility Score: inf
ROOT
ATOM      1  C   UNL     1     130.878 115.972 110.741  1.00  0.00     0.041 C 
ATOM      2  C   UNL     1     131.721 115.593 109.518  1.00  0.00     0.041 C 
ATOM      3  C   UNL     1     132.017 116.814 108.681  1.00  0.00    -0.032 A 
ATOM      4  C   UNL     1     131.047 117.838 108.552  1.00  0.00     0.027 A 
ATOM      5  C   UNL     1     129.729 117.650 109.240  1.00  0.00    -0.007 A 
ATOM      6  C   UNL     1     128.546 118.271 108.796  1.00  0.00     0.059 A 
ATOM      7  C   UNL     1     127.333 118.074 109.471  1.00  0.00     0.158 A 
ATOM      8  C   UNL     1     127.286 117.225 110.588  1.00  0.00     0.157 A 
ATOM      9  C   UNL     1     128.440 116.557 111.001  1.00  0.00     0.054 A 
ATOM     10  C   UNL     1     129.650 116.736 110.317  1.00  0.00    -0.036 A 
ATOM     11  C   UNL     1     131.392 119.016 107.845  1.00  0.00     0.127 A 
ATOM     12  C   UNL     1     132.625 119.097 107.182  1.00  0.00     0.093 A 
ATOM     13  C   UNL     1     133.543 118.045 107.250  1.00  0.00     0.119 A 
ATOM     14  C   UNL     1     133.241 116.911 108.005  1.00  0.00     0.050 A 
ENDROOT
BRANCH   8  15
ATOM     15  O   UNL     1     126.097 117.023 111.290  1.00  0.00    -0.504 OA
ATOM     16  H   UNL     1     125.246 117.525 111.064  1.00  0.00     0.293 HD
ENDBRANCH   8  15
BRANCH  11  17
ATOM     17  O   UNL     1     130.543 120.121 107.830  1.00  0.00    -0.507 OA
ATOM     18  H   UNL     1     130.633 120.855 107.136  1.00  0.00     0.293 HD
ENDBRANCH  11  17
BRANCH  13  19
ATOM     19  O   UNL     1     134.764 118.123 106.585  1.00  0.00    -0.508 OA
ATOM     20  H   UNL     1     135.644 118.061 107.082  1.00  0.00     0.293 HD
ENDBRANCH  13  19
BRANCH   7  21
ATOM     21  O   UNL     1     126.175 118.712 109.031  1.00  0.00    -0.504 OA
ATOM     22  H   UNL     1     125.438 118.979 109.673  1.00  0.00     0.293 HD
ENDBRANCH   7  21
TORSDOF 4
ENDMDL
MODEL 3
REMARK VINA RESULT:    -4.329      6.390      9.249
REMARK INTER + INTRA:          -4.835
REMARK INTER:                  -4.835
REMARK INTRA:                   0.000
REMARK UNBOUND:                 0.000
REMARK SMILES Oc1cc(O)c2c(c1)CCc1cc(O)c(O)cc1-2
REMARK SMILES IDX 10 1 9 2 7 3 6 4 18 5 17 6 15 7 13 8 12 9 11 10 4 11 3 12
REMARK SMILES IDX 2 13 8 14 14 15 5 17 1 19 16 21
REMARK H PARENT 14 16 5 18 1 20 16 22
REMARK Flexibility Score: inf
ROOT
ATOM      1  C   UNL     1     127.524 125.145 108.837  1.00  0.00     0.041 C 
ATOM      2  C   UNL     1     126.765 123.854 109.162  1.00  0.00     0.041 C 
ATOM      3  C   UNL     1     125.626 123.651 108.192  1.00  0.00    -0.032 A 
ATOM      4  C   UNL     1     124.901 124.767 107.706  1.00  0.00     0.027 A 
ATOM      5  C   UNL     1     125.281 126.126 108.209  1.00  0.00    -0.007 A 
ATOM      6  C   UNL     1     124.373 127.202 108.244  1.00  0.00     0.059 A 
ATOM      7  C   UNL     1     124.770 128.462 108.717  1.00  0.00     0.158 A 
ATOM      8  C   UNL     1     126.079 128.650 109.188  1.00  0.00     0.157 A 
ATOM      9  C   UNL     1     126.969 127.576 109.212  1.00  0.00     0.054 A 
ATOM     10  C   UNL     1     126.570 126.310 108.759  1.00  0.00    -0.036 A 
ATOM     11  C   UNL     1     123.906 124.553 106.720  1.00  0.00     0.127 A 
ATOM     12  C   UNL     1     123.568 123.247 106.339  1.00  0.00     0.093 A 
ATOM     13  C   UNL     1     124.238 122.149 106.886  1.00  0.00     0.119 A 
ATOM     14  C   UNL     1     125.269 122.352 107.803  1.00  0.00     0.050 A 
ENDROOT
BRANCH   8  15
ATOM     15  O   UNL     1     126.507 129.896 109.647  1.00  0.00    -0.504 OA
ATOM     16  H   UNL     1     127.261 130.405 109.202  1.00  0.00     0.293 HD
ENDBRANCH   8  15
BRANCH  11  17
ATOM     17  O   UNL     1     123.281 125.625 106.085  1.00  0.00    -0.507 OA
ATOM     18  H   UNL     1     122.461 125.497 105.502  1.00  0.00     0.293 HD
ENDBRANCH  11  17
BRANCH  13  19
ATOM     19  O   UNL     1     123.897 120.851 106.513  1.00  0.00    -0.508 OA
ATOM     20  H   UNL     1     122.997 120.637 106.098  1.00  0.00     0.293 HD
ENDBRANCH  13  19
BRANCH   7  21
ATOM     21  O   UNL     1     123.866 129.523 108.728  1.00  0.00    -0.504 OA
ATOM     22  H   UNL     1     123.174 129.625 109.461  1.00  0.00     0.293 HD
ENDBRANCH   7  21
TORSDOF 4
ENDMDL
MODEL 4
REMARK VINA RESULT:    -4.305      8.063     10.194
REMARK INTER + INTRA:          -4.809
REMARK INTER:                  -4.809
REMARK INTRA:                   0.000
REMARK UNBOUND:                 0.000
REMARK SMILES Oc1cc(O)c2c(c1)CCc1cc(O)c(O)cc1-2
REMARK SMILES IDX 10 1 9 2 7 3 6 4 18 5 17 6 15 7 13 8 12 9 11 10 4 11 3 12
REMARK SMILES IDX 2 13 8 14 14 15 5 17 1 19 16 21
REMARK H PARENT 14 16 5 18 1 20 16 22
REMARK Flexibility Score: inf
ROOT
ATOM      1  C   UNL     1     123.912 127.434 109.075  1.00  0.00     0.041 C 
ATOM      2  C   UNL     1     125.199 126.648 109.351  1.00  0.00     0.041 C 
ATOM      3  C   UNL     1     125.391 125.567 108.316  1.00  0.00    -0.032 A 
ATOM      4  C   UNL     1     124.270 124.879 107.791  1.00  0.00     0.027 A 
ATOM      5  C   UNL     1     122.914 125.238 108.319  1.00  0.00    -0.007 A 
ATOM      6  C   UNL     1     121.832 124.336 108.305  1.00  0.00     0.059 A 
ATOM      7  C   UNL     1     120.577 124.713 108.804  1.00  0.00     0.158 A 
ATOM      8  C   UNL     1     120.398 125.993 109.351  1.00  0.00     0.157 A 
ATOM      9  C   UNL     1     121.479 126.873 109.424  1.00  0.00     0.054 A 
ATOM     10  C   UNL     1     122.740 126.494 108.945  1.00  0.00    -0.036 A 
ATOM     11  C   UNL     1     124.474 123.942 106.748  1.00  0.00     0.127 A 
ATOM     12  C   UNL     1     125.777 123.619 106.344  1.00  0.00     0.093 A 
ATOM     13  C   UNL     1     126.881 124.248 106.925  1.00  0.00     0.119 A 
ATOM     14  C   UNL     1     126.687 125.224 107.902  1.00  0.00     0.050 A 
ENDROOT
BRANCH   8  15
ATOM     15  O   UNL     1     119.156 126.401 109.839  1.00  0.00    -0.504 OA
ATOM     16  H   UNL     1     118.684 127.225 109.487  1.00  0.00     0.293 HD
ENDBRANCH   8  15
BRANCH  11  17
ATOM     17  O   UNL     1     123.396 123.363 106.080  1.00  0.00    -0.507 OA
ATOM     18  H   UNL     1     122.775 122.706 106.539  1.00  0.00     0.293 HD
ENDBRANCH  11  17
BRANCH  13  19
ATOM     19  O   UNL     1     128.176 123.921 106.529  1.00  0.00    -0.508 OA
ATOM     20  H   UNL     1     128.403 123.737 105.559  1.00  0.00     0.293 HD
ENDBRANCH  13  19
BRANCH   7  21
ATOM     21  O   UNL     1     119.510 123.817 108.765  1.00  0.00    -0.504 OA
ATOM     22  H   UNL     1     118.778 123.891 108.068  1.00  0.00     0.293 HD
ENDBRANCH   7  21
TORSDOF 4
ENDMDL
MODEL 5
REMARK VINA RESULT:    -4.294      7.062      9.417
REMARK INTER + INTRA:          -4.796
REMARK INTER:                  -4.796
REMARK INTRA:                   0.000
REMARK UNBOUND:                 0.000
REMARK SMILES Oc1cc(O)c2c(c1)CCc1cc(O)c(O)cc1-2
REMARK SMILES IDX 10 1 9 2 7 3 6 4 18 5 17 6 15 7 13 8 12 9 11 10 4 11 3 12
REMARK SMILES IDX 2 13 8 14 14 15 5 17 1 19 16 21
REMARK H PARENT 14 16 5 18 1 20 16 22
REMARK Flexibility Score: inf
ROOT
ATOM      1  C   UNL     1     125.129 121.552 109.082  1.00  0.00     0.041 C 
ATOM      2  C   UNL     1     123.838 122.333 109.354  1.00  0.00     0.041 C 
ATOM      3  C   UNL     1     123.638 123.405 108.310  1.00  0.00    -0.032 A 
ATOM      4  C   UNL     1     124.755 124.095 107.778  1.00  0.00     0.027 A 
ATOM      5  C   UNL     1     126.114 123.747 108.306  1.00  0.00    -0.007 A 
ATOM      6  C   UNL     1     127.191 124.654 108.282  1.00  0.00     0.059 A 
ATOM      7  C   UNL     1     128.449 124.288 108.782  1.00  0.00     0.158 A 
ATOM      8  C   UNL     1     128.636 123.014 109.339  1.00  0.00     0.157 A 
ATOM      9  C   UNL     1     127.560 122.129 109.422  1.00  0.00     0.054 A 
ATOM     10  C   UNL     1     126.295 122.497 108.942  1.00  0.00    -0.036 A 
ATOM     11  C   UNL     1     124.544 125.022 106.727  1.00  0.00     0.127 A 
ATOM     12  C   UNL     1     123.239 125.335 106.323  1.00  0.00     0.093 A 
ATOM     13  C   UNL     1     122.139 124.705 106.913  1.00  0.00     0.119 A 
ATOM     14  C   UNL     1     122.340 123.738 107.897  1.00  0.00     0.050 A 
ENDROOT
BRANCH   8  15
ATOM     15  O   UNL     1     129.880 122.616 109.828  1.00  0.00    -0.504 OA
ATOM     16  H   UNL     1     129.977 121.894 110.532  1.00  0.00     0.293 HD
ENDBRANCH   8  15
BRANCH  11  17
ATOM     17  O   UNL     1     125.618 125.601 106.053  1.00  0.00    -0.507 OA
ATOM     18  H   UNL     1     126.138 125.097 105.344  1.00  0.00     0.293 HD
ENDBRANCH  11  17
BRANCH  13  19
ATOM     19  O   UNL     1     120.842 125.022 106.516  1.00  0.00    -0.508 OA
ATOM     20  H   UNL     1     120.331 125.789 106.938  1.00  0.00     0.293 HD
ENDBRANCH  13  19
BRANCH   7  21
ATOM     21  O   UNL     1     129.512 125.190 108.733  1.00  0.00    -0.504 OA
ATOM     22  H   UNL     1     130.470 124.878 108.637  1.00  0.00     0.293 HD
ENDBRANCH   7  21
TORSDOF 4
ENDMDL
MODEL 6
REMARK VINA RESULT:    -4.294      8.291     10.332
REMARK INTER + INTRA:          -4.796
REMARK INTER:                  -4.796
REMARK INTRA:                   0.000
REMARK UNBOUND:                 0.000
REMARK SMILES Oc1cc(O)c2c(c1)CCc1cc(O)c(O)cc1-2
REMARK SMILES IDX 10 1 9 2 7 3 6 4 18 5 17 6 15 7 13 8 12 9 11 10 4 11 3 12
REMARK SMILES IDX 2 13 8 14 14 15 5 17 1 19 16 21
REMARK H PARENT 14 16 5 18 1 20 16 22
REMARK Flexibility Score: inf
ROOT
ATOM      1  C   UNL     1     121.612 123.784 109.107  1.00  0.00     0.041 C 
ATOM      2  C   UNL     1     122.370 125.090 109.370  1.00  0.00     0.041 C 
ATOM      3  C   UNL     1     123.443 125.298 108.329  1.00  0.00    -0.032 A 
ATOM      4  C   UNL     1     124.154 124.187 107.812  1.00  0.00     0.027 A 
ATOM      5  C   UNL     1     123.827 122.828 108.352  1.00  0.00    -0.007 A 
ATOM      6  C   UNL     1     124.752 121.766 108.344  1.00  0.00     0.059 A 
ATOM      7  C   UNL     1     124.404 120.507 108.855  1.00  0.00     0.158 A 
ATOM      8  C   UNL     1     123.130 120.305 109.408  1.00  0.00     0.157 A 
ATOM      9  C   UNL     1     122.227 121.367 109.475  1.00  0.00     0.054 A 
ATOM     10  C   UNL     1     122.577 122.632 108.984  1.00  0.00    -0.036 A 
ATOM     11  C   UNL     1     125.083 124.403 106.764  1.00  0.00     0.127 A 
ATOM     12  C   UNL     1     125.376 125.710 106.348  1.00  0.00     0.093 A 
ATOM     13  C   UNL     1     124.725 126.804 106.923  1.00  0.00     0.119 A 
ATOM     14  C   UNL     1     123.756 126.597 107.904  1.00  0.00     0.050 A 
ENDROOT
BRANCH   8  15
ATOM     15  O   UNL     1     122.751 119.059 109.907  1.00  0.00    -0.504 OA
ATOM     16  H   UNL     1     123.384 118.268 109.921  1.00  0.00     0.293 HD
ENDBRANCH   8  15
BRANCH  11  17
ATOM     17  O   UNL     1     125.684 123.333 106.103  1.00  0.00    -0.507 OA
ATOM     18  H   UNL     1     126.672 123.331 105.878  1.00  0.00     0.293 HD
ENDBRANCH  11  17
BRANCH  13  19
ATOM     19  O   UNL     1     125.023 128.102 106.515  1.00  0.00    -0.508 OA
ATOM     20  H   UNL     1     124.451 128.589 105.834  1.00  0.00     0.293 HD
ENDBRANCH  13  19
BRANCH   7  21
ATOM     21  O   UNL     1     125.324 119.460 108.821  1.00  0.00    -0.504 OA
ATOM     22  H   UNL     1     125.226 118.686 108.175  1.00  0.00     0.293 HD
ENDBRANCH   7  21
TORSDOF 4
ENDMDL
MODEL 7
REMARK VINA RESULT:    -4.265     11.305     13.160
REMARK INTER + INTRA:          -4.763
REMARK INTER:                  -4.763
REMARK INTRA:                   0.000
REMARK UNBOUND:                 0.000
REMARK SMILES Oc1cc(O)c2c(c1)CCc1cc(O)c(O)cc1-2
REMARK SMILES IDX 10 1 9 2 7 3 6 4 18 5 17 6 15 7 13 8 12 9 11 10 4 11 3 12
REMARK SMILES IDX 2 13 8 14 14 15 5 17 1 19 16 21
REMARK H PARENT 14 16 5 18 1 20 16 22
REMARK Flexibility Score: inf
ROOT
ATOM      1  C   UNL     1     133.422 116.210 110.334  1.00  0.00     0.041 C 
ATOM      2  C   UNL     1     134.057 116.196 108.938  1.00  0.00     0.041 C 
ATOM      3  C   UNL     1     133.585 117.380 108.130  1.00  0.00    -0.032 A 
ATOM      4  C   UNL     1     132.258 117.853 108.272  1.00  0.00     0.027 A 
ATOM      5  C   UNL     1     131.348 117.125 109.214  1.00  0.00    -0.007 A 
ATOM      6  C   UNL     1     129.947 117.129 109.070  1.00  0.00     0.059 A 
ATOM      7  C   UNL     1     129.130 116.438 109.977  1.00  0.00     0.158 A 
ATOM      8  C   UNL     1     129.712 115.710 111.027  1.00  0.00     0.157 A 
ATOM      9  C   UNL     1     131.101 115.651 111.143  1.00  0.00     0.054 A 
ATOM     10  C   UNL     1     131.922 116.323 110.227  1.00  0.00    -0.036 A 
ATOM     11  C   UNL     1     131.877 119.028 107.577  1.00  0.00     0.127 A 
ATOM     12  C   UNL     1     132.766 119.624 106.671  1.00  0.00     0.093 A 
ATOM     13  C   UNL     1     134.047 119.100 106.480  1.00  0.00     0.119 A 
ATOM     14  C   UNL     1     134.457 117.986 107.214  1.00  0.00     0.050 A 
ENDROOT
BRANCH   8  15
ATOM     15  O   UNL     1     128.923 115.028 111.954  1.00  0.00    -0.504 OA
ATOM     16  H   UNL     1     129.305 114.319 112.568  1.00  0.00     0.293 HD
ENDBRANCH   8  15
BRANCH  11  17
ATOM     17  O   UNL     1     130.643 119.633 107.810  1.00  0.00    -0.507 OA
ATOM     18  H   UNL     1     130.162 119.541 108.697  1.00  0.00     0.293 HD
ENDBRANCH  11  17
BRANCH  13  19
ATOM     19  O   UNL     1     134.927 119.687 105.574  1.00  0.00    -0.508 OA
ATOM     20  H   UNL     1     135.283 120.625 105.713  1.00  0.00     0.293 HD
ENDBRANCH  13  19
BRANCH   7  21
ATOM     21  O   UNL     1     127.744 116.468 109.834  1.00  0.00    -0.504 OA
ATOM     22  H   UNL     1     127.256 115.809 109.239  1.00  0.00     0.293 HD
ENDBRANCH   7  21
TORSDOF 4
ENDMDL
MODEL 8
REMARK VINA RESULT:    -4.143      2.049      3.339
REMARK INTER + INTRA:          -4.627
REMARK INTER:                  -4.627
REMARK INTRA:                   0.000
REMARK UNBOUND:                 0.000
REMARK SMILES Oc1cc(O)c2c(c1)CCc1cc(O)c(O)cc1-2
REMARK SMILES IDX 10 1 9 2 7 3 6 4 18 5 17 6 15 7 13 8 12 9 11 10 4 11 3 12
REMARK SMILES IDX 2 13 8 14 14 15 5 17 1 19 16 21
REMARK H PARENT 14 16 5 18 1 20 16 22
REMARK Flexibility Score: inf
ROOT
ATOM      1  C   UNL     1     130.075 129.401 108.752  1.00  0.00     0.041 C 
ATOM      2  C   UNL     1     129.132 130.564 108.422  1.00  0.00     0.041 C 
ATOM      3  C   UNL     1     129.921 131.788 108.023  1.00  0.00    -0.032 A 
ATOM      4  C   UNL     1     131.160 132.069 108.649  1.00  0.00     0.027 A 
ATOM      5  C   UNL     1     131.632 131.139 109.725  1.00  0.00    -0.007 A 
ATOM      6  C   UNL     1     132.507 131.547 110.750  1.00  0.00     0.059 A 
ATOM      7  C   UNL     1     132.930 130.644 111.736  1.00  0.00     0.158 A 
ATOM      8  C   UNL     1     132.456 129.323 111.723  1.00  0.00     0.157 A 
ATOM      9  C   UNL     1     131.542 128.924 110.746  1.00  0.00     0.054 A 
ATOM     10  C   UNL     1     131.101 129.829 109.771  1.00  0.00    -0.036 A 
ATOM     11  C   UNL     1     131.924 133.167 108.182  1.00  0.00     0.127 A 
ATOM     12  C   UNL     1     131.392 134.025 107.208  1.00  0.00     0.093 A 
ATOM     13  C   UNL     1     130.132 133.782 106.655  1.00  0.00     0.119 A 
ATOM     14  C   UNL     1     129.403 132.662 107.056  1.00  0.00     0.050 A 
ENDROOT
BRANCH   8  15
ATOM     15  O   UNL     1     132.873 128.398 112.680  1.00  0.00    -0.504 OA
ATOM     16  H   UNL     1     133.524 127.653 112.462  1.00  0.00     0.293 HD
ENDBRANCH   8  15
BRANCH  11  17
ATOM     17  O   UNL     1     133.221 133.389 108.642  1.00  0.00    -0.507 OA
ATOM     18  H   UNL     1     133.406 133.950 109.466  1.00  0.00     0.293 HD
ENDBRANCH  11  17
BRANCH  13  19
ATOM     19  O   UNL     1     129.601 134.638 105.694  1.00  0.00    -0.508 OA
ATOM     20  H   UNL     1     128.887 135.318 105.926  1.00  0.00     0.293 HD
ENDBRANCH  13  19
BRANCH   7  21
ATOM     21  O   UNL     1     133.813 131.058 112.732  1.00  0.00    -0.504 OA
ATOM     22  H   UNL     1     134.568 131.705 112.539  1.00  0.00     0.293 HD
ENDBRANCH   7  21
TORSDOF 4
ENDMDL
MODEL 9
REMARK VINA RESULT:    -4.140     11.337     13.198
REMARK INTER + INTRA:          -4.624
REMARK INTER:                  -4.624
REMARK INTRA:                   0.000
REMARK UNBOUND:                 0.000
REMARK SMILES Oc1cc(O)c2c(c1)CCc1cc(O)c(O)cc1-2
REMARK SMILES IDX 10 1 9 2 7 3 6 4 18 5 17 6 15 7 13 8 12 9 11 10 4 11 3 12
REMARK SMILES IDX 2 13 8 14 14 15 5 17 1 19 16 21
REMARK H PARENT 14 16 5 18 1 20 16 22
REMARK Flexibility Score: inf
ROOT
ATOM      1  C   UNL     1     129.337 118.720 108.759  1.00  0.00     0.041 C 
ATOM      2  C   UNL     1     130.469 119.701 108.435  1.00  0.00     0.041 C 
ATOM      3  C   UNL     1     131.722 118.954 108.045  1.00  0.00    -0.032 A 
ATOM      4  C   UNL     1     132.041 117.727 108.676  1.00  0.00     0.027 A 
ATOM      5  C   UNL     1     131.121 117.226 109.747  1.00  0.00    -0.007 A 
ATOM      6  C   UNL     1     131.553 116.367 110.776  1.00  0.00     0.059 A 
ATOM      7  C   UNL     1     130.659 115.916 111.758  1.00  0.00     0.158 A 
ATOM      8  C   UNL     1     129.322 116.344 111.735  1.00  0.00     0.157 A 
ATOM      9  C   UNL     1     128.898 117.242 110.754  1.00  0.00     0.054 A 
ATOM     10  C   UNL     1     129.794 117.711 109.783  1.00  0.00    -0.036 A 
ATOM     11  C   UNL     1     133.168 117.000 108.217  1.00  0.00     0.127 A 
ATOM     12  C   UNL     1     134.013 117.559 107.248  1.00  0.00     0.093 A 
ATOM     13  C   UNL     1     133.730 118.809 106.690  1.00  0.00     0.119 A 
ATOM     14  C   UNL     1     132.583 119.499 107.082  1.00  0.00     0.050 A 
ENDROOT
BRANCH   8  15
ATOM     15  O   UNL     1     128.406 115.898 112.688  1.00  0.00    -0.504 OA
ATOM     16  H   UNL     1     128.502 116.119 113.672  1.00  0.00     0.293 HD
ENDBRANCH   8  15
BRANCH  11  17
ATOM     17  O   UNL     1     133.431 115.713 108.682  1.00  0.00    -0.507 OA
ATOM     18  H   UNL     1     133.625 114.945 108.049  1.00  0.00     0.293 HD
ENDBRANCH  11  17
BRANCH  13  19
ATOM     19  O   UNL     1     134.574 119.367 105.733  1.00  0.00    -0.508 OA
ATOM     20  H   UNL     1     134.668 118.963 104.808  1.00  0.00     0.293 HD
ENDBRANCH  13  19
BRANCH   7  21
ATOM     21  O   UNL     1     131.096 115.050 112.759  1.00  0.00    -0.504 OA
ATOM     22  H   UNL     1     130.775 114.090 112.810  1.00  0.00     0.293 HD
ENDBRANCH   7  21
TORSDOF 4
ENDMDL
