MODEL 1
REMARK VINA RESULT:    -5.787      0.000      0.000
REMARK INTER + INTRA:          -5.787
REMARK INTER:                  -5.787
REMARK INTRA:                   0.000
REMARK UNBOUND:                 0.000
REMARK SMILES CC(C)=C1CC[C@@H](C)CC1=O
REMARK SMILES IDX 8 1 7 2 6 3 5 4 4 5 2 6 1 7 3 8 10 9 11 10 9 11
REMARK H PARENT
REMARK Flexibility Score: inf
ROOT
ATOM      1  C   UNL     1     -12.519 -20.690  31.630  1.00  0.00     0.008 C 
ATOM      2  C   UNL     1     -13.156 -19.599  30.762  1.00  0.00    -0.006 C 
ATOM      3  C   UNL     1     -12.792 -19.805  29.283  1.00  0.00     0.008 C 
ATOM      4  C   UNL     1     -13.505 -18.783  28.386  1.00  0.00     0.039 C 
ATOM      5  C   UNL     1     -13.286 -17.348  28.849  1.00  0.00    -0.006 C 
ATOM      6  C   UNL     1     -13.242 -16.315  27.957  1.00  0.00    -0.070 C 
ATOM      7  C   UNL     1     -13.425 -16.549  26.475  1.00  0.00     0.039 C 
ATOM      8  C   UNL     1     -12.968 -14.895  28.399  1.00  0.00     0.039 C 
ATOM      9  C   UNL     1     -13.243 -17.135  30.326  1.00  0.00     0.159 C 
ATOM     10  O   UNL     1     -13.661 -16.066  30.846  1.00  0.00    -0.295 OA
ATOM     11  C   UNL     1     -12.701 -18.208  31.225  1.00  0.00     0.084 C 
ENDROOT
TORSDOF 0
ENDMDL
MODEL 2
REMARK VINA RESULT:    -5.670      2.495      4.075
REMARK INTER + INTRA:          -5.670
REMARK INTER:                  -5.670
REMARK INTRA:                   0.000
REMARK UNBOUND:                 0.000
REMARK SMILES CC(C)=C1CC[C@@H](C)CC1=O
REMARK SMILES IDX 8 1 7 2 6 3 5 4 4 5 2 6 1 7 3 8 10 9 11 10 9 11
REMARK H PARENT
REMARK Flexibility Score: inf
ROOT
ATOM      1  C   UNL     1     -11.369 -17.421  25.961  1.00  0.00     0.008 C 
ATOM      2  C   UNL     1     -11.522 -16.653  27.278  1.00  0.00    -0.006 C 
ATOM      3  C   UNL     1     -11.029 -17.502  28.460  1.00  0.00     0.008 C 
ATOM      4  C   UNL     1     -11.079 -16.711  29.774  1.00  0.00     0.039 C 
ATOM      5  C   UNL     1     -12.445 -16.089  30.030  1.00  0.00    -0.006 C 
ATOM      6  C   UNL     1     -12.922 -15.921  31.298  1.00  0.00    -0.070 C 
ATOM      7  C   UNL     1     -12.106 -16.330  32.503  1.00  0.00     0.039 C 
ATOM      8  C   UNL     1     -14.300 -15.358  31.562  1.00  0.00     0.039 C 
ATOM      9  C   UNL     1     -13.166 -15.575  28.828  1.00  0.00     0.159 C 
ATOM     10  O   UNL     1     -13.929 -14.574  28.900  1.00  0.00    -0.295 OA
ATOM     11  C   UNL     1     -12.986 -16.247  27.498  1.00  0.00     0.084 C 
ENDROOT
TORSDOF 0
ENDMDL
MODEL 3
REMARK VINA RESULT:    -5.666      1.834      4.045
REMARK INTER + INTRA:          -5.666
REMARK INTER:                  -5.666
REMARK INTRA:                   0.000
REMARK UNBOUND:                 0.000
REMARK SMILES CC(C)=C1CC[C@@H](C)CC1=O
REMARK SMILES IDX 8 1 7 2 6 3 5 4 4 5 2 6 1 7 3 8 10 9 11 10 9 11
REMARK H PARENT
REMARK Flexibility Score: inf
ROOT
ATOM      1  C   UNL     1     -11.338 -17.336  25.996  1.00  0.00     0.008 C 
ATOM      2  C   UNL     1     -12.324 -17.225  27.163  1.00  0.00    -0.006 C 
ATOM      3  C   UNL     1     -12.220 -15.843  27.829  1.00  0.00     0.008 C 
ATOM      4  C   UNL     1     -13.272 -15.676  28.934  1.00  0.00     0.039 C 
ATOM      5  C   UNL     1     -13.243 -16.816  29.944  1.00  0.00    -0.006 C 
ATOM      6  C   UNL     1     -13.568 -16.611  31.255  1.00  0.00    -0.070 C 
ATOM      7  C   UNL     1     -13.984 -15.247  31.755  1.00  0.00     0.039 C 
ATOM      8  C   UNL     1     -13.488 -17.722  32.277  1.00  0.00     0.039 C 
ATOM      9  C   UNL     1     -12.958 -18.174  29.392  1.00  0.00     0.159 C 
ATOM     10  O   UNL     1     -13.463 -19.209  29.904  1.00  0.00    -0.295 OA
ATOM     11  C   UNL     1     -12.061 -18.327  28.199  1.00  0.00     0.084 C 
ENDROOT
TORSDOF 0
ENDMDL
MODEL 4
REMARK VINA RESULT:    -5.605      2.062      3.655
REMARK INTER + INTRA:          -5.605
REMARK INTER:                  -5.605
REMARK INTRA:                   0.000
REMARK UNBOUND:                 0.000
REMARK SMILES CC(C)=C1CC[C@@H](C)CC1=O
REMARK SMILES IDX 8 1 7 2 6 3 5 4 4 5 2 6 1 7 3 8 10 9 11 10 9 11
REMARK H PARENT
REMARK Flexibility Score: inf
ROOT
ATOM      1  C   UNL     1     -14.648 -14.754  33.125  1.00  0.00     0.008 C 
ATOM      2  C   UNL     1     -13.740 -15.565  32.195  1.00  0.00    -0.006 C 
ATOM      3  C   UNL     1     -13.989 -15.181  30.727  1.00  0.00     0.008 C 
ATOM      4  C   UNL     1     -13.017 -15.908  29.789  1.00  0.00     0.039 C 
ATOM      5  C   UNL     1     -13.013 -17.416  30.006  1.00  0.00    -0.006 C 
ATOM      6  C   UNL     1     -12.780 -18.281  28.976  1.00  0.00    -0.070 C 
ATOM      7  C   UNL     1     -12.499 -17.778  27.578  1.00  0.00     0.039 C 
ATOM      8  C   UNL     1     -12.831 -19.780  29.169  1.00  0.00     0.039 C 
ATOM      9  C   UNL     1     -13.161 -17.874  31.420  1.00  0.00     0.159 C 
ATOM     10  O   UNL     1     -12.607 -18.931  31.827  1.00  0.00    -0.295 OA
ATOM     11  C   UNL     1     -13.976 -17.070  32.390  1.00  0.00     0.084 C 
ENDROOT
TORSDOF 0
ENDMDL
MODEL 5
REMARK VINA RESULT:    -5.496      2.476      4.171
REMARK INTER + INTRA:          -5.496
REMARK INTER:                  -5.496
REMARK INTRA:                   0.000
REMARK UNBOUND:                 0.000
REMARK SMILES CC(C)=C1CC[C@@H](C)CC1=O
REMARK SMILES IDX 8 1 7 2 6 3 5 4 4 5 2 6 1 7 3 8 10 9 11 10 9 11
REMARK H PARENT
REMARK Flexibility Score: inf
ROOT
ATOM      1  C   UNL     1     -11.369 -17.339  26.002  1.00  0.00     0.008 C 
ATOM      2  C   UNL     1     -11.723 -17.540  27.479  1.00  0.00    -0.006 C 
ATOM      3  C   UNL     1     -12.798 -16.533  27.919  1.00  0.00     0.008 C 
ATOM      4  C   UNL     1     -13.239 -16.787  29.367  1.00  0.00     0.039 C 
ATOM      5  C   UNL     1     -12.064 -16.847  30.334  1.00  0.00    -0.006 C 
ATOM      6  C   UNL     1     -12.187 -16.431  31.628  1.00  0.00    -0.070 C 
ATOM      7  C   UNL     1     -13.502 -15.908  32.161  1.00  0.00     0.039 C 
ATOM      8  C   UNL     1     -11.013 -16.433  32.580  1.00  0.00     0.039 C 
ATOM      9  C   UNL     1     -10.821 -17.492  29.814  1.00  0.00     0.159 C 
ATOM     10  O   UNL     1     -10.049 -18.134  30.576  1.00  0.00    -0.295 OA
ATOM     11  C   UNL     1     -10.472 -17.390  28.358  1.00  0.00     0.084 C 
ENDROOT
TORSDOF 0
ENDMDL
MODEL 6
REMARK VINA RESULT:    -5.450      1.573      2.424
REMARK INTER + INTRA:          -5.450
REMARK INTER:                  -5.450
REMARK INTRA:                   0.000
REMARK UNBOUND:                 0.000
REMARK SMILES CC(C)=C1CC[C@@H](C)CC1=O
REMARK SMILES IDX 8 1 7 2 6 3 5 4 4 5 2 6 1 7 3 8 10 9 11 10 9 11
REMARK H PARENT
REMARK Flexibility Score: inf
ROOT
ATOM      1  C   UNL     1     -12.431 -20.030  31.732  1.00  0.00     0.008 C 
ATOM      2  C   UNL     1     -12.254 -18.840  30.784  1.00  0.00    -0.006 C 
ATOM      3  C   UNL     1     -13.176 -17.680  31.194  1.00  0.00     0.008 C 
ATOM      4  C   UNL     1     -12.939 -16.442  30.319  1.00  0.00     0.039 C 
ATOM      5  C   UNL     1     -13.020 -16.755  28.830  1.00  0.00    -0.006 C 
ATOM      6  C   UNL     1     -13.472 -15.829  27.934  1.00  0.00    -0.070 C 
ATOM      7  C   UNL     1     -13.894 -14.448  28.380  1.00  0.00     0.039 C 
ATOM      8  C   UNL     1     -13.611 -16.148  26.463  1.00  0.00     0.039 C 
ATOM      9  C   UNL     1     -12.471 -18.078  28.408  1.00  0.00     0.159 C 
ATOM     10  O   UNL     1     -11.930 -18.233  27.280  1.00  0.00    -0.295 OA
ATOM     11  C   UNL     1     -12.549 -19.256  29.335  1.00  0.00     0.084 C 
ENDROOT
TORSDOF 0
ENDMDL
MODEL 7
REMARK VINA RESULT:    -5.363      2.156      3.437
REMARK INTER + INTRA:          -5.363
REMARK INTER:                  -5.363
REMARK INTRA:                   0.000
REMARK UNBOUND:                 0.000
REMARK SMILES CC(C)=C1CC[C@@H](C)CC1=O
REMARK SMILES IDX 8 1 7 2 6 3 5 4 4 5 2 6 1 7 3 8 10 9 11 10 9 11
REMARK H PARENT
REMARK Flexibility Score: inf
ROOT
ATOM      1  C   UNL     1     -11.762 -19.691  30.177  1.00  0.00     0.008 C 
ATOM      2  C   UNL     1     -12.055 -18.232  30.542  1.00  0.00    -0.006 C 
ATOM      3  C   UNL     1     -12.778 -18.149  31.896  1.00  0.00     0.008 C 
ATOM      4  C   UNL     1     -12.989 -16.692  32.328  1.00  0.00     0.039 C 
ATOM      5  C   UNL     1     -13.668 -15.856  31.250  1.00  0.00    -0.006 C 
ATOM      6  C   UNL     1     -14.497 -14.821  31.573  1.00  0.00    -0.070 C 
ATOM      7  C   UNL     1     -14.763 -14.449  33.014  1.00  0.00     0.039 C 
ATOM      8  C   UNL     1     -15.221 -14.022  30.513  1.00  0.00     0.039 C 
ATOM      9  C   UNL     1     -13.280 -16.164  29.841  1.00  0.00     0.159 C 
ATOM     10  O   UNL     1     -13.252 -15.264  28.959  1.00  0.00    -0.295 OA
ATOM     11  C   UNL     1     -12.906 -17.564  29.452  1.00  0.00     0.084 C 
ENDROOT
TORSDOF 0
ENDMDL
MODEL 8
REMARK VINA RESULT:    -5.358      1.667      4.236
REMARK INTER + INTRA:          -5.358
REMARK INTER:                  -5.358
REMARK INTRA:                   0.000
REMARK UNBOUND:                 0.000
REMARK SMILES CC(C)=C1CC[C@@H](C)CC1=O
REMARK SMILES IDX 8 1 7 2 6 3 5 4 4 5 2 6 1 7 3 8 10 9 11 10 9 11
REMARK H PARENT
REMARK Flexibility Score: inf
ROOT
ATOM      1  C   UNL     1     -13.626 -16.270  26.384  1.00  0.00     0.008 C 
ATOM      2  C   UNL     1     -12.873 -17.236  27.304  1.00  0.00    -0.006 C 
ATOM      3  C   UNL     1     -13.854 -18.188  28.008  1.00  0.00     0.008 C 
ATOM      4  C   UNL     1     -13.110 -19.229  28.855  1.00  0.00     0.039 C 
ATOM      5  C   UNL     1     -12.116 -18.595  29.819  1.00  0.00    -0.006 C 
ATOM      6  C   UNL     1     -11.839 -19.165  31.029  1.00  0.00    -0.070 C 
ATOM      7  C   UNL     1     -12.495 -20.458  31.455  1.00  0.00     0.039 C 
ATOM      8  C   UNL     1     -10.898 -18.514  32.017  1.00  0.00     0.039 C 
ATOM      9  C   UNL     1     -11.387 -17.394  29.313  1.00  0.00     0.159 C 
ATOM     10  O   UNL     1     -10.207 -17.143  29.677  1.00  0.00    -0.295 OA
ATOM     11  C   UNL     1     -12.055 -16.460  28.347  1.00  0.00     0.084 C 
ENDROOT
TORSDOF 0
ENDMDL
MODEL 9
REMARK VINA RESULT:    -5.342      2.376      3.450
REMARK INTER + INTRA:          -5.342
REMARK INTER:                  -5.342
REMARK INTRA:                   0.000
REMARK UNBOUND:                 0.000
REMARK SMILES CC(C)=C1CC[C@@H](C)CC1=O
REMARK SMILES IDX 8 1 7 2 6 3 5 4 4 5 2 6 1 7 3 8 10 9 11 10 9 11
REMARK H PARENT
REMARK Flexibility Score: inf
ROOT
ATOM      1  C   UNL     1      -9.973 -18.002  29.923  1.00  0.00     0.008 C 
ATOM      2  C   UNL     1     -11.424 -17.538  30.084  1.00  0.00    -0.006 C 
ATOM      3  C   UNL     1     -11.620 -16.147  29.460  1.00  0.00     0.008 C 
ATOM      4  C   UNL     1     -13.089 -15.710  29.520  1.00  0.00     0.039 C 
ATOM      5  C   UNL     1     -13.670 -15.808  30.925  1.00  0.00    -0.006 C 
ATOM      6  C   UNL     1     -14.636 -14.944  31.355  1.00  0.00    -0.070 C 
ATOM      7  C   UNL     1     -15.182 -13.864  30.449  1.00  0.00     0.039 C 
ATOM      8  C   UNL     1     -15.179 -14.996  32.765  1.00  0.00     0.039 C 
ATOM      9  C   UNL     1     -13.207 -16.966  31.746  1.00  0.00     0.159 C 
ATOM     10  O   UNL     1     -13.963 -17.512  32.594  1.00  0.00    -0.295 OA
ATOM     11  C   UNL     1     -11.818 -17.507  31.568  1.00  0.00     0.084 C 
ENDROOT
TORSDOF 0
ENDMDL
