MODEL 1
REMARK VINA RESULT:    -4.097      0.000      0.000
REMARK INTER + INTRA:          -9.497
REMARK INTER:                  -7.689
REMARK INTRA:                  -1.808
REMARK UNBOUND:                -1.808
REMARK SMILES O=C([O-])CCCCCCCCCCCCCCC(=O)[O-]
REMARK SMILES IDX 10 1 9 2 8 3 7 4 6 5 5 6 4 7 2 8 1 9 3 10 11 11 12 12 13 13
REMARK SMILES IDX 14 14 15 15 16 16 17 17 18 18 19 19 20 20
REMARK H PARENT
REMARK Flexibility Score: inf
ROOT
ATOM      1  C   UNL     1      34.549  17.374 -17.939  1.00  0.00     0.000 C 
ENDROOT
BRANCH   1   2
ATOM      2  C   UNL     1      33.427  18.190 -18.603  1.00  0.00     0.000 C 
BRANCH   2   3
ATOM      3  C   UNL     1      32.831  17.493 -19.841  1.00  0.00     0.000 C 
BRANCH   3   4
ATOM      4  C   UNL     1      31.353  17.083 -19.707  1.00  0.00     0.000 C 
BRANCH   4   5
ATOM      5  C   UNL     1      30.639  17.786 -18.542  1.00  0.00     0.000 C 
BRANCH   5   6
ATOM      6  C   UNL     1      29.117  17.769 -18.742  1.00  0.00     0.006 C 
BRANCH   6   7
ATOM      7  C   UNL     1      28.374  18.507 -17.620  1.00  0.00     0.053 C 
BRANCH   7   8
ATOM      8  C   UNL     1      27.113  19.147 -18.114  1.00  0.00     0.041 C 
ATOM      9  O   UNL     1      27.149  20.285 -18.652  1.00  0.00    -0.550 OA
ATOM     10  O   UNL     1      25.903  18.473 -18.011  1.00  0.00    -0.550 OA
ENDBRANCH   7   8
ENDBRANCH   6   7
ENDBRANCH   5   6
ENDBRANCH   4   5
ENDBRANCH   3   4
ENDBRANCH   2   3
ENDBRANCH   1   2
BRANCH   1  11
ATOM     11  C   UNL     1      34.326  15.858 -18.047  1.00  0.00     0.000 C 
BRANCH  11  12
ATOM     12  C   UNL     1      34.668  15.118 -16.743  1.00  0.00     0.000 C 
BRANCH  12  13
ATOM     13  C   UNL     1      33.531  14.196 -16.275  1.00  0.00     0.000 C 
BRANCH  13  14
ATOM     14  C   UNL     1      32.238  14.391 -17.089  1.00  0.00     0.000 C 
BRANCH  14  15
ATOM     15  C   UNL     1      30.976  14.069 -16.273  1.00  0.00     0.000 C 
BRANCH  15  16
ATOM     16  C   UNL     1      29.708  14.703 -16.873  1.00  0.00     0.006 C 
BRANCH  16  17
ATOM     17  C   UNL     1      28.703  15.123 -15.793  1.00  0.00     0.053 C 
BRANCH  17  18
ATOM     18  C   UNL     1      27.290  14.867 -16.221  1.00  0.00     0.041 C 
ATOM     19  O   UNL     1      26.913  15.177 -17.381  1.00  0.00    -0.550 OA
ATOM     20  O   UNL     1      26.378  14.325 -15.324  1.00  0.00    -0.550 OA
ENDBRANCH  17  18
ENDBRANCH  16  17
ENDBRANCH  15  16
ENDBRANCH  14  15
ENDBRANCH  13  14
ENDBRANCH  12  13
ENDBRANCH  11  12
ENDBRANCH   1  11
TORSDOF 15
ENDMDL
MODEL 2
REMARK VINA RESULT:    -4.000      1.183      1.949
REMARK INTER + INTRA:          -9.316
REMARK INTER:                  -7.668
REMARK INTRA:                  -1.648
REMARK UNBOUND:                -1.808
REMARK SMILES O=C([O-])CCCCCCCCCCCCCCC(=O)[O-]
REMARK SMILES IDX 10 1 9 2 8 3 7 4 6 5 5 6 4 7 2 8 1 9 3 10 11 11 12 12 13 13
REMARK SMILES IDX 14 14 15 15 16 16 17 17 18 18 19 19 20 20
REMARK H PARENT
REMARK Flexibility Score: inf
ROOT
ATOM      1  C   UNL     1      33.565  18.026 -18.522  1.00  0.00     0.000 C 
ENDROOT
BRANCH   1   2
ATOM      2  C   UNL     1      33.091  17.752 -19.960  1.00  0.00     0.000 C 
BRANCH   2   3
ATOM      3  C   UNL     1      31.606  17.348 -20.034  1.00  0.00     0.000 C 
BRANCH   3   4
ATOM      4  C   UNL     1      30.857  17.380 -18.688  1.00  0.00     0.000 C 
BRANCH   4   5
ATOM      5  C   UNL     1      29.354  17.658 -18.846  1.00  0.00     0.000 C 
BRANCH   5   6
ATOM      6  C   UNL     1      28.794  18.367 -17.604  1.00  0.00     0.006 C 
BRANCH   6   7
ATOM      7  C   UNL     1      27.260  18.353 -17.568  1.00  0.00     0.053 C 
BRANCH   7   8
ATOM      8  C   UNL     1      26.688  19.733 -17.693  1.00  0.00     0.041 C 
ATOM      9  O   UNL     1      25.963  20.203 -16.777  1.00  0.00    -0.550 OA
ATOM     10  O   UNL     1      26.985  20.511 -18.804  1.00  0.00    -0.550 OA
ENDBRANCH   7   8
ENDBRANCH   6   7
ENDBRANCH   5   6
ENDBRANCH   4   5
ENDBRANCH   3   4
ENDBRANCH   2   3
ENDBRANCH   1   2
BRANCH   1  11
ATOM     11  C   UNL     1      34.588  16.993 -18.026  1.00  0.00     0.000 C 
BRANCH  11  12
ATOM     12  C   UNL     1      34.639  15.740 -18.918  1.00  0.00     0.000 C 
BRANCH  12  13
ATOM     13  C   UNL     1      34.422  14.444 -18.122  1.00  0.00     0.000 C 
BRANCH  13  14
ATOM     14  C   UNL     1      34.347  14.687 -16.604  1.00  0.00     0.000 C 
BRANCH  14  15
ATOM     15  C   UNL     1      33.159  13.961 -15.951  1.00  0.00     0.000 C 
BRANCH  15  16
ATOM     16  C   UNL     1      31.805  14.398 -16.538  1.00  0.00     0.006 C 
BRANCH  16  17
ATOM     17  C   UNL     1      30.655  14.222 -15.538  1.00  0.00     0.053 C 
BRANCH  17  18
ATOM     18  C   UNL     1      29.426  14.959 -15.972  1.00  0.00     0.041 C 
ATOM     19  O   UNL     1      28.931  15.855 -15.238  1.00  0.00    -0.550 OA
ATOM     20  O   UNL     1      28.801  14.629 -17.167  1.00  0.00    -0.550 OA
ENDBRANCH  17  18
ENDBRANCH  16  17
ENDBRANCH  15  16
ENDBRANCH  14  15
ENDBRANCH  13  14
ENDBRANCH  12  13
ENDBRANCH  11  12
ENDBRANCH   1  11
TORSDOF 15
ENDMDL
MODEL 3
REMARK VINA RESULT:    -3.952      1.071      4.387
REMARK INTER + INTRA:          -9.226
REMARK INTER:                  -7.479
REMARK INTRA:                  -1.747
REMARK UNBOUND:                -1.808
REMARK SMILES O=C([O-])CCCCCCCCCCCCCCC(=O)[O-]
REMARK SMILES IDX 10 1 9 2 8 3 7 4 6 5 5 6 4 7 2 8 1 9 3 10 11 11 12 12 13 13
REMARK SMILES IDX 14 14 15 15 16 16 17 17 18 18 19 19 20 20
REMARK H PARENT
REMARK Flexibility Score: inf
ROOT
ATOM      1  C   UNL     1      34.473  16.041 -18.145  1.00  0.00     0.000 C 
ENDROOT
BRANCH   1   2
ATOM      2  C   UNL     1      34.664  15.359 -16.779  1.00  0.00     0.000 C 
BRANCH   2   3
ATOM      3  C   UNL     1      33.606  14.275 -16.498  1.00  0.00     0.000 C 
BRANCH   3   4
ATOM      4  C   UNL     1      32.663  13.967 -17.676  1.00  0.00     0.000 C 
BRANCH   4   5
ATOM      5  C   UNL     1      31.202  13.777 -17.239  1.00  0.00     0.000 C 
BRANCH   5   6
ATOM      6  C   UNL     1      30.967  14.365 -15.840  1.00  0.00     0.006 C 
BRANCH   6   7
ATOM      7  C   UNL     1      29.590  13.991 -15.275  1.00  0.00     0.053 C 
BRANCH   7   8
ATOM      8  C   UNL     1      28.572  15.058 -15.539  1.00  0.00     0.041 C 
ATOM      9  O   UNL     1      28.780  16.240 -15.160  1.00  0.00    -0.550 OA
ATOM     10  O   UNL     1      27.409  14.753 -16.235  1.00  0.00    -0.550 OA
ENDBRANCH   7   8
ENDBRANCH   6   7
ENDBRANCH   5   6
ENDBRANCH   4   5
ENDBRANCH   3   4
ENDBRANCH   2   3
ENDBRANCH   1   2
BRANCH   1  11
ATOM     11  C   UNL     1      34.477  17.575 -18.049  1.00  0.00     0.000 C 
BRANCH  11  12
ATOM     12  C   UNL     1      33.198  18.204 -18.627  1.00  0.00     0.000 C 
BRANCH  12  13
ATOM     13  C   UNL     1      32.285  17.166 -19.299  1.00  0.00     0.000 C 
BRANCH  13  14
ATOM     14  C   UNL     1      30.838  17.668 -19.463  1.00  0.00     0.000 C 
BRANCH  14  15
ATOM     15  C   UNL     1      29.897  17.110 -18.384  1.00  0.00     0.000 C 
BRANCH  15  16
ATOM     16  C   UNL     1      28.462  17.653 -18.514  1.00  0.00     0.006 C 
BRANCH  16  17
ATOM     17  C   UNL     1      28.145  18.712 -17.450  1.00  0.00     0.053 C 
BRANCH  17  18
ATOM     18  C   UNL     1      27.047  19.630 -17.892  1.00  0.00     0.041 C 
ATOM     19  O   UNL     1      27.037  20.087 -19.065  1.00  0.00    -0.550 OA
ATOM     20  O   UNL     1      26.058  20.016 -16.997  1.00  0.00    -0.550 OA
ENDBRANCH  17  18
ENDBRANCH  16  17
ENDBRANCH  15  16
ENDBRANCH  14  15
ENDBRANCH  13  14
ENDBRANCH  12  13
ENDBRANCH  11  12
ENDBRANCH   1  11
TORSDOF 15
ENDMDL
MODEL 4
REMARK VINA RESULT:    -3.862      1.188      4.463
REMARK INTER + INTRA:          -9.056
REMARK INTER:                  -7.457
REMARK INTRA:                  -1.599
REMARK UNBOUND:                -1.808
REMARK SMILES O=C([O-])CCCCCCCCCCCCCCC(=O)[O-]
REMARK SMILES IDX 10 1 9 2 8 3 7 4 6 5 5 6 4 7 2 8 1 9 3 10 11 11 12 12 13 13
REMARK SMILES IDX 14 14 15 15 16 16 17 17 18 18 19 19 20 20
REMARK H PARENT
REMARK Flexibility Score: inf
ROOT
ATOM      1  C   UNL     1      34.665  15.084 -16.665  1.00  0.00     0.000 C 
ENDROOT
BRANCH   1   2
ATOM      2  C   UNL     1      33.622  14.069 -16.166  1.00  0.00     0.000 C 
BRANCH   2   3
ATOM      3  C   UNL     1      32.217  14.319 -16.748  1.00  0.00     0.000 C 
BRANCH   3   4
ATOM      4  C   UNL     1      31.129  13.344 -16.260  1.00  0.00     0.000 C 
BRANCH   4   5
ATOM      5  C   UNL     1      30.152  13.987 -15.263  1.00  0.00     0.000 C 
BRANCH   5   6
ATOM      6  C   UNL     1      28.807  13.247 -15.261  1.00  0.00     0.006 C 
BRANCH   6   7
ATOM      7  C   UNL     1      27.983  13.533 -16.525  1.00  0.00     0.053 C 
BRANCH   7   8
ATOM      8  C   UNL     1      26.755  14.335 -16.219  1.00  0.00     0.041 C 
ATOM      9  O   UNL     1      26.017  14.018 -15.249  1.00  0.00    -0.550 OA
ATOM     10  O   UNL     1      26.445  15.451 -16.984  1.00  0.00    -0.550 OA
ENDBRANCH   7   8
ENDBRANCH   6   7
ENDBRANCH   5   6
ENDBRANCH   4   5
ENDBRANCH   3   4
ENDBRANCH   2   3
ENDBRANCH   1   2
BRANCH   1  11
ATOM     11  C   UNL     1      34.258  15.755 -17.986  1.00  0.00     0.000 C 
BRANCH  11  12
ATOM     12  C   UNL     1      34.576  17.260 -18.005  1.00  0.00     0.000 C 
BRANCH  12  13
ATOM     13  C   UNL     1      33.662  18.041 -18.963  1.00  0.00     0.000 C 
BRANCH  13  14
ATOM     14  C   UNL     1      32.167  17.808 -18.676  1.00  0.00     0.000 C 
BRANCH  14  15
ATOM     15  C   UNL     1      31.488  16.954 -19.759  1.00  0.00     0.000 C 
BRANCH  15  16
ATOM     16  C   UNL     1      30.162  16.336 -19.277  1.00  0.00     0.006 C 
BRANCH  16  17
ATOM     17  C   UNL     1      29.666  16.973 -17.972  1.00  0.00     0.053 C 
BRANCH  17  18
ATOM     18  C   UNL     1      28.669  18.060 -18.231  1.00  0.00     0.041 C 
ATOM     19  O   UNL     1      28.010  18.556 -17.280  1.00  0.00    -0.550 OA
ATOM     20  O   UNL     1      28.437  18.498 -19.529  1.00  0.00    -0.550 OA
ENDBRANCH  17  18
ENDBRANCH  16  17
ENDBRANCH  15  16
ENDBRANCH  14  15
ENDBRANCH  13  14
ENDBRANCH  12  13
ENDBRANCH  11  12
ENDBRANCH   1  11
TORSDOF 15
ENDMDL
MODEL 5
REMARK VINA RESULT:    -3.804      2.304      4.654
REMARK INTER + INTRA:          -8.947
REMARK INTER:                  -7.337
REMARK INTRA:                  -1.610
REMARK UNBOUND:                -1.808
REMARK SMILES O=C([O-])CCCCCCCCCCCCCCC(=O)[O-]
REMARK SMILES IDX 10 1 9 2 8 3 7 4 6 5 5 6 4 7 2 8 1 9 3 10 11 11 12 12 13 13
REMARK SMILES IDX 14 14 15 15 16 16 17 17 18 18 19 19 20 20
REMARK H PARENT
REMARK Flexibility Score: inf
ROOT
ATOM      1  C   UNL     1      29.775  15.013 -15.631  1.00  0.00     0.000 C 
ENDROOT
BRANCH   1   2
ATOM      2  C   UNL     1      28.492  15.005 -16.479  1.00  0.00     0.000 C 
BRANCH   2   3
ATOM      3  C   UNL     1      28.774  15.005 -17.993  1.00  0.00     0.000 C 
BRANCH   3   4
ATOM      4  C   UNL     1      30.011  15.816 -18.423  1.00  0.00     0.000 C 
BRANCH   4   5
ATOM      5  C   UNL     1      29.839  16.491 -19.792  1.00  0.00     0.000 C 
BRANCH   5   6
ATOM      6  C   UNL     1      29.540  17.989 -19.631  1.00  0.00     0.006 C 
BRANCH   6   7
ATOM      7  C   UNL     1      28.035  18.272 -19.523  1.00  0.00     0.053 C 
BRANCH   7   8
ATOM      8  C   UNL     1      27.710  19.102 -18.318  1.00  0.00     0.041 C 
ATOM      9  O   UNL     1      27.067  20.178 -18.444  1.00  0.00    -0.550 OA
ATOM     10  O   UNL     1      28.086  18.669 -17.054  1.00  0.00    -0.550 OA
ENDBRANCH   7   8
ENDBRANCH   6   7
ENDBRANCH   5   6
ENDBRANCH   4   5
ENDBRANCH   3   4
ENDBRANCH   2   3
ENDBRANCH   1   2
BRANCH   1  11
ATOM     11  C   UNL     1      30.144  13.620 -15.097  1.00  0.00     0.000 C 
BRANCH  11  12
ATOM     12  C   UNL     1      31.316  12.987 -15.865  1.00  0.00     0.000 C 
BRANCH  12  13
ATOM     13  C   UNL     1      32.245  14.039 -16.491  1.00  0.00     0.000 C 
BRANCH  13  14
ATOM     14  C   UNL     1      33.710  13.875 -16.045  1.00  0.00     0.000 C 
BRANCH  14  15
ATOM     15  C   UNL     1      34.642  14.910 -16.695  1.00  0.00     0.000 C 
BRANCH  15  16
ATOM     16  C   UNL     1      33.938  15.731 -17.791  1.00  0.00     0.006 C 
BRANCH  16  17
ATOM     17  C   UNL     1      34.457  17.173 -17.859  1.00  0.00     0.053 C 
BRANCH  17  18
ATOM     18  C   UNL     1      33.554  18.049 -18.672  1.00  0.00     0.041 C 
ATOM     19  O   UNL     1      33.147  17.667 -19.800  1.00  0.00    -0.550 OA
ATOM     20  O   UNL     1      33.195  19.306 -18.203  1.00  0.00    -0.550 OA
ENDBRANCH  17  18
ENDBRANCH  16  17
ENDBRANCH  15  16
ENDBRANCH  14  15
ENDBRANCH  13  14
ENDBRANCH  12  13
ENDBRANCH  11  12
ENDBRANCH   1  11
TORSDOF 15
ENDMDL
MODEL 6
REMARK VINA RESULT:    -3.766      2.252      4.745
REMARK INTER + INTRA:          -8.876
REMARK INTER:                  -7.576
REMARK INTRA:                  -1.300
REMARK UNBOUND:                -1.808
REMARK SMILES O=C([O-])CCCCCCCCCCCCCCC(=O)[O-]
REMARK SMILES IDX 10 1 9 2 8 3 7 4 6 5 5 6 4 7 2 8 1 9 3 10 11 11 12 12 13 13
REMARK SMILES IDX 14 14 15 15 16 16 17 17 18 18 19 19 20 20
REMARK H PARENT
REMARK Flexibility Score: inf
ROOT
ATOM      1  C   UNL     1      29.242  15.183 -15.607  1.00  0.00     0.000 C 
ENDROOT
BRANCH   1   2
ATOM      2  C   UNL     1      28.383  15.899 -16.664  1.00  0.00     0.000 C 
BRANCH   2   3
ATOM      3  C   UNL     1      29.207  16.401 -17.865  1.00  0.00     0.000 C 
BRANCH   3   4
ATOM      4  C   UNL     1      29.017  17.892 -18.205  1.00  0.00     0.000 C 
BRANCH   4   5
ATOM      5  C   UNL     1      28.159  18.637 -17.171  1.00  0.00     0.000 C 
BRANCH   5   6
ATOM      6  C   UNL     1      27.024  19.411 -17.858  1.00  0.00     0.006 C 
BRANCH   6   7
ATOM      7  C   UNL     1      26.289  18.560 -18.903  1.00  0.00     0.053 C 
BRANCH   7   8
ATOM      8  C   UNL     1      25.252  17.680 -18.273  1.00  0.00     0.041 C 
ATOM      9  O   UNL     1      24.275  18.189 -17.663  1.00  0.00    -0.550 OA
ATOM     10  O   UNL     1      25.348  16.299 -18.390  1.00  0.00    -0.550 OA
ENDBRANCH   7   8
ENDBRANCH   6   7
ENDBRANCH   5   6
ENDBRANCH   4   5
ENDBRANCH   3   4
ENDBRANCH   2   3
ENDBRANCH   1   2
BRANCH   1  11
ATOM     11  C   UNL     1      29.779  13.829 -16.096  1.00  0.00     0.000 C 
BRANCH  11  12
ATOM     12  C   UNL     1      31.216  13.558 -15.618  1.00  0.00     0.000 C 
BRANCH  12  13
ATOM     13  C   UNL     1      32.263  14.317 -16.449  1.00  0.00     0.000 C 
BRANCH  13  14
ATOM     14  C   UNL     1      33.705  13.896 -16.110  1.00  0.00     0.000 C 
BRANCH  14  15
ATOM     15  C   UNL     1      34.747  14.901 -16.626  1.00  0.00     0.000 C 
BRANCH  15  16
ATOM     16  C   UNL     1      34.304  15.596 -17.926  1.00  0.00     0.006 C 
BRANCH  16  17
ATOM     17  C   UNL     1      34.565  17.108 -17.894  1.00  0.00     0.053 C 
BRANCH  17  18
ATOM     18  C   UNL     1      33.435  17.879 -18.504  1.00  0.00     0.041 C 
ATOM     19  O   UNL     1      32.589  17.295 -19.231  1.00  0.00    -0.550 OA
ATOM     20  O   UNL     1      33.339  19.250 -18.305  1.00  0.00    -0.550 OA
ENDBRANCH  17  18
ENDBRANCH  16  17
ENDBRANCH  15  16
ENDBRANCH  14  15
ENDBRANCH  13  14
ENDBRANCH  12  13
ENDBRANCH  11  12
ENDBRANCH   1  11
TORSDOF 15
ENDMDL
MODEL 7
REMARK VINA RESULT:    -3.690      2.884      5.229
REMARK INTER + INTRA:          -8.734
REMARK INTER:                  -6.742
REMARK INTRA:                  -1.992
REMARK UNBOUND:                -1.808
REMARK SMILES O=C([O-])CCCCCCCCCCCCCCC(=O)[O-]
REMARK SMILES IDX 10 1 9 2 8 3 7 4 6 5 5 6 4 7 2 8 1 9 3 10 11 11 12 12 13 13
REMARK SMILES IDX 14 14 15 15 16 16 17 17 18 18 19 19 20 20
REMARK H PARENT
REMARK Flexibility Score: inf
ROOT
ATOM      1  C   UNL     1      32.286  14.013 -16.257  1.00  0.00     0.000 C 
ENDROOT
BRANCH   1   2
ATOM      2  C   UNL     1      32.720  14.135 -17.728  1.00  0.00     0.000 C 
BRANCH   2   3
ATOM      3  C   UNL     1      31.527  14.178 -18.702  1.00  0.00     0.000 C 
BRANCH   3   4
ATOM      4  C   UNL     1      31.316  15.530 -19.410  1.00  0.00     0.000 C 
BRANCH   4   5
ATOM      5  C   UNL     1      31.552  16.734 -18.486  1.00  0.00     0.000 C 
BRANCH   5   6
ATOM      6  C   UNL     1      32.266  17.868 -19.236  1.00  0.00     0.006 C 
BRANCH   6   7
ATOM      7  C   UNL     1      33.529  18.344 -18.506  1.00  0.00     0.053 C 
BRANCH   7   8
ATOM      8  C   UNL     1      34.552  17.254 -18.397  1.00  0.00     0.041 C 
ATOM      9  O   UNL     1      35.053  16.965 -17.278  1.00  0.00    -0.550 OA
ATOM     10  O   UNL     1      34.926  16.535 -19.524  1.00  0.00    -0.550 OA
ENDBRANCH   7   8
ENDBRANCH   6   7
ENDBRANCH   5   6
ENDBRANCH   4   5
ENDBRANCH   3   4
ENDBRANCH   2   3
ENDBRANCH   1   2
BRANCH   1  11
ATOM     11  C   UNL     1      30.863  13.454 -16.101  1.00  0.00     0.000 C 
BRANCH  11  12
ATOM     12  C   UNL     1      29.968  14.358 -15.236  1.00  0.00     0.000 C 
BRANCH  12  13
ATOM     13  C   UNL     1      28.593  14.608 -15.876  1.00  0.00     0.000 C 
BRANCH  13  14
ATOM     14  C   UNL     1      28.420  16.062 -16.354  1.00  0.00     0.000 C 
BRANCH  14  15
ATOM     15  C   UNL     1      28.075  16.152 -17.850  1.00  0.00     0.000 C 
BRANCH  15  16
ATOM     16  C   UNL     1      27.980  17.605 -18.348  1.00  0.00     0.006 C 
BRANCH  16  17
ATOM     17  C   UNL     1      27.739  18.596 -17.202  1.00  0.00     0.053 C 
BRANCH  17  18
ATOM     18  C   UNL     1      26.822  19.707 -17.614  1.00  0.00     0.041 C 
ATOM     19  O   UNL     1      26.110  20.293 -16.757  1.00  0.00    -0.550 OA
ATOM     20  O   UNL     1      26.722  20.067 -18.951  1.00  0.00    -0.550 OA
ENDBRANCH  17  18
ENDBRANCH  16  17
ENDBRANCH  15  16
ENDBRANCH  14  15
ENDBRANCH  13  14
ENDBRANCH  12  13
ENDBRANCH  11  12
ENDBRANCH   1  11
TORSDOF 15
ENDMDL
MODEL 8
REMARK VINA RESULT:    -3.597      2.070      4.780
REMARK INTER + INTRA:          -8.558
REMARK INTER:                  -6.779
REMARK INTRA:                  -1.779
REMARK UNBOUND:                -1.808
REMARK SMILES O=C([O-])CCCCCCCCCCCCCCC(=O)[O-]
REMARK SMILES IDX 10 1 9 2 8 3 7 4 6 5 5 6 4 7 2 8 1 9 3 10 11 11 12 12 13 13
REMARK SMILES IDX 14 14 15 15 16 16 17 17 18 18 19 19 20 20
REMARK H PARENT
REMARK Flexibility Score: inf
ROOT
ATOM      1  C   UNL     1      32.374  13.597 -15.862  1.00  0.00     0.000 C 
ENDROOT
BRANCH   1   2
ATOM      2  C   UNL     1      33.814  13.219 -16.253  1.00  0.00     0.000 C 
BRANCH   2   3
ATOM      3  C   UNL     1      34.755  14.437 -16.322  1.00  0.00     0.000 C 
BRANCH   3   4
ATOM      4  C   UNL     1      34.386  15.483 -17.390  1.00  0.00     0.000 C 
BRANCH   4   5
ATOM      5  C   UNL     1      34.223  14.876 -18.792  1.00  0.00     0.000 C 
BRANCH   5   6
ATOM      6  C   UNL     1      32.949  15.399 -19.471  1.00  0.00     0.006 C 
BRANCH   6   7
ATOM      7  C   UNL     1      32.041  16.161 -18.495  1.00  0.00     0.053 C 
BRANCH   7   8
ATOM      8  C   UNL     1      31.831  17.581 -18.924  1.00  0.00     0.041 C 
ATOM      9  O   UNL     1      30.852  17.883 -19.656  1.00  0.00    -0.550 OA
ATOM     10  O   UNL     1      32.697  18.575 -18.487  1.00  0.00    -0.550 OA
ENDBRANCH   7   8
ENDBRANCH   6   7
ENDBRANCH   5   6
ENDBRANCH   4   5
ENDBRANCH   3   4
ENDBRANCH   2   3
ENDBRANCH   1   2
BRANCH   1  11
ATOM     11  C   UNL     1      31.332  13.090 -16.870  1.00  0.00     0.000 C 
BRANCH  11  12
ATOM     12  C   UNL     1      29.952  13.738 -16.666  1.00  0.00     0.000 C 
BRANCH  12  13
ATOM     13  C   UNL     1      29.999  14.928 -15.695  1.00  0.00     0.000 C 
BRANCH  13  14
ATOM     14  C   UNL     1      28.683  15.727 -15.674  1.00  0.00     0.000 C 
BRANCH  14  15
ATOM     15  C   UNL     1      28.270  16.214 -17.072  1.00  0.00     0.000 C 
BRANCH  15  16
ATOM     16  C   UNL     1      28.290  17.749 -17.192  1.00  0.00     0.006 C 
BRANCH  16  17
ATOM     17  C   UNL     1      27.578  18.241 -18.459  1.00  0.00     0.053 C 
BRANCH  17  18
ATOM     18  C   UNL     1      26.989  19.605 -18.269  1.00  0.00     0.041 C 
ATOM     19  O   UNL     1      27.159  20.497 -19.141  1.00  0.00    -0.550 OA
ATOM     20  O   UNL     1      26.286  19.904 -17.109  1.00  0.00    -0.550 OA
ENDBRANCH  17  18
ENDBRANCH  16  17
ENDBRANCH  15  16
ENDBRANCH  14  15
ENDBRANCH  13  14
ENDBRANCH  12  13
ENDBRANCH  11  12
ENDBRANCH   1  11
TORSDOF 15
ENDMDL
MODEL 9
REMARK VINA RESULT:    -3.574      2.382      5.426
REMARK INTER + INTRA:          -8.516
REMARK INTER:                  -6.916
REMARK INTRA:                  -1.601
REMARK UNBOUND:                -1.808
REMARK SMILES O=C([O-])CCCCCCCCCCCCCCC(=O)[O-]
REMARK SMILES IDX 10 1 9 2 8 3 7 4 6 5 5 6 4 7 2 8 1 9 3 10 11 11 12 12 13 13
REMARK SMILES IDX 14 14 15 15 16 16 17 17 18 18 19 19 20 20
REMARK H PARENT
REMARK Flexibility Score: inf
ROOT
ATOM      1  C   UNL     1      30.275  14.745 -16.334  1.00  0.00     0.000 C 
ENDROOT
BRANCH   1   2
ATOM      2  C   UNL     1      31.497  14.096 -15.663  1.00  0.00     0.000 C 
BRANCH   2   3
ATOM      3  C   UNL     1      32.204  13.070 -16.569  1.00  0.00     0.000 C 
BRANCH   3   4
ATOM      4  C   UNL     1      33.641  13.445 -16.978  1.00  0.00     0.000 C 
BRANCH   4   5
ATOM      5  C   UNL     1      33.964  14.928 -16.740  1.00  0.00     0.000 C 
BRANCH   5   6
ATOM      6  C   UNL     1      34.206  15.656 -18.070  1.00  0.00     0.006 C 
BRANCH   6   7
ATOM      7  C   UNL     1      34.636  17.115 -17.865  1.00  0.00     0.053 C 
BRANCH   7   8
ATOM      8  C   UNL     1      33.865  18.051 -18.745  1.00  0.00     0.041 C 
ATOM      9  O   UNL     1      33.705  17.786 -19.966  1.00  0.00    -0.550 OA
ATOM     10  O   UNL     1      33.295  19.198 -18.209  1.00  0.00    -0.550 OA
ENDBRANCH   7   8
ENDBRANCH   6   7
ENDBRANCH   5   6
ENDBRANCH   4   5
ENDBRANCH   3   4
ENDBRANCH   2   3
ENDBRANCH   1   2
BRANCH   1  11
ATOM     11  C   UNL     1      30.008  14.195 -17.744  1.00  0.00     0.000 C 
BRANCH  11  12
ATOM     12  C   UNL     1      30.325  15.220 -18.846  1.00  0.00     0.000 C 
BRANCH  12  13
ATOM     13  C   UNL     1      30.627  16.617 -18.280  1.00  0.00     0.000 C 
BRANCH  13  14
ATOM     14  C   UNL     1      29.723  17.708 -18.884  1.00  0.00     0.000 C 
BRANCH  14  15
ATOM     15  C   UNL     1      28.597  18.133 -17.927  1.00  0.00     0.000 C 
BRANCH  15  16
ATOM     16  C   UNL     1      27.696  19.228 -18.527  1.00  0.00     0.006 C 
BRANCH  16  17
ATOM     17  C   UNL     1      26.380  19.384 -17.753  1.00  0.00     0.053 C 
BRANCH  17  18
ATOM     18  C   UNL     1      25.346  18.405 -18.218  1.00  0.00     0.041 C 
ATOM     19  O   UNL     1      24.255  18.293 -17.599  1.00  0.00    -0.550 OA
ATOM     20  O   UNL     1      25.602  17.587 -19.310  1.00  0.00    -0.550 OA
ENDBRANCH  17  18
ENDBRANCH  16  17
ENDBRANCH  15  16
ENDBRANCH  14  15
ENDBRANCH  13  14
ENDBRANCH  12  13
ENDBRANCH  11  12
ENDBRANCH   1  11
TORSDOF 15
ENDMDL
