MODEL 1
REMARK VINA RESULT:    -4.663      0.000      0.000
REMARK INTER + INTRA:          -5.165
REMARK INTER:                  -5.072
REMARK INTRA:                  -0.093
REMARK UNBOUND:                -0.093
REMARK SMILES C=C(C)[C@@H]1CC[C@@H](C)[C@H](O)C1
REMARK SMILES IDX 8 1 7 2 6 3 5 4 4 5 11 6 9 7 10 8 2 10 1 11 3 12
REMARK H PARENT 10 9
REMARK Flexibility Score: inf
ROOT
ATOM      1  C   UNL     1      43.860  -0.845 111.037  1.00  0.00     0.010 C 
ATOM      2  C   UNL     1      43.150  -0.421 112.329  1.00  0.00     0.015 C 
ATOM      3  C   UNL     1      41.668  -0.847 112.283  1.00  0.00     0.006 C 
ATOM      4  C   UNL     1      40.925  -0.415 113.553  1.00  0.00     0.008 C 
ATOM      5  C   UNL     1      41.035   1.108 113.762  1.00  0.00     0.017 C 
ATOM      6  C   UNL     1      42.511   1.545 113.823  1.00  0.00     0.040 C 
ATOM      7  C   UNL     1      43.269   1.109 112.553  1.00  0.00     0.117 C 
ENDROOT
BRANCH   7   8
ATOM      8  O   UNL     1      44.615   1.508 112.633  1.00  0.00    -0.393 OA
ATOM      9  H   UNL     1      44.647   2.359 113.143  1.00  0.00     0.210 HD
ENDBRANCH   7   8
BRANCH   5  10
ATOM     10  C   UNL     1      40.271   1.555 115.002  1.00  0.00    -0.077 C 
ATOM     11  C   UNL     1      40.584   1.087 116.223  1.00  0.00     0.008 C 
ATOM     12  C   UNL     1      39.139   2.542 114.877  1.00  0.00     0.039 C 
ENDBRANCH   5  10
TORSDOF 2
ENDMDL
MODEL 2
REMARK VINA RESULT:    -4.565      1.911      3.696
REMARK INTER + INTRA:          -5.059
REMARK INTER:                  -4.964
REMARK INTRA:                  -0.095
REMARK UNBOUND:                -0.093
REMARK SMILES C=C(C)[C@@H]1CC[C@@H](C)[C@H](O)C1
REMARK SMILES IDX 8 1 7 2 6 3 5 4 4 5 11 6 9 7 10 8 2 10 1 11 3 12
REMARK H PARENT 10 9
REMARK Flexibility Score: inf
ROOT
ATOM      1  C   UNL     1      42.435   4.372 113.043  1.00  0.00     0.010 C 
ATOM      2  C   UNL     1      42.371   2.942 112.489  1.00  0.00     0.015 C 
ATOM      3  C   UNL     1      40.978   2.335 112.754  1.00  0.00     0.006 C 
ATOM      4  C   UNL     1      40.890   0.895 112.232  1.00  0.00     0.008 C 
ATOM      5  C   UNL     1      41.985   0.014 112.864  1.00  0.00     0.017 C 
ATOM      6  C   UNL     1      43.383   0.604 112.595  1.00  0.00     0.040 C 
ATOM      7  C   UNL     1      43.479   2.053 113.111  1.00  0.00     0.117 C 
ENDROOT
BRANCH   7   8
ATOM      8  O   UNL     1      44.757   2.576 112.847  1.00  0.00    -0.393 OA
ATOM      9  H   UNL     1      45.176   2.010 112.147  1.00  0.00     0.210 HD
ENDBRANCH   7   8
BRANCH   5  10
ATOM     10  C   UNL     1      41.887  -1.427 112.380  1.00  0.00    -0.077 C 
ATOM     11  C   UNL     1      42.983  -2.125 112.034  1.00  0.00     0.008 C 
ATOM     12  C   UNL     1      40.542  -2.101 112.279  1.00  0.00     0.039 C 
ENDBRANCH   5  10
TORSDOF 2
ENDMDL
MODEL 3
REMARK VINA RESULT:    -4.527      7.804      9.561
REMARK INTER + INTRA:          -5.017
REMARK INTER:                  -4.924
REMARK INTRA:                  -0.093
REMARK UNBOUND:                -0.093
REMARK SMILES C=C(C)[C@@H]1CC[C@@H](C)[C@H](O)C1
REMARK SMILES IDX 8 1 7 2 6 3 5 4 4 5 11 6 9 7 10 8 2 10 1 11 3 12
REMARK H PARENT 10 9
REMARK Flexibility Score: inf
ROOT
ATOM      1  C   UNL     1      43.485  10.380 118.853  1.00  0.00     0.010 C 
ATOM      2  C   UNL     1      44.227   9.628 117.740  1.00  0.00     0.015 C 
ATOM      3  C   UNL     1      43.734  10.108 116.359  1.00  0.00     0.006 C 
ATOM      4  C   UNL     1      44.441   9.356 115.224  1.00  0.00     0.008 C 
ATOM      5  C   UNL     1      44.238   7.835 115.363  1.00  0.00     0.017 C 
ATOM      6  C   UNL     1      44.738   7.341 116.735  1.00  0.00     0.040 C 
ATOM      7  C   UNL     1      44.038   8.096 117.882  1.00  0.00     0.117 C 
ENDROOT
BRANCH   7   8
ATOM      8  O   UNL     1      44.515   7.638 119.123  1.00  0.00    -0.393 OA
ATOM      9  H   UNL     1      45.483   7.852 119.172  1.00  0.00     0.210 HD
ENDBRANCH   7   8
BRANCH   5  10
ATOM     10  C   UNL     1      44.906   7.079 114.222  1.00  0.00    -0.077 C 
ATOM     11  C   UNL     1      44.492   5.853 113.859  1.00  0.00     0.008 C 
ATOM     12  C   UNL     1      46.056   7.703 113.473  1.00  0.00     0.039 C 
ENDBRANCH   5  10
TORSDOF 2
ENDMDL
MODEL 4
REMARK VINA RESULT:    -4.501      8.454     10.050
REMARK INTER + INTRA:          -4.989
REMARK INTER:                  -4.894
REMARK INTRA:                  -0.095
REMARK UNBOUND:                -0.093
REMARK SMILES C=C(C)[C@@H]1CC[C@@H](C)[C@H](O)C1
REMARK SMILES IDX 8 1 7 2 6 3 5 4 4 5 11 6 9 7 10 8 2 10 1 11 3 12
REMARK H PARENT 10 9
REMARK Flexibility Score: inf
ROOT
ATOM      1  C   UNL     1      45.035   9.133 119.986  1.00  0.00     0.010 C 
ATOM      2  C   UNL     1      45.022   8.676 118.521  1.00  0.00     0.015 C 
ATOM      3  C   UNL     1      46.020   9.515 117.698  1.00  0.00     0.006 C 
ATOM      4  C   UNL     1      46.013   9.097 116.221  1.00  0.00     0.008 C 
ATOM      5  C   UNL     1      44.597   9.217 115.624  1.00  0.00     0.017 C 
ATOM      6  C   UNL     1      43.592   8.373 116.431  1.00  0.00     0.040 C 
ATOM      7  C   UNL     1      43.597   8.781 117.918  1.00  0.00     0.117 C 
ENDROOT
BRANCH   7   8
ATOM      8  O   UNL     1      42.681   7.993 118.638  1.00  0.00    -0.393 OA
ATOM      9  H   UNL     1      41.848   8.522 118.746  1.00  0.00     0.210 HD
ENDBRANCH   7   8
BRANCH   5  10
ATOM     10  C   UNL     1      44.583   8.838 114.149  1.00  0.00    -0.077 C 
ATOM     11  C   UNL     1      45.472   7.967 113.642  1.00  0.00     0.008 C 
ATOM     12  C   UNL     1      43.557   9.442 113.224  1.00  0.00     0.039 C 
ENDBRANCH   5  10
TORSDOF 2
ENDMDL
MODEL 5
REMARK VINA RESULT:    -4.432     13.283     15.086
REMARK INTER + INTRA:          -4.914
REMARK INTER:                  -4.820
REMARK INTRA:                  -0.094
REMARK UNBOUND:                -0.093
REMARK SMILES C=C(C)[C@@H]1CC[C@@H](C)[C@H](O)C1
REMARK SMILES IDX 8 1 7 2 6 3 5 4 4 5 11 6 9 7 10 8 2 10 1 11 3 12
REMARK H PARENT 10 9
REMARK Flexibility Score: inf
ROOT
ATOM      1  C   UNL     1      39.711  17.018 115.258  1.00  0.00     0.010 C 
ATOM      2  C   UNL     1      40.731  16.494 114.239  1.00  0.00     0.015 C 
ATOM      3  C   UNL     1      40.094  16.434 112.835  1.00  0.00     0.006 C 
ATOM      4  C   UNL     1      41.084  15.890 111.797  1.00  0.00     0.008 C 
ATOM      5  C   UNL     1      41.600  14.497 112.208  1.00  0.00     0.017 C 
ATOM      6  C   UNL     1      42.250  14.546 113.604  1.00  0.00     0.040 C 
ATOM      7  C   UNL     1      41.265  15.098 114.653  1.00  0.00     0.117 C 
ENDROOT
BRANCH   7   8
ATOM      8  O   UNL     1      41.880  15.143 115.916  1.00  0.00    -0.393 OA
ATOM      9  H   UNL     1      42.850  15.298 115.774  1.00  0.00     0.210 HD
ENDBRANCH   7   8
BRANCH   5  10
ATOM     10  C   UNL     1      42.558  13.931 111.168  1.00  0.00    -0.077 C 
ATOM     11  C   UNL     1      43.749  14.506 110.927  1.00  0.00     0.008 C 
ATOM     12  C   UNL     1      42.180  12.701 110.382  1.00  0.00     0.039 C 
ENDBRANCH   5  10
TORSDOF 2
ENDMDL
MODEL 6
REMARK VINA RESULT:    -4.423      8.645      9.912
REMARK INTER + INTRA:          -4.904
REMARK INTER:                  -4.811
REMARK INTRA:                  -0.093
REMARK UNBOUND:                -0.093
REMARK SMILES C=C(C)[C@@H]1CC[C@@H](C)[C@H](O)C1
REMARK SMILES IDX 8 1 7 2 6 3 5 4 4 5 11 6 9 7 10 8 2 10 1 11 3 12
REMARK H PARENT 10 9
REMARK Flexibility Score: inf
ROOT
ATOM      1  C   UNL     1      46.977   8.308 116.149  1.00  0.00     0.010 C 
ATOM      2  C   UNL     1      47.713   7.992 114.840  1.00  0.00     0.015 C 
ATOM      3  C   UNL     1      46.699   7.618 113.740  1.00  0.00     0.006 C 
ATOM      4  C   UNL     1      47.407   7.272 112.424  1.00  0.00     0.008 C 
ATOM      5  C   UNL     1      48.418   6.127 112.628  1.00  0.00     0.017 C 
ATOM      6  C   UNL     1      49.445   6.494 113.717  1.00  0.00     0.040 C 
ATOM      7  C   UNL     1      48.742   6.849 115.042  1.00  0.00     0.117 C 
ENDROOT
BRANCH   7   8
ATOM      8  O   UNL     1      49.695   7.190 116.018  1.00  0.00    -0.393 OA
ATOM      9  H   UNL     1      50.585   6.901 115.685  1.00  0.00     0.210 HD
ENDBRANCH   7   8
BRANCH   5  10
ATOM     10  C   UNL     1      49.104   5.751 111.321  1.00  0.00    -0.077 C 
ATOM     11  C   UNL     1      49.636   4.530 111.136  1.00  0.00     0.008 C 
ATOM     12  C   UNL     1      49.196   6.755 110.200  1.00  0.00     0.039 C 
ENDBRANCH   5  10
TORSDOF 2
ENDMDL
MODEL 7
REMARK VINA RESULT:    -4.413     13.206     14.589
REMARK INTER + INTRA:          -4.894
REMARK INTER:                  -4.801
REMARK INTRA:                  -0.093
REMARK UNBOUND:                -0.093
REMARK SMILES C=C(C)[C@@H]1CC[C@@H](C)[C@H](O)C1
REMARK SMILES IDX 8 1 7 2 6 3 5 4 4 5 11 6 9 7 10 8 2 10 1 11 3 12
REMARK H PARENT 10 9
REMARK Flexibility Score: inf
ROOT
ATOM      1  C   UNL     1      42.228  12.307 111.498  1.00  0.00     0.010 C 
ATOM      2  C   UNL     1      42.209  13.629 112.277  1.00  0.00     0.015 C 
ATOM      3  C   UNL     1      41.967  13.356 113.776  1.00  0.00     0.006 C 
ATOM      4  C   UNL     1      41.919  14.662 114.579  1.00  0.00     0.008 C 
ATOM      5  C   UNL     1      40.833  15.606 114.027  1.00  0.00     0.017 C 
ATOM      6  C   UNL     1      41.071  15.897 112.533  1.00  0.00     0.040 C 
ATOM      7  C   UNL     1      41.127  14.590 111.718  1.00  0.00     0.117 C 
ENDROOT
BRANCH   7   8
ATOM      8  O   UNL     1      41.355  14.876 110.361  1.00  0.00    -0.393 OA
ATOM      9  H   UNL     1      40.609  15.450 110.044  1.00  0.00     0.210 HD
ENDBRANCH   7   8
BRANCH   5  10
ATOM     10  C   UNL     1      40.752  16.893 114.838  1.00  0.00    -0.077 C 
ATOM     11  C   UNL     1      41.244  16.966 116.087  1.00  0.00     0.008 C 
ATOM     12  C   UNL     1      40.110  18.122 114.244  1.00  0.00     0.039 C 
ENDBRANCH   5  10
TORSDOF 2
ENDMDL
MODEL 8
REMARK VINA RESULT:    -4.389     12.297     13.679
REMARK INTER + INTRA:          -4.868
REMARK INTER:                  -4.773
REMARK INTRA:                  -0.094
REMARK UNBOUND:                -0.093
REMARK SMILES C=C(C)[C@@H]1CC[C@@H](C)[C@H](O)C1
REMARK SMILES IDX 8 1 7 2 6 3 5 4 4 5 11 6 9 7 10 8 2 10 1 11 3 12
REMARK H PARENT 10 9
REMARK Flexibility Score: inf
ROOT
ATOM      1  C   UNL     1      42.602  11.360 111.366  1.00  0.00     0.010 C 
ATOM      2  C   UNL     1      41.819  12.585 111.857  1.00  0.00     0.015 C 
ATOM      3  C   UNL     1      42.611  13.874 111.554  1.00  0.00     0.006 C 
ATOM      4  C   UNL     1      41.864  15.117 112.056  1.00  0.00     0.008 C 
ATOM      5  C   UNL     1      41.576  15.011 113.566  1.00  0.00     0.017 C 
ATOM      6  C   UNL     1      40.775  13.733 113.881  1.00  0.00     0.040 C 
ATOM      7  C   UNL     1      41.514  12.479 113.374  1.00  0.00     0.117 C 
ENDROOT
BRANCH   7   8
ATOM      8  O   UNL     1      40.763  11.326 113.662  1.00  0.00    -0.393 OA
ATOM      9  H   UNL     1      40.864  10.701 112.897  1.00  0.00     0.210 HD
ENDBRANCH   7   8
BRANCH   5  10
ATOM     10  C   UNL     1      40.865  16.255 114.084  1.00  0.00    -0.077 C 
ATOM     11  C   UNL     1      39.987  16.928 113.321  1.00  0.00     0.008 C 
ATOM     12  C   UNL     1      41.138  16.755 115.480  1.00  0.00     0.039 C 
ENDBRANCH   5  10
TORSDOF 2
ENDMDL
MODEL 9
REMARK VINA RESULT:    -4.388      8.355      9.923
REMARK INTER + INTRA:          -4.866
REMARK INTER:                  -4.772
REMARK INTRA:                  -0.094
REMARK UNBOUND:                -0.093
REMARK SMILES C=C(C)[C@@H]1CC[C@@H](C)[C@H](O)C1
REMARK SMILES IDX 8 1 7 2 6 3 5 4 4 5 11 6 9 7 10 8 2 10 1 11 3 12
REMARK H PARENT 10 9
REMARK Flexibility Score: inf
ROOT
ATOM      1  C   UNL     1      45.859   9.784 119.578  1.00  0.00     0.010 C 
ATOM      2  C   UNL     1      45.534   9.411 118.125  1.00  0.00     0.015 C 
ATOM      3  C   UNL     1      44.871   8.019 118.073  1.00  0.00     0.006 C 
ATOM      4  C   UNL     1      44.555   7.607 116.630  1.00  0.00     0.008 C 
ATOM      5  C   UNL     1      45.829   7.623 115.763  1.00  0.00     0.017 C 
ATOM      6  C   UNL     1      46.495   9.012 115.797  1.00  0.00     0.040 C 
ATOM      7  C   UNL     1      46.810   9.438 117.245  1.00  0.00     0.117 C 
ENDROOT
BRANCH   7   8
ATOM      8  O   UNL     1      47.406  10.711 117.254  1.00  0.00    -0.393 OA
ATOM      9  H   UNL     1      46.746  11.351 117.628  1.00  0.00     0.210 HD
ENDBRANCH   7   8
BRANCH   5  10
ATOM     10  C   UNL     1      45.536   7.181 114.335  1.00  0.00    -0.077 C 
ATOM     11  C   UNL     1      46.294   7.595 113.305  1.00  0.00     0.008 C 
ATOM     12  C   UNL     1      44.375   6.262 114.052  1.00  0.00     0.039 C 
ENDBRANCH   5  10
TORSDOF 2
ENDMDL
