MODEL 1
REMARK VINA RESULT:    -3.773      0.000      0.000
REMARK INTER + INTRA:          -8.340
REMARK INTER:                  -6.419
REMARK INTRA:                  -1.920
REMARK UNBOUND:                -1.920
REMARK SMILES CCCCCCCCCCCCCC(=O)[O-]
REMARK SMILES IDX 8 1 9 2 10 3 11 4 12 5 13 6 14 7 15 8 16 9 7 10 6 11 5 12
REMARK SMILES IDX 4 13 3 14 2 15 1 16
REMARK H PARENT
REMARK Flexibility Score: inf
ROOT
ATOM      1  C   UNL     1     -34.552  84.747 -18.457  1.00  0.00     0.000 C 
ENDROOT
BRANCH   1   2
ATOM      2  C   UNL     1     -34.818  84.380 -19.929  1.00  0.00     0.000 C 
BRANCH   2   3
ATOM      3  C   UNL     1     -33.880  83.280 -20.452  1.00  0.00     0.000 C 
BRANCH   3   4
ATOM      4  C   UNL     1     -32.797  82.894 -19.432  1.00  0.00     0.000 C 
BRANCH   4   5
ATOM      5  C   UNL     1     -32.937  81.444 -18.936  1.00  0.00     0.006 C 
BRANCH   5   6
ATOM      6  C   UNL     1     -32.854  80.429 -20.083  1.00  0.00     0.053 C 
BRANCH   6   7
ATOM      7  C   UNL     1     -31.473  80.357 -20.659  1.00  0.00     0.041 C 
ATOM      8  O   UNL     1     -31.276  80.627 -21.873  1.00  0.00    -0.550 OA
ATOM      9  O   UNL     1     -30.397  80.024 -19.846  1.00  0.00    -0.550 OA
ENDBRANCH   6   7
ENDBRANCH   5   6
ENDBRANCH   4   5
ENDBRANCH   3   4
ENDBRANCH   2   3
ENDBRANCH   1   2
BRANCH   1  10
ATOM     10  C   UNL     1     -35.807  84.893 -17.577  1.00  0.00     0.000 C 
BRANCH  10  11
ATOM     11  C   UNL     1     -36.866  83.812 -17.856  1.00  0.00    -0.000 C 
BRANCH  11  12
ATOM     12  C   UNL     1     -36.357  82.387 -17.577  1.00  0.00    -0.000 C 
BRANCH  12  13
ATOM     13  C   UNL     1     -36.527  81.384 -18.738  1.00  0.00    -0.000 C 
BRANCH  13  14
ATOM     14  C   UNL     1     -37.778  81.599 -19.608  1.00  0.00    -0.000 C 
BRANCH  14  15
ATOM     15  C   UNL     1     -37.437  81.933 -21.067  1.00  0.00    -0.003 C 
ATOM     16  C   UNL     1     -36.455  80.919 -21.648  1.00  0.00     0.004 C 
ENDBRANCH  14  15
ENDBRANCH  13  14
ENDBRANCH  12  13
ENDBRANCH  11  12
ENDBRANCH  10  11
ENDBRANCH   1  10
TORSDOF 12
ENDMDL
MODEL 2
REMARK VINA RESULT:    -3.759      2.666      5.333
REMARK INTER + INTRA:          -8.316
REMARK INTER:                  -6.514
REMARK INTRA:                  -1.802
REMARK UNBOUND:                -1.920
REMARK SMILES CCCCCCCCCCCCCC(=O)[O-]
REMARK SMILES IDX 8 1 9 2 10 3 11 4 12 5 13 6 14 7 15 8 16 9 7 10 6 11 5 12
REMARK SMILES IDX 4 13 3 14 2 15 1 16
REMARK H PARENT
REMARK Flexibility Score: inf
ROOT
ATOM      1  C   UNL     1     -33.989  83.327 -20.486  1.00  0.00     0.000 C 
ENDROOT
BRANCH   1   2
ATOM      2  C   UNL     1     -33.842  84.011 -19.113  1.00  0.00     0.000 C 
BRANCH   2   3
ATOM      3  C   UNL     1     -35.030  84.924 -18.766  1.00  0.00     0.000 C 
BRANCH   3   4
ATOM      4  C   UNL     1     -35.817  84.427 -17.543  1.00  0.00     0.000 C 
BRANCH   4   5
ATOM      5  C   UNL     1     -36.740  83.240 -17.872  1.00  0.00     0.006 C 
BRANCH   5   6
ATOM      6  C   UNL     1     -37.444  83.412 -19.224  1.00  0.00     0.053 C 
BRANCH   6   7
ATOM      7  C   UNL     1     -37.493  82.125 -19.990  1.00  0.00     0.041 C 
ATOM      8  O   UNL     1     -37.539  82.136 -21.248  1.00  0.00    -0.550 OA
ATOM      9  O   UNL     1     -37.453  80.912 -19.314  1.00  0.00    -0.550 OA
ENDBRANCH   6   7
ENDBRANCH   5   6
ENDBRANCH   4   5
ENDBRANCH   3   4
ENDBRANCH   2   3
ENDBRANCH   1   2
BRANCH   1  10
ATOM     10  C   UNL     1     -33.879  81.791 -20.472  1.00  0.00     0.000 C 
BRANCH  10  11
ATOM     11  C   UNL     1     -33.838  81.204 -19.051  1.00  0.00    -0.000 C 
BRANCH  11  12
ATOM     12  C   UNL     1     -32.485  80.555 -18.709  1.00  0.00    -0.000 C 
BRANCH  12  13
ATOM     13  C   UNL     1     -31.240  81.395 -19.062  1.00  0.00    -0.000 C 
BRANCH  13  14
ATOM     14  C   UNL     1     -30.291  80.757 -20.092  1.00  0.00    -0.000 C 
BRANCH  14  15
ATOM     15  C   UNL     1     -29.964  81.697 -21.261  1.00  0.00    -0.003 C 
ATOM     16  C   UNL     1     -30.319  83.142 -20.920  1.00  0.00     0.004 C 
ENDBRANCH  14  15
ENDBRANCH  13  14
ENDBRANCH  12  13
ENDBRANCH  11  12
ENDBRANCH  10  11
ENDBRANCH   1  10
TORSDOF 12
ENDMDL
MODEL 3
REMARK VINA RESULT:    -3.733      1.642      3.057
REMARK INTER + INTRA:          -8.273
REMARK INTER:                  -6.726
REMARK INTRA:                  -1.547
REMARK UNBOUND:                -1.920
REMARK SMILES CCCCCCCCCCCCCC(=O)[O-]
REMARK SMILES IDX 8 1 9 2 10 3 11 4 12 5 13 6 14 7 15 8 16 9 7 10 6 11 5 12
REMARK SMILES IDX 4 13 3 14 2 15 1 16
REMARK H PARENT
REMARK Flexibility Score: inf
ROOT
ATOM      1  C   UNL     1     -36.471  81.365 -19.135  1.00  0.00     0.000 C 
ENDROOT
BRANCH   1   2
ATOM      2  C   UNL     1     -35.107  80.789 -19.560  1.00  0.00     0.000 C 
BRANCH   2   3
ATOM      3  C   UNL     1     -33.963  81.196 -18.616  1.00  0.00     0.000 C 
BRANCH   3   4
ATOM      4  C   UNL     1     -32.614  80.583 -19.027  1.00  0.00     0.000 C 
BRANCH   4   5
ATOM      5  C   UNL     1     -31.438  81.559 -18.843  1.00  0.00     0.006 C 
BRANCH   5   6
ATOM      6  C   UNL     1     -31.750  82.954 -19.402  1.00  0.00     0.053 C 
BRANCH   6   7
ATOM      7  C   UNL     1     -31.306  83.091 -20.826  1.00  0.00     0.041 C 
ATOM      8  O   UNL     1     -32.083  82.782 -21.766  1.00  0.00    -0.550 OA
ATOM      9  O   UNL     1     -30.043  83.594 -21.114  1.00  0.00    -0.550 OA
ENDBRANCH   6   7
ENDBRANCH   5   6
ENDBRANCH   4   5
ENDBRANCH   3   4
ENDBRANCH   2   3
ENDBRANCH   1   2
BRANCH   1  10
ATOM     10  C   UNL     1     -36.465  82.175 -17.826  1.00  0.00     0.000 C 
BRANCH  10  11
ATOM     11  C   UNL     1     -36.848  83.651 -18.031  1.00  0.00    -0.000 C 
BRANCH  11  12
ATOM     12  C   UNL     1     -35.713  84.622 -17.657  1.00  0.00    -0.000 C 
BRANCH  12  13
ATOM     13  C   UNL     1     -34.951  85.238 -18.849  1.00  0.00    -0.000 C 
BRANCH  13  14
ATOM     14  C   UNL     1     -34.901  84.364 -20.115  1.00  0.00    -0.000 C 
BRANCH  14  15
ATOM     15  C   UNL     1     -35.622  85.006 -21.309  1.00  0.00    -0.003 C 
ATOM     16  C   UNL     1     -36.737  84.101 -21.828  1.00  0.00     0.004 C 
ENDBRANCH  14  15
ENDBRANCH  13  14
ENDBRANCH  12  13
ENDBRANCH  11  12
ENDBRANCH  10  11
ENDBRANCH   1  10
TORSDOF 12
ENDMDL
MODEL 4
REMARK VINA RESULT:    -3.700     17.043     18.895
REMARK INTER + INTRA:          -8.216
REMARK INTER:                  -6.868
REMARK INTRA:                  -1.349
REMARK UNBOUND:                -1.920
REMARK SMILES CCCCCCCCCCCCCC(=O)[O-]
REMARK SMILES IDX 8 1 9 2 10 3 11 4 12 5 13 6 14 7 15 8 16 9 7 10 6 11 5 12
REMARK SMILES IDX 4 13 3 14 2 15 1 16
REMARK H PARENT
REMARK Flexibility Score: inf
ROOT
ATOM      1  C   UNL     1     -23.526  95.863 -31.148  1.00  0.00     0.000 C 
ENDROOT
BRANCH   1   2
ATOM      2  C   UNL     1     -24.417  96.829 -30.346  1.00  0.00     0.000 C 
BRANCH   2   3
ATOM      3  C   UNL     1     -24.721  96.326 -28.925  1.00  0.00     0.000 C 
BRANCH   3   4
ATOM      4  C   UNL     1     -24.664  94.794 -28.817  1.00  0.00     0.000 C 
BRANCH   4   5
ATOM      5  C   UNL     1     -26.012  94.125 -29.140  1.00  0.00     0.006 C 
BRANCH   5   6
ATOM      6  C   UNL     1     -26.524  93.264 -27.977  1.00  0.00     0.053 C 
BRANCH   6   7
ATOM      7  C   UNL     1     -27.212  94.093 -26.936  1.00  0.00     0.041 C 
ATOM      8  O   UNL     1     -26.538  94.778 -26.123  1.00  0.00    -0.550 OA
ATOM      9  O   UNL     1     -28.599  94.137 -26.887  1.00  0.00    -0.550 OA
ENDBRANCH   6   7
ENDBRANCH   5   6
ENDBRANCH   4   5
ENDBRANCH   3   4
ENDBRANCH   2   3
ENDBRANCH   1   2
BRANCH   1  10
ATOM     10  C   UNL     1     -24.054  95.485 -32.545  1.00  0.00     0.000 C 
BRANCH  10  11
ATOM     11  C   UNL     1     -24.116  93.965 -32.773  1.00  0.00    -0.000 C 
BRANCH  11  12
ATOM     12  C   UNL     1     -23.121  93.186 -31.894  1.00  0.00    -0.000 C 
BRANCH  12  13
ATOM     13  C   UNL     1     -23.419  91.680 -31.733  1.00  0.00    -0.000 C 
BRANCH  13  14
ATOM     14  C   UNL     1     -22.795  91.020 -30.490  1.00  0.00    -0.000 C 
BRANCH  14  15
ATOM     15  C   UNL     1     -23.544  91.365 -29.196  1.00  0.00    -0.003 C 
ATOM     16  C   UNL     1     -23.164  90.408 -28.069  1.00  0.00     0.004 C 
ENDBRANCH  14  15
ENDBRANCH  13  14
ENDBRANCH  12  13
ENDBRANCH  11  12
ENDBRANCH  10  11
ENDBRANCH   1  10
TORSDOF 12
ENDMDL
MODEL 5
REMARK VINA RESULT:    -3.635      2.986      5.173
REMARK INTER + INTRA:          -8.106
REMARK INTER:                  -5.974
REMARK INTRA:                  -2.132
REMARK UNBOUND:                -1.920
REMARK SMILES CCCCCCCCCCCCCC(=O)[O-]
REMARK SMILES IDX 8 1 9 2 10 3 11 4 12 5 13 6 14 7 15 8 16 9 7 10 6 11 5 12
REMARK SMILES IDX 4 13 3 14 2 15 1 16
REMARK H PARENT
REMARK Flexibility Score: inf
ROOT
ATOM      1  C   UNL     1     -37.218  82.295 -18.927  1.00  0.00     0.000 C 
ENDROOT
BRANCH   1   2
ATOM      2  C   UNL     1     -36.937  80.877 -19.459  1.00  0.00     0.000 C 
BRANCH   2   3
ATOM      3  C   UNL     1     -36.734  80.837 -20.983  1.00  0.00     0.000 C 
BRANCH   3   4
ATOM      4  C   UNL     1     -37.720  81.746 -21.733  1.00  0.00     0.000 C 
BRANCH   4   5
ATOM      5  C   UNL     1     -37.016  82.870 -22.515  1.00  0.00     0.006 C 
BRANCH   5   6
ATOM      6  C   UNL     1     -37.420  84.264 -22.016  1.00  0.00     0.053 C 
BRANCH   6   7
ATOM      7  C   UNL     1     -36.702  85.347 -22.760  1.00  0.00     0.041 C 
ATOM      8  O   UNL     1     -35.678  85.886 -22.265  1.00  0.00    -0.550 OA
ATOM      9  O   UNL     1     -37.146  85.739 -24.017  1.00  0.00    -0.550 OA
ENDBRANCH   6   7
ENDBRANCH   5   6
ENDBRANCH   4   5
ENDBRANCH   3   4
ENDBRANCH   2   3
ENDBRANCH   1   2
BRANCH   1  10
ATOM     10  C   UNL     1     -36.408  82.705 -17.683  1.00  0.00     0.000 C 
BRANCH  10  11
ATOM     11  C   UNL     1     -36.001  84.188 -17.694  1.00  0.00    -0.000 C 
BRANCH  11  12
ATOM     12  C   UNL     1     -35.256  84.596 -18.978  1.00  0.00    -0.000 C 
BRANCH  12  13
ATOM     13  C   UNL     1     -33.911  83.879 -19.219  1.00  0.00    -0.000 C 
BRANCH  13  14
ATOM     14  C   UNL     1     -33.805  83.121 -20.554  1.00  0.00    -0.000 C 
BRANCH  14  15
ATOM     15  C   UNL     1     -33.331  81.672 -20.378  1.00  0.00    -0.003 C 
ATOM     16  C   UNL     1     -33.177  81.319 -18.901  1.00  0.00     0.004 C 
ENDBRANCH  14  15
ENDBRANCH  13  14
ENDBRANCH  12  13
ENDBRANCH  11  12
ENDBRANCH  10  11
ENDBRANCH   1  10
TORSDOF 12
ENDMDL
MODEL 6
REMARK VINA RESULT:    -3.631      2.001      3.084
REMARK INTER + INTRA:          -8.098
REMARK INTER:                  -6.762
REMARK INTRA:                  -1.337
REMARK UNBOUND:                -1.920
REMARK SMILES CCCCCCCCCCCCCC(=O)[O-]
REMARK SMILES IDX 8 1 9 2 10 3 11 4 12 5 13 6 14 7 15 8 16 9 7 10 6 11 5 12
REMARK SMILES IDX 4 13 3 14 2 15 1 16
REMARK H PARENT
REMARK Flexibility Score: inf
ROOT
ATOM      1  C   UNL     1     -36.320  83.148 -17.588  1.00  0.00     0.000 C 
ENDROOT
BRANCH   1   2
ATOM      2  C   UNL     1     -36.116  84.674 -17.629  1.00  0.00     0.000 C 
BRANCH   2   3
ATOM      3  C   UNL     1     -34.744  85.081 -18.193  1.00  0.00     0.000 C 
BRANCH   3   4
ATOM      4  C   UNL     1     -34.309  84.204 -19.378  1.00  0.00     0.000 C 
BRANCH   4   5
ATOM      5  C   UNL     1     -32.932  83.551 -19.160  1.00  0.00     0.006 C 
BRANCH   5   6
ATOM      6  C   UNL     1     -32.821  82.189 -19.857  1.00  0.00     0.053 C 
BRANCH   6   7
ATOM      7  C   UNL     1     -32.844  81.060 -18.872  1.00  0.00     0.041 C 
ATOM      8  O   UNL     1     -33.852  80.874 -18.142  1.00  0.00    -0.550 OA
ATOM      9  O   UNL     1     -31.762  80.193 -18.784  1.00  0.00    -0.550 OA
ENDBRANCH   6   7
ENDBRANCH   5   6
ENDBRANCH   4   5
ENDBRANCH   3   4
ENDBRANCH   2   3
ENDBRANCH   1   2
BRANCH   1  10
ATOM     10  C   UNL     1     -37.410  82.603 -18.529  1.00  0.00     0.000 C 
BRANCH  10  11
ATOM     11  C   UNL     1     -36.931  81.414 -19.379  1.00  0.00    -0.000 C 
BRANCH  11  12
ATOM     12  C   UNL     1     -36.474  81.830 -20.789  1.00  0.00    -0.000 C 
BRANCH  12  13
ATOM     13  C   UNL     1     -37.498  82.650 -21.601  1.00  0.00    -0.000 C 
BRANCH  13  14
ATOM     14  C   UNL     1     -37.199  84.156 -21.699  1.00  0.00    -0.000 C 
BRANCH  14  15
ATOM     15  C   UNL     1     -38.123  84.883 -22.687  1.00  0.00    -0.003 C 
ATOM     16  C   UNL     1     -37.317  85.658 -23.725  1.00  0.00     0.004 C 
ENDBRANCH  14  15
ENDBRANCH  13  14
ENDBRANCH  12  13
ENDBRANCH  11  12
ENDBRANCH  10  11
ENDBRANCH   1  10
TORSDOF 12
ENDMDL
MODEL 7
REMARK VINA RESULT:    -3.621     16.141     17.810
REMARK INTER + INTRA:          -8.081
REMARK INTER:                  -6.819
REMARK INTRA:                  -1.262
REMARK UNBOUND:                -1.920
REMARK SMILES CCCCCCCCCCCCCC(=O)[O-]
REMARK SMILES IDX 8 1 9 2 10 3 11 4 12 5 13 6 14 7 15 8 16 9 7 10 6 11 5 12
REMARK SMILES IDX 4 13 3 14 2 15 1 16
REMARK H PARENT
REMARK Flexibility Score: inf
ROOT
ATOM      1  C   UNL     1     -25.524  92.597 -28.295  1.00  0.00     0.000 C 
ENDROOT
BRANCH   1   2
ATOM      2  C   UNL     1     -23.994  92.452 -28.395  1.00  0.00     0.000 C 
BRANCH   2   3
ATOM      3  C   UNL     1     -23.543  91.710 -29.664  1.00  0.00     0.000 C 
BRANCH   3   4
ATOM      4  C   UNL     1     -22.846  90.376 -29.350  1.00  0.00     0.000 C 
BRANCH   4   5
ATOM      5  C   UNL     1     -23.839  89.211 -29.190  1.00  0.00     0.006 C 
BRANCH   5   6
ATOM      6  C   UNL     1     -23.564  88.385 -27.927  1.00  0.00     0.053 C 
BRANCH   6   7
ATOM      7  C   UNL     1     -23.980  89.116 -26.687  1.00  0.00     0.041 C 
ATOM      8  O   UNL     1     -25.153  89.558 -26.575  1.00  0.00    -0.550 OA
ATOM      9  O   UNL     1     -23.081  89.278 -25.640  1.00  0.00    -0.550 OA
ENDBRANCH   6   7
ENDBRANCH   5   6
ENDBRANCH   4   5
ENDBRANCH   3   4
ENDBRANCH   2   3
ENDBRANCH   1   2
BRANCH   1  10
ATOM     10  C   UNL     1     -26.082  93.981 -28.673  1.00  0.00     0.000 C 
BRANCH  10  11
ATOM     11  C   UNL     1     -25.489  95.120 -27.826  1.00  0.00    -0.000 C 
BRANCH  11  12
ATOM     12  C   UNL     1     -24.990  96.302 -28.676  1.00  0.00    -0.000 C 
BRANCH  12  13
ATOM     13  C   UNL     1     -23.957  95.944 -29.765  1.00  0.00    -0.000 C 
BRANCH  13  14
ATOM     14  C   UNL     1     -24.123  96.698 -31.096  1.00  0.00    -0.000 C 
BRANCH  14  15
ATOM     15  C   UNL     1     -23.418  95.998 -32.267  1.00  0.00    -0.003 C 
ATOM     16  C   UNL     1     -23.380  94.486 -32.061  1.00  0.00     0.004 C 
ENDBRANCH  14  15
ENDBRANCH  13  14
ENDBRANCH  12  13
ENDBRANCH  11  12
ENDBRANCH  10  11
ENDBRANCH   1  10
TORSDOF 12
ENDMDL
MODEL 8
REMARK VINA RESULT:    -3.604      2.599      5.604
REMARK INTER + INTRA:          -8.052
REMARK INTER:                  -6.479
REMARK INTRA:                  -1.572
REMARK UNBOUND:                -1.920
REMARK SMILES CCCCCCCCCCCCCC(=O)[O-]
REMARK SMILES IDX 8 1 9 2 10 3 11 4 12 5 13 6 14 7 15 8 16 9 7 10 6 11 5 12
REMARK SMILES IDX 4 13 3 14 2 15 1 16
REMARK H PARENT
REMARK Flexibility Score: inf
ROOT
ATOM      1  C   UNL     1     -34.511  80.822 -20.652  1.00  0.00     0.000 C 
ENDROOT
BRANCH   1   2
ATOM      2  C   UNL     1     -35.909  81.468 -20.703  1.00  0.00     0.000 C 
BRANCH   2   3
ATOM      3  C   UNL     1     -36.753  81.170 -19.453  1.00  0.00     0.000 C 
BRANCH   3   4
ATOM      4  C   UNL     1     -37.279  82.448 -18.778  1.00  0.00     0.000 C 
BRANCH   4   5
ATOM      5  C   UNL     1     -36.386  82.917 -17.616  1.00  0.00     0.006 C 
BRANCH   5   6
ATOM      6  C   UNL     1     -36.281  84.446 -17.547  1.00  0.00     0.053 C 
BRANCH   6   7
ATOM      7  C   UNL     1     -35.095  84.954 -18.309  1.00  0.00     0.041 C 
ATOM      8  O   UNL     1     -34.123  85.471 -17.700  1.00  0.00    -0.550 OA
ATOM      9  O   UNL     1     -35.051  84.825 -19.692  1.00  0.00    -0.550 OA
ENDBRANCH   6   7
ENDBRANCH   5   6
ENDBRANCH   4   5
ENDBRANCH   3   4
ENDBRANCH   2   3
ENDBRANCH   1   2
BRANCH   1  10
ATOM     10  C   UNL     1     -33.807  80.883 -19.284  1.00  0.00     0.000 C 
BRANCH  10  11
ATOM     11  C   UNL     1     -32.931  82.136 -19.114  1.00  0.00    -0.000 C 
BRANCH  11  12
ATOM     12  C   UNL     1     -32.331  82.633 -20.441  1.00  0.00    -0.000 C 
BRANCH  12  13
ATOM     13  C   UNL     1     -30.809  82.433 -20.595  1.00  0.00    -0.000 C 
BRANCH  13  14
ATOM     14  C   UNL     1     -30.244  81.171 -19.919  1.00  0.00    -0.000 C 
BRANCH  14  15
ATOM     15  C   UNL     1     -30.345  79.924 -20.809  1.00  0.00    -0.003 C 
ATOM     16  C   UNL     1     -30.925  78.743 -20.036  1.00  0.00     0.004 C 
ENDBRANCH  14  15
ENDBRANCH  13  14
ENDBRANCH  12  13
ENDBRANCH  11  12
ENDBRANCH  10  11
ENDBRANCH   1  10
TORSDOF 12
ENDMDL
MODEL 9
REMARK VINA RESULT:    -3.553      1.344      3.494
REMARK INTER + INTRA:          -7.966
REMARK INTER:                  -6.400
REMARK INTRA:                  -1.567
REMARK UNBOUND:                -1.920
REMARK SMILES CCCCCCCCCCCCCC(=O)[O-]
REMARK SMILES IDX 8 1 9 2 10 3 11 4 12 5 13 6 14 7 15 8 16 9 7 10 6 11 5 12
REMARK SMILES IDX 4 13 3 14 2 15 1 16
REMARK H PARENT
REMARK Flexibility Score: inf
ROOT
ATOM      1  C   UNL     1     -35.774  79.751 -20.858  1.00  0.00     0.000 C 
ENDROOT
BRANCH   1   2
ATOM      2  C   UNL     1     -34.865  80.732 -21.620  1.00  0.00     0.000 C 
BRANCH   2   3
ATOM      3  C   UNL     1     -34.075  81.666 -20.688  1.00  0.00     0.000 C 
BRANCH   3   4
ATOM      4  C   UNL     1     -33.963  81.115 -19.257  1.00  0.00     0.000 C 
BRANCH   4   5
ATOM      5  C   UNL     1     -32.516  81.112 -18.733  1.00  0.00     0.006 C 
BRANCH   5   6
ATOM      6  C   UNL     1     -31.746  82.371 -19.153  1.00  0.00     0.053 C 
BRANCH   6   7
ATOM      7  C   UNL     1     -30.575  82.038 -20.026  1.00  0.00     0.041 C 
ATOM      8  O   UNL     1     -30.037  82.928 -20.734  1.00  0.00    -0.550 OA
ATOM      9  O   UNL     1     -30.057  80.749 -20.031  1.00  0.00    -0.550 OA
ENDBRANCH   6   7
ENDBRANCH   5   6
ENDBRANCH   4   5
ENDBRANCH   3   4
ENDBRANCH   2   3
ENDBRANCH   1   2
BRANCH   1  10
ATOM     10  C   UNL     1     -37.281  79.893 -21.142  1.00  0.00     0.000 C 
BRANCH  10  11
ATOM     11  C   UNL     1     -37.823  81.296 -20.823  1.00  0.00    -0.000 C 
BRANCH  11  12
ATOM     12  C   UNL     1     -37.610  81.702 -19.353  1.00  0.00    -0.000 C 
BRANCH  12  13
ATOM     13  C   UNL     1     -37.116  83.147 -19.131  1.00  0.00    -0.000 C 
BRANCH  13  14
ATOM     14  C   UNL     1     -36.772  83.502 -17.674  1.00  0.00    -0.000 C 
BRANCH  14  15
ATOM     15  C   UNL     1     -35.766  84.657 -17.565  1.00  0.00    -0.003 C 
ATOM     16  C   UNL     1     -34.916  84.766 -18.828  1.00  0.00     0.004 C 
ENDBRANCH  14  15
ENDBRANCH  13  14
ENDBRANCH  12  13
ENDBRANCH  11  12
ENDBRANCH  10  11
ENDBRANCH   1  10
TORSDOF 12
ENDMDL
