MODEL 1
REMARK VINA RESULT:    -4.680      0.000      0.000
REMARK INTER + INTRA:         -10.553
REMARK INTER:                  -8.511
REMARK INTRA:                  -2.042
REMARK UNBOUND:                -2.042
REMARK SMILES CCCCCCCCCCCCCCCC(=O)[O-]
REMARK SMILES IDX 9 1 10 2 11 3 12 4 13 5 14 6 15 7 16 8 17 9 18 10 8 11 7 12
REMARK SMILES IDX 6 13 5 14 4 15 3 16 2 17 1 18
REMARK H PARENT
REMARK Flexibility Score: inf
ROOT
ATOM      1  C   UNL     1     -22.138  -6.573  16.464  1.00  0.00     0.000 C 
ENDROOT
BRANCH   1   2
ATOM      2  C   UNL     1     -21.007  -5.553  16.286  1.00  0.00     0.000 C 
BRANCH   2   3
ATOM      3  C   UNL     1     -20.418  -5.623  14.872  1.00  0.00     0.000 C 
BRANCH   3   4
ATOM      4  C   UNL     1     -19.040  -6.294  14.882  1.00  0.00     0.000 C 
BRANCH   4   5
ATOM      5  C   UNL     1     -19.168  -7.809  15.102  1.00  0.00     0.000 C 
BRANCH   5   6
ATOM      6  C   UNL     1     -18.271  -8.319  16.241  1.00  0.00     0.006 C 
BRANCH   6   7
ATOM      7  C   UNL     1     -19.063  -9.030  17.347  1.00  0.00     0.053 C 
BRANCH   7   8
ATOM      8  C   UNL     1     -18.163  -9.912  18.152  1.00  0.00     0.041 C 
ATOM      9  O   UNL     1     -17.142  -9.433  18.711  1.00  0.00    -0.550 OA
ATOM     10  O   UNL     1     -18.426 -11.273  18.247  1.00  0.00    -0.550 OA
ENDBRANCH   7   8
ENDBRANCH   6   7
ENDBRANCH   5   6
ENDBRANCH   4   5
ENDBRANCH   3   4
ENDBRANCH   2   3
ENDBRANCH   1   2
BRANCH   1  11
ATOM     11  C   UNL     1     -22.733  -6.979  15.111  1.00  0.00     0.000 C 
BRANCH  11  12
ATOM     12  C   UNL     1     -22.793  -8.507  14.973  1.00  0.00    -0.000 C 
BRANCH  12  13
ATOM     13  C   UNL     1     -22.545  -9.234  16.305  1.00  0.00    -0.000 C 
BRANCH  13  14
ATOM     14  C   UNL     1     -23.424 -10.485  16.473  1.00  0.00    -0.000 C 
BRANCH  14  15
ATOM     15  C   UNL     1     -24.758 -10.168  17.182  1.00  0.00    -0.000 C 
BRANCH  15  16
ATOM     16  C   UNL     1     -24.763  -8.810  17.911  1.00  0.00    -0.000 C 
BRANCH  16  17
ATOM     17  C   UNL     1     -25.825  -7.818  17.409  1.00  0.00    -0.003 C 
ATOM     18  C   UNL     1     -25.561  -6.384  17.868  1.00  0.00     0.004 C 
ENDBRANCH  16  17
ENDBRANCH  15  16
ENDBRANCH  14  15
ENDBRANCH  13  14
ENDBRANCH  12  13
ENDBRANCH  11  12
ENDBRANCH   1  11
TORSDOF 14
ENDMDL
MODEL 2
REMARK VINA RESULT:    -4.668      1.293      4.896
REMARK INTER + INTRA:         -10.530
REMARK INTER:                  -8.750
REMARK INTRA:                  -1.780
REMARK UNBOUND:                -2.042
REMARK SMILES CCCCCCCCCCCCCCCC(=O)[O-]
REMARK SMILES IDX 9 1 10 2 11 3 12 4 13 5 14 6 15 7 16 8 17 9 18 10 8 11 7 12
REMARK SMILES IDX 6 13 5 14 4 15 3 16 2 17 1 18
REMARK H PARENT
REMARK Flexibility Score: inf
ROOT
ATOM      1  C   UNL     1     -23.577  -7.246  18.304  1.00  0.00     0.000 C 
ENDROOT
BRANCH   1   2
ATOM      2  C   UNL     1     -24.164  -8.528  17.703  1.00  0.00     0.000 C 
BRANCH   2   3
ATOM      3  C   UNL     1     -23.433  -8.919  16.413  1.00  0.00     0.000 C 
BRANCH   3   4
ATOM      4  C   UNL     1     -22.186  -9.756  16.719  1.00  0.00     0.000 C 
BRANCH   4   5
ATOM      5  C   UNL     1     -20.905  -8.975  16.391  1.00  0.00     0.000 C 
BRANCH   5   6
ATOM      6  C   UNL     1     -19.966  -8.840  17.600  1.00  0.00     0.006 C 
BRANCH   6   7
ATOM      7  C   UNL     1     -18.484  -8.943  17.215  1.00  0.00     0.053 C 
BRANCH   7   8
ATOM      8  C   UNL     1     -17.718  -9.671  18.272  1.00  0.00     0.041 C 
ATOM      9  O   UNL     1     -16.646  -9.188  18.724  1.00  0.00    -0.550 OA
ATOM     10  O   UNL     1     -18.163 -10.906  18.729  1.00  0.00    -0.550 OA
ENDBRANCH   7   8
ENDBRANCH   6   7
ENDBRANCH   5   6
ENDBRANCH   4   5
ENDBRANCH   3   4
ENDBRANCH   2   3
ENDBRANCH   1   2
BRANCH   1  11
ATOM     11  C   UNL     1     -23.142  -6.270  17.205  1.00  0.00     0.000 C 
BRANCH  11  12
ATOM     12  C   UNL     1     -21.796  -5.616  17.549  1.00  0.00    -0.000 C 
BRANCH  12  13
ATOM     13  C   UNL     1     -21.158  -4.903  16.347  1.00  0.00    -0.000 C 
BRANCH  13  14
ATOM     14  C   UNL     1     -21.389  -5.649  15.021  1.00  0.00    -0.000 C 
BRANCH  14  15
ATOM     15  C   UNL     1     -20.141  -6.440  14.573  1.00  0.00    -0.000 C 
BRANCH  15  16
ATOM     16  C   UNL     1     -18.811  -5.758  14.945  1.00  0.00    -0.000 C 
BRANCH  16  17
ATOM     17  C   UNL     1     -17.595  -6.244  14.138  1.00  0.00    -0.003 C 
ATOM     18  C   UNL     1     -16.875  -5.109  13.410  1.00  0.00     0.004 C 
ENDBRANCH  16  17
ENDBRANCH  15  16
ENDBRANCH  14  15
ENDBRANCH  13  14
ENDBRANCH  12  13
ENDBRANCH  11  12
ENDBRANCH   1  11
TORSDOF 14
ENDMDL
MODEL 3
REMARK VINA RESULT:    -4.645      3.572      6.758
REMARK INTER + INTRA:         -10.489
REMARK INTER:                  -8.968
REMARK INTRA:                  -1.521
REMARK UNBOUND:                -2.042
REMARK SMILES CCCCCCCCCCCCCCCC(=O)[O-]
REMARK SMILES IDX 9 1 10 2 11 3 12 4 13 5 14 6 15 7 16 8 17 9 18 10 8 11 7 12
REMARK SMILES IDX 6 13 5 14 4 15 3 16 2 17 1 18
REMARK H PARENT
REMARK Flexibility Score: inf
ROOT
ATOM      1  C   UNL     1     -21.936  -5.811  17.437  1.00  0.00     0.000 C 
ENDROOT
BRANCH   1   2
ATOM      2  C   UNL     1     -22.086  -7.123  18.215  1.00  0.00     0.000 C 
BRANCH   2   3
ATOM      3  C   UNL     1     -22.669  -8.228  17.327  1.00  0.00     0.000 C 
BRANCH   3   4
ATOM      4  C   UNL     1     -24.138  -8.497  17.674  1.00  0.00     0.000 C 
BRANCH   4   5
ATOM      5  C   UNL     1     -24.698  -7.394  18.585  1.00  0.00     0.000 C 
BRANCH   5   6
ATOM      6  C   UNL     1     -25.802  -6.569  17.905  1.00  0.00     0.006 C 
BRANCH   6   7
ATOM      7  C   UNL     1     -26.566  -7.366  16.839  1.00  0.00     0.053 C 
BRANCH   7   8
ATOM      8  C   UNL     1     -26.606  -6.610  15.549  1.00  0.00     0.041 C 
ATOM      9  O   UNL     1     -25.884  -6.968  14.582  1.00  0.00    -0.550 OA
ATOM     10  O   UNL     1     -27.409  -5.481  15.428  1.00  0.00    -0.550 OA
ENDBRANCH   7   8
ENDBRANCH   6   7
ENDBRANCH   5   6
ENDBRANCH   4   5
ENDBRANCH   3   4
ENDBRANCH   2   3
ENDBRANCH   1   2
BRANCH   1  11
ATOM     11  C   UNL     1     -21.894  -6.067  15.926  1.00  0.00     0.000 C 
BRANCH  11  12
ATOM     12  C   UNL     1     -20.805  -5.218  15.254  1.00  0.00    -0.000 C 
BRANCH  12  13
ATOM     13  C   UNL     1     -19.499  -5.997  15.030  1.00  0.00    -0.000 C 
BRANCH  13  14
ATOM     14  C   UNL     1     -19.699  -7.522  15.084  1.00  0.00    -0.000 C 
BRANCH  14  15
ATOM     15  C   UNL     1     -18.573  -8.229  15.870  1.00  0.00    -0.000 C 
BRANCH  15  16
ATOM     16  C   UNL     1     -19.074  -9.002  17.105  1.00  0.00    -0.000 C 
BRANCH  16  17
ATOM     17  C   UNL     1     -17.987  -9.321  18.145  1.00  0.00    -0.003 C 
ATOM     18  C   UNL     1     -17.999 -10.784  18.586  1.00  0.00     0.004 C 
ENDBRANCH  16  17
ENDBRANCH  15  16
ENDBRANCH  14  15
ENDBRANCH  13  14
ENDBRANCH  12  13
ENDBRANCH  11  12
ENDBRANCH   1  11
TORSDOF 14
ENDMDL
MODEL 4
REMARK VINA RESULT:    -4.551      4.136      7.367
REMARK INTER + INTRA:         -10.318
REMARK INTER:                  -9.121
REMARK INTRA:                  -1.197
REMARK UNBOUND:                -2.042
REMARK SMILES CCCCCCCCCCCCCCCC(=O)[O-]
REMARK SMILES IDX 9 1 10 2 11 3 12 4 13 5 14 6 15 7 16 8 17 9 18 10 8 11 7 12
REMARK SMILES IDX 6 13 5 14 4 15 3 16 2 17 1 18
REMARK H PARENT
REMARK Flexibility Score: inf
ROOT
ATOM      1  C   UNL     1     -21.696  -5.297  17.140  1.00  0.00     0.000 C 
ENDROOT
BRANCH   1   2
ATOM      2  C   UNL     1     -21.935  -6.668  17.783  1.00  0.00     0.000 C 
BRANCH   2   3
ATOM      3  C   UNL     1     -23.407  -6.845  18.175  1.00  0.00     0.000 C 
BRANCH   3   4
ATOM      4  C   UNL     1     -23.896  -8.262  17.854  1.00  0.00     0.000 C 
BRANCH   4   5
ATOM      5  C   UNL     1     -25.321  -8.235  17.280  1.00  0.00     0.000 C 
BRANCH   5   6
ATOM      6  C   UNL     1     -25.446  -7.324  16.049  1.00  0.00     0.006 C 
BRANCH   6   7
ATOM      7  C   UNL     1     -26.802  -6.609  15.977  1.00  0.00     0.053 C 
BRANCH   7   8
ATOM      8  C   UNL     1     -27.086  -6.166  14.577  1.00  0.00     0.041 C 
ATOM      9  O   UNL     1     -27.669  -5.070  14.365  1.00  0.00    -0.550 OA
ATOM     10  O   UNL     1     -26.747  -6.984  13.505  1.00  0.00    -0.550 OA
ENDBRANCH   7   8
ENDBRANCH   6   7
ENDBRANCH   5   6
ENDBRANCH   4   5
ENDBRANCH   3   4
ENDBRANCH   2   3
ENDBRANCH   1   2
BRANCH   1  11
ATOM     11  C   UNL     1     -20.992  -5.438  15.785  1.00  0.00     0.000 C 
BRANCH  11  12
ATOM     12  C   UNL     1     -21.652  -6.532  14.934  1.00  0.00    -0.000 C 
BRANCH  12  13
ATOM     13  C   UNL     1     -20.642  -7.565  14.408  1.00  0.00    -0.000 C 
BRANCH  13  14
ATOM     14  C   UNL     1     -19.325  -7.568  15.203  1.00  0.00    -0.000 C 
BRANCH  14  15
ATOM     15  C   UNL     1     -18.117  -7.167  14.330  1.00  0.00    -0.000 C 
BRANCH  15  16
ATOM     16  C   UNL     1     -17.692  -5.696  14.500  1.00  0.00    -0.000 C 
BRANCH  16  17
ATOM     17  C   UNL     1     -16.851  -5.135  13.342  1.00  0.00    -0.003 C 
ATOM     18  C   UNL     1     -17.332  -3.763  12.870  1.00  0.00     0.004 C 
ENDBRANCH  16  17
ENDBRANCH  15  16
ENDBRANCH  14  15
ENDBRANCH  13  14
ENDBRANCH  12  13
ENDBRANCH  11  12
ENDBRANCH   1  11
TORSDOF 14
ENDMDL
MODEL 5
REMARK VINA RESULT:    -4.487      3.423      6.815
REMARK INTER + INTRA:         -10.201
REMARK INTER:                  -8.453
REMARK INTRA:                  -1.748
REMARK UNBOUND:                -2.042
REMARK SMILES CCCCCCCCCCCCCCCC(=O)[O-]
REMARK SMILES IDX 9 1 10 2 11 3 12 4 13 5 14 6 15 7 16 8 17 9 18 10 8 11 7 12
REMARK SMILES IDX 6 13 5 14 4 15 3 16 2 17 1 18
REMARK H PARENT
REMARK Flexibility Score: inf
ROOT
ATOM      1  C   UNL     1     -21.795  -7.238  18.139  1.00  0.00     0.000 C 
ENDROOT
BRANCH   1   2
ATOM      2  C   UNL     1     -22.166  -8.431  17.251  1.00  0.00     0.000 C 
BRANCH   2   3
ATOM      3  C   UNL     1     -23.687  -8.577  17.129  1.00  0.00     0.000 C 
BRANCH   3   4
ATOM      4  C   UNL     1     -24.189  -8.018  15.793  1.00  0.00     0.000 C 
BRANCH   4   5
ATOM      5  C   UNL     1     -25.421  -7.123  15.999  1.00  0.00     0.000 C 
BRANCH   5   6
ATOM      6  C   UNL     1     -26.060  -7.306  17.385  1.00  0.00     0.006 C 
BRANCH   6   7
ATOM      7  C   UNL     1     -26.554  -5.985  17.988  1.00  0.00     0.053 C 
BRANCH   7   8
ATOM      8  C   UNL     1     -25.899  -5.735  19.309  1.00  0.00     0.041 C 
ATOM      9  O   UNL     1     -24.865  -6.375  19.634  1.00  0.00    -0.550 OA
ATOM     10  O   UNL     1     -26.455  -4.825  20.201  1.00  0.00    -0.550 OA
ENDBRANCH   7   8
ENDBRANCH   6   7
ENDBRANCH   5   6
ENDBRANCH   4   5
ENDBRANCH   3   4
ENDBRANCH   2   3
ENDBRANCH   1   2
BRANCH   1  11
ATOM     11  C   UNL     1     -22.103  -5.911  17.437  1.00  0.00     0.000 C 
BRANCH  11  12
ATOM     12  C   UNL     1     -20.976  -5.525  16.468  1.00  0.00    -0.000 C 
BRANCH  12  13
ATOM     13  C   UNL     1     -21.354  -5.756  14.997  1.00  0.00    -0.000 C 
BRANCH  13  14
ATOM     14  C   UNL     1     -20.572  -6.917  14.357  1.00  0.00    -0.000 C 
BRANCH  14  15
ATOM     15  C   UNL     1     -19.378  -7.364  15.227  1.00  0.00    -0.000 C 
BRANCH  15  16
ATOM     16  C   UNL     1     -18.006  -7.012  14.620  1.00  0.00    -0.000 C 
BRANCH  16  17
ATOM     17  C   UNL     1     -17.712  -5.505  14.531  1.00  0.00    -0.003 C 
ATOM     18  C   UNL     1     -16.866  -5.137  13.313  1.00  0.00     0.004 C 
ENDBRANCH  16  17
ENDBRANCH  15  16
ENDBRANCH  14  15
ENDBRANCH  13  14
ENDBRANCH  12  13
ENDBRANCH  11  12
ENDBRANCH   1  11
TORSDOF 14
ENDMDL
MODEL 6
REMARK VINA RESULT:    -4.452      4.099      7.113
REMARK INTER + INTRA:         -10.137
REMARK INTER:                  -8.241
REMARK INTRA:                  -1.897
REMARK UNBOUND:                -2.042
REMARK SMILES CCCCCCCCCCCCCCCC(=O)[O-]
REMARK SMILES IDX 9 1 10 2 11 3 12 4 13 5 14 6 15 7 16 8 17 9 18 10 8 11 7 12
REMARK SMILES IDX 6 13 5 14 4 15 3 16 2 17 1 18
REMARK H PARENT
REMARK Flexibility Score: inf
ROOT
ATOM      1  C   UNL     1     -23.551  -8.735  17.524  1.00  0.00     0.000 C 
ENDROOT
BRANCH   1   2
ATOM      2  C   UNL     1     -22.905  -7.383  17.849  1.00  0.00     0.000 C 
BRANCH   2   3
ATOM      3  C   UNL     1     -23.918  -6.429  18.494  1.00  0.00     0.000 C 
BRANCH   3   4
ATOM      4  C   UNL     1     -25.335  -7.010  18.440  1.00  0.00     0.000 C 
BRANCH   4   5
ATOM      5  C   UNL     1     -26.293  -6.057  17.710  1.00  0.00     0.000 C 
BRANCH   5   6
ATOM      6  C   UNL     1     -27.072  -6.750  16.581  1.00  0.00     0.006 C 
BRANCH   6   7
ATOM      7  C   UNL     1     -26.304  -6.762  15.253  1.00  0.00     0.053 C 
BRANCH   7   8
ATOM      8  C   UNL     1     -27.229  -6.489  14.110  1.00  0.00     0.041 C 
ATOM      9  O   UNL     1     -27.623  -7.431  13.375  1.00  0.00    -0.550 OA
ATOM     10  O   UNL     1     -27.623  -5.185  13.830  1.00  0.00    -0.550 OA
ENDBRANCH   7   8
ENDBRANCH   6   7
ENDBRANCH   5   6
ENDBRANCH   4   5
ENDBRANCH   3   4
ENDBRANCH   2   3
ENDBRANCH   1   2
BRANCH   1  11
ATOM     11  C   UNL     1     -22.982  -9.321  16.227  1.00  0.00     0.000 C 
BRANCH  11  12
ATOM     12  C   UNL     1     -23.129  -8.329  15.064  1.00  0.00    -0.000 C 
BRANCH  12  13
ATOM     13  C   UNL     1     -21.786  -7.994  14.395  1.00  0.00    -0.000 C 
BRANCH  13  14
ATOM     14  C   UNL     1     -21.333  -6.548  14.661  1.00  0.00    -0.000 C 
BRANCH  14  15
ATOM     15  C   UNL     1     -19.864  -6.475  15.131  1.00  0.00    -0.000 C 
BRANCH  15  16
ATOM     16  C   UNL     1     -19.091  -7.795  14.950  1.00  0.00    -0.000 C 
BRANCH  16  17
ATOM     17  C   UNL     1     -18.471  -8.355  16.241  1.00  0.00    -0.003 C 
ATOM     18  C   UNL     1     -19.520  -8.843  17.239  1.00  0.00     0.004 C 
ENDBRANCH  16  17
ENDBRANCH  15  16
ENDBRANCH  14  15
ENDBRANCH  13  14
ENDBRANCH  12  13
ENDBRANCH  11  12
ENDBRANCH   1  11
TORSDOF 14
ENDMDL
MODEL 7
REMARK VINA RESULT:    -4.405      3.400      6.522
REMARK INTER + INTRA:         -10.052
REMARK INTER:                  -8.240
REMARK INTRA:                  -1.812
REMARK UNBOUND:                -2.042
REMARK SMILES CCCCCCCCCCCCCCCC(=O)[O-]
REMARK SMILES IDX 9 1 10 2 11 3 12 4 13 5 14 6 15 7 16 8 17 9 18 10 8 11 7 12
REMARK SMILES IDX 6 13 5 14 4 15 3 16 2 17 1 18
REMARK H PARENT
REMARK Flexibility Score: inf
ROOT
ATOM      1  C   UNL     1     -22.644  -7.494  14.574  1.00  0.00     0.000 C 
ENDROOT
BRANCH   1   2
ATOM      2  C   UNL     1     -22.639  -8.965  15.005  1.00  0.00     0.000 C 
BRANCH   2   3
ATOM      3  C   UNL     1     -22.643  -9.092  16.533  1.00  0.00     0.000 C 
BRANCH   3   4
ATOM      4  C   UNL     1     -23.847  -9.910  17.016  1.00  0.00     0.000 C 
BRANCH   4   5
ATOM      5  C   UNL     1     -24.972  -8.990  17.512  1.00  0.00     0.000 C 
BRANCH   5   6
ATOM      6  C   UNL     1     -24.449  -7.817  18.356  1.00  0.00     0.006 C 
BRANCH   6   7
ATOM      7  C   UNL     1     -24.942  -6.455  17.848  1.00  0.00     0.053 C 
BRANCH   7   8
ATOM      8  C   UNL     1     -26.189  -6.048  18.567  1.00  0.00     0.041 C 
ATOM      9  O   UNL     1     -26.115  -5.445  19.670  1.00  0.00    -0.550 OA
ATOM     10  O   UNL     1     -27.434  -6.374  18.042  1.00  0.00    -0.550 OA
ENDBRANCH   7   8
ENDBRANCH   6   7
ENDBRANCH   5   6
ENDBRANCH   4   5
ENDBRANCH   3   4
ENDBRANCH   2   3
ENDBRANCH   1   2
BRANCH   1  11
ATOM     11  C   UNL     1     -21.943  -6.612  15.613  1.00  0.00     0.000 C 
BRANCH  11  12
ATOM     12  C   UNL     1     -21.001  -5.606  14.936  1.00  0.00    -0.000 C 
BRANCH  12  13
ATOM     13  C   UNL     1     -19.523  -5.854  15.278  1.00  0.00    -0.000 C 
BRANCH  13  14
ATOM     14  C   UNL     1     -18.900  -6.981  14.437  1.00  0.00    -0.000 C 
BRANCH  14  15
ATOM     15  C   UNL     1     -18.891  -8.330  15.187  1.00  0.00    -0.000 C 
BRANCH  15  16
ATOM     16  C   UNL     1     -18.332  -8.237  16.620  1.00  0.00    -0.000 C 
BRANCH  16  17
ATOM     17  C   UNL     1     -18.935  -9.248  17.609  1.00  0.00    -0.003 C 
ATOM     18  C   UNL     1     -17.888  -9.870  18.534  1.00  0.00     0.004 C 
ENDBRANCH  16  17
ENDBRANCH  15  16
ENDBRANCH  14  15
ENDBRANCH  13  14
ENDBRANCH  12  13
ENDBRANCH  11  12
ENDBRANCH   1  11
TORSDOF 14
ENDMDL
MODEL 8
REMARK VINA RESULT:    -4.354      4.166      7.523
REMARK INTER + INTRA:          -9.960
REMARK INTER:                  -8.562
REMARK INTRA:                  -1.398
REMARK UNBOUND:                -2.042
REMARK SMILES CCCCCCCCCCCCCCCC(=O)[O-]
REMARK SMILES IDX 9 1 10 2 11 3 12 4 13 5 14 6 15 7 16 8 17 9 18 10 8 11 7 12
REMARK SMILES IDX 6 13 5 14 4 15 3 16 2 17 1 18
REMARK H PARENT
REMARK Flexibility Score: inf
ROOT
ATOM      1  C   UNL     1     -22.781  -9.101  16.540  1.00  0.00     0.000 C 
ENDROOT
BRANCH   1   2
ATOM      2  C   UNL     1     -23.950 -10.053  16.818  1.00  0.00     0.000 C 
BRANCH   2   3
ATOM      3  C   UNL     1     -25.035  -9.366  17.656  1.00  0.00     0.000 C 
BRANCH   3   4
ATOM      4  C   UNL     1     -24.611  -7.946  18.049  1.00  0.00     0.000 C 
BRANCH   4   5
ATOM      5  C   UNL     1     -25.680  -6.920  17.640  1.00  0.00     0.000 C 
BRANCH   5   6
ATOM      6  C   UNL     1     -26.559  -7.413  16.479  1.00  0.00     0.006 C 
BRANCH   6   7
ATOM      7  C   UNL     1     -26.108  -6.862  15.120  1.00  0.00     0.053 C 
BRANCH   7   8
ATOM      8  C   UNL     1     -27.220  -6.105  14.467  1.00  0.00     0.041 C 
ATOM      9  O   UNL     1     -27.637  -6.445  13.329  1.00  0.00    -0.550 OA
ATOM     10  O   UNL     1     -27.769  -4.993  15.097  1.00  0.00    -0.550 OA
ENDBRANCH   7   8
ENDBRANCH   6   7
ENDBRANCH   5   6
ENDBRANCH   4   5
ENDBRANCH   3   4
ENDBRANCH   2   3
ENDBRANCH   1   2
BRANCH   1  11
ATOM     11  C   UNL     1     -22.770  -8.655  15.073  1.00  0.00     0.000 C 
BRANCH  11  12
ATOM     12  C   UNL     1     -22.588  -7.135  14.960  1.00  0.00    -0.000 C 
BRANCH  12  13
ATOM     13  C   UNL     1     -21.172  -6.738  14.513  1.00  0.00    -0.000 C 
BRANCH  13  14
ATOM     14  C   UNL     1     -20.139  -6.841  15.648  1.00  0.00    -0.000 C 
BRANCH  14  15
ATOM     15  C   UNL     1     -18.945  -7.744  15.268  1.00  0.00    -0.000 C 
BRANCH  15  16
ATOM     16  C   UNL     1     -18.001  -7.115  14.227  1.00  0.00    -0.000 C 
BRANCH  16  17
ATOM     17  C   UNL     1     -17.649  -5.641  14.490  1.00  0.00    -0.003 C 
ATOM     18  C   UNL     1     -17.016  -4.957  13.279  1.00  0.00     0.004 C 
ENDBRANCH  16  17
ENDBRANCH  15  16
ENDBRANCH  14  15
ENDBRANCH  13  14
ENDBRANCH  12  13
ENDBRANCH  11  12
ENDBRANCH   1  11
TORSDOF 14
ENDMDL
MODEL 9
REMARK VINA RESULT:    -4.304      1.800      3.235
REMARK INTER + INTRA:          -9.868
REMARK INTER:                  -8.024
REMARK INTRA:                  -1.844
REMARK UNBOUND:                -2.042
REMARK SMILES CCCCCCCCCCCCCCCC(=O)[O-]
REMARK SMILES IDX 9 1 10 2 11 3 12 4 13 5 14 6 15 7 16 8 17 9 18 10 8 11 7 12
REMARK SMILES IDX 6 13 5 14 4 15 3 16 2 17 1 18
REMARK H PARENT
REMARK Flexibility Score: inf
ROOT
ATOM      1  C   UNL     1     -23.249  -6.375  18.129  1.00  0.00     0.000 C 
ENDROOT
BRANCH   1   2
ATOM      2  C   UNL     1     -21.773  -6.089  17.831  1.00  0.00     0.000 C 
BRANCH   2   3
ATOM      3  C   UNL     1     -21.625  -4.944  16.822  1.00  0.00     0.000 C 
BRANCH   3   4
ATOM      4  C   UNL     1     -20.842  -5.397  15.585  1.00  0.00     0.000 C 
BRANCH   4   5
ATOM      5  C   UNL     1     -21.576  -6.532  14.855  1.00  0.00     0.000 C 
BRANCH   5   6
ATOM      6  C   UNL     1     -20.642  -7.692  14.473  1.00  0.00     0.006 C 
BRANCH   6   7
ATOM      7  C   UNL     1     -19.331  -7.684  15.271  1.00  0.00     0.053 C 
BRANCH   7   8
ATOM      8  C   UNL     1     -19.423  -8.614  16.438  1.00  0.00     0.041 C 
ATOM      9  O   UNL     1     -20.533  -9.107  16.770  1.00  0.00    -0.550 OA
ATOM     10  O   UNL     1     -18.290  -8.903  17.189  1.00  0.00    -0.550 OA
ENDBRANCH   7   8
ENDBRANCH   6   7
ENDBRANCH   5   6
ENDBRANCH   4   5
ENDBRANCH   3   4
ENDBRANCH   2   3
ENDBRANCH   1   2
BRANCH   1  11
ATOM     11  C   UNL     1     -23.523  -7.883  18.165  1.00  0.00     0.000 C 
BRANCH  11  12
ATOM     12  C   UNL     1     -24.783  -8.233  17.361  1.00  0.00    -0.000 C 
BRANCH  12  13
ATOM     13  C   UNL     1     -25.166  -7.139  16.352  1.00  0.00    -0.000 C 
BRANCH  13  14
ATOM     14  C   UNL     1     -26.672  -6.825  16.358  1.00  0.00    -0.000 C 
BRANCH  14  15
ATOM     15  C   UNL     1     -27.004  -5.584  17.215  1.00  0.00    -0.000 C 
BRANCH  15  16
ATOM     16  C   UNL     1     -27.269  -5.909  18.697  1.00  0.00    -0.000 C 
BRANCH  16  17
ATOM     17  C   UNL     1     -26.577  -4.964  19.693  1.00  0.00    -0.003 C 
ATOM     18  C   UNL     1     -25.716  -5.706  20.715  1.00  0.00     0.004 C 
ENDBRANCH  16  17
ENDBRANCH  15  16
ENDBRANCH  14  15
ENDBRANCH  13  14
ENDBRANCH  12  13
ENDBRANCH  11  12
ENDBRANCH   1  11
TORSDOF 14
ENDMDL
