MODEL 1
REMARK VINA RESULT:    -4.255      0.000      0.000
REMARK INTER + INTRA:          -9.245
REMARK INTER:                  -8.235
REMARK INTRA:                  -1.010
REMARK UNBOUND:                -1.010
REMARK SMILES CCCCCCCCCCCCCCCCCC(=O)[O-]
REMARK SMILES IDX 10 1 11 2 12 3 13 4 14 5 15 6 16 7 17 8 18 9 19 10 20 11
REMARK SMILES IDX 9 12 8 13 7 14 6 15 5 16 4 17 3 18 2 19 1 20
REMARK H PARENT
REMARK Flexibility Score: inf
ROOT
ATOM      1  C   UNL     1       5.631  10.839  33.639  1.00  0.00     0.000 C 
ENDROOT
BRANCH   1   2
ATOM      2  C   UNL     1       5.019  10.212  34.902  1.00  0.00     0.000 C 
BRANCH   2   3
ATOM      3  C   UNL     1       6.087   9.861  35.961  1.00  0.00     0.000 C 
BRANCH   3   4
ATOM      4  C   UNL     1       5.916   8.454  36.563  1.00  0.00     0.000 C 
BRANCH   4   5
ATOM      5  C   UNL     1       4.925   7.548  35.809  1.00  0.00     0.000 C 
BRANCH   5   6
ATOM      6  C   UNL     1       5.390   6.089  35.615  1.00  0.00     0.000 C 
BRANCH   6   7
ATOM      7  C   UNL     1       6.085   5.795  34.272  1.00  0.00     0.006 C 
BRANCH   7   8
ATOM      8  C   UNL     1       6.400   7.066  33.471  1.00  0.00     0.053 C 
BRANCH   8   9
ATOM      9  C   UNL     1       7.830   7.463  33.664  1.00  0.00     0.041 C 
ATOM     10  O   UNL     1       8.657   6.641  34.140  1.00  0.00    -0.550 OA
ATOM     11  O   UNL     1       8.259   8.725  33.275  1.00  0.00    -0.550 OA
ENDBRANCH   8   9
ENDBRANCH   7   8
ENDBRANCH   6   7
ENDBRANCH   5   6
ENDBRANCH   4   5
ENDBRANCH   3   4
ENDBRANCH   2   3
ENDBRANCH   1   2
BRANCH   1  12
ATOM     12  C   UNL     1       5.276  12.327  33.470  1.00  0.00     0.000 C 
BRANCH  12  13
ATOM     13  C   UNL     1       5.372  13.175  34.752  1.00  0.00    -0.000 C 
BRANCH  13  14
ATOM     14  C   UNL     1       5.091  14.667  34.506  1.00  0.00    -0.000 C 
BRANCH  14  15
ATOM     15  C   UNL     1       6.348  15.537  34.663  1.00  0.00    -0.000 C 
BRANCH  15  16
ATOM     16  C   UNL     1       6.038  16.941  35.214  1.00  0.00    -0.000 C 
BRANCH  16  17
ATOM     17  C   UNL     1       6.584  18.059  34.299  1.00  0.00    -0.000 C 
BRANCH  17  18
ATOM     18  C   UNL     1       5.498  18.761  33.465  1.00  0.00    -0.000 C 
BRANCH  18  19
ATOM     19  C   UNL     1       6.033  19.757  32.422  1.00  0.00    -0.003 C 
ATOM     20  C   UNL     1       7.346  20.413  32.849  1.00  0.00     0.004 C 
ENDBRANCH  18  19
ENDBRANCH  17  18
ENDBRANCH  16  17
ENDBRANCH  15  16
ENDBRANCH  14  15
ENDBRANCH  13  14
ENDBRANCH  12  13
ENDBRANCH   1  12
TORSDOF 16
ENDMDL
MODEL 2
REMARK VINA RESULT:    -4.036      3.869      9.875
REMARK INTER + INTRA:          -8.821
REMARK INTER:                  -7.483
REMARK INTRA:                  -1.338
REMARK UNBOUND:                -1.010
REMARK SMILES CCCCCCCCCCCCCCCCCC(=O)[O-]
REMARK SMILES IDX 10 1 11 2 12 3 13 4 14 5 15 6 16 7 17 8 18 9 19 10 20 11
REMARK SMILES IDX 9 12 8 13 7 14 6 15 5 16 4 17 3 18 2 19 1 20
REMARK H PARENT
REMARK Flexibility Score: inf
ROOT
ATOM      1  C   UNL     1       6.270   9.626  34.261  1.00  0.00     0.000 C 
ENDROOT
BRANCH   1   2
ATOM      2  C   UNL     1       5.989  10.495  33.024  1.00  0.00     0.000 C 
BRANCH   2   3
ATOM      3  C   UNL     1       5.090  11.708  33.349  1.00  0.00     0.000 C 
BRANCH   3   4
ATOM      4  C   UNL     1       4.964  11.994  34.857  1.00  0.00     0.000 C 
BRANCH   4   5
ATOM      5  C   UNL     1       4.959  13.488  35.228  1.00  0.00     0.000 C 
BRANCH   5   6
ATOM      6  C   UNL     1       5.814  14.392  34.316  1.00  0.00     0.000 C 
BRANCH   6   7
ATOM      7  C   UNL     1       6.366  15.664  34.985  1.00  0.00     0.006 C 
BRANCH   7   8
ATOM      8  C   UNL     1       5.591  16.930  34.596  1.00  0.00     0.053 C 
BRANCH   8   9
ATOM      9  C   UNL     1       6.432  18.148  34.822  1.00  0.00     0.041 C 
ATOM     10  O   UNL     1       6.886  18.795  33.840  1.00  0.00    -0.550 OA
ATOM     11  O   UNL     1       6.676  18.594  36.114  1.00  0.00    -0.550 OA
ENDBRANCH   8   9
ENDBRANCH   7   8
ENDBRANCH   6   7
ENDBRANCH   5   6
ENDBRANCH   4   5
ENDBRANCH   3   4
ENDBRANCH   2   3
ENDBRANCH   1   2
BRANCH   1  12
ATOM     12  C   UNL     1       7.391   8.596  34.033  1.00  0.00     0.000 C 
BRANCH  12  13
ATOM     13  C   UNL     1       6.940   7.262  33.410  1.00  0.00    -0.000 C 
BRANCH  13  14
ATOM     14  C   UNL     1       5.585   6.775  33.953  1.00  0.00    -0.000 C 
BRANCH  14  15
ATOM     15  C   UNL     1       5.338   5.285  33.667  1.00  0.00    -0.000 C 
BRANCH  15  16
ATOM     16  C   UNL     1       5.764   4.374  34.832  1.00  0.00    -0.000 C 
BRANCH  16  17
ATOM     17  C   UNL     1       5.810   5.133  36.177  1.00  0.00    -0.000 C 
BRANCH  17  18
ATOM     18  C   UNL     1       7.238   5.380  36.698  1.00  0.00    -0.000 C 
BRANCH  18  19
ATOM     19  C   UNL     1       8.328   4.545  36.005  1.00  0.00    -0.003 C 
ATOM     20  C   UNL     1       9.457   5.402  35.433  1.00  0.00     0.004 C 
ENDBRANCH  18  19
ENDBRANCH  17  18
ENDBRANCH  16  17
ENDBRANCH  15  16
ENDBRANCH  14  15
ENDBRANCH  13  14
ENDBRANCH  12  13
ENDBRANCH   1  12
TORSDOF 16
ENDMDL
MODEL 3
REMARK VINA RESULT:    -3.969      2.132      3.975
REMARK INTER + INTRA:          -8.692
REMARK INTER:                  -7.845
REMARK INTRA:                  -0.848
REMARK UNBOUND:                -1.010
REMARK SMILES CCCCCCCCCCCCCCCCCC(=O)[O-]
REMARK SMILES IDX 10 1 11 2 12 3 13 4 14 5 15 6 16 7 17 8 18 9 19 10 20 11
REMARK SMILES IDX 9 12 8 13 7 14 6 15 5 16 4 17 3 18 2 19 1 20
REMARK H PARENT
REMARK Flexibility Score: inf
ROOT
ATOM      1  C   UNL     1       7.794   7.712  33.739  1.00  0.00     0.000 C 
ENDROOT
BRANCH   1   2
ATOM      2  C   UNL     1       6.807   6.752  34.422  1.00  0.00     0.000 C 
BRANCH   2   3
ATOM      3  C   UNL     1       5.727   6.229  33.450  1.00  0.00     0.000 C 
BRANCH   3   4
ATOM      4  C   UNL     1       5.325   4.765  33.707  1.00  0.00     0.000 C 
BRANCH   4   5
ATOM      5  C   UNL     1       5.519   4.291  35.159  1.00  0.00     0.000 C 
BRANCH   5   6
ATOM      6  C   UNL     1       6.125   2.881  35.312  1.00  0.00     0.000 C 
BRANCH   6   7
ATOM      7  C   UNL     1       7.325   2.784  36.273  1.00  0.00     0.006 C 
BRANCH   7   8
ATOM      8  C   UNL     1       7.983   4.142  36.547  1.00  0.00     0.053 C 
BRANCH   8   9
ATOM      9  C   UNL     1       9.368   4.175  35.981  1.00  0.00     0.041 C 
ATOM     10  O   UNL     1       9.784   5.203  35.383  1.00  0.00    -0.550 OA
ATOM     11  O   UNL     1      10.216   3.088  36.152  1.00  0.00    -0.550 OA
ENDBRANCH   8   9
ENDBRANCH   7   8
ENDBRANCH   6   7
ENDBRANCH   5   6
ENDBRANCH   4   5
ENDBRANCH   3   4
ENDBRANCH   2   3
ENDBRANCH   1   2
BRANCH   1  12
ATOM     12  C   UNL     1       7.103   8.923  33.084  1.00  0.00     0.000 C 
BRANCH  12  13
ATOM     13  C   UNL     1       6.116   9.684  33.987  1.00  0.00    -0.000 C 
BRANCH  13  14
ATOM     14  C   UNL     1       5.602  10.986  33.350  1.00  0.00    -0.000 C 
BRANCH  14  15
ATOM     15  C   UNL     1       5.136  12.010  34.397  1.00  0.00    -0.000 C 
BRANCH  15  16
ATOM     16  C   UNL     1       5.240  13.463  33.900  1.00  0.00    -0.000 C 
BRANCH  16  17
ATOM     17  C   UNL     1       5.399  14.467  35.062  1.00  0.00    -0.000 C 
BRANCH  17  18
ATOM     18  C   UNL     1       6.342  15.641  34.741  1.00  0.00    -0.000 C 
BRANCH  18  19
ATOM     19  C   UNL     1       5.661  17.020  34.706  1.00  0.00    -0.003 C 
ATOM     20  C   UNL     1       6.634  18.153  34.380  1.00  0.00     0.004 C 
ENDBRANCH  18  19
ENDBRANCH  17  18
ENDBRANCH  16  17
ENDBRANCH  15  16
ENDBRANCH  14  15
ENDBRANCH  13  14
ENDBRANCH  12  13
ENDBRANCH   1  12
TORSDOF 16
ENDMDL
MODEL 4
REMARK VINA RESULT:    -3.819      3.929     10.340
REMARK INTER + INTRA:          -8.401
REMARK INTER:                  -6.810
REMARK INTRA:                  -1.591
REMARK UNBOUND:                -1.010
REMARK SMILES CCCCCCCCCCCCCCCCCC(=O)[O-]
REMARK SMILES IDX 10 1 11 2 12 3 13 4 14 5 15 6 16 7 17 8 18 9 19 10 20 11
REMARK SMILES IDX 9 12 8 13 7 14 6 15 5 16 4 17 3 18 2 19 1 20
REMARK H PARENT
REMARK Flexibility Score: inf
ROOT
ATOM      1  C   UNL     1       5.764   4.850  35.104  1.00  0.00     0.000 C 
ENDROOT
BRANCH   1   2
ATOM      2  C   UNL     1       5.927   6.377  35.030  1.00  0.00     0.000 C 
BRANCH   2   3
ATOM      3  C   UNL     1       6.429   6.848  33.647  1.00  0.00     0.000 C 
BRANCH   3   4
ATOM      4  C   UNL     1       7.813   7.520  33.692  1.00  0.00     0.000 C 
BRANCH   4   5
ATOM      5  C   UNL     1       7.790   9.050  33.520  1.00  0.00     0.000 C 
BRANCH   5   6
ATOM      6  C   UNL     1       6.458   9.630  33.001  1.00  0.00     0.000 C 
BRANCH   6   7
ATOM      7  C   UNL     1       5.627  10.399  34.044  1.00  0.00     0.006 C 
BRANCH   7   8
ATOM      8  C   UNL     1       5.123  11.754  33.528  1.00  0.00     0.053 C 
BRANCH   8   9
ATOM      9  C   UNL     1       5.332  12.817  34.560  1.00  0.00     0.041 C 
ATOM     10  O   UNL     1       5.451  14.022  34.213  1.00  0.00    -0.550 OA
ATOM     11  O   UNL     1       5.351  12.484  35.908  1.00  0.00    -0.550 OA
ENDBRANCH   8   9
ENDBRANCH   7   8
ENDBRANCH   6   7
ENDBRANCH   5   6
ENDBRANCH   4   5
ENDBRANCH   3   4
ENDBRANCH   2   3
ENDBRANCH   1   2
BRANCH   1  12
ATOM     12  C   UNL     1       5.136   4.247  33.833  1.00  0.00     0.000 C 
BRANCH  12  13
ATOM     13  C   UNL     1       5.057   2.710  33.806  1.00  0.00    -0.000 C 
BRANCH  13  14
ATOM     14  C   UNL     1       5.442   2.066  35.149  1.00  0.00    -0.000 C 
BRANCH  14  15
ATOM     15  C   UNL     1       6.568   1.029  35.003  1.00  0.00    -0.000 C 
BRANCH  15  16
ATOM     16  C   UNL     1       7.488   0.971  36.235  1.00  0.00    -0.000 C 
BRANCH  16  17
ATOM     17  C   UNL     1       7.607   2.340  36.939  1.00  0.00    -0.000 C 
BRANCH  17  18
ATOM     18  C   UNL     1       9.028   2.931  36.907  1.00  0.00    -0.000 C 
BRANCH  18  19
ATOM     19  C   UNL     1       9.083   4.467  36.850  1.00  0.00    -0.003 C 
ATOM     20  C   UNL     1       9.522   4.993  35.483  1.00  0.00     0.004 C 
ENDBRANCH  18  19
ENDBRANCH  17  18
ENDBRANCH  16  17
ENDBRANCH  15  16
ENDBRANCH  14  15
ENDBRANCH  13  14
ENDBRANCH  12  13
ENDBRANCH   1  12
TORSDOF 16
ENDMDL
MODEL 5
REMARK VINA RESULT:    -3.731      3.762      9.790
REMARK INTER + INTRA:          -8.231
REMARK INTER:                  -6.970
REMARK INTRA:                  -1.261
REMARK UNBOUND:                -1.010
REMARK SMILES CCCCCCCCCCCCCCCCCC(=O)[O-]
REMARK SMILES IDX 10 1 11 2 12 3 13 4 14 5 15 6 16 7 17 8 18 9 19 10 20 11
REMARK SMILES IDX 9 12 8 13 7 14 6 15 5 16 4 17 3 18 2 19 1 20
REMARK H PARENT
REMARK Flexibility Score: inf
ROOT
ATOM      1  C   UNL     1       7.091   8.194  33.301  1.00  0.00     0.000 C 
ENDROOT
BRANCH   1   2
ATOM      2  C   UNL     1       6.486   9.311  34.169  1.00  0.00     0.000 C 
BRANCH   2   3
ATOM      3  C   UNL     1       5.841  10.429  33.322  1.00  0.00     0.000 C 
BRANCH   3   4
ATOM      4  C   UNL     1       4.923  11.363  34.132  1.00  0.00     0.000 C 
BRANCH   4   5
ATOM      5  C   UNL     1       4.980  12.843  33.711  1.00  0.00     0.000 C 
BRANCH   5   6
ATOM      6  C   UNL     1       5.613  13.794  34.748  1.00  0.00     0.000 C 
BRANCH   6   7
ATOM      7  C   UNL     1       5.296  15.288  34.546  1.00  0.00     0.006 C 
BRANCH   7   8
ATOM      8  C   UNL     1       6.471  16.204  34.916  1.00  0.00     0.053 C 
BRANCH   8   9
ATOM      9  C   UNL     1       6.107  17.637  34.688  1.00  0.00     0.041 C 
ATOM     10  O   UNL     1       6.629  18.543  35.392  1.00  0.00    -0.550 OA
ATOM     11  O   UNL     1       5.227  17.978  33.669  1.00  0.00    -0.550 OA
ENDBRANCH   8   9
ENDBRANCH   7   8
ENDBRANCH   6   7
ENDBRANCH   5   6
ENDBRANCH   4   5
ENDBRANCH   3   4
ENDBRANCH   2   3
ENDBRANCH   1   2
BRANCH   1  12
ATOM     12  C   UNL     1       6.360   6.848  33.454  1.00  0.00     0.000 C 
BRANCH  12  13
ATOM     13  C   UNL     1       5.061   6.895  34.279  1.00  0.00    -0.000 C 
BRANCH  13  14
ATOM     14  C   UNL     1       4.953   5.746  35.295  1.00  0.00    -0.000 C 
BRANCH  14  15
ATOM     15  C   UNL     1       5.982   4.633  35.038  1.00  0.00    -0.000 C 
BRANCH  15  16
ATOM     16  C   UNL     1       6.916   4.393  36.237  1.00  0.00    -0.000 C 
BRANCH  16  17
ATOM     17  C   UNL     1       7.655   5.680  36.666  1.00  0.00    -0.000 C 
BRANCH  17  18
ATOM     18  C   UNL     1       9.189   5.572  36.570  1.00  0.00    -0.000 C 
BRANCH  18  19
ATOM     19  C   UNL     1       9.701   4.772  35.361  1.00  0.00    -0.003 C 
ATOM     20  C   UNL     1      10.361   5.655  34.302  1.00  0.00     0.004 C 
ENDBRANCH  18  19
ENDBRANCH  17  18
ENDBRANCH  16  17
ENDBRANCH  15  16
ENDBRANCH  14  15
ENDBRANCH  13  14
ENDBRANCH  12  13
ENDBRANCH   1  12
TORSDOF 16
ENDMDL
MODEL 6
REMARK VINA RESULT:    -3.597      2.968      5.328
REMARK INTER + INTRA:          -7.972
REMARK INTER:                  -6.886
REMARK INTRA:                  -1.086
REMARK UNBOUND:                -1.010
REMARK SMILES CCCCCCCCCCCCCCCCCC(=O)[O-]
REMARK SMILES IDX 10 1 11 2 12 3 13 4 14 5 15 6 16 7 17 8 18 9 19 10 20 11
REMARK SMILES IDX 9 12 8 13 7 14 6 15 5 16 4 17 3 18 2 19 1 20
REMARK H PARENT
REMARK Flexibility Score: inf
ROOT
ATOM      1  C   UNL     1       8.595   6.201  34.491  1.00  0.00     0.000 C 
ENDROOT
BRANCH   1   2
ATOM      2  C   UNL     1       8.994   5.742  35.903  1.00  0.00     0.000 C 
BRANCH   2   3
ATOM      3  C   UNL     1       9.448   4.266  35.935  1.00  0.00     0.000 C 
BRANCH   3   4
ATOM      4  C   UNL     1       8.480   3.341  36.695  1.00  0.00     0.000 C 
BRANCH   4   5
ATOM      5  C   UNL     1       7.082   3.214  36.061  1.00  0.00     0.000 C 
BRANCH   5   6
ATOM      6  C   UNL     1       6.062   4.283  36.504  1.00  0.00     0.000 C 
BRANCH   6   7
ATOM      7  C   UNL     1       4.876   4.495  35.545  1.00  0.00     0.006 C 
BRANCH   7   8
ATOM      8  C   UNL     1       4.875   3.511  34.368  1.00  0.00     0.053 C 
BRANCH   8   9
ATOM      9  C   UNL     1       4.941   4.251  33.069  1.00  0.00     0.041 C 
ATOM     10  O   UNL     1       4.912   3.619  31.979  1.00  0.00    -0.550 OA
ATOM     11  O   UNL     1       4.988   5.638  33.060  1.00  0.00    -0.550 OA
ENDBRANCH   8   9
ENDBRANCH   7   8
ENDBRANCH   6   7
ENDBRANCH   5   6
ENDBRANCH   4   5
ENDBRANCH   3   4
ENDBRANCH   2   3
ENDBRANCH   1   2
BRANCH   1  12
ATOM     12  C   UNL     1       7.645   7.412  34.495  1.00  0.00     0.000 C 
BRANCH  12  13
ATOM     13  C   UNL     1       7.943   8.485  33.433  1.00  0.00    -0.000 C 
BRANCH  13  14
ATOM     14  C   UNL     1       6.753   9.427  33.181  1.00  0.00    -0.000 C 
BRANCH  14  15
ATOM     15  C   UNL     1       6.100   9.913  34.485  1.00  0.00    -0.000 C 
BRANCH  15  16
ATOM     16  C   UNL     1       4.967  10.926  34.243  1.00  0.00    -0.000 C 
BRANCH  16  17
ATOM     17  C   UNL     1       5.164  12.226  35.053  1.00  0.00    -0.000 C 
BRANCH  17  18
ATOM     18  C   UNL     1       5.338  13.480  34.177  1.00  0.00    -0.000 C 
BRANCH  18  19
ATOM     19  C   UNL     1       5.797  14.735  34.938  1.00  0.00    -0.003 C 
ATOM     20  C   UNL     1       6.313  14.422  36.342  1.00  0.00     0.004 C 
ENDBRANCH  18  19
ENDBRANCH  17  18
ENDBRANCH  16  17
ENDBRANCH  15  16
ENDBRANCH  14  15
ENDBRANCH  13  14
ENDBRANCH  12  13
ENDBRANCH   1  12
TORSDOF 16
ENDMDL
MODEL 7
REMARK VINA RESULT:    -3.567      2.117      3.273
REMARK INTER + INTRA:          -7.915
REMARK INTER:                  -7.035
REMARK INTRA:                  -0.880
REMARK UNBOUND:                -1.010
REMARK SMILES CCCCCCCCCCCCCCCCCC(=O)[O-]
REMARK SMILES IDX 10 1 11 2 12 3 13 4 14 5 15 6 16 7 17 8 18 9 19 10 20 11
REMARK SMILES IDX 9 12 8 13 7 14 6 15 5 16 4 17 3 18 2 19 1 20
REMARK H PARENT
REMARK Flexibility Score: inf
ROOT
ATOM      1  C   UNL     1       6.201   9.515  33.873  1.00  0.00     0.000 C 
ENDROOT
BRANCH   1   2
ATOM      2  C   UNL     1       7.259   8.540  33.331  1.00  0.00     0.000 C 
BRANCH   2   3
ATOM      3  C   UNL     1       7.006   7.086  33.785  1.00  0.00     0.000 C 
BRANCH   3   4
ATOM      4  C   UNL     1       8.139   6.507  34.652  1.00  0.00     0.000 C 
BRANCH   4   5
ATOM      5  C   UNL     1       7.973   6.738  36.165  1.00  0.00     0.000 C 
BRANCH   5   6
ATOM      6  C   UNL     1       7.391   5.544  36.950  1.00  0.00     0.000 C 
BRANCH   6   7
ATOM      7  C   UNL     1       5.858   5.404  36.889  1.00  0.00     0.006 C 
BRANCH   7   8
ATOM      8  C   UNL     1       5.392   3.944  36.829  1.00  0.00     0.053 C 
BRANCH   8   9
ATOM      9  C   UNL     1       5.735   3.340  35.504  1.00  0.00     0.041 C 
ATOM     10  O   UNL     1       5.466   3.957  34.438  1.00  0.00    -0.550 OA
ATOM     11  O   UNL     1       6.391   2.118  35.444  1.00  0.00    -0.550 OA
ENDBRANCH   8   9
ENDBRANCH   7   8
ENDBRANCH   6   7
ENDBRANCH   5   6
ENDBRANCH   4   5
ENDBRANCH   3   4
ENDBRANCH   2   3
ENDBRANCH   1   2
BRANCH   1  12
ATOM     12  C   UNL     1       5.998  10.748  32.973  1.00  0.00     0.000 C 
BRANCH  12  13
ATOM     13  C   UNL     1       4.889  11.715  33.425  1.00  0.00    -0.000 C 
BRANCH  13  14
ATOM     14  C   UNL     1       5.250  12.485  34.707  1.00  0.00    -0.000 C 
BRANCH  14  15
ATOM     15  C   UNL     1       4.973  13.992  34.586  1.00  0.00    -0.000 C 
BRANCH  15  16
ATOM     16  C   UNL     1       5.974  14.849  35.382  1.00  0.00    -0.000 C 
BRANCH  16  17
ATOM     17  C   UNL     1       6.296  16.181  34.670  1.00  0.00    -0.000 C 
BRANCH  17  18
ATOM     18  C   UNL     1       5.049  17.020  34.334  1.00  0.00    -0.000 C 
BRANCH  18  19
ATOM     19  C   UNL     1       5.349  18.429  33.796  1.00  0.00    -0.003 C 
ATOM     20  C   UNL     1       6.804  18.847  34.010  1.00  0.00     0.004 C 
ENDBRANCH  18  19
ENDBRANCH  17  18
ENDBRANCH  16  17
ENDBRANCH  15  16
ENDBRANCH  14  15
ENDBRANCH  13  14
ENDBRANCH  12  13
ENDBRANCH   1  12
TORSDOF 16
ENDMDL
MODEL 8
REMARK VINA RESULT:    -3.488      3.693     10.226
REMARK INTER + INTRA:          -7.760
REMARK INTER:                  -6.635
REMARK INTRA:                  -1.125
REMARK UNBOUND:                -1.010
REMARK SMILES CCCCCCCCCCCCCCCCCC(=O)[O-]
REMARK SMILES IDX 10 1 11 2 12 3 13 4 14 5 15 6 16 7 17 8 18 9 19 10 20 11
REMARK SMILES IDX 9 12 8 13 7 14 6 15 5 16 4 17 3 18 2 19 1 20
REMARK H PARENT
REMARK Flexibility Score: inf
ROOT
ATOM      1  C   UNL     1       7.886   8.269  33.977  1.00  0.00     0.000 C 
ENDROOT
BRANCH   1   2
ATOM      2  C   UNL     1       6.996   8.889  32.886  1.00  0.00     0.000 C 
BRANCH   2   3
ATOM      3  C   UNL     1       6.091  10.012  33.435  1.00  0.00     0.000 C 
BRANCH   3   4
ATOM      4  C   UNL     1       5.787   9.879  34.938  1.00  0.00     0.000 C 
BRANCH   4   5
ATOM      5  C   UNL     1       5.000  11.057  35.542  1.00  0.00     0.000 C 
BRANCH   5   6
ATOM      6  C   UNL     1       5.046  12.363  34.722  1.00  0.00     0.000 C 
BRANCH   6   7
ATOM      7  C   UNL     1       5.544  13.602  35.491  1.00  0.00     0.006 C 
BRANCH   7   8
ATOM      8  C   UNL     1       5.329  14.910  34.719  1.00  0.00     0.053 C 
BRANCH   8   9
ATOM      9  C   UNL     1       6.044  16.038  35.394  1.00  0.00     0.041 C 
ATOM     10  O   UNL     1       6.575  16.953  34.708  1.00  0.00    -0.550 OA
ATOM     11  O   UNL     1       6.088  16.104  36.781  1.00  0.00    -0.550 OA
ENDBRANCH   8   9
ENDBRANCH   7   8
ENDBRANCH   6   7
ENDBRANCH   5   6
ENDBRANCH   4   5
ENDBRANCH   3   4
ENDBRANCH   2   3
ENDBRANCH   1   2
BRANCH   1  12
ATOM     12  C   UNL     1       7.529   6.804  34.287  1.00  0.00     0.000 C 
BRANCH  12  13
ATOM     13  C   UNL     1       7.971   6.300  35.673  1.00  0.00    -0.000 C 
BRANCH  13  14
ATOM     14  C   UNL     1       9.163   5.329  35.606  1.00  0.00    -0.000 C 
BRANCH  14  15
ATOM     15  C   UNL     1       9.177   4.332  36.775  1.00  0.00    -0.000 C 
BRANCH  15  16
ATOM     16  C   UNL     1       8.573   2.966  36.403  1.00  0.00    -0.000 C 
BRANCH  16  17
ATOM     17  C   UNL     1       7.105   2.835  36.864  1.00  0.00    -0.000 C 
BRANCH  17  18
ATOM     18  C   UNL     1       6.134   2.446  35.734  1.00  0.00    -0.000 C 
BRANCH  18  19
ATOM     19  C   UNL     1       5.636   3.625  34.882  1.00  0.00    -0.003 C 
ATOM     20  C   UNL     1       5.031   3.181  33.551  1.00  0.00     0.004 C 
ENDBRANCH  18  19
ENDBRANCH  17  18
ENDBRANCH  16  17
ENDBRANCH  15  16
ENDBRANCH  14  15
ENDBRANCH  13  14
ENDBRANCH  12  13
ENDBRANCH   1  12
TORSDOF 16
ENDMDL
