MODEL 1
REMARK VINA RESULT:    -3.200      0.000      0.000
REMARK INTER + INTRA:          -3.556
REMARK INTER:                  -3.480
REMARK INTRA:                  -0.076
REMARK UNBOUND:                -0.076
REMARK SMILES CCc1cccc(O)c1
REMARK SMILES IDX 3 1 9 2 7 3 6 4 5 5 4 6 2 7 1 8 8 9
REMARK H PARENT 8 10
REMARK Flexibility Score: inf
ROOT
ATOM      1  C   UNL     1     -26.186  53.300  43.699  1.00  0.00    -0.045 A 
ATOM      2  C   UNL     1     -26.834  53.705  44.877  1.00  0.00     0.049 A 
ATOM      3  C   UNL     1     -26.553  54.956  45.446  1.00  0.00     0.115 A 
ATOM      4  C   UNL     1     -25.616  55.800  44.839  1.00  0.00     0.046 A 
ATOM      5  C   UNL     1     -24.959  55.396  43.674  1.00  0.00     0.004 A 
ATOM      6  C   UNL     1     -25.237  54.149  43.107  1.00  0.00     0.004 A 
ENDROOT
BRANCH   1   7
ATOM      7  C   UNL     1     -26.463  51.943  43.108  1.00  0.00     0.032 C 
ATOM      8  C   UNL     1     -25.726  51.771  41.783  1.00  0.00     0.009 C 
ENDBRANCH   1   7
BRANCH   3   9
ATOM      9  O   UNL     1     -27.196  55.367  46.610  1.00  0.00    -0.508 OA
ATOM     10  H   UNL     1     -27.463  56.334  46.756  1.00  0.00     0.293 HD
ENDBRANCH   3   9
TORSDOF 2
ENDMDL
MODEL 2
REMARK VINA RESULT:    -3.067      1.136      2.571
REMARK INTER + INTRA:          -3.412
REMARK INTER:                  -3.343
REMARK INTRA:                  -0.069
REMARK UNBOUND:                -0.076
REMARK SMILES CCc1cccc(O)c1
REMARK SMILES IDX 3 1 9 2 7 3 6 4 5 5 4 6 2 7 1 8 8 9
REMARK H PARENT 8 10
REMARK Flexibility Score: inf
ROOT
ATOM      1  C   UNL     1     -25.158  54.735  43.218  1.00  0.00    -0.045 A 
ATOM      2  C   UNL     1     -25.661  55.329  44.387  1.00  0.00     0.049 A 
ATOM      3  C   UNL     1     -26.592  54.647  45.184  1.00  0.00     0.115 A 
ATOM      4  C   UNL     1     -27.028  53.372  44.806  1.00  0.00     0.046 A 
ATOM      5  C   UNL     1     -26.541  52.782  43.636  1.00  0.00     0.004 A 
ATOM      6  C   UNL     1     -25.614  53.461  42.841  1.00  0.00     0.004 A 
ENDROOT
BRANCH   1   7
ATOM      7  C   UNL     1     -24.184  55.481  42.346  1.00  0.00     0.032 C 
ATOM      8  C   UNL     1     -24.615  55.426  40.884  1.00  0.00     0.009 C 
ENDBRANCH   1   7
BRANCH   3   9
ATOM      9  O   UNL     1     -27.090  55.226  46.348  1.00  0.00    -0.508 OA
ATOM     10  H   UNL     1     -27.989  55.694  46.365  1.00  0.00     0.293 HD
ENDBRANCH   3   9
TORSDOF 2
ENDMDL
MODEL 3
REMARK VINA RESULT:    -2.985      2.457      3.749
REMARK INTER + INTRA:          -3.322
REMARK INTER:                  -3.246
REMARK INTRA:                  -0.076
REMARK UNBOUND:                -0.076
REMARK SMILES CCc1cccc(O)c1
REMARK SMILES IDX 3 1 9 2 7 3 6 4 5 5 4 6 2 7 1 8 8 9
REMARK H PARENT 8 10
REMARK Flexibility Score: inf
ROOT
ATOM      1  C   UNL     1     -26.045  53.985  43.999  1.00  0.00    -0.045 A 
ATOM      2  C   UNL     1     -26.329  52.994  43.044  1.00  0.00     0.049 A 
ATOM      3  C   UNL     1     -25.754  53.056  41.767  1.00  0.00     0.115 A 
ATOM      4  C   UNL     1     -24.899  54.114  41.440  1.00  0.00     0.046 A 
ATOM      5  C   UNL     1     -24.624  55.110  42.381  1.00  0.00     0.004 A 
ATOM      6  C   UNL     1     -25.197  55.050  43.655  1.00  0.00     0.004 A 
ENDROOT
BRANCH   1   7
ATOM      7  C   UNL     1     -26.689  53.936  45.359  1.00  0.00     0.032 C 
ATOM      8  C   UNL     1     -26.366  55.197  46.154  1.00  0.00     0.009 C 
ENDBRANCH   1   7
BRANCH   3   9
ATOM      9  O   UNL     1     -26.026  52.074  40.818  1.00  0.00    -0.508 OA
ATOM     10  H   UNL     1     -25.284  51.543  40.376  1.00  0.00     0.293 HD
ENDBRANCH   3   9
TORSDOF 2
ENDMDL
MODEL 4
REMARK VINA RESULT:    -2.972      5.466      6.929
REMARK INTER + INTRA:          -3.308
REMARK INTER:                  -3.234
REMARK INTRA:                  -0.074
REMARK UNBOUND:                -0.076
REMARK SMILES CCc1cccc(O)c1
REMARK SMILES IDX 3 1 9 2 7 3 6 4 5 5 4 6 2 7 1 8 8 9
REMARK H PARENT 8 10
REMARK Flexibility Score: inf
ROOT
ATOM      1  C   UNL     1     -28.150  48.062  40.514  1.00  0.00    -0.045 A 
ATOM      2  C   UNL     1     -27.680  49.313  40.081  1.00  0.00     0.049 A 
ATOM      3  C   UNL     1     -26.710  50.002  40.824  1.00  0.00     0.115 A 
ATOM      4  C   UNL     1     -26.215  49.442  42.007  1.00  0.00     0.046 A 
ATOM      5  C   UNL     1     -26.689  48.205  42.450  1.00  0.00     0.004 A 
ATOM      6  C   UNL     1     -27.656  47.518  41.711  1.00  0.00     0.004 A 
ENDROOT
BRANCH   1   7
ATOM      7  C   UNL     1     -29.214  47.339  39.734  1.00  0.00     0.032 C 
ATOM      8  C   UNL     1     -30.047  46.450  40.653  1.00  0.00     0.009 C 
ENDBRANCH   1   7
BRANCH   3   9
ATOM      9  O   UNL     1     -26.235  51.239  40.396  1.00  0.00    -0.508 OA
ATOM     10  H   UNL     1     -26.642  52.106  40.726  1.00  0.00     0.293 HD
ENDBRANCH   3   9
TORSDOF 2
ENDMDL
MODEL 5
REMARK VINA RESULT:    -2.950      2.244      4.145
REMARK INTER + INTRA:          -3.284
REMARK INTER:                  -3.209
REMARK INTRA:                  -0.075
REMARK UNBOUND:                -0.076
REMARK SMILES CCc1cccc(O)c1
REMARK SMILES IDX 3 1 9 2 7 3 6 4 5 5 4 6 2 7 1 8 8 9
REMARK H PARENT 8 10
REMARK Flexibility Score: inf
ROOT
ATOM      1  C   UNL     1     -25.955  54.755  44.502  1.00  0.00    -0.045 A 
ATOM      2  C   UNL     1     -25.550  54.532  43.175  1.00  0.00     0.049 A 
ATOM      3  C   UNL     1     -25.928  53.359  42.506  1.00  0.00     0.115 A 
ATOM      4  C   UNL     1     -26.706  52.403  43.168  1.00  0.00     0.046 A 
ATOM      5  C   UNL     1     -27.101  52.613  44.492  1.00  0.00     0.004 A 
ATOM      6  C   UNL     1     -26.724  53.781  45.160  1.00  0.00     0.004 A 
ENDROOT
BRANCH   1   7
ATOM      7  C   UNL     1     -25.521  55.999  45.230  1.00  0.00     0.032 C 
ATOM      8  C   UNL     1     -25.658  55.817  46.738  1.00  0.00     0.009 C 
ENDBRANCH   1   7
BRANCH   3   9
ATOM      9  O   UNL     1     -25.536  53.135  41.189  1.00  0.00    -0.508 OA
ATOM     10  H   UNL     1     -26.057  53.516  40.409  1.00  0.00     0.293 HD
ENDBRANCH   3   9
TORSDOF 2
ENDMDL
MODEL 6
REMARK VINA RESULT:    -2.896      2.178      3.598
REMARK INTER + INTRA:          -3.225
REMARK INTER:                  -3.176
REMARK INTRA:                  -0.049
REMARK UNBOUND:                -0.076
REMARK SMILES CCc1cccc(O)c1
REMARK SMILES IDX 3 1 9 2 7 3 6 4 5 5 4 6 2 7 1 8 8 9
REMARK H PARENT 8 10
REMARK Flexibility Score: inf
ROOT
ATOM      1  C   UNL     1     -25.281  54.897  43.486  1.00  0.00    -0.045 A 
ATOM      2  C   UNL     1     -25.532  53.781  42.671  1.00  0.00     0.049 A 
ATOM      3  C   UNL     1     -26.397  52.766  43.106  1.00  0.00     0.115 A 
ATOM      4  C   UNL     1     -27.006  52.864  44.361  1.00  0.00     0.046 A 
ATOM      5  C   UNL     1     -26.750  53.965  45.182  1.00  0.00     0.004 A 
ATOM      6  C   UNL     1     -25.887  54.977  44.751  1.00  0.00     0.004 A 
ENDROOT
BRANCH   1   7
ATOM      7  C   UNL     1     -24.327  55.970  43.034  1.00  0.00     0.032 C 
ATOM      8  C   UNL     1     -24.345  56.102  41.514  1.00  0.00     0.009 C 
ENDBRANCH   1   7
BRANCH   3   9
ATOM      9  O   UNL     1     -26.655  51.661  42.300  1.00  0.00    -0.508 OA
ATOM     10  H   UNL     1     -26.564  50.715  42.653  1.00  0.00     0.293 HD
ENDBRANCH   3   9
TORSDOF 2
ENDMDL
MODEL 7
REMARK VINA RESULT:    -2.841      6.411      7.535
REMARK INTER + INTRA:          -3.166
REMARK INTER:                  -3.114
REMARK INTRA:                  -0.051
REMARK UNBOUND:                -0.076
REMARK SMILES CCc1cccc(O)c1
REMARK SMILES IDX 3 1 9 2 7 3 6 4 5 5 4 6 2 7 1 8 8 9
REMARK H PARENT 8 10
REMARK Flexibility Score: inf
ROOT
ATOM      1  C   UNL     1     -27.937  47.339  41.689  1.00  0.00    -0.045 A 
ATOM      2  C   UNL     1     -27.213  48.530  41.512  1.00  0.00     0.049 A 
ATOM      3  C   UNL     1     -27.403  49.310  40.362  1.00  0.00     0.115 A 
ATOM      4  C   UNL     1     -28.314  48.896  39.384  1.00  0.00     0.046 A 
ATOM      5  C   UNL     1     -29.027  47.705  39.548  1.00  0.00     0.004 A 
ATOM      6  C   UNL     1     -28.837  46.926  40.693  1.00  0.00     0.004 A 
ENDROOT
BRANCH   1   7
ATOM      7  C   UNL     1     -27.708  46.485  42.907  1.00  0.00     0.032 C 
ATOM      8  C   UNL     1     -26.777  47.186  43.891  1.00  0.00     0.009 C 
ENDBRANCH   1   7
BRANCH   3   9
ATOM      9  O   UNL     1     -26.694  50.495  40.183  1.00  0.00    -0.508 OA
ATOM     10  H   UNL     1     -26.643  50.952  39.280  1.00  0.00     0.293 HD
ENDBRANCH   3   9
TORSDOF 2
ENDMDL
MODEL 8
REMARK VINA RESULT:    -2.831      2.346      3.944
REMARK INTER + INTRA:          -3.154
REMARK INTER:                  -3.081
REMARK INTRA:                  -0.074
REMARK UNBOUND:                -0.076
REMARK SMILES CCc1cccc(O)c1
REMARK SMILES IDX 3 1 9 2 7 3 6 4 5 5 4 6 2 7 1 8 8 9
REMARK H PARENT 8 10
REMARK Flexibility Score: inf
ROOT
ATOM      1  C   UNL     1     -26.318  53.257  44.270  1.00  0.00    -0.045 A 
ATOM      2  C   UNL     1     -26.419  51.877  44.515  1.00  0.00     0.049 A 
ATOM      3  C   UNL     1     -26.205  50.957  43.478  1.00  0.00     0.115 A 
ATOM      4  C   UNL     1     -25.898  51.417  42.193  1.00  0.00     0.046 A 
ATOM      5  C   UNL     1     -25.810  52.789  41.941  1.00  0.00     0.004 A 
ATOM      6  C   UNL     1     -26.024  53.707  42.973  1.00  0.00     0.004 A 
ENDROOT
BRANCH   1   7
ATOM      7  C   UNL     1     -26.581  54.245  45.375  1.00  0.00     0.032 C 
ATOM      8  C   UNL     1     -25.982  55.606  45.035  1.00  0.00     0.009 C 
ENDBRANCH   1   7
BRANCH   3   9
ATOM      9  O   UNL     1     -26.296  49.588  43.715  1.00  0.00    -0.508 OA
ATOM     10  H   UNL     1     -25.824  48.915  43.123  1.00  0.00     0.293 HD
ENDBRANCH   3   9
TORSDOF 2
ENDMDL
MODEL 9
REMARK VINA RESULT:    -2.785      9.087     10.076
REMARK INTER + INTRA:          -3.105
REMARK INTER:                  -3.051
REMARK INTRA:                  -0.053
REMARK UNBOUND:                -0.076
REMARK SMILES CCc1cccc(O)c1
REMARK SMILES IDX 3 1 9 2 7 3 6 4 5 5 4 6 2 7 1 8 8 9
REMARK H PARENT 8 10
REMARK Flexibility Score: inf
ROOT
ATOM      1  C   UNL     1     -27.327  57.651  36.017  1.00  0.00    -0.045 A 
ATOM      2  C   UNL     1     -27.258  56.260  35.835  1.00  0.00     0.049 A 
ATOM      3  C   UNL     1     -27.543  55.694  34.584  1.00  0.00     0.115 A 
ATOM      4  C   UNL     1     -27.907  56.520  33.515  1.00  0.00     0.046 A 
ATOM      5  C   UNL     1     -27.991  57.903  33.693  1.00  0.00     0.004 A 
ATOM      6  C   UNL     1     -27.707  58.468  34.940  1.00  0.00     0.004 A 
ENDROOT
BRANCH   1   7
ATOM      7  C   UNL     1     -27.052  58.255  37.368  1.00  0.00     0.032 C 
ATOM      8  C   UNL     1     -28.329  58.318  38.200  1.00  0.00     0.009 C 
ENDBRANCH   1   7
BRANCH   3   9
ATOM      9  O   UNL     1     -27.470  54.316  34.395  1.00  0.00    -0.508 OA
ATOM     10  H   UNL     1     -27.462  53.908  33.467  1.00  0.00     0.293 HD
ENDBRANCH   3   9
TORSDOF 2
ENDMDL
