MODEL 1
REMARK VINA RESULT:    -4.544      0.000      0.000
REMARK INTER + INTRA:          -5.541
REMARK INTER:                  -5.209
REMARK INTRA:                  -0.332
REMARK UNBOUND:                -0.332
REMARK SMILES COc1ccc(C(C)=O)c(O)c1
REMARK SMILES IDX 6 1 10 2 12 3 3 4 4 5 5 6 7 7 8 8 9 9 11 10 2 12 1 13
REMARK H PARENT 11 11
REMARK Flexibility Score: inf
ROOT
ATOM      1  C   UNL     1      17.709 -45.123  31.960  1.00  0.00     0.059 A 
ATOM      2  C   UNL     1      17.565 -45.061  30.554  1.00  0.00     0.130 A 
ATOM      3  C   UNL     1      16.288 -45.087  29.975  1.00  0.00     0.093 A 
ATOM      4  C   UNL     1      15.138 -45.181  30.778  1.00  0.00     0.122 A 
ATOM      5  C   UNL     1      15.281 -45.246  32.165  1.00  0.00     0.047 A 
ATOM      6  C   UNL     1      16.546 -45.218  32.752  1.00  0.00     0.019 A 
ENDROOT
BRANCH   1   7
ATOM      7  C   UNL     1      19.054 -45.085  32.603  1.00  0.00     0.163 C 
ATOM      8  C   UNL     1      19.529 -46.187  33.503  1.00  0.00     0.093 C 
ATOM      9  O   UNL     1      19.815 -44.098  32.422  1.00  0.00    -0.294 OA
ENDBRANCH   1   7
BRANCH   2  10
ATOM     10  O   UNL     1      18.686 -44.983  29.728  1.00  0.00    -0.507 OA
ATOM     11  H   UNL     1      19.280 -45.786  29.556  1.00  0.00     0.293 HD
ENDBRANCH   2  10
BRANCH   4  12
ATOM     12  O   UNL     1      13.843 -45.211  30.239  1.00  0.00    -0.497 OA
ATOM     13  C   UNL     1      13.549 -45.180  28.846  1.00  0.00     0.278 C 
ENDBRANCH   4  12
TORSDOF 3
ENDMDL
MODEL 2
REMARK VINA RESULT:    -4.524      2.160      2.562
REMARK INTER + INTRA:          -5.517
REMARK INTER:                  -5.201
REMARK INTRA:                  -0.316
REMARK UNBOUND:                -0.332
REMARK SMILES COc1ccc(C(C)=O)c(O)c1
REMARK SMILES IDX 6 1 10 2 12 3 3 4 4 5 5 6 7 7 8 8 9 9 11 10 2 12 1 13
REMARK H PARENT 11 11
REMARK Flexibility Score: inf
ROOT
ATOM      1  C   UNL     1      17.647 -44.581  32.910  1.00  0.00     0.059 A 
ATOM      2  C   UNL     1      17.317 -43.209  33.012  1.00  0.00     0.130 A 
ATOM      3  C   UNL     1      15.973 -42.808  33.033  1.00  0.00     0.093 A 
ATOM      4  C   UNL     1      14.940 -43.756  32.950  1.00  0.00     0.122 A 
ATOM      5  C   UNL     1      15.267 -45.110  32.846  1.00  0.00     0.047 A 
ATOM      6  C   UNL     1      16.600 -45.520  32.826  1.00  0.00     0.019 A 
ENDROOT
BRANCH   1   7
ATOM      7  C   UNL     1      19.067 -45.037  32.896  1.00  0.00     0.163 C 
ATOM      8  C   UNL     1      19.503 -46.280  33.613  1.00  0.00     0.093 C 
ATOM      9  O   UNL     1      19.944 -44.359  32.297  1.00  0.00    -0.294 OA
ENDBRANCH   1   7
BRANCH   2  10
ATOM     10  O   UNL     1      18.319 -42.241  33.081  1.00  0.00    -0.507 OA
ATOM     11  H   UNL     1      18.529 -41.632  32.298  1.00  0.00     0.293 HD
ENDBRANCH   2  10
BRANCH   4  12
ATOM     12  O   UNL     1      13.584 -43.398  32.966  1.00  0.00    -0.497 OA
ATOM     13  C   UNL     1      12.928 -42.682  31.925  1.00  0.00     0.278 C 
ENDBRANCH   4  12
TORSDOF 3
ENDMDL
MODEL 3
REMARK VINA RESULT:    -4.465      2.099      3.622
REMARK INTER + INTRA:          -5.449
REMARK INTER:                  -5.146
REMARK INTRA:                  -0.304
REMARK UNBOUND:                -0.332
REMARK SMILES COc1ccc(C(C)=O)c(O)c1
REMARK SMILES IDX 6 1 10 2 12 3 3 4 4 5 5 6 7 7 8 8 9 9 11 10 2 12 1 13
REMARK H PARENT 11 11
REMARK Flexibility Score: inf
ROOT
ATOM      1  C   UNL     1      15.688 -45.077  31.091  1.00  0.00     0.059 A 
ATOM      2  C   UNL     1      17.081 -45.073  30.848  1.00  0.00     0.130 A 
ATOM      3  C   UNL     1      17.568 -45.183  29.537  1.00  0.00     0.093 A 
ATOM      4  C   UNL     1      16.684 -45.303  28.451  1.00  0.00     0.122 A 
ATOM      5  C   UNL     1      15.309 -45.309  28.692  1.00  0.00     0.047 A 
ATOM      6  C   UNL     1      14.814 -45.198  29.992  1.00  0.00     0.019 A 
ENDROOT
BRANCH   1   7
ATOM      7  C   UNL     1      15.143 -44.950  32.473  1.00  0.00     0.163 C 
ATOM      8  C   UNL     1      14.420 -43.716  32.925  1.00  0.00     0.093 C 
ATOM      9  O   UNL     1      15.307 -45.880  33.307  1.00  0.00    -0.294 OA
ENDBRANCH   1   7
BRANCH   2  10
ATOM     10  O   UNL     1      17.986 -44.972  31.905  1.00  0.00    -0.507 OA
ATOM     11  H   UNL     1      18.647 -44.206  31.972  1.00  0.00     0.293 HD
ENDBRANCH   2  10
BRANCH   4  12
ATOM     12  O   UNL     1      17.129 -45.416  27.126  1.00  0.00    -0.497 OA
ATOM     13  C   UNL     1      17.368 -44.312  26.259  1.00  0.00     0.278 C 
ENDBRANCH   4  12
TORSDOF 3
ENDMDL
MODEL 4
REMARK VINA RESULT:    -4.382      2.300      3.800
REMARK INTER + INTRA:          -5.355
REMARK INTER:                  -5.098
REMARK INTRA:                  -0.257
REMARK UNBOUND:                -0.332
REMARK SMILES COc1ccc(C(C)=O)c(O)c1
REMARK SMILES IDX 6 1 10 2 12 3 3 4 4 5 5 6 7 7 8 8 9 9 11 10 2 12 1 13
REMARK H PARENT 11 11
REMARK Flexibility Score: inf
ROOT
ATOM      1  C   UNL     1      15.978 -45.035  31.040  1.00  0.00     0.059 A 
ATOM      2  C   UNL     1      15.078 -45.293  29.979  1.00  0.00     0.130 A 
ATOM      3  C   UNL     1      15.554 -45.420  28.666  1.00  0.00     0.093 A 
ATOM      4  C   UNL     1      16.924 -45.287  28.384  1.00  0.00     0.122 A 
ATOM      5  C   UNL     1      17.812 -45.028  29.431  1.00  0.00     0.047 A 
ATOM      6  C   UNL     1      17.349 -44.903  30.741  1.00  0.00     0.019 A 
ENDROOT
BRANCH   1   7
ATOM      7  C   UNL     1      15.500 -44.907  32.447  1.00  0.00     0.163 C 
ATOM      8  C   UNL     1      15.436 -43.579  33.140  1.00  0.00     0.093 C 
ATOM      9  O   UNL     1      15.163 -45.933  33.097  1.00  0.00    -0.294 OA
ENDBRANCH   1   7
BRANCH   2  10
ATOM     10  O   UNL     1      13.709 -45.415  30.223  1.00  0.00    -0.507 OA
ATOM     11  H   UNL     1      13.281 -45.047  31.064  1.00  0.00     0.293 HD
ENDBRANCH   2  10
BRANCH   4  12
ATOM     12  O   UNL     1      17.442 -45.404  27.086  1.00  0.00    -0.497 OA
ATOM     13  C   UNL     1      17.390 -44.376  26.102  1.00  0.00     0.278 C 
ENDBRANCH   4  12
TORSDOF 3
ENDMDL
MODEL 5
REMARK VINA RESULT:    -4.310      2.027      2.668
REMARK INTER + INTRA:          -5.272
REMARK INTER:                  -4.927
REMARK INTRA:                  -0.345
REMARK UNBOUND:                -0.332
REMARK SMILES COc1ccc(C(C)=O)c(O)c1
REMARK SMILES IDX 6 1 10 2 12 3 3 4 4 5 5 6 7 7 8 8 9 9 11 10 2 12 1 13
REMARK H PARENT 11 11
REMARK Flexibility Score: inf
ROOT
ATOM      1  C   UNL     1      16.370 -44.294  32.375  1.00  0.00     0.059 A 
ATOM      2  C   UNL     1      15.508 -43.349  32.980  1.00  0.00     0.130 A 
ATOM      3  C   UNL     1      14.189 -43.207  32.527  1.00  0.00     0.093 A 
ATOM      4  C   UNL     1      13.706 -43.994  31.466  1.00  0.00     0.122 A 
ATOM      5  C   UNL     1      14.558 -44.924  30.868  1.00  0.00     0.047 A 
ATOM      6  C   UNL     1      15.872 -45.075  31.312  1.00  0.00     0.019 A 
ENDROOT
BRANCH   1   7
ATOM      7  C   UNL     1      17.774 -44.474  32.845  1.00  0.00     0.163 C 
ATOM      8  C   UNL     1      18.333 -45.830  33.159  1.00  0.00     0.093 C 
ATOM      9  O   UNL     1      18.518 -43.472  33.016  1.00  0.00    -0.294 OA
ENDBRANCH   1   7
BRANCH   2  10
ATOM     10  O   UNL     1      15.961 -42.542  34.024  1.00  0.00    -0.507 OA
ATOM     11  H   UNL     1      15.787 -41.544  34.042  1.00  0.00     0.293 HD
ENDBRANCH   2  10
BRANCH   4  12
ATOM     12  O   UNL     1      12.394 -43.883  30.981  1.00  0.00    -0.497 OA
ATOM     13  C   UNL     1      12.002 -44.183  29.646  1.00  0.00     0.278 C 
ENDBRANCH   4  12
TORSDOF 3
ENDMDL
MODEL 6
REMARK VINA RESULT:    -4.295      4.050      5.662
REMARK INTER + INTRA:          -5.254
REMARK INTER:                  -4.939
REMARK INTRA:                  -0.315
REMARK UNBOUND:                -0.332
REMARK SMILES COc1ccc(C(C)=O)c(O)c1
REMARK SMILES IDX 6 1 10 2 12 3 3 4 4 5 5 6 7 7 8 8 9 9 11 10 2 12 1 13
REMARK H PARENT 11 11
REMARK Flexibility Score: inf
ROOT
ATOM      1  C   UNL     1      17.097 -44.307  27.942  1.00  0.00     0.059 A 
ATOM      2  C   UNL     1      17.553 -42.983  28.141  1.00  0.00     0.130 A 
ATOM      3  C   UNL     1      18.121 -42.266  27.077  1.00  0.00     0.093 A 
ATOM      4  C   UNL     1      18.250 -42.851  25.806  1.00  0.00     0.122 A 
ATOM      5  C   UNL     1      17.803 -44.159  25.612  1.00  0.00     0.047 A 
ATOM      6  C   UNL     1      17.235 -44.881  26.662  1.00  0.00     0.019 A 
ENDROOT
BRANCH   1   7
ATOM      7  C   UNL     1      16.479 -45.088  29.052  1.00  0.00     0.163 C 
ATOM      8  C   UNL     1      15.029 -45.474  29.032  1.00  0.00     0.093 C 
ATOM      9  O   UNL     1      17.167 -45.418  30.055  1.00  0.00    -0.294 OA
ENDBRANCH   1   7
BRANCH   2  10
ATOM     10  O   UNL     1      17.454 -42.378  29.394  1.00  0.00    -0.507 OA
ATOM     11  H   UNL     1      16.573 -42.024  29.749  1.00  0.00     0.293 HD
ENDBRANCH   2  10
BRANCH   4  12
ATOM     12  O   UNL     1      18.814 -42.171  24.716  1.00  0.00    -0.497 OA
ATOM     13  C   UNL     1      18.326 -40.937  24.198  1.00  0.00     0.278 C 
ENDBRANCH   4  12
TORSDOF 3
ENDMDL
MODEL 7
REMARK VINA RESULT:    -4.250      3.118      4.246
REMARK INTER + INTRA:          -5.204
REMARK INTER:                  -4.872
REMARK INTRA:                  -0.331
REMARK UNBOUND:                -0.332
REMARK SMILES COc1ccc(C(C)=O)c(O)c1
REMARK SMILES IDX 6 1 10 2 12 3 3 4 4 5 5 6 7 7 8 8 9 9 11 10 2 12 1 13
REMARK H PARENT 11 11
REMARK Flexibility Score: inf
ROOT
ATOM      1  C   UNL     1      14.121 -44.456  31.283  1.00  0.00     0.059 A 
ATOM      2  C   UNL     1      12.932 -43.705  31.135  1.00  0.00     0.130 A 
ATOM      3  C   UNL     1      12.239 -43.715  29.915  1.00  0.00     0.093 A 
ATOM      4  C   UNL     1      12.717 -44.463  28.826  1.00  0.00     0.122 A 
ATOM      5  C   UNL     1      13.892 -45.201  28.971  1.00  0.00     0.047 A 
ATOM      6  C   UNL     1      14.588 -45.200  30.180  1.00  0.00     0.019 A 
ENDROOT
BRANCH   1   7
ATOM      7  C   UNL     1      14.871 -44.473  32.572  1.00  0.00     0.163 C 
ATOM      8  C   UNL     1      15.372 -45.752  33.175  1.00  0.00     0.093 C 
ATOM      9  O   UNL     1      15.075 -43.400  33.200  1.00  0.00    -0.294 OA
ENDBRANCH   1   7
BRANCH   2  10
ATOM     10  O   UNL     1      12.439 -42.940  32.192  1.00  0.00    -0.507 OA
ATOM     11  H   UNL     1      12.044 -42.018  32.047  1.00  0.00     0.293 HD
ENDBRANCH   2  10
BRANCH   4  12
ATOM     12  O   UNL     1      12.056 -44.499  27.588  1.00  0.00    -0.497 OA
ATOM     13  C   UNL     1      11.054 -45.448  27.238  1.00  0.00     0.278 C 
ENDBRANCH   4  12
TORSDOF 3
ENDMDL
MODEL 8
REMARK VINA RESULT:    -4.229      2.279      4.187
REMARK INTER + INTRA:          -5.179
REMARK INTER:                  -4.837
REMARK INTRA:                  -0.342
REMARK UNBOUND:                -0.332
REMARK SMILES COc1ccc(C(C)=O)c(O)c1
REMARK SMILES IDX 6 1 10 2 12 3 3 4 4 5 5 6 7 7 8 8 9 9 11 10 2 12 1 13
REMARK H PARENT 11 11
REMARK Flexibility Score: inf
ROOT
ATOM      1  C   UNL     1      16.830 -44.259  28.269  1.00  0.00     0.059 A 
ATOM      2  C   UNL     1      17.538 -44.258  29.494  1.00  0.00     0.130 A 
ATOM      3  C   UNL     1      16.896 -44.649  30.679  1.00  0.00     0.093 A 
ATOM      4  C   UNL     1      15.547 -45.041  30.668  1.00  0.00     0.122 A 
ATOM      5  C   UNL     1      14.848 -45.038  29.460  1.00  0.00     0.047 A 
ATOM      6  C   UNL     1      15.477 -44.653  28.275  1.00  0.00     0.019 A 
ENDROOT
BRANCH   1   7
ATOM      7  C   UNL     1      17.490 -43.859  26.993  1.00  0.00     0.163 C 
ATOM      8  C   UNL     1      17.493 -44.758  25.792  1.00  0.00     0.093 C 
ATOM      9  O   UNL     1      18.091 -42.755  26.910  1.00  0.00    -0.294 OA
ENDBRANCH   1   7
BRANCH   2  10
ATOM     10  O   UNL     1      18.874 -43.860  29.542  1.00  0.00    -0.507 OA
ATOM     11  H   UNL     1      19.173 -42.951  29.208  1.00  0.00     0.293 HD
ENDBRANCH   2  10
BRANCH   4  12
ATOM     12  O   UNL     1      14.867 -45.437  31.830  1.00  0.00    -0.497 OA
ATOM     13  C   UNL     1      15.503 -45.772  33.059  1.00  0.00     0.278 C 
ENDBRANCH   4  12
TORSDOF 3
ENDMDL
MODEL 9
REMARK VINA RESULT:    -4.194      3.583      4.877
REMARK INTER + INTRA:          -5.139
REMARK INTER:                  -4.807
REMARK INTRA:                  -0.332
REMARK UNBOUND:                -0.332
REMARK SMILES COc1ccc(C(C)=O)c(O)c1
REMARK SMILES IDX 6 1 10 2 12 3 3 4 4 5 5 6 7 7 8 8 9 9 11 10 2 12 1 13
REMARK H PARENT 11 11
REMARK Flexibility Score: inf
ROOT
ATOM      1  C   UNL     1      16.489 -44.060  27.016  1.00  0.00     0.059 A 
ATOM      2  C   UNL     1      16.518 -45.072  28.003  1.00  0.00     0.130 A 
ATOM      3  C   UNL     1      15.440 -45.227  28.887  1.00  0.00     0.093 A 
ATOM      4  C   UNL     1      14.321 -44.380  28.807  1.00  0.00     0.122 A 
ATOM      5  C   UNL     1      14.294 -43.379  27.834  1.00  0.00     0.047 A 
ATOM      6  C   UNL     1      15.360 -43.218  26.949  1.00  0.00     0.019 A 
ENDROOT
BRANCH   1   7
ATOM      7  C   UNL     1      17.617 -43.881  26.056  1.00  0.00     0.163 C 
ATOM      8  C   UNL     1      18.335 -42.571  25.920  1.00  0.00     0.093 C 
ATOM      9  O   UNL     1      17.973 -44.833  25.313  1.00  0.00    -0.294 OA
ENDBRANCH   1   7
BRANCH   2  10
ATOM     10  O   UNL     1      17.621 -45.919  28.119  1.00  0.00    -0.507 OA
ATOM     11  H   UNL     1      17.519 -46.900  28.355  1.00  0.00     0.293 HD
ENDBRANCH   2  10
BRANCH   4  12
ATOM     12  O   UNL     1      13.222 -44.499  29.671  1.00  0.00    -0.497 OA
ATOM     13  C   UNL     1      11.984 -45.108  29.320  1.00  0.00     0.278 C 
ENDBRANCH   4  12
TORSDOF 3
ENDMDL
