MODEL 1
REMARK VINA RESULT:    -4.342      0.000      0.000
REMARK INTER + INTRA:          -6.522
REMARK INTER:                  -6.118
REMARK INTRA:                  -0.404
REMARK UNBOUND:                -0.404
REMARK SMILES CCCCCCCCC(=O)[O-]
REMARK SMILES IDX 6 1 7 2 8 3 9 4 10 5 11 6 5 7 4 8 3 9 2 10 1 11
REMARK H PARENT
REMARK Flexibility Score: inf
ROOT
ATOM      1  C   UNL     1       1.879   8.847  -7.295  1.00  0.00     0.000 C 
ENDROOT
BRANCH   1   2
ATOM      2  C   UNL     1       1.517   9.075  -5.818  1.00  0.00     0.006 C 
BRANCH   2   3
ATOM      3  C   UNL     1       2.690   8.786  -4.870  1.00  0.00     0.053 C 
BRANCH   3   4
ATOM      4  C   UNL     1       2.544   7.427  -4.262  1.00  0.00     0.041 C 
ATOM      5  O   UNL     1       2.364   7.304  -3.021  1.00  0.00    -0.550 OA
ATOM      6  O   UNL     1       2.558   6.298  -5.070  1.00  0.00    -0.550 OA
ENDBRANCH   3   4
ENDBRANCH   2   3
ENDBRANCH   1   2
BRANCH   1   7
ATOM      7  C   UNL     1       0.677   8.375  -8.130  1.00  0.00     0.000 C 
BRANCH   7   8
ATOM      8  C   UNL     1       0.174   6.979  -7.719  1.00  0.00    -0.000 C 
BRANCH   8   9
ATOM      9  C   UNL     1       1.012   5.797  -8.247  1.00  0.00    -0.000 C 
BRANCH   9  10
ATOM     10  C   UNL     1       0.431   4.403  -7.949  1.00  0.00    -0.003 C 
ATOM     11  C   UNL     1       0.286   4.124  -6.454  1.00  0.00     0.004 C 
ENDBRANCH   9  10
ENDBRANCH   8   9
ENDBRANCH   7   8
ENDBRANCH   1   7
TORSDOF 7
ENDMDL
MODEL 2
REMARK VINA RESULT:    -4.319      1.857      4.255
REMARK INTER + INTRA:          -6.490
REMARK INTER:                  -6.009
REMARK INTRA:                  -0.481
REMARK UNBOUND:                -0.404
REMARK SMILES CCCCCCCCC(=O)[O-]
REMARK SMILES IDX 6 1 7 2 8 3 9 4 10 5 11 6 5 7 4 8 3 9 2 10 1 11
REMARK H PARENT
REMARK Flexibility Score: inf
ROOT
ATOM      1  C   UNL     1      -0.036   7.055  -8.272  1.00  0.00     0.000 C 
ENDROOT
BRANCH   1   2
ATOM      2  C   UNL     1       0.454   5.799  -9.011  1.00  0.00     0.006 C 
BRANCH   2   3
ATOM      3  C   UNL     1       1.298   4.879  -8.118  1.00  0.00     0.053 C 
BRANCH   3   4
ATOM      4  C   UNL     1       0.438   4.227  -7.082  1.00  0.00     0.041 C 
ATOM      5  O   UNL     1      -0.309   3.262  -7.394  1.00  0.00    -0.550 OA
ATOM      6  O   UNL     1       0.499   4.650  -5.760  1.00  0.00    -0.550 OA
ENDBRANCH   3   4
ENDBRANCH   2   3
ENDBRANCH   1   2
BRANCH   1   7
ATOM      7  C   UNL     1       1.068   8.112  -8.108  1.00  0.00     0.000 C 
BRANCH   7   8
ATOM      8  C   UNL     1       1.308   8.504  -6.638  1.00  0.00    -0.000 C 
BRANCH   8   9
ATOM      9  C   UNL     1       2.325   7.625  -5.882  1.00  0.00    -0.000 C 
BRANCH   9  10
ATOM     10  C   UNL     1       2.668   8.104  -4.460  1.00  0.00    -0.003 C 
ATOM     11  C   UNL     1       2.338   7.067  -3.387  1.00  0.00     0.004 C 
ENDBRANCH   9  10
ENDBRANCH   8   9
ENDBRANCH   7   8
ENDBRANCH   1   7
TORSDOF 7
ENDMDL
MODEL 3
REMARK VINA RESULT:    -4.307      1.150      1.549
REMARK INTER + INTRA:          -6.474
REMARK INTER:                  -5.920
REMARK INTRA:                  -0.553
REMARK UNBOUND:                -0.404
REMARK SMILES CCCCCCCCC(=O)[O-]
REMARK SMILES IDX 6 1 7 2 8 3 9 4 10 5 11 6 5 7 4 8 3 9 2 10 1 11
REMARK H PARENT
REMARK Flexibility Score: inf
ROOT
ATOM      1  C   UNL     1       0.777   7.934  -7.089  1.00  0.00     0.000 C 
ENDROOT
BRANCH   1   2
ATOM      2  C   UNL     1       1.670   9.084  -6.596  1.00  0.00     0.006 C 
BRANCH   2   3
ATOM      3  C   UNL     1       1.752   9.154  -5.065  1.00  0.00     0.053 C 
BRANCH   3   4
ATOM      4  C   UNL     1       2.793   8.208  -4.555  1.00  0.00     0.041 C 
ATOM      5  O   UNL     1       2.633   7.627  -3.448  1.00  0.00    -0.550 OA
ATOM      6  O   UNL     1       3.915   7.928  -5.324  1.00  0.00    -0.550 OA
ENDBRANCH   3   4
ENDBRANCH   2   3
ENDBRANCH   1   2
BRANCH   1   7
ATOM      7  C   UNL     1       1.487   7.034  -8.115  1.00  0.00     0.000 C 
BRANCH   7   8
ATOM      8  C   UNL     1       2.130   5.789  -7.475  1.00  0.00    -0.000 C 
BRANCH   8   9
ATOM      9  C   UNL     1       1.434   5.274  -6.199  1.00  0.00    -0.000 C 
BRANCH   9  10
ATOM     10  C   UNL     1       0.375   4.181  -6.431  1.00  0.00    -0.003 C 
ATOM     11  C   UNL     1       0.110   3.914  -7.912  1.00  0.00     0.004 C 
ENDBRANCH   9  10
ENDBRANCH   8   9
ENDBRANCH   7   8
ENDBRANCH   1   7
TORSDOF 7
ENDMDL
MODEL 4
REMARK VINA RESULT:    -4.118     16.935     19.044
REMARK INTER + INTRA:          -6.206
REMARK INTER:                  -5.474
REMARK INTRA:                  -0.732
REMARK UNBOUND:                -0.404
REMARK SMILES CCCCCCCCC(=O)[O-]
REMARK SMILES IDX 6 1 7 2 8 3 9 4 10 5 11 6 5 7 4 8 3 9 2 10 1 11
REMARK H PARENT
REMARK Flexibility Score: inf
ROOT
ATOM      1  C   UNL     1      -4.873  -6.602   6.086  1.00  0.00     0.000 C 
ENDROOT
BRANCH   1   2
ATOM      2  C   UNL     1      -4.072  -5.318   6.356  1.00  0.00     0.006 C 
BRANCH   2   3
ATOM      3  C   UNL     1      -4.084  -4.352   5.163  1.00  0.00     0.053 C 
BRANCH   3   4
ATOM      4  C   UNL     1      -4.597  -3.011   5.584  1.00  0.00     0.041 C 
ATOM      5  O   UNL     1      -5.297  -2.898   6.626  1.00  0.00    -0.550 OA
ATOM      6  O   UNL     1      -4.262  -1.878   4.855  1.00  0.00    -0.550 OA
ENDBRANCH   3   4
ENDBRANCH   2   3
ENDBRANCH   1   2
BRANCH   1   7
ATOM      7  C   UNL     1      -6.084  -6.360   5.168  1.00  0.00     0.000 C 
BRANCH   7   8
ATOM      8  C   UNL     1      -7.429  -6.587   5.882  1.00  0.00    -0.000 C 
BRANCH   8   9
ATOM      9  C   UNL     1      -8.118  -5.310   6.405  1.00  0.00    -0.000 C 
BRANCH   9  10
ATOM     10  C   UNL     1      -7.893  -5.015   7.899  1.00  0.00    -0.003 C 
ATOM     11  C   UNL     1      -7.521  -6.260   8.703  1.00  0.00     0.004 C 
ENDBRANCH   9  10
ENDBRANCH   8   9
ENDBRANCH   7   8
ENDBRANCH   1   7
TORSDOF 7
ENDMDL
MODEL 5
REMARK VINA RESULT:    -4.088      1.630      2.881
REMARK INTER + INTRA:          -6.165
REMARK INTER:                  -5.688
REMARK INTRA:                  -0.476
REMARK UNBOUND:                -0.404
REMARK SMILES CCCCCCCCC(=O)[O-]
REMARK SMILES IDX 6 1 7 2 8 3 9 4 10 5 11 6 5 7 4 8 3 9 2 10 1 11
REMARK H PARENT
REMARK Flexibility Score: inf
ROOT
ATOM      1  C   UNL     1       1.874   5.214  -6.233  1.00  0.00     0.000 C 
ENDROOT
BRANCH   1   2
ATOM      2  C   UNL     1       1.694   6.741  -6.231  1.00  0.00     0.006 C 
BRANCH   2   3
ATOM      3  C   UNL     1       3.007   7.490  -5.965  1.00  0.00     0.053 C 
BRANCH   3   4
ATOM      4  C   UNL     1       2.901   8.297  -4.709  1.00  0.00     0.041 C 
ATOM      5  O   UNL     1       2.986   9.553  -4.753  1.00  0.00    -0.550 OA
ATOM      6  O   UNL     1       2.658   7.666  -3.496  1.00  0.00    -0.550 OA
ENDBRANCH   3   4
ENDBRANCH   2   3
ENDBRANCH   1   2
BRANCH   1   7
ATOM      7  C   UNL     1       0.532   4.462  -6.241  1.00  0.00     0.000 C 
BRANCH   7   8
ATOM      8  C   UNL     1       0.060   4.097  -7.661  1.00  0.00    -0.000 C 
BRANCH   8   9
ATOM      9  C   UNL     1       1.036   4.471  -8.794  1.00  0.00    -0.000 C 
BRANCH   9  10
ATOM     10  C   UNL     1       0.472   5.445  -9.844  1.00  0.00    -0.003 C 
ATOM     11  C   UNL     1       1.347   6.683 -10.039  1.00  0.00     0.004 C 
ENDBRANCH   9  10
ENDBRANCH   8   9
ENDBRANCH   7   8
ENDBRANCH   1   7
TORSDOF 7
ENDMDL
MODEL 6
REMARK VINA RESULT:    -4.064     18.089     20.203
REMARK INTER + INTRA:          -6.130
REMARK INTER:                  -5.509
REMARK INTRA:                  -0.621
REMARK UNBOUND:                -0.404
REMARK SMILES CCCCCCCCC(=O)[O-]
REMARK SMILES IDX 6 1 7 2 8 3 9 4 10 5 11 6 5 7 4 8 3 9 2 10 1 11
REMARK H PARENT
REMARK Flexibility Score: inf
ROOT
ATOM      1  C   UNL     1      -6.075  -6.231   5.099  1.00  0.00     0.000 C 
ENDROOT
BRANCH   1   2
ATOM      2  C   UNL     1      -7.442  -6.283   5.799  1.00  0.00     0.006 C 
BRANCH   2   3
ATOM      3  C   UNL     1      -7.521  -7.386   6.863  1.00  0.00     0.053 C 
BRANCH   3   4
ATOM      4  C   UNL     1      -8.042  -8.654   6.262  1.00  0.00     0.041 C 
ATOM      5  O   UNL     1      -7.289  -9.658   6.150  1.00  0.00    -0.550 OA
ATOM      6  O   UNL     1      -9.371  -8.743   5.872  1.00  0.00    -0.550 OA
ENDBRANCH   3   4
ENDBRANCH   2   3
ENDBRANCH   1   2
BRANCH   1   7
ATOM      7  C   UNL     1      -4.909  -6.518   6.060  1.00  0.00     0.000 C 
BRANCH   7   8
ATOM      8  C   UNL     1      -4.012  -5.288   6.295  1.00  0.00    -0.000 C 
BRANCH   8   9
ATOM      9  C   UNL     1      -4.108  -4.189   5.218  1.00  0.00    -0.000 C 
BRANCH   9  10
ATOM     10  C   UNL     1      -4.693  -2.851   5.704  1.00  0.00    -0.003 C 
ATOM     11  C   UNL     1      -5.536  -2.994   6.971  1.00  0.00     0.004 C 
ENDBRANCH   9  10
ENDBRANCH   8   9
ENDBRANCH   7   8
ENDBRANCH   1   7
TORSDOF 7
ENDMDL
MODEL 7
REMARK VINA RESULT:    -4.052     17.768     19.444
REMARK INTER + INTRA:          -6.114
REMARK INTER:                  -5.488
REMARK INTRA:                  -0.626
REMARK UNBOUND:                -0.404
REMARK SMILES CCCCCCCCC(=O)[O-]
REMARK SMILES IDX 6 1 7 2 8 3 9 4 10 5 11 6 5 7 4 8 3 9 2 10 1 11
REMARK H PARENT
REMARK Flexibility Score: inf
ROOT
ATOM      1  C   UNL     1      -3.895  -5.275   6.175  1.00  0.00     0.000 C 
ENDROOT
BRANCH   1   2
ATOM      2  C   UNL     1      -4.915  -6.419   6.291  1.00  0.00     0.006 C 
BRANCH   2   3
ATOM      3  C   UNL     1      -5.971  -6.385   5.178  1.00  0.00     0.053 C 
BRANCH   3   4
ATOM      4  C   UNL     1      -7.332  -6.642   5.742  1.00  0.00     0.041 C 
ATOM      5  O   UNL     1      -7.678  -7.812   6.054  1.00  0.00    -0.550 OA
ATOM      6  O   UNL     1      -8.202  -5.583   5.971  1.00  0.00    -0.550 OA
ENDBRANCH   3   4
ENDBRANCH   2   3
ENDBRANCH   1   2
BRANCH   1   7
ATOM      7  C   UNL     1      -4.377  -4.146   5.250  1.00  0.00     0.000 C 
BRANCH   7   8
ATOM      8  C   UNL     1      -4.806  -2.884   6.021  1.00  0.00    -0.000 C 
BRANCH   8   9
ATOM      9  C   UNL     1      -6.031  -3.060   6.941  1.00  0.00    -0.000 C 
BRANCH   9  10
ATOM     10  C   UNL     1      -5.802  -2.667   8.412  1.00  0.00    -0.003 C 
ATOM     11  C   UNL     1      -5.107  -3.763   9.220  1.00  0.00     0.004 C 
ENDBRANCH   9  10
ENDBRANCH   8   9
ENDBRANCH   7   8
ENDBRANCH   1   7
TORSDOF 7
ENDMDL
MODEL 8
REMARK VINA RESULT:    -4.050     17.714     19.423
REMARK INTER + INTRA:          -6.111
REMARK INTER:                  -5.457
REMARK INTRA:                  -0.654
REMARK UNBOUND:                -0.404
REMARK SMILES CCCCCCCCC(=O)[O-]
REMARK SMILES IDX 6 1 7 2 8 3 9 4 10 5 11 6 5 7 4 8 3 9 2 10 1 11
REMARK H PARENT
REMARK Flexibility Score: inf
ROOT
ATOM      1  C   UNL     1      -4.053  -4.024   5.217  1.00  0.00     0.000 C 
ENDROOT
BRANCH   1   2
ATOM      2  C   UNL     1      -4.987  -5.225   5.000  1.00  0.00     0.006 C 
BRANCH   2   3
ATOM      3  C   UNL     1      -4.680  -6.392   5.949  1.00  0.00     0.053 C 
BRANCH   3   4
ATOM      4  C   UNL     1      -5.861  -7.305   6.050  1.00  0.00     0.041 C 
ATOM      5  O   UNL     1      -5.711  -8.550   5.930  1.00  0.00    -0.550 OA
ATOM      6  O   UNL     1      -7.119  -6.787   6.328  1.00  0.00    -0.550 OA
ENDBRANCH   3   4
ENDBRANCH   2   3
ENDBRANCH   1   2
BRANCH   1   7
ATOM      7  C   UNL     1      -4.774  -2.822   5.850  1.00  0.00     0.000 C 
BRANCH   7   8
ATOM      8  C   UNL     1      -5.866  -3.240   6.851  1.00  0.00    -0.000 C 
BRANCH   8   9
ATOM      9  C   UNL     1      -5.460  -3.162   8.337  1.00  0.00    -0.000 C 
BRANCH   9  10
ATOM     10  C   UNL     1      -5.235  -4.523   9.022  1.00  0.00    -0.003 C 
ATOM     11  C   UNL     1      -3.757  -4.893   9.138  1.00  0.00     0.004 C 
ENDBRANCH   9  10
ENDBRANCH   8   9
ENDBRANCH   7   8
ENDBRANCH   1   7
TORSDOF 7
ENDMDL
MODEL 9
REMARK VINA RESULT:    -4.029     17.242     19.325
REMARK INTER + INTRA:          -6.081
REMARK INTER:                  -5.618
REMARK INTRA:                  -0.463
REMARK UNBOUND:                -0.404
REMARK SMILES CCCCCCCCC(=O)[O-]
REMARK SMILES IDX 6 1 7 2 8 3 9 4 10 5 11 6 5 7 4 8 3 9 2 10 1 11
REMARK H PARENT
REMARK Flexibility Score: inf
ROOT
ATOM      1  C   UNL     1      -4.889  -6.434   6.547  1.00  0.00     0.000 C 
ENDROOT
BRANCH   1   2
ATOM      2  C   UNL     1      -4.118  -5.126   6.788  1.00  0.00     0.006 C 
BRANCH   2   3
ATOM      3  C   UNL     1      -4.906  -3.885   6.348  1.00  0.00     0.053 C 
BRANCH   3   4
ATOM      4  C   UNL     1      -4.190  -3.177   5.241  1.00  0.00     0.041 C 
ATOM      5  O   UNL     1      -3.362  -3.798   4.524  1.00  0.00    -0.550 OA
ATOM      6  O   UNL     1      -4.474  -1.845   4.969  1.00  0.00    -0.550 OA
ENDBRANCH   3   4
ENDBRANCH   2   3
ENDBRANCH   1   2
BRANCH   1   7
ATOM      7  C   UNL     1      -5.880  -6.327   5.375  1.00  0.00     0.000 C 
BRANCH   7   8
ATOM      8  C   UNL     1      -7.211  -7.051   5.650  1.00  0.00    -0.000 C 
BRANCH   8   9
ATOM      9  C   UNL     1      -7.164  -8.106   6.774  1.00  0.00    -0.000 C 
BRANCH   9  10
ATOM     10  C   UNL     1      -6.909  -9.549   6.301  1.00  0.00    -0.003 C 
ATOM     11  C   UNL     1      -5.595 -10.125   6.829  1.00  0.00     0.004 C 
ENDBRANCH   9  10
ENDBRANCH   8   9
ENDBRANCH   7   8
ENDBRANCH   1   7
TORSDOF 7
ENDMDL
