MODEL 1
REMARK VINA RESULT:    -3.312      0.000      0.000
REMARK INTER + INTRA:          -4.965
REMARK INTER:                  -4.474
REMARK INTRA:                  -0.492
REMARK UNBOUND:                -0.492
REMARK SMILES CCCCCCCC(=O)[O-]
REMARK SMILES IDX 5 1 6 2 7 3 8 4 9 5 10 6 4 7 3 8 2 9 1 10
REMARK H PARENT
REMARK Flexibility Score: inf
ROOT
ATOM      1  C   UNL     1      36.840  23.561 222.623  1.00  0.00     0.000 C 
ENDROOT
BRANCH   1   2
ATOM      2  C   UNL     1      38.194  24.281 222.532  1.00  0.00     0.006 C 
BRANCH   2   3
ATOM      3  C   UNL     1      39.170  23.586 221.574  1.00  0.00     0.053 C 
BRANCH   3   4
ATOM      4  C   UNL     1      40.135  22.734 222.338  1.00  0.00     0.041 C 
ATOM      5  O   UNL     1      41.330  23.103 222.480  1.00  0.00    -0.550 OA
ATOM      6  O   UNL     1      39.725  21.511 222.853  1.00  0.00    -0.550 OA
ENDBRANCH   3   4
ENDBRANCH   2   3
ENDBRANCH   1   2
BRANCH   1   7
ATOM      7  C   UNL     1      36.351  23.048 221.260  1.00  0.00     0.000 C 
BRANCH   7   8
ATOM      8  C   UNL     1      35.414  24.064 220.595  1.00  0.00    -0.000 C 
BRANCH   8   9
ATOM      9  C   UNL     1      35.821  24.317 219.138  1.00  0.00    -0.003 C 
ATOM     10  C   UNL     1      36.895  23.331 218.688  1.00  0.00     0.004 C 
ENDBRANCH   8   9
ENDBRANCH   7   8
ENDBRANCH   1   7
TORSDOF 6
ENDMDL
MODEL 2
REMARK VINA RESULT:    -3.269      3.118      4.704
REMARK INTER + INTRA:          -4.907
REMARK INTER:                  -4.526
REMARK INTRA:                  -0.381
REMARK UNBOUND:                -0.492
REMARK SMILES CCCCCCCC(=O)[O-]
REMARK SMILES IDX 5 1 6 2 7 3 8 4 9 5 10 6 4 7 3 8 2 9 1 10
REMARK H PARENT
REMARK Flexibility Score: inf
ROOT
ATOM      1  C   UNL     1      36.041  23.936 222.852  1.00  0.00     0.000 C 
ENDROOT
BRANCH   1   2
ATOM      2  C   UNL     1      35.406  23.621 221.488  1.00  0.00     0.006 C 
BRANCH   2   3
ATOM      3  C   UNL     1      35.986  24.477 220.354  1.00  0.00     0.053 C 
BRANCH   3   4
ATOM      4  C   UNL     1      35.446  24.027 219.033  1.00  0.00     0.041 C 
ATOM      5  O   UNL     1      34.215  24.117 218.788  1.00  0.00    -0.550 OA
ATOM      6  O   UNL     1      36.296  23.464 218.090  1.00  0.00    -0.550 OA
ENDBRANCH   3   4
ENDBRANCH   2   3
ENDBRANCH   1   2
BRANCH   1   7
ATOM      7  C   UNL     1      37.463  23.370 222.986  1.00  0.00     0.000 C 
BRANCH   7   8
ATOM      8  C   UNL     1      38.497  24.500 223.071  1.00  0.00    -0.000 C 
BRANCH   8   9
ATOM      9  C   UNL     1      39.669  24.247 222.116  1.00  0.00    -0.003 C 
ATOM     10  C   UNL     1      39.687  22.798 221.638  1.00  0.00     0.004 C 
ENDBRANCH   8   9
ENDBRANCH   7   8
ENDBRANCH   1   7
TORSDOF 6
ENDMDL
MODEL 3
REMARK VINA RESULT:    -3.255      0.961      1.136
REMARK INTER + INTRA:          -4.888
REMARK INTER:                  -4.555
REMARK INTRA:                  -0.333
REMARK UNBOUND:                -0.492
REMARK SMILES CCCCCCCC(=O)[O-]
REMARK SMILES IDX 5 1 6 2 7 3 8 4 9 5 10 6 4 7 3 8 2 9 1 10
REMARK H PARENT
REMARK Flexibility Score: inf
ROOT
ATOM      1  C   UNL     1      37.753  23.308 222.181  1.00  0.00     0.000 C 
ENDROOT
BRANCH   1   2
ATOM      2  C   UNL     1      39.002  23.327 221.285  1.00  0.00     0.006 C 
BRANCH   2   3
ATOM      3  C   UNL     1      40.260  23.785 222.034  1.00  0.00     0.053 C 
BRANCH   3   4
ATOM      4  C   UNL     1      40.973  22.609 222.625  1.00  0.00     0.041 C 
ATOM      5  O   UNL     1      41.851  22.001 221.959  1.00  0.00    -0.550 OA
ATOM      6  O   UNL     1      40.632  22.155 223.892  1.00  0.00    -0.550 OA
ENDBRANCH   3   4
ENDBRANCH   2   3
ENDBRANCH   1   2
BRANCH   1   7
ATOM      7  C   UNL     1      36.680  24.307 221.720  1.00  0.00     0.000 C 
BRANCH   7   8
ATOM      8  C   UNL     1      35.708  23.649 220.732  1.00  0.00    -0.000 C 
BRANCH   8   9
ATOM      9  C   UNL     1      35.800  24.307 219.350  1.00  0.00    -0.003 C 
ATOM     10  C   UNL     1      36.656  23.475 218.401  1.00  0.00     0.004 C 
ENDBRANCH   8   9
ENDBRANCH   7   8
ENDBRANCH   1   7
TORSDOF 6
ENDMDL
MODEL 4
REMARK VINA RESULT:    -3.173      1.945      2.365
REMARK INTER + INTRA:          -4.777
REMARK INTER:                  -4.337
REMARK INTRA:                  -0.440
REMARK UNBOUND:                -0.492
REMARK SMILES CCCCCCCC(=O)[O-]
REMARK SMILES IDX 5 1 6 2 7 3 8 4 9 5 10 6 4 7 3 8 2 9 1 10
REMARK H PARENT
REMARK Flexibility Score: inf
ROOT
ATOM      1  C   UNL     1      35.435  24.383 222.296  1.00  0.00     0.000 C 
ENDROOT
BRANCH   1   2
ATOM      2  C   UNL     1      36.373  24.899 223.399  1.00  0.00     0.006 C 
BRANCH   2   3
ATOM      3  C   UNL     1      37.430  25.874 222.868  1.00  0.00     0.053 C 
BRANCH   3   4
ATOM      4  C   UNL     1      38.804  25.314 223.066  1.00  0.00     0.041 C 
ATOM      5  O   UNL     1      39.487  25.653 224.068  1.00  0.00    -0.550 OA
ATOM      6  O   UNL     1      39.348  24.455 222.119  1.00  0.00    -0.550 OA
ENDBRANCH   3   4
ENDBRANCH   2   3
ENDBRANCH   1   2
BRANCH   1   7
ATOM      7  C   UNL     1      35.948  23.091 221.642  1.00  0.00     0.000 C 
BRANCH   7   8
ATOM      8  C   UNL     1      36.571  23.381 220.270  1.00  0.00    -0.000 C 
BRANCH   8   9
ATOM      9  C   UNL     1      35.824  24.514 219.555  1.00  0.00    -0.003 C 
ATOM     10  C   UNL     1      34.616  23.981 218.792  1.00  0.00     0.004 C 
ENDBRANCH   8   9
ENDBRANCH   7   8
ENDBRANCH   1   7
TORSDOF 6
ENDMDL
MODEL 5
REMARK VINA RESULT:    -3.110      1.330      2.315
REMARK INTER + INTRA:          -4.692
REMARK INTER:                  -4.100
REMARK INTRA:                  -0.592
REMARK UNBOUND:                -0.492
REMARK SMILES CCCCCCCC(=O)[O-]
REMARK SMILES IDX 5 1 6 2 7 3 8 4 9 5 10 6 4 7 3 8 2 9 1 10
REMARK H PARENT
REMARK Flexibility Score: inf
ROOT
ATOM      1  C   UNL     1      38.329  25.848 223.159  1.00  0.00     0.000 C 
ENDROOT
BRANCH   1   2
ATOM      2  C   UNL     1      39.190  24.607 223.441  1.00  0.00     0.006 C 
BRANCH   2   3
ATOM      3  C   UNL     1      40.026  24.178 222.229  1.00  0.00     0.053 C 
BRANCH   3   4
ATOM      4  C   UNL     1      40.251  22.699 222.247  1.00  0.00     0.041 C 
ATOM      5  O   UNL     1      39.384  21.932 222.741  1.00  0.00    -0.550 OA
ATOM      6  O   UNL     1      41.441  22.171 221.761  1.00  0.00    -0.550 OA
ENDBRANCH   3   4
ENDBRANCH   2   3
ENDBRANCH   1   2
BRANCH   1   7
ATOM      7  C   UNL     1      36.859  25.496 222.882  1.00  0.00     0.000 C 
BRANCH   7   8
ATOM      8  C   UNL     1      36.551  24.054 223.304  1.00  0.00    -0.000 C 
BRANCH   8   9
ATOM      9  C   UNL     1      35.861  23.285 222.172  1.00  0.00    -0.003 C 
ATOM     10  C   UNL     1      36.645  23.403 220.869  1.00  0.00     0.004 C 
ENDBRANCH   8   9
ENDBRANCH   7   8
ENDBRANCH   1   7
TORSDOF 6
ENDMDL
MODEL 6
REMARK VINA RESULT:    -3.081      2.556      4.205
REMARK INTER + INTRA:          -4.653
REMARK INTER:                  -4.122
REMARK INTRA:                  -0.531
REMARK UNBOUND:                -0.492
REMARK SMILES CCCCCCCC(=O)[O-]
REMARK SMILES IDX 5 1 6 2 7 3 8 4 9 5 10 6 4 7 3 8 2 9 1 10
REMARK H PARENT
REMARK Flexibility Score: inf
ROOT
ATOM      1  C   UNL     1      37.475  25.065 223.798  1.00  0.00     0.000 C 
ENDROOT
BRANCH   1   2
ATOM      2  C   UNL     1      36.497  25.486 222.689  1.00  0.00     0.006 C 
BRANCH   2   3
ATOM      3  C   UNL     1      35.459  24.402 222.373  1.00  0.00     0.053 C 
BRANCH   3   4
ATOM      4  C   UNL     1      36.118  23.219 221.736  1.00  0.00     0.041 C 
ATOM      5  O   UNL     1      36.253  22.146 222.380  1.00  0.00    -0.550 OA
ATOM      6  O   UNL     1      36.626  23.317 220.447  1.00  0.00    -0.550 OA
ENDBRANCH   3   4
ENDBRANCH   2   3
ENDBRANCH   1   2
BRANCH   1   7
ATOM      7  C   UNL     1      38.870  25.684 223.620  1.00  0.00     0.000 C 
BRANCH   7   8
ATOM      8  C   UNL     1      39.928  24.596 223.394  1.00  0.00    -0.000 C 
BRANCH   8   9
ATOM      9  C   UNL     1      39.945  24.142 221.929  1.00  0.00    -0.003 C 
ATOM     10  C   UNL     1      39.851  22.623 221.823  1.00  0.00     0.004 C 
ENDBRANCH   8   9
ENDBRANCH   7   8
ENDBRANCH   1   7
TORSDOF 6
ENDMDL
MODEL 7
REMARK VINA RESULT:    -3.056      3.165      4.837
REMARK INTER + INTRA:          -4.619
REMARK INTER:                  -4.263
REMARK INTRA:                  -0.357
REMARK UNBOUND:                -0.492
REMARK SMILES CCCCCCCC(=O)[O-]
REMARK SMILES IDX 5 1 6 2 7 3 8 4 9 5 10 6 4 7 3 8 2 9 1 10
REMARK H PARENT
REMARK Flexibility Score: inf
ROOT
ATOM      1  C   UNL     1      36.076  24.310 222.764  1.00  0.00     0.000 C 
ENDROOT
BRANCH   1   2
ATOM      2  C   UNL     1      35.832  23.303 221.628  1.00  0.00     0.006 C 
BRANCH   2   3
ATOM      3  C   UNL     1      36.830  23.462 220.473  1.00  0.00     0.053 C 
BRANCH   3   4
ATOM      4  C   UNL     1      36.113  23.824 219.210  1.00  0.00     0.041 C 
ATOM      5  O   UNL     1      34.941  24.282 219.257  1.00  0.00    -0.550 OA
ATOM      6  O   UNL     1      36.721  23.610 217.980  1.00  0.00    -0.550 OA
ENDBRANCH   3   4
ENDBRANCH   2   3
ENDBRANCH   1   2
BRANCH   1   7
ATOM      7  C   UNL     1      36.892  23.710 223.919  1.00  0.00     0.000 C 
BRANCH   7   8
ATOM      8  C   UNL     1      38.335  24.232 223.899  1.00  0.00    -0.000 C 
BRANCH   8   9
ATOM      9  C   UNL     1      38.389  25.682 223.402  1.00  0.00    -0.003 C 
ATOM     10  C   UNL     1      39.170  26.566 224.369  1.00  0.00     0.004 C 
ENDBRANCH   8   9
ENDBRANCH   7   8
ENDBRANCH   1   7
TORSDOF 6
ENDMDL
MODEL 8
REMARK VINA RESULT:    -3.053      2.560      4.449
REMARK INTER + INTRA:          -4.616
REMARK INTER:                  -4.017
REMARK INTRA:                  -0.598
REMARK UNBOUND:                -0.492
REMARK SMILES CCCCCCCC(=O)[O-]
REMARK SMILES IDX 5 1 6 2 7 3 8 4 9 5 10 6 4 7 3 8 2 9 1 10
REMARK H PARENT
REMARK Flexibility Score: inf
ROOT
ATOM      1  C   UNL     1      37.966  24.851 222.964  1.00  0.00     0.000 C 
ENDROOT
BRANCH   1   2
ATOM      2  C   UNL     1      36.872  23.928 223.525  1.00  0.00     0.006 C 
BRANCH   2   3
ATOM      3  C   UNL     1      36.474  22.818 222.544  1.00  0.00     0.053 C 
BRANCH   3   4
ATOM      4  C   UNL     1      35.921  23.407 221.285  1.00  0.00     0.041 C 
ATOM      5  O   UNL     1      34.773  23.923 221.279  1.00  0.00    -0.550 OA
ATOM      6  O   UNL     1      36.653  23.342 220.107  1.00  0.00    -0.550 OA
ENDBRANCH   3   4
ENDBRANCH   2   3
ENDBRANCH   1   2
BRANCH   1   7
ATOM      7  C   UNL     1      39.382  24.342 223.273  1.00  0.00     0.000 C 
BRANCH   7   8
ATOM      8  C   UNL     1      40.141  24.012 221.981  1.00  0.00    -0.000 C 
BRANCH   8   9
ATOM      9  C   UNL     1      40.096  22.508 221.686  1.00  0.00    -0.003 C 
ATOM     10  C   UNL     1      40.089  21.694 222.976  1.00  0.00     0.004 C 
ENDBRANCH   8   9
ENDBRANCH   7   8
ENDBRANCH   1   7
TORSDOF 6
ENDMDL
MODEL 9
REMARK VINA RESULT:    -2.832      3.162      5.026
REMARK INTER + INTRA:          -4.317
REMARK INTER:                  -3.969
REMARK INTRA:                  -0.348
REMARK UNBOUND:                -0.492
REMARK SMILES CCCCCCCC(=O)[O-]
REMARK SMILES IDX 5 1 6 2 7 3 8 4 9 5 10 6 4 7 3 8 2 9 1 10
REMARK H PARENT
REMARK Flexibility Score: inf
ROOT
ATOM      1  C   UNL     1      39.313  24.743 223.550  1.00  0.00     0.000 C 
ENDROOT
BRANCH   1   2
ATOM      2  C   UNL     1      38.208  25.811 223.560  1.00  0.00     0.006 C 
BRANCH   2   3
ATOM      3  C   UNL     1      37.122  25.549 222.510  1.00  0.00     0.053 C 
BRANCH   3   4
ATOM      4  C   UNL     1      36.042  24.685 223.080  1.00  0.00     0.041 C 
ATOM      5  O   UNL     1      35.253  25.146 223.945  1.00  0.00    -0.550 OA
ATOM      6  O   UNL     1      35.937  23.356 222.690  1.00  0.00    -0.550 OA
ENDBRANCH   3   4
ENDBRANCH   2   3
ENDBRANCH   1   2
BRANCH   1   7
ATOM      7  C   UNL     1      39.678  24.285 222.129  1.00  0.00     0.000 C 
BRANCH   7   8
ATOM      8  C   UNL     1      40.573  23.040 222.168  1.00  0.00    -0.000 C 
BRANCH   8   9
ATOM      9  C   UNL     1      40.955  22.681 223.608  1.00  0.00    -0.003 C 
ATOM     10  C   UNL     1      42.460  22.476 223.744  1.00  0.00     0.004 C 
ENDBRANCH   8   9
ENDBRANCH   7   8
ENDBRANCH   1   7
TORSDOF 6
ENDMDL
