MODEL 1
REMARK VINA RESULT:    -1.740      0.000      0.000
REMARK INTER + INTRA:          -3.072
REMARK INTER:                  -2.554
REMARK INTRA:                  -0.518
REMARK UNBOUND:                -0.518
REMARK SMILES O=C([O-])CCCCCCCC(=O)[O-]
REMARK SMILES IDX 7 1 6 2 5 3 4 4 2 5 1 6 3 7 8 8 9 9 10 10 11 11 12 12 13 13
REMARK H PARENT
REMARK Flexibility Score: inf
ROOT
ATOM      1  C   UNL     1      16.308 -33.075   2.311  1.00  0.00     0.000 C 
ENDROOT
BRANCH   1   2
ATOM      2  C   UNL     1      16.112 -34.058   1.142  1.00  0.00     0.000 C 
BRANCH   2   3
ATOM      3  C   UNL     1      14.634 -34.401   0.889  1.00  0.00     0.006 C 
BRANCH   3   4
ATOM      4  C   UNL     1      14.206 -34.090  -0.550  1.00  0.00     0.053 C 
BRANCH   4   5
ATOM      5  C   UNL     1      12.994 -33.211  -0.590  1.00  0.00     0.041 C 
ATOM      6  O   UNL     1      12.675 -32.617  -1.653  1.00  0.00    -0.550 OA
ATOM      7  O   UNL     1      12.237 -33.019   0.559  1.00  0.00    -0.550 OA
ENDBRANCH   4   5
ENDBRANCH   3   4
ENDBRANCH   2   3
ENDBRANCH   1   2
BRANCH   1   8
ATOM      8  C   UNL     1      15.015 -32.425   2.836  1.00  0.00     0.000 C 
BRANCH   8   9
ATOM      9  C   UNL     1      15.068 -30.890   2.823  1.00  0.00     0.006 C 
BRANCH   9  10
ATOM     10  C   UNL     1      13.749 -30.301   2.315  1.00  0.00     0.053 C 
BRANCH  10  11
ATOM     11  C   UNL     1      13.879 -28.825   2.110  1.00  0.00     0.041 C 
ATOM     12  O   UNL     1      13.585 -28.312   0.997  1.00  0.00    -0.550 OA
ATOM     13  O   UNL     1      14.372 -28.021   3.130  1.00  0.00    -0.550 OA
ENDBRANCH  10  11
ENDBRANCH   9  10
ENDBRANCH   8   9
ENDBRANCH   1   8
TORSDOF 8
ENDMDL
MODEL 2
REMARK VINA RESULT:    -1.688      7.538      9.262
REMARK INTER + INTRA:          -2.995
REMARK INTER:                  -2.128
REMARK INTRA:                  -0.868
REMARK UNBOUND:                -0.518
REMARK SMILES O=C([O-])CCCCCCCC(=O)[O-]
REMARK SMILES IDX 7 1 6 2 5 3 4 4 2 5 1 6 3 7 8 8 9 9 10 10 11 11 12 12 13 13
REMARK H PARENT
REMARK Flexibility Score: inf
ROOT
ATOM      1  C   UNL     1      22.255 -27.534  -2.124  1.00  0.00     0.000 C 
ENDROOT
BRANCH   1   2
ATOM      2  C   UNL     1      22.206 -26.000  -2.007  1.00  0.00     0.000 C 
BRANCH   2   3
ATOM      3  C   UNL     1      21.047 -25.503  -1.126  1.00  0.00     0.006 C 
BRANCH   3   4
ATOM      4  C   UNL     1      21.520 -25.090   0.273  1.00  0.00     0.053 C 
BRANCH   4   5
ATOM      5  C   UNL     1      21.264 -26.165   1.284  1.00  0.00     0.041 C 
ATOM      6  O   UNL     1      20.181 -26.187   1.927  1.00  0.00    -0.550 OA
ATOM      7  O   UNL     1      22.236 -27.123   1.542  1.00  0.00    -0.550 OA
ENDBRANCH   4   5
ENDBRANCH   3   4
ENDBRANCH   2   3
ENDBRANCH   1   2
BRANCH   1   8
ATOM      8  C   UNL     1      20.889 -28.237  -2.020  1.00  0.00     0.000 C 
BRANCH   8   9
ATOM      9  C   UNL     1      20.871 -29.359  -0.971  1.00  0.00     0.006 C 
BRANCH   9  10
ATOM     10  C   UNL     1      19.720 -29.163   0.020  1.00  0.00     0.053 C 
BRANCH  10  11
ATOM     11  C   UNL     1      19.904 -30.042   1.217  1.00  0.00     0.041 C 
ATOM     12  O   UNL     1      19.941 -31.294   1.083  1.00  0.00    -0.550 OA
ATOM     13  O   UNL     1      19.986 -29.482   2.485  1.00  0.00    -0.550 OA
ENDBRANCH  10  11
ENDBRANCH   9  10
ENDBRANCH   8   9
ENDBRANCH   1   8
TORSDOF 8
ENDMDL
MODEL 3
REMARK VINA RESULT:    -1.664      2.756      4.519
REMARK INTER + INTRA:          -2.961
REMARK INTER:                  -2.396
REMARK INTRA:                  -0.564
REMARK UNBOUND:                -0.518
REMARK SMILES O=C([O-])CCCCCCCC(=O)[O-]
REMARK SMILES IDX 7 1 6 2 5 3 4 4 2 5 1 6 3 7 8 8 9 9 10 10 11 11 12 12 13 13
REMARK H PARENT
REMARK Flexibility Score: inf
ROOT
ATOM      1  C   UNL     1      14.211 -32.651   2.459  1.00  0.00     0.000 C 
ENDROOT
BRANCH   1   2
ATOM      2  C   UNL     1      13.160 -31.576   2.130  1.00  0.00     0.000 C 
BRANCH   2   3
ATOM      3  C   UNL     1      12.290 -31.940   0.914  1.00  0.00     0.006 C 
BRANCH   3   4
ATOM      4  C   UNL     1      12.684 -33.292   0.307  1.00  0.00     0.053 C 
BRANCH   4   5
ATOM      5  C   UNL     1      13.072 -33.160  -1.134  1.00  0.00     0.041 C 
ATOM      6  O   UNL     1      14.025 -33.838  -1.599  1.00  0.00    -0.550 OA
ATOM      7  O   UNL     1      12.403 -32.260  -1.954  1.00  0.00    -0.550 OA
ENDBRANCH   4   5
ENDBRANCH   3   4
ENDBRANCH   2   3
ENDBRANCH   1   2
BRANCH   1   8
ATOM      8  C   UNL     1      15.618 -32.110   2.773  1.00  0.00     0.000 C 
BRANCH   8   9
ATOM      9  C   UNL     1      16.739 -33.052   2.310  1.00  0.00     0.006 C 
BRANCH   9  10
ATOM     10  C   UNL     1      16.225 -34.043   1.261  1.00  0.00     0.053 C 
BRANCH  10  11
ATOM     11  C   UNL     1      17.369 -34.733   0.587  1.00  0.00     0.041 C 
ATOM     12  O   UNL     1      18.545 -34.311   0.745  1.00  0.00    -0.550 OA
ATOM     13  O   UNL     1      17.131 -35.813  -0.254  1.00  0.00    -0.550 OA
ENDBRANCH  10  11
ENDBRANCH   9  10
ENDBRANCH   8   9
ENDBRANCH   1   8
TORSDOF 8
ENDMDL
MODEL 4
REMARK VINA RESULT:    -1.627      1.509      4.699
REMARK INTER + INTRA:          -2.905
REMARK INTER:                  -2.303
REMARK INTRA:                  -0.602
REMARK UNBOUND:                -0.518
REMARK SMILES O=C([O-])CCCCCCCC(=O)[O-]
REMARK SMILES IDX 7 1 6 2 5 3 4 4 2 5 1 6 3 7 8 8 9 9 10 10 11 11 12 12 13 13
REMARK H PARENT
REMARK Flexibility Score: inf
ROOT
ATOM      1  C   UNL     1      16.688 -33.069   2.568  1.00  0.00     0.000 C 
ENDROOT
BRANCH   1   2
ATOM      2  C   UNL     1      17.077 -31.591   2.752  1.00  0.00     0.000 C 
BRANCH   2   3
ATOM      3  C   UNL     1      15.857 -30.658   2.842  1.00  0.00     0.006 C 
BRANCH   3   4
ATOM      4  C   UNL     1      14.550 -31.434   3.047  1.00  0.00     0.053 C 
BRANCH   4   5
ATOM      5  C   UNL     1      13.429 -30.850   2.243  1.00  0.00     0.041 C 
ATOM      6  O   UNL     1      12.815 -31.557   1.402  1.00  0.00    -0.550 OA
ATOM      7  O   UNL     1      13.086 -29.513   2.398  1.00  0.00    -0.550 OA
ENDBRANCH   4   5
ENDBRANCH   3   4
ENDBRANCH   2   3
ENDBRANCH   1   2
BRANCH   1   8
ATOM      8  C   UNL     1      17.498 -33.826   1.500  1.00  0.00     0.000 C 
BRANCH   8   9
ATOM      9  C   UNL     1      16.619 -34.678   0.573  1.00  0.00     0.006 C 
BRANCH   9  10
ATOM     10  C   UNL     1      15.185 -34.141   0.532  1.00  0.00     0.053 C 
BRANCH  10  11
ATOM     11  C   UNL     1      14.599 -34.316  -0.834  1.00  0.00     0.041 C 
ATOM     12  O   UNL     1      15.167 -35.061  -1.676  1.00  0.00    -0.550 OA
ATOM     13  O   UNL     1      13.452 -33.620  -1.193  1.00  0.00    -0.550 OA
ENDBRANCH  10  11
ENDBRANCH   9  10
ENDBRANCH   8   9
ENDBRANCH   1   8
TORSDOF 8
ENDMDL
MODEL 5
REMARK VINA RESULT:    -1.624      1.895      2.489
REMARK INTER + INTRA:          -2.902
REMARK INTER:                  -2.048
REMARK INTRA:                  -0.853
REMARK UNBOUND:                -0.518
REMARK SMILES O=C([O-])CCCCCCCC(=O)[O-]
REMARK SMILES IDX 7 1 6 2 5 3 4 4 2 5 1 6 3 7 8 8 9 9 10 10 11 11 12 12 13 13
REMARK H PARENT
REMARK Flexibility Score: inf
ROOT
ATOM      1  C   UNL     1      16.468 -34.413   0.837  1.00  0.00     0.000 C 
ENDROOT
BRANCH   1   2
ATOM      2  C   UNL     1      16.359 -35.342  -0.386  1.00  0.00     0.000 C 
BRANCH   2   3
ATOM      3  C   UNL     1      14.919 -35.470  -0.913  1.00  0.00     0.006 C 
BRANCH   3   4
ATOM      4  C   UNL     1      14.465 -34.214  -1.666  1.00  0.00     0.053 C 
BRANCH   4   5
ATOM      5  C   UNL     1      13.215 -33.637  -1.078  1.00  0.00     0.041 C 
ATOM      6  O   UNL     1      12.684 -34.170  -0.068  1.00  0.00    -0.550 OA
ATOM      7  O   UNL     1      12.615 -32.532  -1.667  1.00  0.00    -0.550 OA
ENDBRANCH   4   5
ENDBRANCH   3   4
ENDBRANCH   2   3
ENDBRANCH   1   2
BRANCH   1   8
ATOM      8  C   UNL     1      15.846 -34.966   2.131  1.00  0.00     0.000 C 
BRANCH   8   9
ATOM      9  C   UNL     1      14.871 -33.983   2.796  1.00  0.00     0.006 C 
BRANCH   9  10
ATOM     10  C   UNL     1      14.970 -32.596   2.154  1.00  0.00     0.053 C 
BRANCH  10  11
ATOM     11  C   UNL     1      13.763 -31.776   2.489  1.00  0.00     0.041 C 
ATOM     12  O   UNL     1      13.079 -31.254   1.570  1.00  0.00    -0.550 OA
ATOM     13  O   UNL     1      13.423 -31.549   3.816  1.00  0.00    -0.550 OA
ENDBRANCH  10  11
ENDBRANCH   9  10
ENDBRANCH   8   9
ENDBRANCH   1   8
TORSDOF 8
ENDMDL
MODEL 6
REMARK VINA RESULT:    -1.613      1.600      4.262
REMARK INTER + INTRA:          -2.886
REMARK INTER:                  -2.202
REMARK INTRA:                  -0.684
REMARK UNBOUND:                -0.518
REMARK SMILES O=C([O-])CCCCCCCC(=O)[O-]
REMARK SMILES IDX 7 1 6 2 5 3 4 4 2 5 1 6 3 7 8 8 9 9 10 10 11 11 12 12 13 13
REMARK H PARENT
REMARK Flexibility Score: inf
ROOT
ATOM      1  C   UNL     1      16.774 -33.361   1.957  1.00  0.00     0.000 C 
ENDROOT
BRANCH   1   2
ATOM      2  C   UNL     1      15.681 -32.879   2.928  1.00  0.00     0.000 C 
BRANCH   2   3
ATOM      3  C   UNL     1      15.424 -31.365   2.838  1.00  0.00     0.006 C 
BRANCH   3   4
ATOM      4  C   UNL     1      14.014 -30.988   3.308  1.00  0.00     0.053 C 
BRANCH   4   5
ATOM      5  C   UNL     1      12.965 -31.473   2.354  1.00  0.00     0.041 C 
ATOM      6  O   UNL     1      12.783 -30.883   1.257  1.00  0.00    -0.550 OA
ATOM      7  O   UNL     1      12.163 -32.555   2.694  1.00  0.00    -0.550 OA
ENDBRANCH   4   5
ENDBRANCH   3   4
ENDBRANCH   2   3
ENDBRANCH   1   2
BRANCH   1   8
ATOM      8  C   UNL     1      16.281 -34.289   0.833  1.00  0.00     0.000 C 
BRANCH   8   9
ATOM      9  C   UNL     1      14.753 -34.276   0.670  1.00  0.00     0.006 C 
BRANCH   9  10
ATOM     10  C   UNL     1      14.361 -34.195  -0.808  1.00  0.00     0.053 C 
BRANCH  10  11
ATOM     11  C   UNL     1      12.990 -33.611  -0.955  1.00  0.00     0.041 C 
ATOM     12  O   UNL     1      12.805 -32.609  -1.694  1.00  0.00    -0.550 OA
ATOM     13  O   UNL     1      11.927 -34.144  -0.237  1.00  0.00    -0.550 OA
ENDBRANCH  10  11
ENDBRANCH   9  10
ENDBRANCH   8   9
ENDBRANCH   1   8
TORSDOF 8
ENDMDL
MODEL 7
REMARK VINA RESULT:    -1.602      7.262      8.247
REMARK INTER + INTRA:          -2.869
REMARK INTER:                  -2.115
REMARK INTRA:                  -0.754
REMARK UNBOUND:                -0.518
REMARK SMILES O=C([O-])CCCCCCCC(=O)[O-]
REMARK SMILES IDX 7 1 6 2 5 3 4 4 2 5 1 6 3 7 8 8 9 9 10 10 11 11 12 12 13 13
REMARK H PARENT
REMARK Flexibility Score: inf
ROOT
ATOM      1  C   UNL     1      21.906 -28.059  -1.705  1.00  0.00     0.000 C 
ENDROOT
BRANCH   1   2
ATOM      2  C   UNL     1      20.633 -28.918  -1.803  1.00  0.00     0.000 C 
BRANCH   2   3
ATOM      3  C   UNL     1      19.876 -29.023  -0.467  1.00  0.00     0.006 C 
BRANCH   3   4
ATOM      4  C   UNL     1      20.704 -29.733   0.611  1.00  0.00     0.053 C 
BRANCH   4   5
ATOM      5  C   UNL     1      19.831 -30.381   1.641  1.00  0.00     0.041 C 
ATOM      6  O   UNL     1      19.508 -31.593   1.529  1.00  0.00    -0.550 OA
ATOM      7  O   UNL     1      19.343 -29.636   2.707  1.00  0.00    -0.550 OA
ENDBRANCH   4   5
ENDBRANCH   3   4
ENDBRANCH   2   3
ENDBRANCH   1   2
BRANCH   1   8
ATOM      8  C   UNL     1      21.711 -26.568  -2.032  1.00  0.00     0.000 C 
BRANCH   8   9
ATOM      9  C   UNL     1      22.085 -25.644  -0.864  1.00  0.00     0.006 C 
BRANCH   9  10
ATOM     10  C   UNL     1      20.901 -25.458   0.089  1.00  0.00     0.053 C 
BRANCH  10  11
ATOM     11  C   UNL     1      21.178 -26.115   1.405  1.00  0.00     0.041 C 
ATOM     12  O   UNL     1      22.334 -26.539   1.669  1.00  0.00    -0.550 OA
ATOM     13  O   UNL     1      20.150 -26.304   2.319  1.00  0.00    -0.550 OA
ENDBRANCH  10  11
ENDBRANCH   9  10
ENDBRANCH   8   9
ENDBRANCH   1   8
TORSDOF 8
ENDMDL
MODEL 8
REMARK VINA RESULT:    -1.600      5.236      6.264
REMARK INTER + INTRA:          -2.865
REMARK INTER:                  -2.457
REMARK INTRA:                  -0.409
REMARK UNBOUND:                -0.518
REMARK SMILES O=C([O-])CCCCCCCC(=O)[O-]
REMARK SMILES IDX 7 1 6 2 5 3 4 4 2 5 1 6 3 7 8 8 9 9 10 10 11 11 12 12 13 13
REMARK H PARENT
REMARK Flexibility Score: inf
ROOT
ATOM      1  C   UNL     1      20.277 -31.032   1.758  1.00  0.00     0.000 C 
ENDROOT
BRANCH   1   2
ATOM      2  C   UNL     1      19.431 -32.315   1.665  1.00  0.00     0.000 C 
BRANCH   2   3
ATOM      3  C   UNL     1      18.077 -32.193   2.386  1.00  0.00     0.006 C 
BRANCH   3   4
ATOM      4  C   UNL     1      17.762 -30.746   2.782  1.00  0.00     0.053 C 
BRANCH   4   5
ATOM      5  C   UNL     1      16.298 -30.547   3.032  1.00  0.00     0.041 C 
ATOM      6  O   UNL     1      15.897 -29.554   3.694  1.00  0.00    -0.550 OA
ATOM      7  O   UNL     1      15.380 -31.478   2.563  1.00  0.00    -0.550 OA
ENDBRANCH   4   5
ENDBRANCH   3   4
ENDBRANCH   2   3
ENDBRANCH   1   2
BRANCH   1   8
ATOM      8  C   UNL     1      20.700 -30.434   0.405  1.00  0.00     0.000 C 
BRANCH   8   9
ATOM      9  C   UNL     1      19.841 -29.231  -0.014  1.00  0.00     0.006 C 
BRANCH   9  10
ATOM     10  C   UNL     1      20.480 -28.484  -1.189  1.00  0.00     0.053 C 
BRANCH  10  11
ATOM     11  C   UNL     1      20.859 -27.095  -0.783  1.00  0.00     0.041 C 
ATOM     12  O   UNL     1      20.789 -26.748   0.426  1.00  0.00    -0.550 OA
ATOM     13  O   UNL     1      21.242 -26.169  -1.745  1.00  0.00    -0.550 OA
ENDBRANCH  10  11
ENDBRANCH   9  10
ENDBRANCH   8   9
ENDBRANCH   1   8
TORSDOF 8
ENDMDL
MODEL 9
REMARK VINA RESULT:    -1.542      2.138      4.887
REMARK INTER + INTRA:          -2.781
REMARK INTER:                  -1.987
REMARK INTRA:                  -0.794
REMARK UNBOUND:                -0.518
REMARK SMILES O=C([O-])CCCCCCCC(=O)[O-]
REMARK SMILES IDX 7 1 6 2 5 3 4 4 2 5 1 6 3 7 8 8 9 9 10 10 11 11 12 12 13 13
REMARK H PARENT
REMARK Flexibility Score: inf
ROOT
ATOM      1  C   UNL     1      16.443 -34.607   0.528  1.00  0.00     0.000 C 
ENDROOT
BRANCH   1   2
ATOM      2  C   UNL     1      15.862 -35.166   1.839  1.00  0.00     0.000 C 
BRANCH   2   3
ATOM      3  C   UNL     1      15.152 -34.095   2.684  1.00  0.00     0.006 C 
BRANCH   3   4
ATOM      4  C   UNL     1      15.232 -32.705   2.041  1.00  0.00     0.053 C 
BRANCH   4   5
ATOM      5  C   UNL     1      16.081 -31.770   2.847  1.00  0.00     0.041 C 
ATOM      6  O   UNL     1      15.546 -30.887   3.567  1.00  0.00    -0.550 OA
ATOM      7  O   UNL     1      17.466 -31.851   2.772  1.00  0.00    -0.550 OA
ENDBRANCH   4   5
ENDBRANCH   3   4
ENDBRANCH   2   3
ENDBRANCH   1   2
BRANCH   1   8
ATOM      8  C   UNL     1      16.080 -35.407  -0.737  1.00  0.00     0.000 C 
BRANCH   8   9
ATOM      9  C   UNL     1      14.586 -35.334  -1.084  1.00  0.00     0.006 C 
BRANCH   9  10
ATOM     10  C   UNL     1      14.212 -33.943  -1.604  1.00  0.00     0.053 C 
BRANCH  10  11
ATOM     11  C   UNL     1      13.010 -33.420  -0.883  1.00  0.00     0.041 C 
ATOM     12  O   UNL     1      12.548 -34.041   0.111  1.00  0.00    -0.550 OA
ATOM     13  O   UNL     1      12.369 -32.274  -1.337  1.00  0.00    -0.550 OA
ENDBRANCH  10  11
ENDBRANCH   9  10
ENDBRANCH   8   9
ENDBRANCH   1   8
TORSDOF 8
ENDMDL
