MODEL 1
REMARK VINA RESULT:    -5.274      0.000      0.000
REMARK INTER + INTRA:          -9.731
REMARK INTER:                  -8.049
REMARK INTRA:                  -1.682
REMARK UNBOUND:                -1.682
REMARK SMILES OC[C@H]1O[C@H](O[C@@]2(CO)O[C@H](CO)[C@H](O)[C@@H]2O)[C@@H](O)[C@H](O)[C@H]1O
REMARK SMILES IDX 6 1 5 2 3 3 22 4 4 5 20 6 18 7 2 8 1 9 23 11 21 13 19 15
REMARK SMILES IDX 7 17 16 18 10 19 14 20 11 21 8 22 9 23 17 25 15 27 12 29
REMARK SMILES IDX 13 30
REMARK H PARENT 1 10 23 12 21 14 19 16 9 24 17 26 15 28 13 31
REMARK Flexibility Score: inf
ROOT
ATOM      1  O   UNL     1     103.751  84.852  88.425  1.00  0.00    -0.313 OA
ENDROOT
BRANCH   1   2
ATOM      2  C   UNL     1     104.070  85.201  87.082  1.00  0.00     0.285 C 
ATOM      3  C   UNL     1     103.588  87.469  87.446  1.00  0.00     0.178 C 
ATOM      4  C   UNL     1     105.057  87.922  87.298  1.00  0.00     0.177 C 
ATOM      5  O   UNL     1     103.328  86.332  86.638  1.00  0.00    -0.341 OA
ATOM      6  C   UNL     1     105.994  86.758  87.685  1.00  0.00     0.179 C 
ATOM      7  C   UNL     1     105.588  85.462  86.957  1.00  0.00     0.202 C 
BRANCH   3   8
ATOM      8  C   UNL     1     102.593  88.581  87.088  1.00  0.00     0.191 C 
BRANCH   8   9
ATOM      9  O   UNL     1     102.389  88.637  85.703  1.00  0.00    -0.394 OA
ATOM     10  H   UNL     1     102.731  89.523  85.408  1.00  0.00     0.210 HD
ENDBRANCH   8   9
ENDBRANCH   3   8
BRANCH   4  11
ATOM     11  O   UNL     1     105.309  88.323  85.975  1.00  0.00    -0.387 OA
ATOM     12  H   UNL     1     106.288  88.244  85.833  1.00  0.00     0.211 HD
ENDBRANCH   4  11
BRANCH   6  13
ATOM     13  O   UNL     1     105.950  86.549  89.074  1.00  0.00    -0.387 OA
ATOM     14  H   UNL     1     105.000  86.379  89.311  1.00  0.00     0.211 HD
ENDBRANCH   6  13
BRANCH   7  15
ATOM     15  O   UNL     1     105.944  85.560  85.600  1.00  0.00    -0.385 OA
ATOM     16  H   UNL     1     105.098  85.613  85.083  1.00  0.00     0.211 HD
ENDBRANCH   7  15
ENDBRANCH   1   2
BRANCH   1  17
ATOM     17  C   UNL     1     102.977  83.661  88.559  1.00  0.00     0.224 C 
ATOM     18  C   UNL     1     102.633  83.071  87.165  1.00  0.00     0.208 C 
ATOM     19  O   UNL     1     101.766  83.891  89.268  1.00  0.00    -0.337 OA
ATOM     20  C   UNL     1     101.169  82.693  87.285  1.00  0.00     0.180 C 
ATOM     21  C   UNL     1     100.682  83.606  88.411  1.00  0.00     0.179 C 
BRANCH  17  22
ATOM     22  C   UNL     1     103.815  82.694  89.422  1.00  0.00     0.225 C 
BRANCH  22  23
ATOM     23  O   UNL     1     103.014  81.646  89.909  1.00  0.00    -0.391 OA
ATOM     24  H   UNL     1     102.098  82.011  90.036  1.00  0.00     0.210 HD
ENDBRANCH  22  23
ENDBRANCH  17  22
BRANCH  18  25
ATOM     25  O   UNL     1     103.438  81.973  86.811  1.00  0.00    -0.385 OA
ATOM     26  H   UNL     1     103.280  81.272  87.497  1.00  0.00     0.211 HD
ENDBRANCH  18  25
BRANCH  20  27
ATOM     27  O   UNL     1     100.986  81.323  87.568  1.00  0.00    -0.387 OA
ATOM     28  H   UNL     1     100.600  81.241  88.477  1.00  0.00     0.211 HD
ENDBRANCH  20  27
BRANCH  21  29
ATOM     29  C   UNL     1      99.507  83.048  89.224  1.00  0.00     0.191 C 
BRANCH  29  30
ATOM     30  O   UNL     1      99.982  82.257  90.278  1.00  0.00    -0.394 OA
ATOM     31  H   UNL     1      99.265  81.596  90.468  1.00  0.00     0.210 HD
ENDBRANCH  29  30
ENDBRANCH  21  29
ENDBRANCH   1  17
TORSDOF 13
ENDMDL
MODEL 2
REMARK VINA RESULT:    -5.263      1.328      5.855
REMARK INTER + INTRA:          -9.714
REMARK INTER:                  -8.069
REMARK INTRA:                  -1.645
REMARK UNBOUND:                -1.682
REMARK SMILES OC[C@H]1O[C@H](O[C@@]2(CO)O[C@H](CO)[C@H](O)[C@@H]2O)[C@@H](O)[C@H](O)[C@H]1O
REMARK SMILES IDX 6 1 5 2 3 3 22 4 4 5 20 6 18 7 2 8 1 9 23 11 21 13 19 15
REMARK SMILES IDX 7 17 16 18 10 19 14 20 11 21 8 22 9 23 17 25 15 27 12 29
REMARK SMILES IDX 13 30
REMARK H PARENT 1 10 23 12 21 14 19 16 9 24 17 26 15 28 13 31
REMARK Flexibility Score: inf
ROOT
ATOM      1  O   UNL     1     103.196  84.289  86.941  1.00  0.00    -0.313 OA
ENDROOT
BRANCH   1   2
ATOM      2  C   UNL     1     102.879  83.937  88.284  1.00  0.00     0.285 C 
ATOM      3  C   UNL     1     100.578  84.227  87.927  1.00  0.00     0.178 C 
ATOM      4  C   UNL     1     100.251  82.724  88.071  1.00  0.00     0.177 C 
ATOM      5  O   UNL     1     101.690  84.579  88.733  1.00  0.00    -0.341 OA
ATOM      6  C   UNL     1     101.489  81.891  87.678  1.00  0.00     0.179 C 
ATOM      7  C   UNL     1     102.749  82.402  88.404  1.00  0.00     0.202 C 
BRANCH   3   8
ATOM      8  C   UNL     1      99.386  85.123  88.291  1.00  0.00     0.191 C 
BRANCH   8   9
ATOM      9  O   UNL     1      99.305  85.300  89.678  1.00  0.00    -0.394 OA
ATOM     10  H   UNL     1     100.138  84.912  90.057  1.00  0.00     0.210 HD
ENDBRANCH   8   9
ENDBRANCH   3   8
BRANCH   4  11
ATOM     11  O   UNL     1      99.877  82.435  89.393  1.00  0.00    -0.387 OA
ATOM     12  H   UNL     1      99.545  83.282  89.790  1.00  0.00     0.211 HD
ENDBRANCH   4  11
BRANCH   6  13
ATOM     13  O   UNL     1     101.690  81.957  86.288  1.00  0.00    -0.387 OA
ATOM     14  H   UNL     1     101.013  81.362  85.869  1.00  0.00     0.211 HD
ENDBRANCH   6  13
BRANCH   7  15
ATOM     15  O   UNL     1     102.684  82.034  89.759  1.00  0.00    -0.385 OA
ATOM     16  H   UNL     1     102.134  82.722  90.219  1.00  0.00     0.211 HD
ENDBRANCH   7  15
ENDBRANCH   1   2
BRANCH   1  17
ATOM     17  C   UNL     1     104.344  85.126  86.803  1.00  0.00     0.224 C 
ATOM     18  C   UNL     1     104.882  85.552  88.196  1.00  0.00     0.208 C 
ATOM     19  O   UNL     1     104.062  86.295  86.045  1.00  0.00    -0.337 OA
ATOM     20  C   UNL     1     105.178  87.030  88.030  1.00  0.00     0.180 C 
ATOM     21  C   UNL     1     104.265  87.424  86.868  1.00  0.00     0.179 C 
BRANCH  17  22
ATOM     22  C   UNL     1     105.377  84.315  85.993  1.00  0.00     0.225 C 
BRANCH  22  23
ATOM     23  O   UNL     1     106.347  85.167  85.436  1.00  0.00    -0.391 OA
ATOM     24  H   UNL     1     106.556  84.819  84.528  1.00  0.00     0.210 HD
ENDBRANCH  22  23
ENDBRANCH  17  22
BRANCH  18  25
ATOM     25  O   UNL     1     106.015  84.826  88.603  1.00  0.00    -0.385 OA
ATOM     26  H   UNL     1     105.730  84.261  89.368  1.00  0.00     0.211 HD
ENDBRANCH  18  25
BRANCH  20  27
ATOM     27  O   UNL     1     106.541  87.283  87.770  1.00  0.00    -0.387 OA
ATOM     28  H   UNL     1     106.748  88.208  88.060  1.00  0.00     0.211 HD
ENDBRANCH  20  27
BRANCH  21  29
ATOM     29  C   UNL     1     104.774  88.600  86.024  1.00  0.00     0.191 C 
BRANCH  29  30
ATOM     30  O   UNL     1     105.603  88.133  84.996  1.00  0.00    -0.394 OA
ATOM     31  H   UNL     1     105.976  88.942  84.558  1.00  0.00     0.210 HD
ENDBRANCH  29  30
ENDBRANCH  21  29
ENDBRANCH   1  17
TORSDOF 13
ENDMDL
MODEL 3
REMARK VINA RESULT:    -5.176      6.587      9.063
REMARK INTER + INTRA:          -9.581
REMARK INTER:                  -8.073
REMARK INTRA:                  -1.508
REMARK UNBOUND:                -1.682
REMARK SMILES OC[C@H]1O[C@H](O[C@@]2(CO)O[C@H](CO)[C@H](O)[C@@H]2O)[C@@H](O)[C@H](O)[C@H]1O
REMARK SMILES IDX 6 1 5 2 3 3 22 4 4 5 20 6 18 7 2 8 1 9 23 11 21 13 19 15
REMARK SMILES IDX 7 17 16 18 10 19 14 20 11 21 8 22 9 23 17 25 15 27 12 29
REMARK SMILES IDX 13 30
REMARK H PARENT 1 10 23 12 21 14 19 16 9 24 17 26 15 28 13 31
REMARK Flexibility Score: inf
ROOT
ATOM      1  O   UNL     1     107.472  83.241  81.824  1.00  0.00    -0.313 OA
ENDROOT
BRANCH   1   2
ATOM      2  C   UNL     1     107.118  84.604  81.616  1.00  0.00     0.285 C 
ATOM      3  C   UNL     1     104.826  84.151  81.834  1.00  0.00     0.178 C 
ATOM      4  C   UNL     1     104.684  84.923  83.164  1.00  0.00     0.177 C 
ATOM      5  O   UNL     1     105.831  84.733  81.020  1.00  0.00    -0.341 OA
ATOM      6  C   UNL     1     106.040  84.929  83.901  1.00  0.00     0.179 C 
ATOM      7  C   UNL     1     107.176  85.370  82.957  1.00  0.00     0.202 C 
BRANCH   3   8
ATOM      8  C   UNL     1     103.509  84.094  81.047  1.00  0.00     0.191 C 
BRANCH   8   9
ATOM      9  O   UNL     1     102.411  84.105  81.917  1.00  0.00    -0.394 OA
ATOM     10  H   UNL     1     102.177  85.061  82.057  1.00  0.00     0.210 HD
ENDBRANCH   8   9
ENDBRANCH   3   8
BRANCH   4  11
ATOM     11  O   UNL     1     104.267  86.242  82.917  1.00  0.00    -0.387 OA
ATOM     12  H   UNL     1     104.986  86.838  83.250  1.00  0.00     0.211 HD
ENDBRANCH   4  11
BRANCH   6  13
ATOM     13  O   UNL     1     106.318  83.645  84.401  1.00  0.00    -0.387 OA
ATOM     14  H   UNL     1     105.740  83.008  83.903  1.00  0.00     0.211 HD
ENDBRANCH   6  13
BRANCH   7  15
ATOM     15  O   UNL     1     107.073  86.752  82.722  1.00  0.00    -0.385 OA
ATOM     16  H   UNL     1     107.282  87.207  83.580  1.00  0.00     0.211 HD
ENDBRANCH   7  15
ENDBRANCH   1   2
BRANCH   1  17
ATOM     17  C   UNL     1     108.546  82.776  81.007  1.00  0.00     0.224 C 
ATOM     18  C   UNL     1     108.128  82.758  79.512  1.00  0.00     0.208 C 
ATOM     19  O   UNL     1     108.971  81.472  81.379  1.00  0.00    -0.337 OA
ATOM     20  C   UNL     1     108.659  81.430  79.007  1.00  0.00     0.180 C 
ATOM     21  C   UNL     1     108.755  80.602  80.289  1.00  0.00     0.179 C 
BRANCH  17  22
ATOM     22  C   UNL     1     109.736  83.721  81.277  1.00  0.00     0.225 C 
BRANCH  22  23
ATOM     23  O   UNL     1     110.900  83.240  80.652  1.00  0.00    -0.391 OA
ATOM     24  H   UNL     1     111.672  83.711  81.066  1.00  0.00     0.210 HD
ENDBRANCH  22  23
ENDBRANCH  17  22
BRANCH  18  25
ATOM     25  O   UNL     1     108.633  83.845  78.778  1.00  0.00    -0.385 OA
ATOM     26  H   UNL     1     109.215  84.360  79.397  1.00  0.00     0.211 HD
ENDBRANCH  18  25
BRANCH  20  27
ATOM     27  O   UNL     1     109.895  81.560  78.340  1.00  0.00    -0.387 OA
ATOM     28  H   UNL     1     110.229  80.652  78.122  1.00  0.00     0.211 HD
ENDBRANCH  20  27
BRANCH  21  29
ATOM     29  C   UNL     1     109.837  79.514  80.268  1.00  0.00     0.191 C 
BRANCH  29  30
ATOM     30  O   UNL     1     111.049  80.030  80.746  1.00  0.00    -0.394 OA
ATOM     31  H   UNL     1     111.750  79.703  80.122  1.00  0.00     0.210 HD
ENDBRANCH  29  30
ENDBRANCH  21  29
ENDBRANCH   1  17
TORSDOF 13
ENDMDL
MODEL 4
REMARK VINA RESULT:    -4.976      6.375      9.383
REMARK INTER + INTRA:          -9.277
REMARK INTER:                  -7.986
REMARK INTRA:                  -1.290
REMARK UNBOUND:                -1.682
REMARK SMILES OC[C@H]1O[C@H](O[C@@]2(CO)O[C@H](CO)[C@H](O)[C@@H]2O)[C@@H](O)[C@H](O)[C@H]1O
REMARK SMILES IDX 6 1 5 2 3 3 22 4 4 5 20 6 18 7 2 8 1 9 23 11 21 13 19 15
REMARK SMILES IDX 7 17 16 18 10 19 14 20 11 21 8 22 9 23 17 25 15 27 12 29
REMARK SMILES IDX 13 30
REMARK H PARENT 1 10 23 12 21 14 19 16 9 24 17 26 15 28 13 31
REMARK Flexibility Score: inf
ROOT
ATOM      1  O   UNL     1     104.877  80.284  94.037  1.00  0.00    -0.313 OA
ENDROOT
BRANCH   1   2
ATOM      2  C   UNL     1     103.483  80.526  94.198  1.00  0.00     0.285 C 
ATOM      3  C   UNL     1     103.779  82.854  94.174  1.00  0.00     0.178 C 
ATOM      4  C   UNL     1     103.063  83.045  92.819  1.00  0.00     0.177 C 
ATOM      5  O   UNL     1     103.234  81.751  94.879  1.00  0.00    -0.341 OA
ATOM      6  C   UNL     1     103.192  81.753  91.985  1.00  0.00     0.179 C 
ATOM      7  C   UNL     1     102.789  80.520  92.817  1.00  0.00     0.202 C 
BRANCH   3   8
ATOM      8  C   UNL     1     103.704  84.106  95.058  1.00  0.00     0.191 C 
BRANCH   8   9
ATOM      9  O   UNL     1     104.511  83.961  96.194  1.00  0.00    -0.394 OA
ATOM     10  H   UNL     1     103.898  83.729  96.942  1.00  0.00     0.210 HD
ENDBRANCH   8   9
ENDBRANCH   3   8
BRANCH   4  11
ATOM     11  O   UNL     1     101.708  83.351  93.026  1.00  0.00    -0.387 OA
ATOM     12  H   UNL     1     101.289  82.543  93.421  1.00  0.00     0.211 HD
ENDBRANCH   4  11
BRANCH   6  13
ATOM     13  O   UNL     1     104.515  81.603  91.534  1.00  0.00    -0.387 OA
ATOM     14  H   UNL     1     104.565  80.727  91.068  1.00  0.00     0.211 HD
ENDBRANCH   6  13
BRANCH   7  15
ATOM     15  O   UNL     1     101.393  80.509  92.986  1.00  0.00    -0.385 OA
ATOM     16  H   UNL     1     101.096  79.569  92.866  1.00  0.00     0.211 HD
ENDBRANCH   7  15
ENDBRANCH   1   2
BRANCH   1  17
ATOM     17  C   UNL     1     105.383  79.198  94.813  1.00  0.00     0.224 C 
ATOM     18  C   UNL     1     105.443  79.581  96.316  1.00  0.00     0.208 C 
ATOM     19  O   UNL     1     106.681  78.802  94.390  1.00  0.00    -0.337 OA
ATOM     20  C   UNL     1     106.794  79.058  96.766  1.00  0.00     0.180 C 
ATOM     21  C   UNL     1     107.582  79.004  95.457  1.00  0.00     0.179 C 
BRANCH  17  22
ATOM     22  C   UNL     1     104.447  78.000  94.545  1.00  0.00     0.225 C 
BRANCH  22  23
ATOM     23  O   UNL     1     104.948  76.836  95.153  1.00  0.00    -0.391 OA
ATOM     24  H   UNL     1     104.940  76.118  94.465  1.00  0.00     0.210 HD
ENDBRANCH  22  23
ENDBRANCH  17  22
BRANCH  18  25
ATOM     25  O   UNL     1     104.387  79.042  97.072  1.00  0.00    -0.385 OA
ATOM     26  H   UNL     1     103.739  78.660  96.423  1.00  0.00     0.211 HD
ENDBRANCH  18  25
BRANCH  20  27
ATOM     27  O   UNL     1     106.703  77.805  97.407  1.00  0.00    -0.387 OA
ATOM     28  H   UNL     1     107.476  77.713  98.022  1.00  0.00     0.211 HD
ENDBRANCH  20  27
BRANCH  21  29
ATOM     29  C   UNL     1     108.685  77.939  95.417  1.00  0.00     0.191 C 
BRANCH  29  30
ATOM     30  O   UNL     1     108.202  76.766  94.823  1.00  0.00    -0.394 OA
ATOM     31  H   UNL     1     108.087  76.112  95.563  1.00  0.00     0.210 HD
ENDBRANCH  29  30
ENDBRANCH  21  29
ENDBRANCH   1  17
TORSDOF 13
ENDMDL
MODEL 5
REMARK VINA RESULT:    -4.955      7.130      9.934
REMARK INTER + INTRA:          -9.244
REMARK INTER:                  -7.776
REMARK INTRA:                  -1.468
REMARK UNBOUND:                -1.682
REMARK SMILES OC[C@H]1O[C@H](O[C@@]2(CO)O[C@H](CO)[C@H](O)[C@@H]2O)[C@@H](O)[C@H](O)[C@H]1O
REMARK SMILES IDX 6 1 5 2 3 3 22 4 4 5 20 6 18 7 2 8 1 9 23 11 21 13 19 15
REMARK SMILES IDX 7 17 16 18 10 19 14 20 11 21 8 22 9 23 17 25 15 27 12 29
REMARK SMILES IDX 13 30
REMARK H PARENT 1 10 23 12 21 14 19 16 9 24 17 26 15 28 13 31
REMARK Flexibility Score: inf
ROOT
ATOM      1  O   UNL     1     104.949  80.881  95.201  1.00  0.00    -0.313 OA
ENDROOT
BRANCH   1   2
ATOM      2  C   UNL     1     103.753  81.222  94.508  1.00  0.00     0.285 C 
ATOM      3  C   UNL     1     102.556  81.519  96.504  1.00  0.00     0.178 C 
ATOM      4  C   UNL     1     102.406  83.045  96.321  1.00  0.00     0.177 C 
ATOM      5  O   UNL     1     102.591  80.862  95.248  1.00  0.00    -0.341 OA
ATOM      6  C   UNL     1     103.577  83.576  95.466  1.00  0.00     0.179 C 
ATOM      7  C   UNL     1     103.748  82.734  94.187  1.00  0.00     0.202 C 
BRANCH   3   8
ATOM      8  C   UNL     1     101.430  80.918  97.357  1.00  0.00     0.191 C 
BRANCH   8   9
ATOM      9  O   UNL     1     100.312  80.623  96.565  1.00  0.00    -0.394 OA
ATOM     10  H   UNL     1      99.587  80.362  97.194  1.00  0.00     0.210 HD
ENDBRANCH   8   9
ENDBRANCH   3   8
BRANCH   4  11
ATOM     11  O   UNL     1     101.183  83.340  95.696  1.00  0.00    -0.387 OA
ATOM     12  H   UNL     1     100.534  82.653  95.998  1.00  0.00     0.211 HD
ENDBRANCH   4  11
BRANCH   6  13
ATOM     13  O   UNL     1     104.768  83.542  96.212  1.00  0.00    -0.387 OA
ATOM     14  H   UNL     1     105.272  82.739  95.917  1.00  0.00     0.211 HD
ENDBRANCH   6  13
BRANCH   7  15
ATOM     15  O   UNL     1     102.702  83.027  93.294  1.00  0.00    -0.385 OA
ATOM     16  H   UNL     1     101.949  82.423  93.523  1.00  0.00     0.211 HD
ENDBRANCH   7  15
ENDBRANCH   1   2
BRANCH   1  17
ATOM     17  C   UNL     1     105.401  79.545  94.982  1.00  0.00     0.224 C 
ATOM     18  C   UNL     1     104.769  78.577  96.018  1.00  0.00     0.208 C 
ATOM     19  O   UNL     1     106.817  79.443  95.065  1.00  0.00    -0.337 OA
ATOM     20  C   UNL     1     105.932  77.702  96.447  1.00  0.00     0.180 C 
ATOM     21  C   UNL     1     107.143  78.582  96.134  1.00  0.00     0.179 C 
BRANCH  17  22
ATOM     22  C   UNL     1     105.018  79.191  93.530  1.00  0.00     0.225 C 
BRANCH  22  23
ATOM     23  O   UNL     1     106.124  78.658  92.843  1.00  0.00    -0.391 OA
ATOM     24  H   UNL     1     105.850  78.538  91.895  1.00  0.00     0.210 HD
ENDBRANCH  22  23
ENDBRANCH  17  22
BRANCH  18  25
ATOM     25  O   UNL     1     103.702  77.824  95.498  1.00  0.00    -0.385 OA
ATOM     26  H   UNL     1     103.633  77.006  96.057  1.00  0.00     0.211 HD
ENDBRANCH  18  25
BRANCH  20  27
ATOM     27  O   UNL     1     105.958  76.466  95.768  1.00  0.00    -0.387 OA
ATOM     28  H   UNL     1     106.121  75.749  96.433  1.00  0.00     0.211 HD
ENDBRANCH  20  27
BRANCH  21  29
ATOM     29  C   UNL     1     108.427  77.809  95.809  1.00  0.00     0.191 C 
BRANCH  29  30
ATOM     30  O   UNL     1     108.291  77.139  94.586  1.00  0.00    -0.394 OA
ATOM     31  H   UNL     1     108.705  76.246  94.716  1.00  0.00     0.210 HD
ENDBRANCH  29  30
ENDBRANCH  21  29
ENDBRANCH   1  17
TORSDOF 13
ENDMDL
MODEL 6
REMARK VINA RESULT:    -4.947      1.403      6.055
REMARK INTER + INTRA:          -9.232
REMARK INTER:                  -7.753
REMARK INTRA:                  -1.479
REMARK UNBOUND:                -1.682
REMARK SMILES OC[C@H]1O[C@H](O[C@@]2(CO)O[C@H](CO)[C@H](O)[C@@H]2O)[C@@H](O)[C@H](O)[C@H]1O
REMARK SMILES IDX 6 1 5 2 3 3 22 4 4 5 20 6 18 7 2 8 1 9 23 11 21 13 19 15
REMARK SMILES IDX 7 17 16 18 10 19 14 20 11 21 8 22 9 23 17 25 15 27 12 29
REMARK SMILES IDX 13 30
REMARK H PARENT 1 10 23 12 21 14 19 16 9 24 17 26 15 28 13 31
REMARK Flexibility Score: inf
ROOT
ATOM      1  O   UNL     1     103.990  85.179  87.939  1.00  0.00    -0.313 OA
ENDROOT
BRANCH   1   2
ATOM      2  C   UNL     1     103.875  83.806  87.581  1.00  0.00     0.285 C 
ATOM      3  C   UNL     1     102.481  83.337  89.409  1.00  0.00     0.178 C 
ATOM      4  C   UNL     1     101.235  83.068  88.537  1.00  0.00     0.177 C 
ATOM      5  O   UNL     1     103.667  82.977  88.719  1.00  0.00    -0.341 OA
ATOM      6  C   UNL     1     101.354  83.859  87.217  1.00  0.00     0.179 C 
ATOM      7  C   UNL     1     102.729  83.627  86.559  1.00  0.00     0.202 C 
BRANCH   3   8
ATOM      8  C   UNL     1     102.430  82.590  90.749  1.00  0.00     0.191 C 
BRANCH   8   9
ATOM      9  O   UNL     1     103.086  81.356  90.654  1.00  0.00    -0.394 OA
ATOM     10  H   UNL     1     103.848  81.396  91.292  1.00  0.00     0.210 HD
ENDBRANCH   8   9
ENDBRANCH   3   8
BRANCH   4  11
ATOM     11  O   UNL     1     101.123  81.694  88.265  1.00  0.00    -0.387 OA
ATOM     12  H   UNL     1     101.567  81.536  87.392  1.00  0.00     0.211 HD
ENDBRANCH   4  11
BRANCH   6  13
ATOM     13  O   UNL     1     101.178  85.231  87.464  1.00  0.00    -0.387 OA
ATOM     14  H   UNL     1     100.350  85.324  88.005  1.00  0.00     0.211 HD
ENDBRANCH   6  13
BRANCH   7  15
ATOM     15  O   UNL     1     102.771  82.330  86.017  1.00  0.00    -0.385 OA
ATOM     16  H   UNL     1     102.734  81.697  86.781  1.00  0.00     0.211 HD
ENDBRANCH   7  15
ENDBRANCH   1   2
BRANCH   1  17
ATOM     17  C   UNL     1     104.619  85.998  86.954  1.00  0.00     0.224 C 
ATOM     18  C   UNL     1     105.181  87.294  87.598  1.00  0.00     0.208 C 
ATOM     19  O   UNL     1     103.724  86.357  85.910  1.00  0.00    -0.337 OA
ATOM     20  C   UNL     1     104.779  88.383  86.621  1.00  0.00     0.180 C 
ATOM     21  C   UNL     1     103.580  87.760  85.904  1.00  0.00     0.179 C 
BRANCH  17  22
ATOM     22  C   UNL     1     105.722  85.131  86.310  1.00  0.00     0.225 C 
BRANCH  22  23
ATOM     23  O   UNL     1     106.166  85.709  85.108  1.00  0.00    -0.391 OA
ATOM     24  H   UNL     1     105.882  85.106  84.370  1.00  0.00     0.210 HD
ENDBRANCH  22  23
ENDBRANCH  17  22
BRANCH  18  25
ATOM     25  O   UNL     1     106.570  87.256  87.808  1.00  0.00    -0.385 OA
ATOM     26  H   UNL     1     106.714  87.387  88.782  1.00  0.00     0.211 HD
ENDBRANCH  18  25
BRANCH  20  27
ATOM     27  O   UNL     1     105.825  88.735  85.743  1.00  0.00    -0.387 OA
ATOM     28  H   UNL     1     106.110  87.920  85.255  1.00  0.00     0.211 HD
ENDBRANCH  20  27
BRANCH  21  29
ATOM     29  C   UNL     1     103.364  88.257  84.469  1.00  0.00     0.191 C 
BRANCH  29  30
ATOM     30  O   UNL     1     104.234  87.594  83.593  1.00  0.00    -0.394 OA
ATOM     31  H   UNL     1     104.204  88.104  82.741  1.00  0.00     0.210 HD
ENDBRANCH  29  30
ENDBRANCH  21  29
ENDBRANCH   1  17
TORSDOF 13
ENDMDL
MODEL 7
REMARK VINA RESULT:    -4.938      7.962     10.287
REMARK INTER + INTRA:          -9.218
REMARK INTER:                  -7.817
REMARK INTRA:                  -1.401
REMARK UNBOUND:                -1.682
REMARK SMILES OC[C@H]1O[C@H](O[C@@]2(CO)O[C@H](CO)[C@H](O)[C@@H]2O)[C@@H](O)[C@H](O)[C@H]1O
REMARK SMILES IDX 6 1 5 2 3 3 22 4 4 5 20 6 18 7 2 8 1 9 23 11 21 13 19 15
REMARK SMILES IDX 7 17 16 18 10 19 14 20 11 21 8 22 9 23 17 25 15 27 12 29
REMARK SMILES IDX 13 30
REMARK H PARENT 1 10 23 12 21 14 19 16 9 24 17 26 15 28 13 31
REMARK Flexibility Score: inf
ROOT
ATOM      1  O   UNL     1     105.248  81.208  95.602  1.00  0.00    -0.313 OA
ENDROOT
BRANCH   1   2
ATOM      2  C   UNL     1     104.251  81.335  96.610  1.00  0.00     0.285 C 
ATOM      3  C   UNL     1     104.841  83.562  97.060  1.00  0.00     0.178 C 
ATOM      4  C   UNL     1     103.524  84.143  96.501  1.00  0.00     0.177 C 
ATOM      5  O   UNL     1     104.627  82.273  97.613  1.00  0.00    -0.341 OA
ATOM      6  C   UNL     1     102.952  83.186  95.435  1.00  0.00     0.179 C 
ATOM      7  C   UNL     1     102.906  81.739  95.964  1.00  0.00     0.202 C 
BRANCH   3   8
ATOM      8  C   UNL     1     105.477  84.468  98.123  1.00  0.00     0.191 C 
BRANCH   8   9
ATOM      9  O   UNL     1     106.354  85.386  97.530  1.00  0.00    -0.394 OA
ATOM     10  H   UNL     1     106.398  86.166  98.147  1.00  0.00     0.210 HD
ENDBRANCH   8   9
ENDBRANCH   3   8
BRANCH   4  11
ATOM     11  O   UNL     1     102.593  84.317  97.539  1.00  0.00    -0.387 OA
ATOM     12  H   UNL     1     102.601  83.482  98.075  1.00  0.00     0.211 HD
ENDBRANCH   4  11
BRANCH   6  13
ATOM     13  O   UNL     1     103.744  83.235  94.274  1.00  0.00    -0.387 OA
ATOM     14  H   UNL     1     103.347  82.595  93.625  1.00  0.00     0.211 HD
ENDBRANCH   6  13
BRANCH   7  15
ATOM     15  O   UNL     1     101.870  81.624  96.908  1.00  0.00    -0.385 OA
ATOM     16  H   UNL     1     102.129  82.179  97.690  1.00  0.00     0.211 HD
ENDBRANCH   7  15
ENDBRANCH   1   2
BRANCH   1  17
ATOM     17  C   UNL     1     105.608  79.862  95.291  1.00  0.00     0.224 C 
ATOM     18  C   UNL     1     104.898  78.870  96.252  1.00  0.00     0.208 C 
ATOM     19  O   UNL     1     107.011  79.654  95.374  1.00  0.00    -0.337 OA
ATOM     20  C   UNL     1     105.991  77.886  96.623  1.00  0.00     0.180 C 
ATOM     21  C   UNL     1     107.265  78.698  96.381  1.00  0.00     0.179 C 
BRANCH  17  22
ATOM     22  C   UNL     1     105.216  79.640  93.815  1.00  0.00     0.225 C 
BRANCH  22  23
ATOM     23  O   UNL     1     105.828  78.479  93.311  1.00  0.00    -0.391 OA
ATOM     24  H   UNL     1     106.743  78.734  93.016  1.00  0.00     0.210 HD
ENDBRANCH  22  23
ENDBRANCH  17  22
BRANCH  18  25
ATOM     25  O   UNL     1     103.785  78.234  95.674  1.00  0.00    -0.385 OA
ATOM     26  H   UNL     1     103.463  77.569  96.337  1.00  0.00     0.211 HD
ENDBRANCH  18  25
BRANCH  20  27
ATOM     27  O   UNL     1     105.937  76.703  95.858  1.00  0.00    -0.387 OA
ATOM     28  H   UNL     1     106.599  76.063  96.226  1.00  0.00     0.211 HD
ENDBRANCH  20  27
BRANCH  21  29
ATOM     29  C   UNL     1     108.495  77.861  96.007  1.00  0.00     0.191 C 
BRANCH  29  30
ATOM     30  O   UNL     1     108.318  77.280  94.744  1.00  0.00    -0.394 OA
ATOM     31  H   UNL     1     108.621  77.961  94.086  1.00  0.00     0.210 HD
ENDBRANCH  29  30
ENDBRANCH  21  29
ENDBRANCH   1  17
TORSDOF 13
ENDMDL
MODEL 8
REMARK VINA RESULT:    -4.915      1.596      2.581
REMARK INTER + INTRA:          -9.183
REMARK INTER:                  -7.700
REMARK INTRA:                  -1.483
REMARK UNBOUND:                -1.682
REMARK SMILES OC[C@H]1O[C@H](O[C@@]2(CO)O[C@H](CO)[C@H](O)[C@@H]2O)[C@@H](O)[C@H](O)[C@H]1O
REMARK SMILES IDX 6 1 5 2 3 3 22 4 4 5 20 6 18 7 2 8 1 9 23 11 21 13 19 15
REMARK SMILES IDX 7 17 16 18 10 19 14 20 11 21 8 22 9 23 17 25 15 27 12 29
REMARK SMILES IDX 13 30
REMARK H PARENT 1 10 23 12 21 14 19 16 9 24 17 26 15 28 13 31
REMARK Flexibility Score: inf
ROOT
ATOM      1  O   UNL     1     103.411  83.652  87.406  1.00  0.00    -0.313 OA
ENDROOT
BRANCH   1   2
ATOM      2  C   UNL     1     102.920  84.574  86.439  1.00  0.00     0.285 C 
ATOM      3  C   UNL     1     104.791  85.972  86.668  1.00  0.00     0.178 C 
ATOM      4  C   UNL     1     105.332  85.670  85.253  1.00  0.00     0.177 C 
ATOM      5  O   UNL     1     103.375  85.899  86.691  1.00  0.00    -0.341 OA
ATOM      6  C   UNL     1     104.856  84.271  84.810  1.00  0.00     0.179 C 
ATOM      7  C   UNL     1     103.337  84.115  85.023  1.00  0.00     0.202 C 
BRANCH   3   8
ATOM      8  C   UNL     1     105.234  87.348  87.183  1.00  0.00     0.191 C 
BRANCH   8   9
ATOM      9  O   UNL     1     106.402  87.237  87.950  1.00  0.00    -0.394 OA
ATOM     10  H   UNL     1     107.145  87.091  87.305  1.00  0.00     0.210 HD
ENDBRANCH   8   9
ENDBRANCH   3   8
BRANCH   4  11
ATOM     11  O   UNL     1     104.881  86.642  84.345  1.00  0.00    -0.387 OA
ATOM     12  H   UNL     1     104.024  86.992  84.702  1.00  0.00     0.211 HD
ENDBRANCH   4  11
BRANCH   6  13
ATOM     13  O   UNL     1     105.535  83.280  85.540  1.00  0.00    -0.387 OA
ATOM     14  H   UNL     1     105.632  82.493  84.941  1.00  0.00     0.211 HD
ENDBRANCH   6  13
BRANCH   7  15
ATOM     15  O   UNL     1     102.653  84.872  84.056  1.00  0.00    -0.385 OA
ATOM     16  H   UNL     1     102.144  84.231  83.493  1.00  0.00     0.211 HD
ENDBRANCH   7  15
ENDBRANCH   1   2
BRANCH   1  17
ATOM     17  C   UNL     1     102.439  83.220  88.359  1.00  0.00     0.224 C 
ATOM     18  C   UNL     1     101.147  82.740  87.643  1.00  0.00     0.208 C 
ATOM     19  O   UNL     1     102.098  84.251  89.275  1.00  0.00    -0.337 OA
ATOM     20  C   UNL     1     100.032  83.356  88.466  1.00  0.00     0.180 C 
ATOM     21  C   UNL     1     100.726  84.547  89.127  1.00  0.00     0.179 C 
BRANCH  17  22
ATOM     22  C   UNL     1     103.109  82.101  89.184  1.00  0.00     0.225 C 
BRANCH  22  23
ATOM     23  O   UNL     1     102.372  81.840  90.352  1.00  0.00    -0.391 OA
ATOM     24  H   UNL     1     101.633  82.505  90.388  1.00  0.00     0.210 HD
ENDBRANCH  22  23
ENDBRANCH  17  22
BRANCH  18  25
ATOM     25  O   UNL     1     101.040  81.340  87.567  1.00  0.00    -0.385 OA
ATOM     26  H   UNL     1     100.871  81.120  86.613  1.00  0.00     0.211 HD
ENDBRANCH  18  25
BRANCH  20  27
ATOM     27  O   UNL     1      99.482  82.450  89.397  1.00  0.00    -0.387 OA
ATOM     28  H   UNL     1      98.794  82.928  89.927  1.00  0.00     0.211 HD
ENDBRANCH  20  27
BRANCH  21  29
ATOM     29  C   UNL     1     100.133  84.962  90.480  1.00  0.00     0.191 C 
BRANCH  29  30
ATOM     30  O   UNL     1     100.603  84.116  91.493  1.00  0.00    -0.394 OA
ATOM     31  H   UNL     1      99.804  83.644  91.847  1.00  0.00     0.210 HD
ENDBRANCH  29  30
ENDBRANCH  21  29
ENDBRANCH   1  17
TORSDOF 13
ENDMDL
MODEL 9
REMARK VINA RESULT:    -4.870      2.499      5.922
REMARK INTER + INTRA:          -9.115
REMARK INTER:                  -7.971
REMARK INTRA:                  -1.144
REMARK UNBOUND:                -1.682
REMARK SMILES OC[C@H]1O[C@H](O[C@@]2(CO)O[C@H](CO)[C@H](O)[C@@H]2O)[C@@H](O)[C@H](O)[C@H]1O
REMARK SMILES IDX 6 1 5 2 3 3 22 4 4 5 20 6 18 7 2 8 1 9 23 11 21 13 19 15
REMARK SMILES IDX 7 17 16 18 10 19 14 20 11 21 8 22 9 23 17 25 15 27 12 29
REMARK SMILES IDX 13 30
REMARK H PARENT 1 10 23 12 21 14 19 16 9 24 17 26 15 28 13 31
REMARK Flexibility Score: inf
ROOT
ATOM      1  O   UNL     1     103.568  84.165  86.756  1.00  0.00    -0.313 OA
ENDROOT
BRANCH   1   2
ATOM      2  C   UNL     1     103.138  82.880  87.191  1.00  0.00     0.285 C 
ATOM      3  C   UNL     1     103.551  83.389  89.444  1.00  0.00     0.178 C 
ATOM      4  C   UNL     1     102.057  83.380  89.838  1.00  0.00     0.177 C 
ATOM      5  O   UNL     1     103.798  82.477  88.387  1.00  0.00    -0.341 OA
ATOM      6  C   UNL     1     101.200  83.737  88.605  1.00  0.00     0.179 C 
ATOM      7  C   UNL     1     101.605  82.882  87.388  1.00  0.00     0.202 C 
BRANCH   3   8
ATOM      8  C   UNL     1     104.470  83.053  90.627  1.00  0.00     0.191 C 
BRANCH   8   9
ATOM      9  O   UNL     1     104.596  81.666  90.777  1.00  0.00    -0.394 OA
ATOM     10  H   UNL     1     105.155  81.354  90.016  1.00  0.00     0.210 HD
ENDBRANCH   8   9
ENDBRANCH   3   8
BRANCH   4  11
ATOM     11  O   UNL     1     101.693  82.114  90.326  1.00  0.00    -0.387 OA
ATOM     12  H   UNL     1     102.250  81.945  91.129  1.00  0.00     0.211 HD
ENDBRANCH   4  11
BRANCH   6  13
ATOM     13  O   UNL     1     101.354  85.099  88.292  1.00  0.00    -0.387 OA
ATOM     14  H   UNL     1     102.321  85.248  88.116  1.00  0.00     0.211 HD
ENDBRANCH   6  13
BRANCH   7  15
ATOM     15  O   UNL     1     101.147  81.565  87.573  1.00  0.00    -0.385 OA
ATOM     16  H   UNL     1     101.209  81.372  88.546  1.00  0.00     0.211 HD
ENDBRANCH   7  15
ENDBRANCH   1   2
BRANCH   1  17
ATOM     17  C   UNL     1     104.167  84.182  85.460  1.00  0.00     0.224 C 
ATOM     18  C   UNL     1     104.651  85.613  85.100  1.00  0.00     0.208 C 
ATOM     19  O   UNL     1     103.268  83.738  84.453  1.00  0.00    -0.337 OA
ATOM     20  C   UNL     1     104.206  85.791  83.661  1.00  0.00     0.180 C 
ATOM     21  C   UNL     1     103.050  84.796  83.546  1.00  0.00     0.179 C 
BRANCH  17  22
ATOM     22  C   UNL     1     105.322  83.160  85.502  1.00  0.00     0.225 C 
BRANCH  22  23
ATOM     23  O   UNL     1     106.096  83.239  84.331  1.00  0.00    -0.391 OA
ATOM     24  H   UNL     1     106.007  82.367  83.861  1.00  0.00     0.210 HD
ENDBRANCH  22  23
ENDBRANCH  17  22
BRANCH  18  25
ATOM     25  O   UNL     1     106.039  85.787  85.252  1.00  0.00    -0.385 OA
ATOM     26  H   UNL     1     106.183  86.125  86.174  1.00  0.00     0.211 HD
ENDBRANCH  18  25
BRANCH  20  27
ATOM     27  O   UNL     1     105.243  85.542  82.739  1.00  0.00    -0.387 OA
ATOM     28  H   UNL     1     105.718  86.395  82.566  1.00  0.00     0.211 HD
ENDBRANCH  20  27
BRANCH  21  29
ATOM     29  C   UNL     1     102.827  84.237  82.135  1.00  0.00     0.191 C 
BRANCH  29  30
ATOM     30  O   UNL     1     101.569  84.624  81.655  1.00  0.00    -0.394 OA
ATOM     31  H   UNL     1     100.903  84.147  82.218  1.00  0.00     0.210 HD
ENDBRANCH  29  30
ENDBRANCH  21  29
ENDBRANCH   1  17
TORSDOF 13
ENDMDL
