MODEL 1
REMARK VINA RESULT:     0.465      0.000      0.000
REMARK INTER + INTRA:           0.110
REMARK INTER:                   0.846
REMARK INTRA:                  -0.736
REMARK UNBOUND:                -0.736
REMARK SMILES CCCCCC=CCC=CCCCCCCCC(=O)[O-]
REMARK SMILES IDX 11 1 12 2 13 3 14 4 15 5 16 6 17 7 18 8 19 9 20 10 10 11
REMARK SMILES IDX 9 12 8 13 7 14 6 15 5 16 4 17 3 18 2 19 1 20
REMARK H PARENT
REMARK Flexibility Score: inf
ROOT
ATOM      1  C   UNL     1     -10.881  -7.500  25.540  1.00  0.00     0.027 C 
ENDROOT
BRANCH   1   2
ATOM      2  C   UNL     1      -9.732  -6.476  25.573  1.00  0.00     0.004 C 
BRANCH   2   3
ATOM      3  C   UNL     1     -10.141  -5.069  26.056  1.00  0.00     0.000 C 
BRANCH   3   4
ATOM      4  C   UNL     1     -10.820  -5.032  27.437  1.00  0.00     0.000 C 
BRANCH   4   5
ATOM      5  C   UNL     1      -9.876  -5.452  28.576  1.00  0.00     0.000 C 
BRANCH   5   6
ATOM      6  C   UNL     1     -10.526  -6.459  29.538  1.00  0.00     0.006 C 
BRANCH   6   7
ATOM      7  C   UNL     1     -10.562  -7.881  28.962  1.00  0.00     0.053 C 
BRANCH   7   8
ATOM      8  C   UNL     1     -11.973  -8.369  28.865  1.00  0.00     0.041 C 
ATOM      9  O   UNL     1     -12.782  -7.816  28.074  1.00  0.00    -0.550 OA
ATOM     10  O   UNL     1     -12.382  -9.469  29.611  1.00  0.00    -0.550 OA
ENDBRANCH   7   8
ENDBRANCH   6   7
ENDBRANCH   5   6
ENDBRANCH   4   5
ENDBRANCH   3   4
ENDBRANCH   2   3
ENDBRANCH   1   2
BRANCH   1  11
ATOM     11  C   UNL     1     -10.745  -8.488  24.412  1.00  0.00    -0.031 C 
ATOM     12  C   UNL     1     -10.005  -8.220  23.325  1.00  0.00    -0.027 C 
BRANCH  12  13
ATOM     13  C   UNL     1      -9.880  -9.203  22.196  1.00  0.00     0.054 C 
BRANCH  13  14
ATOM     14  C   UNL     1      -9.256  -8.551  20.993  1.00  0.00    -0.027 C 
ATOM     15  C   UNL     1      -9.040  -9.232  19.857  1.00  0.00    -0.031 C 
BRANCH  15  16
ATOM     16  C   UNL     1      -8.376  -8.592  18.670  1.00  0.00     0.027 C 
BRANCH  16  17
ATOM     17  C   UNL     1      -6.976  -9.178  18.436  1.00  0.00     0.004 C 
BRANCH  17  18
ATOM     18  C   UNL     1      -5.850  -8.242  18.910  1.00  0.00     0.000 C 
BRANCH  18  19
ATOM     19  C   UNL     1      -6.069  -7.681  20.331  1.00  0.00    -0.003 C 
ATOM     20  C   UNL     1      -4.760  -7.539  21.109  1.00  0.00     0.004 C 
ENDBRANCH  18  19
ENDBRANCH  17  18
ENDBRANCH  16  17
ENDBRANCH  15  16
ENDBRANCH  13  14
ENDBRANCH  12  13
ENDBRANCH   1  11
TORSDOF 14
ENDMDL
MODEL 2
REMARK VINA RESULT:     0.979     12.996     15.382
REMARK INTER + INTRA:           1.043
REMARK INTER:                   2.226
REMARK INTRA:                  -1.183
REMARK UNBOUND:                -0.736
REMARK SMILES CCCCCC=CCC=CCCCCCCCC(=O)[O-]
REMARK SMILES IDX 11 1 12 2 13 3 14 4 15 5 16 6 17 7 18 8 19 9 20 10 10 11
REMARK SMILES IDX 9 12 8 13 7 14 6 15 5 16 4 17 3 18 2 19 1 20
REMARK H PARENT
REMARK Flexibility Score: inf
ROOT
ATOM      1  C   UNL     1      -7.776   2.997  15.075  1.00  0.00     0.027 C 
ENDROOT
BRANCH   1   2
ATOM      2  C   UNL     1      -8.601   3.631  16.209  1.00  0.00     0.004 C 
BRANCH   2   3
ATOM      3  C   UNL     1      -7.782   4.488  17.196  1.00  0.00     0.000 C 
BRANCH   3   4
ATOM      4  C   UNL     1      -7.947   6.009  17.024  1.00  0.00     0.000 C 
BRANCH   4   5
ATOM      5  C   UNL     1      -8.900   6.377  15.874  1.00  0.00     0.000 C 
BRANCH   5   6
ATOM      6  C   UNL     1      -8.173   7.059  14.703  1.00  0.00     0.006 C 
BRANCH   6   7
ATOM      7  C   UNL     1      -7.820   6.074  13.579  1.00  0.00     0.053 C 
BRANCH   7   8
ATOM      8  C   UNL     1      -6.359   6.143  13.266  1.00  0.00     0.041 C 
ATOM      9  O   UNL     1      -5.525   5.548  13.999  1.00  0.00    -0.550 OA
ATOM     10  O   UNL     1      -5.921   6.822  12.135  1.00  0.00    -0.550 OA
ENDBRANCH   7   8
ENDBRANCH   6   7
ENDBRANCH   5   6
ENDBRANCH   4   5
ENDBRANCH   3   4
ENDBRANCH   2   3
ENDBRANCH   1   2
BRANCH   1  11
ATOM     11  C   UNL     1      -8.445   1.789  14.475  1.00  0.00    -0.031 C 
ATOM     12  C   UNL     1      -8.212   1.410  13.210  1.00  0.00    -0.027 C 
BRANCH  12  13
ATOM     13  C   UNL     1      -8.890   0.211  12.610  1.00  0.00     0.054 C 
BRANCH  13  14
ATOM     14  C   UNL     1      -9.065  -0.869  13.642  1.00  0.00    -0.027 C 
ATOM     15  C   UNL     1      -9.350  -2.134  13.294  1.00  0.00    -0.031 C 
BRANCH  15  16
ATOM     16  C   UNL     1      -9.570  -3.204  14.327  1.00  0.00     0.027 C 
BRANCH  16  17
ATOM     17  C   UNL     1     -10.238  -4.441  13.710  1.00  0.00     0.004 C 
BRANCH  17  18
ATOM     18  C   UNL     1     -11.603  -4.127  13.073  1.00  0.00     0.000 C 
BRANCH  18  19
ATOM     19  C   UNL     1     -12.770  -4.116  14.084  1.00  0.00    -0.003 C 
ATOM     20  C   UNL     1     -13.223  -2.698  14.434  1.00  0.00     0.004 C 
ENDBRANCH  18  19
ENDBRANCH  17  18
ENDBRANCH  16  17
ENDBRANCH  15  16
ENDBRANCH  13  14
ENDBRANCH  12  13
ENDBRANCH   1  11
TORSDOF 14
ENDMDL
MODEL 3
REMARK VINA RESULT:     1.268      3.750      9.141
REMARK INTER + INTRA:           1.569
REMARK INTER:                   1.995
REMARK INTRA:                  -0.426
REMARK UNBOUND:                -0.736
REMARK SMILES CCCCCC=CCC=CCCCCCCCC(=O)[O-]
REMARK SMILES IDX 11 1 12 2 13 3 14 4 15 5 16 6 17 7 18 8 19 9 20 10 10 11
REMARK SMILES IDX 9 12 8 13 7 14 6 15 5 16 4 17 3 18 2 19 1 20
REMARK H PARENT
REMARK Flexibility Score: inf
ROOT
ATOM      1  C   UNL     1     -10.858  -8.626  24.954  1.00  0.00     0.027 C 
ENDROOT
BRANCH   1   2
ATOM      2  C   UNL     1     -10.920  -8.595  23.416  1.00  0.00     0.004 C 
BRANCH   2   3
ATOM      3  C   UNL     1      -9.578  -8.890  22.715  1.00  0.00     0.000 C 
BRANCH   3   4
ATOM      4  C   UNL     1      -9.391  -8.192  21.355  1.00  0.00     0.000 C 
BRANCH   4   5
ATOM      5  C   UNL     1      -9.147  -9.186  20.206  1.00  0.00     0.000 C 
BRANCH   5   6
ATOM      6  C   UNL     1      -8.518  -8.516  18.974  1.00  0.00     0.006 C 
BRANCH   6   7
ATOM      7  C   UNL     1      -7.232  -9.219  18.516  1.00  0.00     0.053 C 
BRANCH   7   8
ATOM      8  C   UNL     1      -6.035  -8.381  18.841  1.00  0.00     0.041 C 
ATOM      9  O   UNL     1      -5.279  -7.972  17.921  1.00  0.00    -0.550 OA
ATOM     10  O   UNL     1      -5.784  -8.009  20.157  1.00  0.00    -0.550 OA
ENDBRANCH   7   8
ENDBRANCH   6   7
ENDBRANCH   5   6
ENDBRANCH   4   5
ENDBRANCH   3   4
ENDBRANCH   2   3
ENDBRANCH   1   2
BRANCH   1  11
ATOM     11  C   UNL     1     -10.908  -7.251  25.564  1.00  0.00    -0.031 C 
ATOM     12  C   UNL     1     -10.136  -6.251  25.113  1.00  0.00    -0.027 C 
BRANCH  12  13
ATOM     13  C   UNL     1     -10.180  -4.883  25.731  1.00  0.00     0.054 C 
BRANCH  13  14
ATOM     14  C   UNL     1     -10.440  -4.977  27.209  1.00  0.00    -0.027 C 
ATOM     15  C   UNL     1      -9.925  -5.969  27.951  1.00  0.00    -0.031 C 
BRANCH  15  16
ATOM     16  C   UNL     1     -10.222  -6.088  29.420  1.00  0.00     0.027 C 
BRANCH  16  17
ATOM     17  C   UNL     1     -10.548  -7.539  29.804  1.00  0.00     0.004 C 
BRANCH  17  18
ATOM     18  C   UNL     1     -11.187  -8.332  28.650  1.00  0.00     0.000 C 
BRANCH  18  19
ATOM     19  C   UNL     1     -12.674  -8.672  28.883  1.00  0.00    -0.003 C 
ATOM     20  C   UNL     1     -12.858  -9.947  29.708  1.00  0.00     0.004 C 
ENDBRANCH  18  19
ENDBRANCH  17  18
ENDBRANCH  16  17
ENDBRANCH  15  16
ENDBRANCH  13  14
ENDBRANCH  12  13
ENDBRANCH   1  11
TORSDOF 14
ENDMDL
MODEL 4
REMARK VINA RESULT:     1.826      1.779      2.626
REMARK INTER + INTRA:           2.585
REMARK INTER:                   2.189
REMARK INTRA:                   0.395
REMARK UNBOUND:                -0.736
REMARK SMILES CCCCCC=CCC=CCCCCCCCC(=O)[O-]
REMARK SMILES IDX 11 1 12 2 13 3 14 4 15 5 16 6 17 7 18 8 19 9 20 10 10 11
REMARK SMILES IDX 9 12 8 13 7 14 6 15 5 16 4 17 3 18 2 19 1 20
REMARK H PARENT
REMARK Flexibility Score: inf
ROOT
ATOM      1  C   UNL     1     -11.238  -9.470  25.099  1.00  0.00     0.027 C 
ENDROOT
BRANCH   1   2
ATOM      2  C   UNL     1     -11.227  -8.325  26.128  1.00  0.00     0.004 C 
BRANCH   2   3
ATOM      3  C   UNL     1     -11.609  -8.750  27.562  1.00  0.00     0.000 C 
BRANCH   3   4
ATOM      4  C   UNL     1     -11.704  -7.594  28.575  1.00  0.00     0.000 C 
BRANCH   4   5
ATOM      5  C   UNL     1     -10.326  -7.096  29.040  1.00  0.00     0.000 C 
BRANCH   5   6
ATOM      6  C   UNL     1     -10.099  -5.610  28.718  1.00  0.00     0.006 C 
BRANCH   6   7
ATOM      7  C   UNL     1     -10.977  -5.120  27.558  1.00  0.00     0.053 C 
BRANCH   7   8
ATOM      8  C   UNL     1     -10.182  -5.065  26.291  1.00  0.00     0.041 C 
ATOM      9  O   UNL     1     -10.161  -4.011  25.602  1.00  0.00    -0.550 OA
ATOM     10  O   UNL     1      -9.424  -6.162  25.896  1.00  0.00    -0.550 OA
ENDBRANCH   7   8
ENDBRANCH   6   7
ENDBRANCH   5   6
ENDBRANCH   4   5
ENDBRANCH   3   4
ENDBRANCH   2   3
ENDBRANCH   1   2
BRANCH   1  11
ATOM     11  C   UNL     1     -11.134  -8.975  23.681  1.00  0.00    -0.031 C 
ATOM     12  C   UNL     1     -10.007  -8.424  23.207  1.00  0.00    -0.027 C 
BRANCH  12  13
ATOM     13  C   UNL     1      -9.909  -7.921  21.795  1.00  0.00     0.054 C 
BRANCH  13  14
ATOM     14  C   UNL     1      -8.989  -8.792  20.985  1.00  0.00    -0.027 C 
ATOM     15  C   UNL     1      -8.770  -8.561  19.682  1.00  0.00    -0.031 C 
BRANCH  15  16
ATOM     16  C   UNL     1      -7.885  -9.458  18.861  1.00  0.00     0.027 C 
BRANCH  16  17
ATOM     17  C   UNL     1      -6.851  -8.644  18.071  1.00  0.00     0.004 C 
BRANCH  17  18
ATOM     18  C   UNL     1      -5.630  -8.245  18.919  1.00  0.00     0.000 C 
BRANCH  18  19
ATOM     19  C   UNL     1      -5.987  -7.848  20.367  1.00  0.00    -0.003 C 
ATOM     20  C   UNL     1      -4.755  -7.447  21.180  1.00  0.00     0.004 C 
ENDBRANCH  18  19
ENDBRANCH  17  18
ENDBRANCH  16  17
ENDBRANCH  15  16
ENDBRANCH  13  14
ENDBRANCH  12  13
ENDBRANCH   1  11
TORSDOF 14
ENDMDL
MODEL 5
REMARK VINA RESULT:     1.859     12.191     14.614
REMARK INTER + INTRA:           2.643
REMARK INTER:                   2.943
REMARK INTRA:                  -0.299
REMARK UNBOUND:                -0.736
REMARK SMILES CCCCCC=CCC=CCCCCCCCC(=O)[O-]
REMARK SMILES IDX 11 1 12 2 13 3 14 4 15 5 16 6 17 7 18 8 19 9 20 10 10 11
REMARK SMILES IDX 9 12 8 13 7 14 6 15 5 16 4 17 3 18 2 19 1 20
REMARK H PARENT
REMARK Flexibility Score: inf
ROOT
ATOM      1  C   UNL     1      -7.189   3.621  12.977  1.00  0.00     0.027 C 
ENDROOT
BRANCH   1   2
ATOM      2  C   UNL     1      -6.697   4.807  13.826  1.00  0.00     0.004 C 
BRANCH   2   3
ATOM      3  C   UNL     1      -7.167   6.190  13.328  1.00  0.00     0.000 C 
BRANCH   3   4
ATOM      4  C   UNL     1      -7.890   7.046  14.383  1.00  0.00     0.000 C 
BRANCH   4   5
ATOM      5  C   UNL     1      -8.792   6.213  15.309  1.00  0.00     0.000 C 
BRANCH   5   6
ATOM      6  C   UNL     1      -8.245   6.131  16.744  1.00  0.00     0.006 C 
BRANCH   6   7
ATOM      7  C   UNL     1      -7.474   4.830  17.005  1.00  0.00     0.053 C 
BRANCH   7   8
ATOM      8  C   UNL     1      -8.420   3.676  17.111  1.00  0.00     0.041 C 
ATOM      9  O   UNL     1      -9.030   3.261  16.091  1.00  0.00    -0.550 OA
ATOM     10  O   UNL     1      -8.590   3.025  18.328  1.00  0.00    -0.550 OA
ENDBRANCH   7   8
ENDBRANCH   6   7
ENDBRANCH   5   6
ENDBRANCH   4   5
ENDBRANCH   3   4
ENDBRANCH   2   3
ENDBRANCH   1   2
BRANCH   1  11
ATOM     11  C   UNL     1      -7.547   2.419  13.810  1.00  0.00    -0.031 C 
ATOM     12  C   UNL     1      -8.239   1.389  13.300  1.00  0.00    -0.027 C 
BRANCH  12  13
ATOM     13  C   UNL     1      -8.605   0.196  14.136  1.00  0.00     0.054 C 
BRANCH  13  14
ATOM     14  C   UNL     1      -9.096  -0.928  13.268  1.00  0.00    -0.027 C 
ATOM     15  C   UNL     1      -9.432  -2.120  13.785  1.00  0.00    -0.031 C 
BRANCH  15  16
ATOM     16  C   UNL     1      -9.880  -3.259  12.911  1.00  0.00     0.027 C 
BRANCH  16  17
ATOM     17  C   UNL     1     -10.693  -4.286  13.713  1.00  0.00     0.004 C 
BRANCH  17  18
ATOM     18  C   UNL     1     -12.186  -4.284  13.345  1.00  0.00     0.000 C 
BRANCH  18  19
ATOM     19  C   UNL     1     -13.102  -3.774  14.478  1.00  0.00    -0.003 C 
ATOM     20  C   UNL     1     -13.211  -2.249  14.497  1.00  0.00     0.004 C 
ENDBRANCH  18  19
ENDBRANCH  17  18
ENDBRANCH  16  17
ENDBRANCH  15  16
ENDBRANCH  13  14
ENDBRANCH  12  13
ENDBRANCH   1  11
TORSDOF 14
ENDMDL
MODEL 6
REMARK VINA RESULT:     1.931      3.211      8.671
REMARK INTER + INTRA:           2.776
REMARK INTER:                   3.854
REMARK INTRA:                  -1.078
REMARK UNBOUND:                -0.736
REMARK SMILES CCCCCC=CCC=CCCCCCCCC(=O)[O-]
REMARK SMILES IDX 11 1 12 2 13 3 14 4 15 5 16 6 17 7 18 8 19 9 20 10 10 11
REMARK SMILES IDX 9 12 8 13 7 14 6 15 5 16 4 17 3 18 2 19 1 20
REMARK H PARENT
REMARK Flexibility Score: inf
ROOT
ATOM      1  C   UNL     1      -8.918  -8.191  21.055  1.00  0.00     0.027 C 
ENDROOT
BRANCH   1   2
ATOM      2  C   UNL     1      -9.400  -8.991  19.831  1.00  0.00     0.004 C 
BRANCH   2   3
ATOM      3  C   UNL     1      -8.624  -8.701  18.530  1.00  0.00     0.000 C 
BRANCH   3   4
ATOM      4  C   UNL     1      -7.236  -9.361  18.443  1.00  0.00     0.000 C 
BRANCH   4   5
ATOM      5  C   UNL     1      -6.155  -8.406  17.908  1.00  0.00     0.000 C 
BRANCH   5   6
ATOM      6  C   UNL     1      -5.285  -7.816  19.030  1.00  0.00     0.006 C 
BRANCH   6   7
ATOM      7  C   UNL     1      -5.693  -8.327  20.419  1.00  0.00     0.053 C 
BRANCH   7   8
ATOM      8  C   UNL     1      -5.174  -7.413  21.484  1.00  0.00     0.041 C 
ATOM      9  O   UNL     1      -4.549  -6.366  21.171  1.00  0.00    -0.550 OA
ATOM     10  O   UNL     1      -5.426  -7.691  22.823  1.00  0.00    -0.550 OA
ENDBRANCH   7   8
ENDBRANCH   6   7
ENDBRANCH   5   6
ENDBRANCH   4   5
ENDBRANCH   3   4
ENDBRANCH   2   3
ENDBRANCH   1   2
BRANCH   1  11
ATOM     11  C   UNL     1      -9.912  -8.207  22.186  1.00  0.00    -0.031 C 
ATOM     12  C   UNL     1      -9.673  -8.877  23.324  1.00  0.00    -0.027 C 
BRANCH  12  13
ATOM     13  C   UNL     1     -10.670  -8.902  24.447  1.00  0.00     0.054 C 
BRANCH  13  14
ATOM     14  C   UNL     1     -10.864  -7.522  25.013  1.00  0.00    -0.027 C 
ATOM     15  C   UNL     1      -9.834  -6.805  25.485  1.00  0.00    -0.031 C 
BRANCH  15  16
ATOM     16  C   UNL     1     -10.035  -5.444  26.092  1.00  0.00     0.027 C 
BRANCH  16  17
ATOM     17  C   UNL     1     -10.987  -5.508  27.295  1.00  0.00     0.004 C 
BRANCH  17  18
ATOM     18  C   UNL     1     -10.257  -5.781  28.621  1.00  0.00     0.000 C 
BRANCH  18  19
ATOM     19  C   UNL     1     -10.503  -7.197  29.184  1.00  0.00    -0.003 C 
ATOM     20  C   UNL     1     -11.646  -7.918  28.467  1.00  0.00     0.004 C 
ENDBRANCH  18  19
ENDBRANCH  17  18
ENDBRANCH  16  17
ENDBRANCH  15  16
ENDBRANCH  13  14
ENDBRANCH  12  13
ENDBRANCH   1  11
TORSDOF 14
ENDMDL
MODEL 7
REMARK VINA RESULT:     2.145      3.741      8.668
REMARK INTER + INTRA:           3.164
REMARK INTER:                   3.104
REMARK INTRA:                   0.059
REMARK UNBOUND:                -0.736
REMARK SMILES CCCCCC=CCC=CCCCCCCCC(=O)[O-]
REMARK SMILES IDX 11 1 12 2 13 3 14 4 15 5 16 6 17 7 18 8 19 9 20 10 10 11
REMARK SMILES IDX 9 12 8 13 7 14 6 15 5 16 4 17 3 18 2 19 1 20
REMARK H PARENT
REMARK Flexibility Score: inf
ROOT
ATOM      1  C   UNL     1     -11.180  -9.514  24.913  1.00  0.00     0.027 C 
ENDROOT
BRANCH   1   2
ATOM      2  C   UNL     1     -10.825  -8.595  23.731  1.00  0.00     0.004 C 
BRANCH   2   3
ATOM      3  C   UNL     1      -9.597  -9.048  22.913  1.00  0.00     0.000 C 
BRANCH   3   4
ATOM      4  C   UNL     1      -9.398  -8.306  21.579  1.00  0.00     0.000 C 
BRANCH   4   5
ATOM      5  C   UNL     1      -9.105  -9.257  20.407  1.00  0.00     0.000 C 
BRANCH   5   6
ATOM      6  C   UNL     1      -8.629  -8.512  19.149  1.00  0.00     0.006 C 
BRANCH   6   7
ATOM      7  C   UNL     1      -7.407  -9.177  18.500  1.00  0.00     0.053 C 
BRANCH   7   8
ATOM      8  C   UNL     1      -6.155  -8.452  18.880  1.00  0.00     0.041 C 
ATOM      9  O   UNL     1      -5.215  -8.334  18.052  1.00  0.00    -0.550 OA
ATOM     10  O   UNL     1      -6.047  -7.862  20.135  1.00  0.00    -0.550 OA
ENDBRANCH   7   8
ENDBRANCH   6   7
ENDBRANCH   5   6
ENDBRANCH   4   5
ENDBRANCH   3   4
ENDBRANCH   2   3
ENDBRANCH   1   2
BRANCH   1  11
ATOM     11  C   UNL     1     -11.370  -8.757  26.200  1.00  0.00    -0.031 C 
ATOM     12  C   UNL     1     -11.635  -9.385  27.355  1.00  0.00    -0.027 C 
BRANCH  12  13
ATOM     13  C   UNL     1     -11.836  -8.627  28.636  1.00  0.00     0.054 C 
BRANCH  13  14
ATOM     14  C   UNL     1     -11.377  -7.203  28.486  1.00  0.00    -0.027 C 
ATOM     15  C   UNL     1     -10.202  -6.787  28.984  1.00  0.00    -0.031 C 
BRANCH  15  16
ATOM     16  C   UNL     1      -9.763  -5.353  28.873  1.00  0.00     0.027 C 
BRANCH  16  17
ATOM     17  C   UNL     1     -10.875  -4.478  28.277  1.00  0.00     0.004 C 
BRANCH  17  18
ATOM     18  C   UNL     1     -11.149  -4.789  26.795  1.00  0.00     0.000 C 
BRANCH  18  19
ATOM     19  C   UNL     1      -9.870  -4.902  25.939  1.00  0.00    -0.003 C 
ATOM     20  C   UNL     1      -9.565  -6.344  25.533  1.00  0.00     0.004 C 
ENDBRANCH  18  19
ENDBRANCH  17  18
ENDBRANCH  16  17
ENDBRANCH  15  16
ENDBRANCH  13  14
ENDBRANCH  12  13
ENDBRANCH   1  11
TORSDOF 14
ENDMDL
MODEL 8
REMARK VINA RESULT:     2.235      1.986      3.137
REMARK INTER + INTRA:           3.328
REMARK INTER:                   3.546
REMARK INTRA:                  -0.218
REMARK UNBOUND:                -0.736
REMARK SMILES CCCCCC=CCC=CCCCCCCCC(=O)[O-]
REMARK SMILES IDX 11 1 12 2 13 3 14 4 15 5 16 6 17 7 18 8 19 9 20 10 10 11
REMARK SMILES IDX 9 12 8 13 7 14 6 15 5 16 4 17 3 18 2 19 1 20
REMARK H PARENT
REMARK Flexibility Score: inf
ROOT
ATOM      1  C   UNL     1     -11.992  -7.861  27.087  1.00  0.00     0.027 C 
ENDROOT
BRANCH   1   2
ATOM      2  C   UNL     1     -11.981  -8.440  28.514  1.00  0.00     0.004 C 
BRANCH   2   3
ATOM      3  C   UNL     1     -10.912  -7.830  29.444  1.00  0.00     0.000 C 
BRANCH   3   4
ATOM      4  C   UNL     1      -9.963  -6.824  28.768  1.00  0.00     0.000 C 
BRANCH   4   5
ATOM      5  C   UNL     1     -10.031  -5.423  29.400  1.00  0.00     0.000 C 
BRANCH   5   6
ATOM      6  C   UNL     1     -10.395  -4.334  28.379  1.00  0.00     0.006 C 
BRANCH   6   7
ATOM      7  C   UNL     1     -11.110  -4.902  27.145  1.00  0.00     0.053 C 
BRANCH   7   8
ATOM      8  C   UNL     1     -10.217  -4.833  25.946  1.00  0.00     0.041 C 
ATOM      9  O   UNL     1     -10.061  -3.744  25.334  1.00  0.00    -0.550 OA
ATOM     10  O   UNL     1      -9.516  -5.962  25.536  1.00  0.00    -0.550 OA
ENDBRANCH   7   8
ENDBRANCH   6   7
ENDBRANCH   5   6
ENDBRANCH   4   5
ENDBRANCH   3   4
ENDBRANCH   2   3
ENDBRANCH   1   2
BRANCH   1  11
ATOM     11  C   UNL     1     -11.271  -8.739  26.099  1.00  0.00    -0.031 C 
ATOM     12  C   UNL     1     -10.997  -8.322  24.854  1.00  0.00    -0.027 C 
BRANCH  12  13
ATOM     13  C   UNL     1     -10.287  -9.203  23.867  1.00  0.00     0.054 C 
BRANCH  13  14
ATOM     14  C   UNL     1      -9.982  -8.446  22.604  1.00  0.00    -0.027 C 
ATOM     15  C   UNL     1      -9.384  -9.036  21.558  1.00  0.00    -0.031 C 
BRANCH  15  16
ATOM     16  C   UNL     1      -9.039  -8.268  20.312  1.00  0.00     0.027 C 
BRANCH  16  17
ATOM     17  C   UNL     1      -8.901  -9.205  19.104  1.00  0.00     0.004 C 
BRANCH  17  18
ATOM     18  C   UNL     1      -7.651  -8.906  18.256  1.00  0.00     0.000 C 
BRANCH  18  19
ATOM     19  C   UNL     1      -6.425  -8.481  19.092  1.00  0.00    -0.003 C 
ATOM     20  C   UNL     1      -5.238  -8.074  18.218  1.00  0.00     0.004 C 
ENDBRANCH  18  19
ENDBRANCH  17  18
ENDBRANCH  16  17
ENDBRANCH  15  16
ENDBRANCH  13  14
ENDBRANCH  12  13
ENDBRANCH   1  11
TORSDOF 14
ENDMDL
MODEL 9
REMARK VINA RESULT:     2.504     12.267     15.290
REMARK INTER + INTRA:           3.817
REMARK INTER:                   4.779
REMARK INTRA:                  -0.962
REMARK UNBOUND:                -0.736
REMARK SMILES CCCCCC=CCC=CCCCCCCCC(=O)[O-]
REMARK SMILES IDX 11 1 12 2 13 3 14 4 15 5 16 6 17 7 18 8 19 9 20 10 10 11
REMARK SMILES IDX 9 12 8 13 7 14 6 15 5 16 4 17 3 18 2 19 1 20
REMARK H PARENT
REMARK Flexibility Score: inf
ROOT
ATOM      1  C   UNL     1      -7.499   1.838  12.560  1.00  0.00     0.027 C 
ENDROOT
BRANCH   1   2
ATOM      2  C   UNL     1      -7.923   0.817  13.630  1.00  0.00     0.004 C 
BRANCH   2   3
ATOM      3  C   UNL     1      -9.145  -0.043  13.247  1.00  0.00     0.000 C 
BRANCH   3   4
ATOM      4  C   UNL     1      -9.278  -1.364  14.026  1.00  0.00     0.000 C 
BRANCH   4   5
ATOM      5  C   UNL     1      -9.492  -2.578  13.107  1.00  0.00     0.000 C 
BRANCH   5   6
ATOM      6  C   UNL     1     -10.183  -3.747  13.828  1.00  0.00     0.006 C 
BRANCH   6   7
ATOM      7  C   UNL     1     -11.471  -4.193  13.121  1.00  0.00     0.053 C 
BRANCH   7   8
ATOM      8  C   UNL     1     -12.662  -3.908  13.980  1.00  0.00     0.041 C 
ATOM      9  O   UNL     1     -13.371  -4.854  14.415  1.00  0.00    -0.550 OA
ATOM     10  O   UNL     1     -12.962  -2.599  14.341  1.00  0.00    -0.550 OA
ENDBRANCH   7   8
ENDBRANCH   6   7
ENDBRANCH   5   6
ENDBRANCH   4   5
ENDBRANCH   3   4
ENDBRANCH   2   3
ENDBRANCH   1   2
BRANCH   1  11
ATOM     11  C   UNL     1      -7.177   3.189  13.142  1.00  0.00    -0.031 C 
ATOM     12  C   UNL     1      -7.154   4.295  12.384  1.00  0.00    -0.027 C 
BRANCH  12  13
ATOM     13  C   UNL     1      -6.822   5.641  12.965  1.00  0.00     0.054 C 
BRANCH  13  14
ATOM     14  C   UNL     1      -7.264   5.721  14.400  1.00  0.00    -0.027 C 
ATOM     15  C   UNL     1      -8.284   6.507  14.778  1.00  0.00    -0.031 C 
BRANCH  15  16
ATOM     16  C   UNL     1      -8.697   6.623  16.219  1.00  0.00     0.027 C 
BRANCH  16  17
ATOM     17  C   UNL     1      -7.712   5.885  17.138  1.00  0.00     0.004 C 
BRANCH  17  18
ATOM     18  C   UNL     1      -8.309   4.603  17.746  1.00  0.00     0.000 C 
BRANCH  18  19
ATOM     19  C   UNL     1      -8.046   3.338  16.901  1.00  0.00    -0.003 C 
ATOM     20  C   UNL     1      -9.095   3.140  15.806  1.00  0.00     0.004 C 
ENDBRANCH  18  19
ENDBRANCH  17  18
ENDBRANCH  16  17
ENDBRANCH  15  16
ENDBRANCH  13  14
ENDBRANCH  12  13
ENDBRANCH   1  11
TORSDOF 14
ENDMDL
