MODEL 1
REMARK VINA RESULT:    -4.447      0.000      0.000
REMARK INTER + INTRA:         -10.473
REMARK INTER:                  -8.606
REMARK INTRA:                  -1.867
REMARK UNBOUND:                -1.867
REMARK SMILES CCCCCCCCCCCCCCCCCC(=O)[O-]
REMARK SMILES IDX 10 1 11 2 12 3 13 4 14 5 15 6 16 7 17 8 18 9 19 10 20 11
REMARK SMILES IDX 9 12 8 13 7 14 6 15 5 16 4 17 3 18 2 19 1 20
REMARK H PARENT
REMARK Flexibility Score: inf
ROOT
ATOM      1  C   UNL     1      26.718  -3.292  19.655  1.00  0.00     0.000 C 
ENDROOT
BRANCH   1   2
ATOM      2  C   UNL     1      28.052  -2.745  20.197  1.00  0.00     0.000 C 
BRANCH   2   3
ATOM      3  C   UNL     1      28.793  -1.818  19.209  1.00  0.00     0.000 C 
BRANCH   3   4
ATOM      4  C   UNL     1      30.093  -1.254  19.802  1.00  0.00     0.000 C 
BRANCH   4   5
ATOM      5  C   UNL     1      30.476   0.071  19.131  1.00  0.00     0.000 C 
BRANCH   5   6
ATOM      6  C   UNL     1      30.937   1.101  20.173  1.00  0.00     0.000 C 
BRANCH   6   7
ATOM      7  C   UNL     1      31.809   0.480  21.276  1.00  0.00     0.006 C 
BRANCH   7   8
ATOM      8  C   UNL     1      31.445   0.995  22.675  1.00  0.00     0.053 C 
BRANCH   8   9
ATOM      9  C   UNL     1      30.602  -0.008  23.396  1.00  0.00     0.041 C 
ATOM     10  O   UNL     1      30.865  -1.237  23.310  1.00  0.00    -0.550 OA
ATOM     11  O   UNL     1      29.494   0.410  24.124  1.00  0.00    -0.550 OA
ENDBRANCH   8   9
ENDBRANCH   7   8
ENDBRANCH   6   7
ENDBRANCH   5   6
ENDBRANCH   4   5
ENDBRANCH   3   4
ENDBRANCH   2   3
ENDBRANCH   1   2
BRANCH   1  12
ATOM     12  C   UNL     1      26.525  -3.141  18.137  1.00  0.00     0.000 C 
BRANCH  12  13
ATOM     13  C   UNL     1      25.100  -3.487  17.682  1.00  0.00    -0.000 C 
BRANCH  13  14
ATOM     14  C   UNL     1      24.222  -3.871  18.879  1.00  0.00    -0.000 C 
BRANCH  14  15
ATOM     15  C   UNL     1      23.524  -5.215  18.643  1.00  0.00    -0.000 C 
BRANCH  15  16
ATOM     16  C   UNL     1      23.885  -6.221  19.746  1.00  0.00    -0.000 C 
BRANCH  16  17
ATOM     17  C   UNL     1      25.307  -6.788  19.594  1.00  0.00    -0.000 C 
BRANCH  17  18
ATOM     18  C   UNL     1      25.579  -7.505  18.258  1.00  0.00    -0.000 C 
BRANCH  18  19
ATOM     19  C   UNL     1      26.680  -6.838  17.406  1.00  0.00    -0.003 C 
ATOM     20  C   UNL     1      27.991  -6.669  18.173  1.00  0.00     0.004 C 
ENDBRANCH  18  19
ENDBRANCH  17  18
ENDBRANCH  16  17
ENDBRANCH  15  16
ENDBRANCH  14  15
ENDBRANCH  13  14
ENDBRANCH  12  13
ENDBRANCH   1  12
TORSDOF 16
ENDMDL
MODEL 2
REMARK VINA RESULT:    -4.324      5.215      8.328
REMARK INTER + INTRA:         -10.236
REMARK INTER:                  -7.940
REMARK INTRA:                  -2.295
REMARK UNBOUND:                -1.867
REMARK SMILES CCCCCCCCCCCCCCCCCC(=O)[O-]
REMARK SMILES IDX 10 1 11 2 12 3 13 4 14 5 15 6 16 7 17 8 18 9 19 10 20 11
REMARK SMILES IDX 9 12 8 13 7 14 6 15 5 16 4 17 3 18 2 19 1 20
REMARK H PARENT
REMARK Flexibility Score: inf
ROOT
ATOM      1  C   UNL     1      28.658  -5.201  19.898  1.00  0.00     0.000 C 
ENDROOT
BRANCH   1   2
ATOM      2  C   UNL     1      28.217  -6.231  18.840  1.00  0.00     0.000 C 
BRANCH   2   3
ATOM      3  C   UNL     1      26.803  -6.803  19.078  1.00  0.00     0.000 C 
BRANCH   3   4
ATOM      4  C   UNL     1      26.091  -7.159  17.764  1.00  0.00     0.000 C 
BRANCH   4   5
ATOM      5  C   UNL     1      24.918  -8.116  18.015  1.00  0.00     0.000 C 
BRANCH   5   6
ATOM      6  C   UNL     1      23.942  -8.111  16.829  1.00  0.00     0.000 C 
BRANCH   6   7
ATOM      7  C   UNL     1      24.270  -7.022  15.796  1.00  0.00     0.006 C 
BRANCH   7   8
ATOM      8  C   UNL     1      23.261  -5.866  15.817  1.00  0.00     0.053 C 
BRANCH   8   9
ATOM      9  C   UNL     1      22.391  -5.911  14.600  1.00  0.00     0.041 C 
ATOM     10  O   UNL     1      22.391  -6.929  13.859  1.00  0.00    -0.550 OA
ATOM     11  O   UNL     1      21.617  -4.809  14.258  1.00  0.00    -0.550 OA
ENDBRANCH   8   9
ENDBRANCH   7   8
ENDBRANCH   6   7
ENDBRANCH   5   6
ENDBRANCH   4   5
ENDBRANCH   3   4
ENDBRANCH   2   3
ENDBRANCH   1   2
BRANCH   1  12
ATOM     12  C   UNL     1      28.534  -3.732  19.461  1.00  0.00     0.000 C 
BRANCH  12  13
ATOM     13  C   UNL     1      27.098  -3.197  19.576  1.00  0.00    -0.000 C 
BRANCH  13  14
ATOM     14  C   UNL     1      26.467  -3.022  18.189  1.00  0.00    -0.000 C 
BRANCH  14  15
ATOM     15  C   UNL     1      25.054  -3.615  18.147  1.00  0.00    -0.000 C 
BRANCH  15  16
ATOM     16  C   UNL     1      24.596  -4.041  19.550  1.00  0.00    -0.000 C 
BRANCH  16  17
ATOM     17  C   UNL     1      23.314  -4.890  19.526  1.00  0.00    -0.000 C 
BRANCH  17  18
ATOM     18  C   UNL     1      22.489  -4.856  20.827  1.00  0.00    -0.000 C 
BRANCH  18  19
ATOM     19  C   UNL     1      21.509  -3.668  20.913  1.00  0.00    -0.003 C 
ATOM     20  C   UNL     1      20.922  -3.293  19.552  1.00  0.00     0.004 C 
ENDBRANCH  18  19
ENDBRANCH  17  18
ENDBRANCH  16  17
ENDBRANCH  15  16
ENDBRANCH  14  15
ENDBRANCH  13  14
ENDBRANCH  12  13
ENDBRANCH   1  12
TORSDOF 16
ENDMDL
MODEL 3
REMARK VINA RESULT:    -4.324      5.063      7.267
REMARK INTER + INTRA:         -10.235
REMARK INTER:                  -7.843
REMARK INTRA:                  -2.392
REMARK UNBOUND:                -1.867
REMARK SMILES CCCCCCCCCCCCCCCCCC(=O)[O-]
REMARK SMILES IDX 10 1 11 2 12 3 13 4 14 5 15 6 16 7 17 8 18 9 19 10 20 11
REMARK SMILES IDX 9 12 8 13 7 14 6 15 5 16 4 17 3 18 2 19 1 20
REMARK H PARENT
REMARK Flexibility Score: inf
ROOT
ATOM      1  C   UNL     1      26.953  -6.092  19.202  1.00  0.00     0.000 C 
ENDROOT
BRANCH   1   2
ATOM      2  C   UNL     1      27.073  -4.598  18.845  1.00  0.00     0.000 C 
BRANCH   2   3
ATOM      3  C   UNL     1      25.729  -3.839  18.880  1.00  0.00     0.000 C 
BRANCH   3   4
ATOM      4  C   UNL     1      25.507  -2.989  17.619  1.00  0.00     0.000 C 
BRANCH   4   5
ATOM      5  C   UNL     1      24.632  -3.732  16.602  1.00  0.00     0.000 C 
BRANCH   5   6
ATOM      6  C   UNL     1      23.235  -3.098  16.512  1.00  0.00     0.000 C 
BRANCH   6   7
ATOM      7  C   UNL     1      22.155  -3.943  17.207  1.00  0.00     0.006 C 
BRANCH   7   8
ATOM      8  C   UNL     1      21.452  -3.185  18.341  1.00  0.00     0.053 C 
BRANCH   8   9
ATOM      9  C   UNL     1      21.555  -3.951  19.622  1.00  0.00     0.041 C 
ATOM     10  O   UNL     1      20.885  -3.595  20.627  1.00  0.00    -0.550 OA
ATOM     11  O   UNL     1      22.428  -5.027  19.721  1.00  0.00    -0.550 OA
ENDBRANCH   8   9
ENDBRANCH   7   8
ENDBRANCH   6   7
ENDBRANCH   5   6
ENDBRANCH   4   5
ENDBRANCH   3   4
ENDBRANCH   2   3
ENDBRANCH   1   2
BRANCH   1  12
ATOM     12  C   UNL     1      25.512  -6.607  19.353  1.00  0.00     0.000 C 
BRANCH  12  13
ATOM     13  C   UNL     1      25.181  -7.742  18.372  1.00  0.00    -0.000 C 
BRANCH  13  14
ATOM     14  C   UNL     1      24.126  -7.294  17.353  1.00  0.00    -0.000 C 
BRANCH  14  15
ATOM     15  C   UNL     1      24.734  -7.156  15.953  1.00  0.00    -0.000 C 
BRANCH  15  16
ATOM     16  C   UNL     1      24.138  -8.194  14.991  1.00  0.00    -0.000 C 
BRANCH  16  17
ATOM     17  C   UNL     1      22.848  -7.704  14.312  1.00  0.00    -0.000 C 
BRANCH  17  18
ATOM     18  C   UNL     1      22.789  -6.187  14.049  1.00  0.00    -0.000 C 
BRANCH  18  19
ATOM     19  C   UNL     1      21.362  -5.648  13.822  1.00  0.00    -0.003 C 
ATOM     20  C   UNL     1      21.354  -4.270  13.160  1.00  0.00     0.004 C 
ENDBRANCH  18  19
ENDBRANCH  17  18
ENDBRANCH  16  17
ENDBRANCH  15  16
ENDBRANCH  14  15
ENDBRANCH  13  14
ENDBRANCH  12  13
ENDBRANCH   1  12
TORSDOF 16
ENDMDL
MODEL 4
REMARK VINA RESULT:    -4.323      4.911      7.506
REMARK INTER + INTRA:         -10.233
REMARK INTER:                  -7.713
REMARK INTRA:                  -2.521
REMARK UNBOUND:                -1.867
REMARK SMILES CCCCCCCCCCCCCCCCCC(=O)[O-]
REMARK SMILES IDX 10 1 11 2 12 3 13 4 14 5 15 6 16 7 17 8 18 9 19 10 20 11
REMARK SMILES IDX 9 12 8 13 7 14 6 15 5 16 4 17 3 18 2 19 1 20
REMARK H PARENT
REMARK Flexibility Score: inf
ROOT
ATOM      1  C   UNL     1      29.372  -3.725  18.855  1.00  0.00     0.000 C 
ENDROOT
BRANCH   1   2
ATOM      2  C   UNL     1      29.364  -4.607  20.119  1.00  0.00     0.000 C 
BRANCH   2   3
ATOM      3  C   UNL     1      28.774  -6.015  19.892  1.00  0.00     0.000 C 
BRANCH   3   4
ATOM      4  C   UNL     1      29.025  -6.530  18.466  1.00  0.00     0.000 C 
BRANCH   4   5
ATOM      5  C   UNL     1      27.704  -6.740  17.715  1.00  0.00     0.000 C 
BRANCH   5   6
ATOM      6  C   UNL     1      26.558  -7.037  18.694  1.00  0.00     0.000 C 
BRANCH   6   7
ATOM      7  C   UNL     1      25.242  -7.381  17.977  1.00  0.00     0.006 C 
BRANCH   7   8
ATOM      8  C   UNL     1      25.288  -7.066  16.476  1.00  0.00     0.053 C 
BRANCH   8   9
ATOM      9  C   UNL     1      24.006  -7.472  15.819  1.00  0.00     0.041 C 
ATOM     10  O   UNL     1      23.197  -6.596  15.415  1.00  0.00    -0.550 OA
ATOM     11  O   UNL     1      23.683  -8.818  15.698  1.00  0.00    -0.550 OA
ENDBRANCH   8   9
ENDBRANCH   7   8
ENDBRANCH   6   7
ENDBRANCH   5   6
ENDBRANCH   4   5
ENDBRANCH   3   4
ENDBRANCH   2   3
ENDBRANCH   1   2
BRANCH   1  12
ATOM     12  C   UNL     1      28.115  -2.861  18.662  1.00  0.00     0.000 C 
BRANCH  12  13
ATOM     13  C   UNL     1      27.158  -2.926  19.862  1.00  0.00    -0.000 C 
BRANCH  13  14
ATOM     14  C   UNL     1      25.802  -3.512  19.449  1.00  0.00    -0.000 C 
BRANCH  14  15
ATOM     15  C   UNL     1      25.640  -3.506  17.924  1.00  0.00    -0.000 C 
BRANCH  15  16
ATOM     16  C   UNL     1      24.158  -3.419  17.530  1.00  0.00    -0.000 C 
BRANCH  16  17
ATOM     17  C   UNL     1      23.276  -4.411  18.307  1.00  0.00    -0.000 C 
BRANCH  17  18
ATOM     18  C   UNL     1      21.984  -3.810  18.893  1.00  0.00    -0.000 C 
BRANCH  18  19
ATOM     19  C   UNL     1      21.495  -4.514  20.175  1.00  0.00    -0.003 C 
ATOM     20  C   UNL     1      22.079  -3.894  21.444  1.00  0.00     0.004 C 
ENDBRANCH  18  19
ENDBRANCH  17  18
ENDBRANCH  16  17
ENDBRANCH  15  16
ENDBRANCH  14  15
ENDBRANCH  13  14
ENDBRANCH  12  13
ENDBRANCH   1  12
TORSDOF 16
ENDMDL
MODEL 5
REMARK VINA RESULT:    -4.301      4.431      7.184
REMARK INTER + INTRA:         -10.190
REMARK INTER:                  -7.349
REMARK INTRA:                  -2.841
REMARK UNBOUND:                -1.867
REMARK SMILES CCCCCCCCCCCCCCCCCC(=O)[O-]
REMARK SMILES IDX 10 1 11 2 12 3 13 4 14 5 15 6 16 7 17 8 18 9 19 10 20 11
REMARK SMILES IDX 9 12 8 13 7 14 6 15 5 16 4 17 3 18 2 19 1 20
REMARK H PARENT
REMARK Flexibility Score: inf
ROOT
ATOM      1  C   UNL     1      28.683  -4.976  18.770  1.00  0.00     0.000 C 
ENDROOT
BRANCH   1   2
ATOM      2  C   UNL     1      28.219  -6.184  17.935  1.00  0.00     0.000 C 
BRANCH   2   3
ATOM      3  C   UNL     1      26.870  -6.778  18.393  1.00  0.00     0.000 C 
BRANCH   3   4
ATOM      4  C   UNL     1      25.893  -6.977  17.224  1.00  0.00     0.000 C 
BRANCH   4   5
ATOM      5  C   UNL     1      24.456  -6.646  17.645  1.00  0.00     0.000 C 
BRANCH   5   6
ATOM      6  C   UNL     1      24.204  -7.049  19.106  1.00  0.00     0.000 C 
BRANCH   6   7
ATOM      7  C   UNL     1      22.941  -6.397  19.691  1.00  0.00     0.006 C 
BRANCH   7   8
ATOM      8  C   UNL     1      23.173  -4.942  20.120  1.00  0.00     0.053 C 
BRANCH   8   9
ATOM      9  C   UNL     1      21.879  -4.304  20.519  1.00  0.00     0.041 C 
ATOM     10  O   UNL     1      21.025  -4.005  19.644  1.00  0.00    -0.550 OA
ATOM     11  O   UNL     1      21.638  -3.996  21.852  1.00  0.00    -0.550 OA
ENDBRANCH   8   9
ENDBRANCH   7   8
ENDBRANCH   6   7
ENDBRANCH   5   6
ENDBRANCH   4   5
ENDBRANCH   3   4
ENDBRANCH   2   3
ENDBRANCH   1   2
BRANCH   1  12
ATOM     12  C   UNL     1      27.664  -4.478  19.809  1.00  0.00     0.000 C 
BRANCH  12  13
ATOM     13  C   UNL     1      27.046  -3.124  19.433  1.00  0.00    -0.000 C 
BRANCH  13  14
ATOM     14  C   UNL     1      25.809  -3.315  18.546  1.00  0.00    -0.000 C 
BRANCH  14  15
ATOM     15  C   UNL     1      26.139  -3.042  17.074  1.00  0.00    -0.000 C 
BRANCH  15  16
ATOM     16  C   UNL     1      24.885  -3.175  16.197  1.00  0.00    -0.000 C 
BRANCH  16  17
ATOM     17  C   UNL     1      23.580  -3.015  16.996  1.00  0.00    -0.000 C 
BRANCH  17  18
ATOM     18  C   UNL     1      22.401  -3.868  16.488  1.00  0.00    -0.000 C 
BRANCH  18  19
ATOM     19  C   UNL     1      22.447  -4.158  14.974  1.00  0.00    -0.003 C 
ATOM     20  C   UNL     1      22.327  -5.649  14.659  1.00  0.00     0.004 C 
ENDBRANCH  18  19
ENDBRANCH  17  18
ENDBRANCH  16  17
ENDBRANCH  15  16
ENDBRANCH  14  15
ENDBRANCH  13  14
ENDBRANCH  12  13
ENDBRANCH   1  12
TORSDOF 16
ENDMDL
MODEL 6
REMARK VINA RESULT:    -4.299      4.307      7.228
REMARK INTER + INTRA:         -10.187
REMARK INTER:                  -8.191
REMARK INTRA:                  -1.997
REMARK UNBOUND:                -1.867
REMARK SMILES CCCCCCCCCCCCCCCCCC(=O)[O-]
REMARK SMILES IDX 10 1 11 2 12 3 13 4 14 5 15 6 16 7 17 8 18 9 19 10 20 11
REMARK SMILES IDX 9 12 8 13 7 14 6 15 5 16 4 17 3 18 2 19 1 20
REMARK H PARENT
REMARK Flexibility Score: inf
ROOT
ATOM      1  C   UNL     1      26.945  -3.084  18.930  1.00  0.00     0.000 C 
ENDROOT
BRANCH   1   2
ATOM      2  C   UNL     1      28.012  -3.559  19.934  1.00  0.00     0.000 C 
BRANCH   2   3
ATOM      3  C   UNL     1      28.799  -4.802  19.466  1.00  0.00     0.000 C 
BRANCH   3   4
ATOM      4  C   UNL     1      27.938  -6.075  19.478  1.00  0.00     0.000 C 
BRANCH   4   5
ATOM      5  C   UNL     1      27.912  -6.736  18.095  1.00  0.00     0.000 C 
BRANCH   5   6
ATOM      6  C   UNL     1      26.468  -6.952  17.617  1.00  0.00     0.000 C 
BRANCH   6   7
ATOM      7  C   UNL     1      25.491  -7.200  18.777  1.00  0.00     0.006 C 
BRANCH   7   8
ATOM      8  C   UNL     1      24.026  -7.217  18.320  1.00  0.00     0.053 C 
BRANCH   8   9
ATOM      9  C   UNL     1      23.111  -7.147  19.502  1.00  0.00     0.041 C 
ATOM     10  O   UNL     1      22.426  -8.150  19.833  1.00  0.00    -0.550 OA
ATOM     11  O   UNL     1      22.977  -5.958  20.208  1.00  0.00    -0.550 OA
ENDBRANCH   8   9
ENDBRANCH   7   8
ENDBRANCH   6   7
ENDBRANCH   5   6
ENDBRANCH   4   5
ENDBRANCH   3   4
ENDBRANCH   2   3
ENDBRANCH   1   2
BRANCH   1  12
ATOM     12  C   UNL     1      25.511  -3.541  19.246  1.00  0.00     0.000 C 
BRANCH  12  13
ATOM     13  C   UNL     1      24.618  -3.601  17.997  1.00  0.00    -0.000 C 
BRANCH  13  14
ATOM     14  C   UNL     1      25.370  -3.090  16.762  1.00  0.00    -0.000 C 
BRANCH  14  15
ATOM     15  C   UNL     1      24.642  -1.901  16.125  1.00  0.00    -0.000 C 
BRANCH  15  16
ATOM     16  C   UNL     1      23.145  -2.201  15.957  1.00  0.00    -0.000 C 
BRANCH  16  17
ATOM     17  C   UNL     1      22.781  -2.630  14.525  1.00  0.00    -0.000 C 
BRANCH  17  18
ATOM     18  C   UNL     1      22.625  -4.150  14.324  1.00  0.00    -0.000 C 
BRANCH  18  19
ATOM     19  C   UNL     1      21.434  -4.541  13.424  1.00  0.00    -0.003 C 
ATOM     20  C   UNL     1      20.861  -5.914  13.775  1.00  0.00     0.004 C 
ENDBRANCH  18  19
ENDBRANCH  17  18
ENDBRANCH  16  17
ENDBRANCH  15  16
ENDBRANCH  14  15
ENDBRANCH  13  14
ENDBRANCH  12  13
ENDBRANCH   1  12
TORSDOF 16
ENDMDL
MODEL 7
REMARK VINA RESULT:    -4.254      4.047      6.631
REMARK INTER + INTRA:         -10.101
REMARK INTER:                  -7.469
REMARK INTRA:                  -2.632
REMARK UNBOUND:                -1.867
REMARK SMILES CCCCCCCCCCCCCCCCCC(=O)[O-]
REMARK SMILES IDX 10 1 11 2 12 3 13 4 14 5 15 6 16 7 17 8 18 9 19 10 20 11
REMARK SMILES IDX 9 12 8 13 7 14 6 15 5 16 4 17 3 18 2 19 1 20
REMARK H PARENT
REMARK Flexibility Score: inf
ROOT
ATOM      1  C   UNL     1      26.807  -3.013  18.967  1.00  0.00     0.000 C 
ENDROOT
BRANCH   1   2
ATOM      2  C   UNL     1      27.205  -2.541  17.556  1.00  0.00     0.000 C 
BRANCH   2   3
ATOM      3  C   UNL     1      26.318  -3.118  16.432  1.00  0.00     0.000 C 
BRANCH   3   4
ATOM      4  C   UNL     1      24.820  -2.987  16.747  1.00  0.00     0.000 C 
BRANCH   4   5
ATOM      5  C   UNL     1      24.056  -4.248  16.323  1.00  0.00     0.000 C 
BRANCH   5   6
ATOM      6  C   UNL     1      22.949  -4.585  17.334  1.00  0.00     0.000 C 
BRANCH   6   7
ATOM      7  C   UNL     1      23.331  -4.219  18.777  1.00  0.00     0.006 C 
BRANCH   7   8
ATOM      8  C   UNL     1      22.485  -4.963  19.818  1.00  0.00     0.053 C 
BRANCH   8   9
ATOM      9  C   UNL     1      21.749  -3.990  20.684  1.00  0.00     0.041 C 
ATOM     10  O   UNL     1      22.127  -3.784  21.867  1.00  0.00    -0.550 OA
ATOM     11  O   UNL     1      20.617  -3.347  20.199  1.00  0.00    -0.550 OA
ENDBRANCH   8   9
ENDBRANCH   7   8
ENDBRANCH   6   7
ENDBRANCH   5   6
ENDBRANCH   4   5
ENDBRANCH   3   4
ENDBRANCH   2   3
ENDBRANCH   1   2
BRANCH   1  12
ATOM     12  C   UNL     1      27.986  -3.273  19.920  1.00  0.00     0.000 C 
BRANCH  12  13
ATOM     13  C   UNL     1      29.076  -4.152  19.288  1.00  0.00    -0.000 C 
BRANCH  13  14
ATOM     14  C   UNL     1      29.124  -5.530  19.959  1.00  0.00    -0.000 C 
BRANCH  14  15
ATOM     15  C   UNL     1      27.879  -6.356  19.612  1.00  0.00    -0.000 C 
BRANCH  15  16
ATOM     16  C   UNL     1      27.796  -6.614  18.100  1.00  0.00    -0.000 C 
BRANCH  16  17
ATOM     17  C   UNL     1      26.353  -6.828  17.611  1.00  0.00    -0.000 C 
BRANCH  17  18
ATOM     18  C   UNL     1      25.371  -7.329  18.688  1.00  0.00    -0.000 C 
BRANCH  18  19
ATOM     19  C   UNL     1      24.113  -8.013  18.115  1.00  0.00    -0.003 C 
ATOM     20  C   UNL     1      24.436  -8.954  16.954  1.00  0.00     0.004 C 
ENDBRANCH  18  19
ENDBRANCH  17  18
ENDBRANCH  16  17
ENDBRANCH  15  16
ENDBRANCH  14  15
ENDBRANCH  13  14
ENDBRANCH  12  13
ENDBRANCH   1  12
TORSDOF 16
ENDMDL
MODEL 8
REMARK VINA RESULT:    -4.234      5.285      7.386
REMARK INTER + INTRA:         -10.060
REMARK INTER:                  -7.415
REMARK INTRA:                  -2.645
REMARK UNBOUND:                -1.867
REMARK SMILES CCCCCCCCCCCCCCCCCC(=O)[O-]
REMARK SMILES IDX 10 1 11 2 12 3 13 4 14 5 15 6 16 7 17 8 18 9 19 10 20 11
REMARK SMILES IDX 9 12 8 13 7 14 6 15 5 16 4 17 3 18 2 19 1 20
REMARK H PARENT
REMARK Flexibility Score: inf
ROOT
ATOM      1  C   UNL     1      24.047  -7.576  17.169  1.00  0.00     0.000 C 
ENDROOT
BRANCH   1   2
ATOM      2  C   UNL     1      25.328  -7.938  17.943  1.00  0.00     0.000 C 
BRANCH   2   3
ATOM      3  C   UNL     1      26.437  -6.868  17.849  1.00  0.00     0.000 C 
BRANCH   3   4
ATOM      4  C   UNL     1      26.469  -5.952  19.083  1.00  0.00     0.000 C 
BRANCH   4   5
ATOM      5  C   UNL     1      26.340  -4.478  18.679  1.00  0.00     0.000 C 
BRANCH   5   6
ATOM      6  C   UNL     1      25.195  -3.797  19.443  1.00  0.00     0.000 C 
BRANCH   6   7
ATOM      7  C   UNL     1      23.834  -4.466  19.193  1.00  0.00     0.006 C 
BRANCH   7   8
ATOM      8  C   UNL     1      23.003  -4.608  20.475  1.00  0.00     0.053 C 
BRANCH   8   9
ATOM      9  C   UNL     1      21.682  -3.922  20.319  1.00  0.00     0.041 C 
ATOM     10  O   UNL     1      20.926  -3.771  21.314  1.00  0.00    -0.550 OA
ATOM     11  O   UNL     1      21.266  -3.493  19.064  1.00  0.00    -0.550 OA
ENDBRANCH   8   9
ENDBRANCH   7   8
ENDBRANCH   6   7
ENDBRANCH   5   6
ENDBRANCH   4   5
ENDBRANCH   3   4
ENDBRANCH   2   3
ENDBRANCH   1   2
BRANCH   1  12
ATOM     12  C   UNL     1      24.127  -7.790  15.648  1.00  0.00     0.000 C 
BRANCH  12  13
ATOM     13  C   UNL     1      23.684  -6.555  14.850  1.00  0.00    -0.000 C 
BRANCH  13  14
ATOM     14  C   UNL     1      23.588  -5.323  15.758  1.00  0.00    -0.000 C 
BRANCH  14  15
ATOM     15  C   UNL     1      24.730  -4.339  15.475  1.00  0.00    -0.000 C 
BRANCH  15  16
ATOM     16  C   UNL     1      24.320  -2.904  15.836  1.00  0.00    -0.000 C 
BRANCH  16  17
ATOM     17  C   UNL     1      22.833  -2.622  15.560  1.00  0.00    -0.000 C 
BRANCH  17  18
ATOM     18  C   UNL     1      22.562  -1.676  14.374  1.00  0.00    -0.000 C 
BRANCH  18  19
ATOM     19  C   UNL     1      22.561  -2.381  13.002  1.00  0.00    -0.003 C 
ATOM     20  C   UNL     1      21.687  -3.635  12.989  1.00  0.00     0.004 C 
ENDBRANCH  18  19
ENDBRANCH  17  18
ENDBRANCH  16  17
ENDBRANCH  15  16
ENDBRANCH  14  15
ENDBRANCH  13  14
ENDBRANCH  12  13
ENDBRANCH   1  12
TORSDOF 16
ENDMDL
MODEL 9
REMARK VINA RESULT:    -4.225      1.989      4.353
REMARK INTER + INTRA:         -10.044
REMARK INTER:                  -7.797
REMARK INTRA:                  -2.247
REMARK UNBOUND:                -1.867
REMARK SMILES CCCCCCCCCCCCCCCCCC(=O)[O-]
REMARK SMILES IDX 10 1 11 2 12 3 13 4 14 5 15 6 16 7 17 8 18 9 19 10 20 11
REMARK SMILES IDX 9 12 8 13 7 14 6 15 5 16 4 17 3 18 2 19 1 20
REMARK H PARENT
REMARK Flexibility Score: inf
ROOT
ATOM      1  C   UNL     1      24.695  -5.958  19.360  1.00  0.00     0.000 C 
ENDROOT
BRANCH   1   2
ATOM      2  C   UNL     1      25.400  -5.478  18.077  1.00  0.00     0.000 C 
BRANCH   2   3
ATOM      3  C   UNL     1      25.782  -3.982  18.098  1.00  0.00     0.000 C 
BRANCH   3   4
ATOM      4  C   UNL     1      25.774  -3.398  19.519  1.00  0.00     0.000 C 
BRANCH   4   5
ATOM      5  C   UNL     1      27.197  -3.066  19.986  1.00  0.00     0.000 C 
BRANCH   5   6
ATOM      6  C   UNL     1      28.093  -2.694  18.795  1.00  0.00     0.000 C 
BRANCH   6   7
ATOM      7  C   UNL     1      29.008  -1.496  19.093  1.00  0.00     0.006 C 
BRANCH   7   8
ATOM      8  C   UNL     1      30.410  -1.923  19.548  1.00  0.00     0.053 C 
BRANCH   8   9
ATOM      9  C   UNL     1      30.653  -1.496  20.961  1.00  0.00     0.041 C 
ATOM     10  O   UNL     1      29.840  -1.816  21.867  1.00  0.00    -0.550 OA
ATOM     11  O   UNL     1      31.751  -0.703  21.268  1.00  0.00    -0.550 OA
ENDBRANCH   8   9
ENDBRANCH   7   8
ENDBRANCH   6   7
ENDBRANCH   5   6
ENDBRANCH   4   5
ENDBRANCH   3   4
ENDBRANCH   2   3
ENDBRANCH   1   2
BRANCH   1  12
ATOM     12  C   UNL     1      23.272  -6.503  19.152  1.00  0.00     0.000 C 
BRANCH  12  13
ATOM     13  C   UNL     1      22.304  -6.076  20.265  1.00  0.00    -0.000 C 
BRANCH  13  14
ATOM     14  C   UNL     1      22.748  -4.753  20.899  1.00  0.00    -0.000 C 
BRANCH  14  15
ATOM     15  C   UNL     1      21.624  -3.711  20.848  1.00  0.00    -0.000 C 
BRANCH  15  16
ATOM     16  C   UNL     1      20.939  -3.711  19.473  1.00  0.00    -0.000 C 
BRANCH  16  17
ATOM     17  C   UNL     1      21.728  -2.922  18.415  1.00  0.00    -0.000 C 
BRANCH  17  18
ATOM     18  C   UNL     1      22.069  -3.714  17.137  1.00  0.00    -0.000 C 
BRANCH  18  19
ATOM     19  C   UNL     1      22.883  -2.910  16.104  1.00  0.00    -0.003 C 
ATOM     20  C   UNL     1      23.590  -3.807  15.088  1.00  0.00     0.004 C 
ENDBRANCH  18  19
ENDBRANCH  17  18
ENDBRANCH  16  17
ENDBRANCH  15  16
ENDBRANCH  14  15
ENDBRANCH  13  14
ENDBRANCH  12  13
ENDBRANCH   1  12
TORSDOF 16
ENDMDL
