MODEL 1
REMARK VINA RESULT:   -10.054      0.000      0.000
REMARK INTER + INTRA:         -17.621
REMARK INTER:                 -15.932
REMARK INTRA:                  -1.689
REMARK UNBOUND:                -1.689
REMARK SMILES C[C@@H]1O[C@@H](O[C@@H]2CC[C@@]3(C)[C@@H](CC[C@]4(C)[C@@H]3C=C[C@]35OC[C@@]6(CCC(C)(C)C[C@@H]63)[C@H](O)C[C@]54C)[C@@]2(C)CO)[C@@H](O)[C@@H](O[C@H]2O[C@@H](CO)[C@H](O)[C@H](O)[C@H]2O)[C@@H]1O
REMARK SMILES IDX 1 1 2 2 54 3 41 4 39 5 4 6 3 7 55 8 42 10 43 11 52 12 44 13
REMARK SMILES IDX 50 14 45 15 48 16 53 17 51 19 46 21 47 22 49 24 5 26 6 27
REMARK SMILES IDX 7 28 35 29 8 30 11 31 36 32 9 33 12 34 10 35 16 36 13 37
REMARK SMILES IDX 14 38 17 39 15 40 33 41 18 42 19 43 32 44 34 45 29 46 20 47
REMARK SMILES IDX 30 48 22 49 28 50 21 51 23 52 25 53 24 54 26 55 27 56 37 57
REMARK SMILES IDX 38 58 31 60 40 62
REMARK H PARENT 55 9 53 18 51 20 47 23 49 25 38 59 31 61 40 63
REMARK Flexibility Score: inf
ROOT
ATOM      1  C   UNL     1      -5.342 -11.906  15.955  1.00  0.00     0.041 C 
ATOM      2  C   UNL     1      -5.015 -10.561  15.311  1.00  0.00     0.150 C 
ATOM      3  C   UNL     1      -4.061 -10.768  14.119  1.00  0.00     0.175 C 
ATOM      4  C   UNL     1      -3.766  -9.400  13.485  1.00  0.00     0.186 C 
ATOM      5  C   UNL     1      -5.105  -8.878  12.907  1.00  0.00     0.202 C 
ATOM      6  C   UNL     1      -6.347  -9.134  13.817  1.00  0.00     0.282 C 
ATOM      7  O   UNL     1      -6.252  -9.943  14.987  1.00  0.00    -0.344 OA
ENDROOT
BRANCH   3   8
ATOM      8  O   UNL     1      -4.634 -11.670  13.202  1.00  0.00    -0.388 OA
ATOM      9  H   UNL     1      -5.201 -11.135  12.586  1.00  0.00     0.211 HD
ENDBRANCH   3   8
BRANCH   4  10
ATOM     10  O   UNL     1      -3.157  -8.593  14.497  1.00  0.00    -0.341 OA
BRANCH  10  11
ATOM     11  C   UNL     1      -1.791  -8.249  14.305  1.00  0.00     0.282 C 
ATOM     12  C   UNL     1      -1.505  -6.725  14.285  1.00  0.00     0.202 C 
ATOM     13  O   UNL     1      -1.383  -8.790  13.061  1.00  0.00    -0.341 OA
ATOM     14  C   UNL     1      -0.119  -6.446  13.649  1.00  0.00     0.179 C 
ATOM     15  C   UNL     1       0.029  -8.954  13.047  1.00  0.00     0.178 C 
ATOM     16  C   UNL     1       0.799  -7.680  13.532  1.00  0.00     0.177 C 
BRANCH  12  17
ATOM     17  O   UNL     1      -2.501  -6.077  13.526  1.00  0.00    -0.385 OA
ATOM     18  H   UNL     1      -3.336  -6.590  13.650  1.00  0.00     0.211 HD
ENDBRANCH  12  17
BRANCH  14  19
ATOM     19  O   UNL     1       0.510  -5.425  14.380  1.00  0.00    -0.387 OA
ATOM     20  H   UNL     1       1.284  -5.116  13.834  1.00  0.00     0.211 HD
ENDBRANCH  14  19
BRANCH  15  21
ATOM     21  C   UNL     1       0.457  -9.351  11.630  1.00  0.00     0.191 C 
BRANCH  21  22
ATOM     22  O   UNL     1       0.456  -8.218  10.802  1.00  0.00    -0.394 OA
ATOM     23  H   UNL     1       0.902  -8.510   9.959  1.00  0.00     0.210 HD
ENDBRANCH  21  22
ENDBRANCH  15  21
BRANCH  16  24
ATOM     24  O   UNL     1       1.499  -7.935  14.724  1.00  0.00    -0.387 OA
ATOM     25  H   UNL     1       1.589  -7.104  15.248  1.00  0.00     0.211 HD
ENDBRANCH  16  24
ENDBRANCH  10  11
ENDBRANCH   4  10
BRANCH   6  26
ATOM     26  O   UNL     1      -7.175  -8.000  14.028  1.00  0.00    -0.346 OA
BRANCH  26  27
ATOM     27  C   UNL     1      -7.990  -7.978  15.197  1.00  0.00     0.130 C 
ATOM     28  C   UNL     1      -9.382  -8.579  14.917  1.00  0.00     0.033 C 
ATOM     29  C   UNL     1      -8.133  -6.466  15.656  1.00  0.00     0.020 C 
ATOM     30  C   UNL     1     -10.064  -7.859  13.760  1.00  0.00     0.010 C 
ATOM     31  C   UNL     1      -9.031  -5.669  14.600  1.00  0.00     0.006 C 
ATOM     32  C   UNL     1      -6.697  -5.856  15.641  1.00  0.00     0.017 C 
ATOM     33  C   UNL     1     -10.359  -6.361  14.088  1.00  0.00    -0.022 C 
ATOM     34  C   UNL     1      -9.276  -4.170  14.917  1.00  0.00     0.005 C 
ATOM     35  C   UNL     1     -11.525  -6.299  15.098  1.00  0.00     0.012 C 
ATOM     36  C   UNL     1     -10.722  -5.615  12.747  1.00  0.00     0.024 C 
ATOM     37  C   UNL     1      -9.845  -3.345  13.723  1.00  0.00     0.008 C 
ATOM     38  C   UNL     1     -10.939  -4.048  12.809  1.00  0.00    -0.017 C 
ATOM     39  C   UNL     1     -11.762  -6.275  11.863  1.00  0.00    -0.024 C 
ATOM     40  C   UNL     1     -12.341  -3.742  13.467  1.00  0.00     0.013 C 
ATOM     41  C   UNL     1     -10.870  -3.530  11.271  1.00  0.00     0.009 C 
ATOM     42  C   UNL     1     -12.149  -5.722  10.705  1.00  0.00     0.005 C 
ATOM     43  C   UNL     1     -12.029  -4.225  10.425  1.00  0.00     0.096 C 
ATOM     44  C   UNL     1     -11.053  -1.968  11.121  1.00  0.00     0.043 C 
ATOM     45  C   UNL     1      -9.448  -3.891  10.653  1.00  0.00     0.015 C 
ATOM     46  C   UNL     1     -11.825  -3.875   8.920  1.00  0.00     0.037 C 
ATOM     47  O   UNL     1     -13.283  -3.649  10.791  1.00  0.00    -0.369 OA
ATOM     48  C   UNL     1     -11.438  -1.498   9.667  1.00  0.00     0.124 C 
ATOM     49  C   UNL     1     -12.416  -2.482   8.924  1.00  0.00     0.026 C 
ATOM     50  C   UNL     1     -12.489  -4.859   7.917  1.00  0.00     0.014 C 
ATOM     51  C   UNL     1     -13.645  -2.718   9.798  1.00  0.00     0.171 C 
ATOM     52  C   UNL     1     -12.785  -1.938   7.507  1.00  0.00     0.013 C 
ATOM     53  C   UNL     1     -12.548  -4.293   6.486  1.00  0.00    -0.035 C 
ATOM     54  C   UNL     1     -13.357  -2.972   6.522  1.00  0.00     0.007 C 
ATOM     55  C   UNL     1     -11.122  -4.053   5.906  1.00  0.00     0.011 C 
ATOM     56  C   UNL     1     -13.258  -5.307   5.576  1.00  0.00     0.011 C 
BRANCH  29  57
ATOM     57  C   UNL     1      -8.574  -6.305  17.153  1.00  0.00     0.165 C 
BRANCH  57  58
ATOM     58  O   UNL     1      -7.754  -5.456  17.894  1.00  0.00    -0.396 OA
ATOM     59  H   UNL     1      -7.284  -4.872  17.242  1.00  0.00     0.210 HD
ENDBRANCH  57  58
ENDBRANCH  29  57
BRANCH  48  60
ATOM     60  O   UNL     1     -10.278  -1.292   8.898  1.00  0.00    -0.392 OA
ATOM     61  H   UNL     1     -10.580  -0.954   8.011  1.00  0.00     0.210 HD
ENDBRANCH  48  60
ENDBRANCH  26  27
ENDBRANCH   6  26
BRANCH   5  62
ATOM     62  O   UNL     1      -5.059  -7.549  12.442  1.00  0.00    -0.385 OA
ATOM     63  H   UNL     1      -5.764  -7.467  11.733  1.00  0.00     0.211 HD
ENDBRANCH   5  62
TORSDOF 14
ENDMDL
MODEL 2
REMARK VINA RESULT:    -9.739      2.455      4.708
REMARK INTER + INTRA:         -17.121
REMARK INTER:                 -15.743
REMARK INTRA:                  -1.378
REMARK UNBOUND:                -1.689
REMARK SMILES C[C@@H]1O[C@@H](O[C@@H]2CC[C@@]3(C)[C@@H](CC[C@]4(C)[C@@H]3C=C[C@]35OC[C@@]6(CCC(C)(C)C[C@@H]63)[C@H](O)C[C@]54C)[C@@]2(C)CO)[C@@H](O)[C@@H](O[C@H]2O[C@@H](CO)[C@H](O)[C@H](O)[C@H]2O)[C@@H]1O
REMARK SMILES IDX 1 1 2 2 54 3 41 4 39 5 4 6 3 7 55 8 42 10 43 11 52 12 44 13
REMARK SMILES IDX 50 14 45 15 48 16 53 17 51 19 46 21 47 22 49 24 5 26 6 27
REMARK SMILES IDX 7 28 35 29 8 30 11 31 36 32 9 33 12 34 10 35 16 36 13 37
REMARK SMILES IDX 14 38 17 39 15 40 33 41 18 42 19 43 32 44 34 45 29 46 20 47
REMARK SMILES IDX 30 48 22 49 28 50 21 51 23 52 25 53 24 54 26 55 27 56 37 57
REMARK SMILES IDX 38 58 31 60 40 62
REMARK H PARENT 55 9 53 18 51 20 47 23 49 25 38 59 31 61 40 63
REMARK Flexibility Score: inf
ROOT
ATOM      1  C   UNL     1      -1.174 -10.610  11.787  1.00  0.00     0.041 C 
ATOM      2  C   UNL     1      -0.768  -9.538  12.795  1.00  0.00     0.150 C 
ATOM      3  C   UNL     1       0.504  -8.816  12.309  1.00  0.00     0.175 C 
ATOM      4  C   UNL     1       0.874  -7.735  13.336  1.00  0.00     0.186 C 
ATOM      5  C   UNL     1      -0.271  -6.693  13.320  1.00  0.00     0.202 C 
ATOM      6  C   UNL     1      -1.704  -7.305  13.223  1.00  0.00     0.282 C 
ATOM      7  O   UNL     1      -1.897  -8.698  12.986  1.00  0.00    -0.344 OA
ENDROOT
BRANCH   3   8
ATOM      8  O   UNL     1       0.286  -8.282  11.025  1.00  0.00    -0.388 OA
ATOM      9  H   UNL     1       0.587  -7.335  11.050  1.00  0.00     0.211 HD
ENDBRANCH   3   8
BRANCH   4  10
ATOM     10  O   UNL     1       1.105  -8.402  14.581  1.00  0.00    -0.341 OA
BRANCH  10  11
ATOM     11  C   UNL     1       2.421  -8.324  15.113  1.00  0.00     0.282 C 
ATOM     12  C   UNL     1       2.495  -7.831  16.582  1.00  0.00     0.202 C 
ATOM     13  O   UNL     1       3.158  -7.422  14.308  1.00  0.00    -0.341 OA
ATOM     14  C   UNL     1       3.934  -7.367  16.922  1.00  0.00     0.179 C 
ATOM     15  C   UNL     1       4.548  -7.689  14.434  1.00  0.00     0.178 C 
ATOM     16  C   UNL     1       5.015  -7.826  15.921  1.00  0.00     0.177 C 
BRANCH  12  17
ATOM     17  O   UNL     1       1.607  -6.748  16.752  1.00  0.00    -0.385 OA
ATOM     18  H   UNL     1       0.796  -6.956  16.227  1.00  0.00     0.211 HD
ENDBRANCH  12  17
BRANCH  14  19
ATOM     19  O   UNL     1       4.246  -7.797  18.223  1.00  0.00    -0.387 OA
ATOM     20  H   UNL     1       4.059  -8.774  18.256  1.00  0.00     0.211 HD
ENDBRANCH  14  19
BRANCH  15  21
ATOM     21  C   UNL     1       5.323  -6.580  13.713  1.00  0.00     0.191 C 
BRANCH  21  22
ATOM     22  O   UNL     1       4.686  -5.347  13.925  1.00  0.00    -0.394 OA
ATOM     23  H   UNL     1       3.902  -5.555  14.506  1.00  0.00     0.210 HD
ENDBRANCH  21  22
ENDBRANCH  15  21
BRANCH  16  24
ATOM     24  O   UNL     1       5.469  -9.129  16.192  1.00  0.00    -0.387 OA
ATOM     25  H   UNL     1       5.231  -9.732  15.448  1.00  0.00     0.211 HD
ENDBRANCH  16  24
ENDBRANCH  10  11
ENDBRANCH   4  10
BRANCH   6  26
ATOM     26  O   UNL     1      -2.634  -6.799  14.169  1.00  0.00    -0.346 OA
BRANCH  26  27
ATOM     27  C   UNL     1      -3.056  -7.666  15.219  1.00  0.00     0.130 C 
ATOM     28  C   UNL     1      -4.137  -8.649  14.727  1.00  0.00     0.033 C 
ATOM     29  C   UNL     1      -3.633  -6.762  16.387  1.00  0.00     0.020 C 
ATOM     30  C   UNL     1      -5.320  -7.900  14.125  1.00  0.00     0.010 C 
ATOM     31  C   UNL     1      -5.010  -6.097  15.920  1.00  0.00     0.006 C 
ATOM     32  C   UNL     1      -2.593  -5.623  16.627  1.00  0.00     0.017 C 
ATOM     33  C   UNL     1      -6.062  -7.020  15.180  1.00  0.00    -0.022 C 
ATOM     34  C   UNL     1      -5.711  -5.188  16.964  1.00  0.00     0.005 C 
ATOM     35  C   UNL     1      -6.854  -7.948  16.126  1.00  0.00     0.012 C 
ATOM     36  C   UNL     1      -7.020  -6.025  14.420  1.00  0.00     0.024 C 
ATOM     37  C   UNL     1      -6.842  -4.291  16.378  1.00  0.00     0.008 C 
ATOM     38  C   UNL     1      -7.789  -4.939  15.278  1.00  0.00    -0.017 C 
ATOM     39  C   UNL     1      -7.927  -6.628  13.365  1.00  0.00    -0.024 C 
ATOM     40  C   UNL     1      -8.975  -5.633  16.056  1.00  0.00     0.013 C 
ATOM     41  C   UNL     1      -8.330  -3.836  14.215  1.00  0.00     0.009 C 
ATOM     42  C   UNL     1      -8.786  -5.874  12.666  1.00  0.00     0.005 C 
ATOM     43  C   UNL     1      -9.319  -4.538  13.181  1.00  0.00     0.096 C 
ATOM     44  C   UNL     1      -9.122  -2.646  14.887  1.00  0.00     0.043 C 
ATOM     45  C   UNL     1      -7.095  -3.192  13.444  1.00  0.00     0.015 C 
ATOM     46  C   UNL     1      -9.668  -3.517  12.056  1.00  0.00     0.037 C 
ATOM     47  O   UNL     1     -10.553  -4.828  13.837  1.00  0.00    -0.369 OA
ATOM     48  C   UNL     1     -10.026  -1.825  13.890  1.00  0.00     0.124 C 
ATOM     49  C   UNL     1     -10.719  -2.712  12.790  1.00  0.00     0.026 C 
ATOM     50  C   UNL     1     -10.151  -4.146  10.718  1.00  0.00     0.014 C 
ATOM     51  C   UNL     1     -11.488  -3.841  13.471  1.00  0.00     0.171 C 
ATOM     52  C   UNL     1     -11.626  -1.844  11.862  1.00  0.00     0.013 C 
ATOM     53  C   UNL     1     -10.795  -3.112   9.778  1.00  0.00    -0.035 C 
ATOM     54  C   UNL     1     -12.003  -2.478  10.512  1.00  0.00     0.007 C 
ATOM     55  C   UNL     1      -9.774  -2.018   9.344  1.00  0.00     0.011 C 
ATOM     56  C   UNL     1     -11.282  -3.827   8.507  1.00  0.00     0.011 C 
BRANCH  29  57
ATOM     57  C   UNL     1      -3.690  -7.492  17.775  1.00  0.00     0.165 C 
BRANCH  57  58
ATOM     58  O   UNL     1      -3.088  -6.781  18.811  1.00  0.00    -0.396 OA
ATOM     59  H   UNL     1      -2.311  -6.303  18.416  1.00  0.00     0.210 HD
ENDBRANCH  57  58
ENDBRANCH  29  57
BRANCH  48  60
ATOM     60  O   UNL     1      -9.278  -0.798  13.287  1.00  0.00    -0.392 OA
ATOM     61  H   UNL     1      -8.462  -0.674  13.845  1.00  0.00     0.210 HD
ENDBRANCH  48  60
ENDBRANCH  26  27
ENDBRANCH   6  26
BRANCH   5  62
ATOM     62  O   UNL     1      -0.183  -5.717  14.333  1.00  0.00    -0.385 OA
ATOM     63  H   UNL     1      -0.597  -6.117  15.155  1.00  0.00     0.211 HD
ENDBRANCH   5  62
TORSDOF 14
ENDMDL
MODEL 3
REMARK VINA RESULT:    -9.557      1.551      2.069
REMARK INTER + INTRA:         -16.833
REMARK INTER:                 -15.559
REMARK INTRA:                  -1.274
REMARK UNBOUND:                -1.689
REMARK SMILES C[C@@H]1O[C@@H](O[C@@H]2CC[C@@]3(C)[C@@H](CC[C@]4(C)[C@@H]3C=C[C@]35OC[C@@]6(CCC(C)(C)C[C@@H]63)[C@H](O)C[C@]54C)[C@@]2(C)CO)[C@@H](O)[C@@H](O[C@H]2O[C@@H](CO)[C@H](O)[C@H](O)[C@H]2O)[C@@H]1O
REMARK SMILES IDX 1 1 2 2 54 3 41 4 39 5 4 6 3 7 55 8 42 10 43 11 52 12 44 13
REMARK SMILES IDX 50 14 45 15 48 16 53 17 51 19 46 21 47 22 49 24 5 26 6 27
REMARK SMILES IDX 7 28 35 29 8 30 11 31 36 32 9 33 12 34 10 35 16 36 13 37
REMARK SMILES IDX 14 38 17 39 15 40 33 41 18 42 19 43 32 44 34 45 29 46 20 47
REMARK SMILES IDX 30 48 22 49 28 50 21 51 23 52 25 53 24 54 26 55 27 56 37 57
REMARK SMILES IDX 38 58 31 60 40 62
REMARK H PARENT 55 9 53 18 51 20 47 23 49 25 38 59 31 61 40 63
REMARK Flexibility Score: inf
ROOT
ATOM      1  C   UNL     1      -3.636 -11.848  13.800  1.00  0.00     0.041 C 
ATOM      2  C   UNL     1      -3.150 -10.407  13.916  1.00  0.00     0.150 C 
ATOM      3  C   UNL     1      -2.008 -10.155  12.912  1.00  0.00     0.175 C 
ATOM      4  C   UNL     1      -1.555  -8.693  13.044  1.00  0.00     0.186 C 
ATOM      5  C   UNL     1      -2.750  -7.813  12.599  1.00  0.00     0.202 C 
ATOM      6  C   UNL     1      -4.142  -8.311  13.099  1.00  0.00     0.282 C 
ATOM      7  O   UNL     1      -4.286  -9.570  13.752  1.00  0.00    -0.344 OA
ENDROOT
BRANCH   3   8
ATOM      8  O   UNL     1      -2.444 -10.465  11.609  1.00  0.00    -0.388 OA
ATOM      9  H   UNL     1      -2.013  -9.813  10.996  1.00  0.00     0.211 HD
ENDBRANCH   3   8
BRANCH   4  10
ATOM     10  O   UNL     1      -1.105  -8.514  14.389  1.00  0.00    -0.341 OA
BRANCH  10  11
ATOM     11  C   UNL     1       0.285  -8.280  14.573  1.00  0.00     0.282 C 
ATOM     12  C   UNL     1       0.622  -7.064  15.475  1.00  0.00     0.202 C 
ATOM     13  O   UNL     1       0.855  -8.052  13.296  1.00  0.00    -0.341 OA
ATOM     14  C   UNL     1       2.095  -6.630  15.265  1.00  0.00     0.179 C 
ATOM     15  C   UNL     1       2.247  -8.336  13.332  1.00  0.00     0.178 C 
ATOM     16  C   UNL     1       2.979  -7.668  14.543  1.00  0.00     0.177 C 
BRANCH  12  17
ATOM     17  O   UNL     1      -0.229  -5.990  15.141  1.00  0.00    -0.385 OA
ATOM     18  H   UNL     1       0.342  -5.188  15.055  1.00  0.00     0.211 HD
ENDBRANCH  12  17
BRANCH  14  19
ATOM     19  O   UNL     1       2.643  -6.292  16.514  1.00  0.00    -0.387 OA
ATOM     20  H   UNL     1       3.311  -6.997  16.735  1.00  0.00     0.211 HD
ENDBRANCH  14  19
BRANCH  15  21
ATOM     21  C   UNL     1       2.867  -7.894  12.001  1.00  0.00     0.191 C 
BRANCH  21  22
ATOM     22  O   UNL     1       2.210  -6.744  11.534  1.00  0.00    -0.394 OA
ATOM     23  H   UNL     1       2.886  -6.013  11.601  1.00  0.00     0.210 HD
ENDBRANCH  21  22
ENDBRANCH  15  21
BRANCH  16  24
ATOM     24  O   UNL     1       3.486  -8.637  15.426  1.00  0.00    -0.387 OA
ATOM     25  H   UNL     1       4.240  -8.264  15.941  1.00  0.00     0.211 HD
ENDBRANCH  16  24
ENDBRANCH  10  11
ENDBRANCH   4  10
BRANCH   6  26
ATOM     26  O   UNL     1      -4.951  -7.311  13.701  1.00  0.00    -0.346 OA
BRANCH  26  27
ATOM     27  C   UNL     1      -5.526  -7.596  14.974  1.00  0.00     0.130 C 
ATOM     28  C   UNL     1      -6.726  -8.555  14.840  1.00  0.00     0.033 C 
ATOM     29  C   UNL     1      -5.997  -6.220  15.607  1.00  0.00     0.020 C 
ATOM     30  C   UNL     1      -7.768  -7.993  13.881  1.00  0.00     0.010 C 
ATOM     31  C   UNL     1      -7.248  -5.653  14.788  1.00  0.00     0.006 C 
ATOM     32  C   UNL     1      -4.808  -5.222  15.445  1.00  0.00     0.017 C 
ATOM     33  C   UNL     1      -8.402  -6.667  14.408  1.00  0.00    -0.022 C 
ATOM     34  C   UNL     1      -7.837  -4.311  15.297  1.00  0.00     0.005 C 
ATOM     35  C   UNL     1      -9.348  -7.005  15.580  1.00  0.00     0.012 C 
ATOM     36  C   UNL     1      -9.181  -5.977  13.223  1.00  0.00     0.024 C 
ATOM     37  C   UNL     1      -8.806  -3.614  14.296  1.00  0.00     0.008 C 
ATOM     38  C   UNL     1      -9.806  -4.546  13.484  1.00  0.00    -0.017 C 
ATOM     39  C   UNL     1     -10.137  -6.854  12.437  1.00  0.00    -0.024 C 
ATOM     40  C   UNL     1     -11.103  -4.697  14.371  1.00  0.00     0.013 C 
ATOM     41  C   UNL     1     -10.149  -3.938  12.016  1.00  0.00     0.009 C 
ATOM     42  C   UNL     1     -10.855  -6.367  11.416  1.00  0.00     0.005 C 
ATOM     43  C   UNL     1     -11.201  -4.885  11.283  1.00  0.00     0.096 C 
ATOM     44  C   UNL     1     -10.776  -2.489  12.063  1.00  0.00     0.043 C 
ATOM     45  C   UNL     1      -8.812  -3.835  11.160  1.00  0.00     0.015 C 
ATOM     46  C   UNL     1     -11.363  -4.400   9.811  1.00  0.00     0.037 C 
ATOM     47  O   UNL     1     -12.482  -4.719  11.890  1.00  0.00    -0.369 OA
ATOM     48  C   UNL     1     -11.521  -2.063  10.741  1.00  0.00     0.124 C 
ATOM     49  C   UNL     1     -12.305  -3.240  10.051  1.00  0.00     0.026 C 
ATOM     50  C   UNL     1     -11.895  -5.471   8.817  1.00  0.00     0.014 C 
ATOM     51  C   UNL     1     -13.251  -3.873  11.067  1.00  0.00     0.171 C 
ATOM     52  C   UNL     1     -13.047  -2.741   8.771  1.00  0.00     0.013 C 
ATOM     53  C   UNL     1     -12.352  -4.861   7.480  1.00  0.00    -0.035 C 
ATOM     54  C   UNL     1     -13.475  -3.835   7.777  1.00  0.00     0.007 C 
ATOM     55  C   UNL     1     -11.170  -4.185   6.724  1.00  0.00     0.011 C 
ATOM     56  C   UNL     1     -12.902  -5.980   6.582  1.00  0.00     0.011 C 
BRANCH  29  57
ATOM     57  C   UNL     1      -6.200  -6.284  17.162  1.00  0.00     0.165 C 
BRANCH  57  58
ATOM     58  O   UNL     1      -5.458  -5.338  17.867  1.00  0.00    -0.396 OA
ATOM     59  H   UNL     1      -5.817  -5.325  18.793  1.00  0.00     0.210 HD
ENDBRANCH  57  58
ENDBRANCH  29  57
BRANCH  48  60
ATOM     60  O   UNL     1     -10.613  -1.485   9.836  1.00  0.00    -0.392 OA
ATOM     61  H   UNL     1      -9.700  -1.706  10.167  1.00  0.00     0.210 HD
ENDBRANCH  48  60
ENDBRANCH  26  27
ENDBRANCH   6  26
BRANCH   5  62
ATOM     62  O   UNL     1      -2.571  -6.434  12.824  1.00  0.00    -0.385 OA
ATOM     63  H   UNL     1      -3.208  -5.957  12.213  1.00  0.00     0.211 HD
ENDBRANCH   5  62
TORSDOF 14
ENDMDL
MODEL 4
REMARK VINA RESULT:    -9.503      2.171      4.057
REMARK INTER + INTRA:         -16.748
REMARK INTER:                 -15.311
REMARK INTRA:                  -1.437
REMARK UNBOUND:                -1.689
REMARK SMILES C[C@@H]1O[C@@H](O[C@@H]2CC[C@@]3(C)[C@@H](CC[C@]4(C)[C@@H]3C=C[C@]35OC[C@@]6(CCC(C)(C)C[C@@H]63)[C@H](O)C[C@]54C)[C@@]2(C)CO)[C@@H](O)[C@@H](O[C@H]2O[C@@H](CO)[C@H](O)[C@H](O)[C@H]2O)[C@@H]1O
REMARK SMILES IDX 1 1 2 2 54 3 41 4 39 5 4 6 3 7 55 8 42 10 43 11 52 12 44 13
REMARK SMILES IDX 50 14 45 15 48 16 53 17 51 19 46 21 47 22 49 24 5 26 6 27
REMARK SMILES IDX 7 28 35 29 8 30 11 31 36 32 9 33 12 34 10 35 16 36 13 37
REMARK SMILES IDX 14 38 17 39 15 40 33 41 18 42 19 43 32 44 34 45 29 46 20 47
REMARK SMILES IDX 30 48 22 49 28 50 21 51 23 52 25 53 24 54 26 55 27 56 37 57
REMARK SMILES IDX 38 58 31 60 40 62
REMARK H PARENT 55 9 53 18 51 20 47 23 49 25 38 59 31 61 40 63
REMARK Flexibility Score: inf
ROOT
ATOM      1  C   UNL     1      -0.692 -12.325  13.697  1.00  0.00     0.041 C 
ATOM      2  C   UNL     1      -0.830 -10.805  13.703  1.00  0.00     0.150 C 
ATOM      3  C   UNL     1      -0.111 -10.208  12.478  1.00  0.00     0.175 C 
ATOM      4  C   UNL     1      -0.284  -8.682  12.506  1.00  0.00     0.186 C 
ATOM      5  C   UNL     1      -1.796  -8.400  12.323  1.00  0.00     0.202 C 
ATOM      6  C   UNL     1      -2.735  -9.367  13.110  1.00  0.00     0.282 C 
ATOM      7  O   UNL     1      -2.218 -10.514  13.782  1.00  0.00    -0.344 OA
ENDROOT
BRANCH   3   8
ATOM      8  O   UNL     1      -0.622 -10.784  11.299  1.00  0.00    -0.388 OA
ATOM      9  H   UNL     1      -0.027 -10.500  10.556  1.00  0.00     0.211 HD
ENDBRANCH   3   8
BRANCH   4  10
ATOM     10  O   UNL     1       0.303  -8.216  13.724  1.00  0.00    -0.341 OA
BRANCH  10  11
ATOM     11  C   UNL     1       1.719  -8.083  13.743  1.00  0.00     0.282 C 
ATOM     12  C   UNL     1       2.264  -7.142  14.848  1.00  0.00     0.202 C 
ATOM     13  O   UNL     1       2.118  -7.564  12.487  1.00  0.00    -0.341 OA
ATOM     14  C   UNL     1       3.721  -6.721  14.525  1.00  0.00     0.179 C 
ATOM     15  C   UNL     1       3.477  -7.897  12.238  1.00  0.00     0.178 C 
ATOM     16  C   UNL     1       4.418  -7.576  13.448  1.00  0.00     0.177 C 
BRANCH  12  17
ATOM     17  O   UNL     1       1.454  -5.990  14.918  1.00  0.00    -0.385 OA
ATOM     18  H   UNL     1       0.929  -6.059  15.752  1.00  0.00     0.211 HD
ENDBRANCH  12  17
BRANCH  14  19
ATOM     19  O   UNL     1       4.461  -6.723  15.719  1.00  0.00    -0.387 OA
ATOM     20  H   UNL     1       5.389  -6.995  15.481  1.00  0.00     0.211 HD
ENDBRANCH  14  19
BRANCH  15  21
ATOM     21  C   UNL     1       3.934  -7.159  10.974  1.00  0.00     0.191 C 
BRANCH  21  22
ATOM     22  O   UNL     1       3.145  -7.560   9.884  1.00  0.00    -0.394 OA
ATOM     23  H   UNL     1       3.578  -7.149   9.084  1.00  0.00     0.210 HD
ENDBRANCH  21  22
ENDBRANCH  15  21
BRANCH  16  24
ATOM     24  O   UNL     1       4.974  -8.752  13.982  1.00  0.00    -0.387 OA
ATOM     25  H   UNL     1       4.507  -8.998  14.815  1.00  0.00     0.211 HD
ENDBRANCH  16  24
ENDBRANCH  10  11
ENDBRANCH   4  10
BRANCH   6  26
ATOM     26  O   UNL     1      -3.751  -8.727  13.867  1.00  0.00    -0.346 OA
BRANCH  26  27
ATOM     27  C   UNL     1      -4.324  -9.446  14.955  1.00  0.00     0.130 C 
ATOM     28  C   UNL     1      -5.660 -10.099  14.549  1.00  0.00     0.033 C 
ATOM     29  C   UNL     1      -4.559  -8.418  16.140  1.00  0.00     0.020 C 
ATOM     30  C   UNL     1      -6.633  -9.058  14.007  1.00  0.00     0.010 C 
ATOM     31  C   UNL     1      -5.732  -7.406  15.747  1.00  0.00     0.006 C 
ATOM     32  C   UNL     1      -3.236  -7.604  16.296  1.00  0.00     0.017 C 
ATOM     33  C   UNL     1      -7.040  -8.009  15.090  1.00  0.00    -0.022 C 
ATOM     34  C   UNL     1      -6.092  -6.340  16.815  1.00  0.00     0.005 C 
ATOM     35  C   UNL     1      -7.990  -8.687  16.099  1.00  0.00     0.012 C 
ATOM     36  C   UNL     1      -7.739  -6.792  14.372  1.00  0.00     0.024 C 
ATOM     37  C   UNL     1      -6.973  -5.170  16.284  1.00  0.00     0.008 C 
ATOM     38  C   UNL     1      -8.128  -5.538  15.255  1.00  0.00    -0.017 C 
ATOM     39  C   UNL     1      -8.841  -7.127  13.386  1.00  0.00    -0.024 C 
ATOM     40  C   UNL     1      -9.406  -5.883  16.117  1.00  0.00     0.013 C 
ATOM     41  C   UNL     1      -8.417  -4.330  14.208  1.00  0.00     0.009 C 
ATOM     42  C   UNL     1      -9.506  -6.169  12.727  1.00  0.00     0.005 C 
ATOM     43  C   UNL     1      -9.624  -4.738  13.249  1.00  0.00     0.096 C 
ATOM     44  C   UNL     1      -8.814  -2.969  14.906  1.00  0.00     0.043 C 
ATOM     45  C   UNL     1      -7.107  -4.046  13.351  1.00  0.00     0.015 C 
ATOM     46  C   UNL     1      -9.755  -3.662  12.129  1.00  0.00     0.037 C 
ATOM     47  O   UNL     1     -10.846  -4.682  13.986  1.00  0.00    -0.369 OA
ATOM     48  C   UNL     1      -9.523  -1.935  13.951  1.00  0.00     0.124 C 
ATOM     49  C   UNL     1     -10.499  -2.602  12.912  1.00  0.00     0.026 C 
ATOM     50  C   UNL     1     -10.474  -4.137  10.836  1.00  0.00     0.014 C 
ATOM     51  C   UNL     1     -11.501  -3.479  13.659  1.00  0.00     0.171 C 
ATOM     52  C   UNL     1     -11.195  -1.520  12.026  1.00  0.00     0.013 C 
ATOM     53  C   UNL     1     -10.873  -2.968   9.918  1.00  0.00    -0.035 C 
ATOM     54  C   UNL     1     -11.815  -2.029  10.713  1.00  0.00     0.007 C 
ATOM     55  C   UNL     1      -9.624  -2.192   9.403  1.00  0.00     0.011 C 
ATOM     56  C   UNL     1     -11.615  -3.525   8.693  1.00  0.00     0.011 C 
BRANCH  29  57
ATOM     57  C   UNL     1      -4.723  -9.105  17.542  1.00  0.00     0.165 C 
BRANCH  57  58
ATOM     58  O   UNL     1      -3.838  -8.630  18.509  1.00  0.00    -0.396 OA
ATOM     59  H   UNL     1      -4.361  -8.523  19.346  1.00  0.00     0.210 HD
ENDBRANCH  57  58
ENDBRANCH  29  57
BRANCH  48  60
ATOM     60  O   UNL     1      -8.565  -1.150  13.286  1.00  0.00    -0.392 OA
ATOM     61  H   UNL     1      -7.841  -1.769  12.995  1.00  0.00     0.210 HD
ENDBRANCH  48  60
ENDBRANCH  26  27
ENDBRANCH   6  26
BRANCH   5  62
ATOM     62  O   UNL     1      -2.161  -7.051  12.501  1.00  0.00    -0.385 OA
ATOM     63  H   UNL     1      -1.389  -6.498  12.177  1.00  0.00     0.211 HD
ENDBRANCH   5  62
TORSDOF 14
ENDMDL
MODEL 5
REMARK VINA RESULT:    -9.455      1.329      2.115
REMARK INTER + INTRA:         -16.672
REMARK INTER:                 -15.415
REMARK INTRA:                  -1.256
REMARK UNBOUND:                -1.689
REMARK SMILES C[C@@H]1O[C@@H](O[C@@H]2CC[C@@]3(C)[C@@H](CC[C@]4(C)[C@@H]3C=C[C@]35OC[C@@]6(CCC(C)(C)C[C@@H]63)[C@H](O)C[C@]54C)[C@@]2(C)CO)[C@@H](O)[C@@H](O[C@H]2O[C@@H](CO)[C@H](O)[C@H](O)[C@H]2O)[C@@H]1O
REMARK SMILES IDX 1 1 2 2 54 3 41 4 39 5 4 6 3 7 55 8 42 10 43 11 52 12 44 13
REMARK SMILES IDX 50 14 45 15 48 16 53 17 51 19 46 21 47 22 49 24 5 26 6 27
REMARK SMILES IDX 7 28 35 29 8 30 11 31 36 32 9 33 12 34 10 35 16 36 13 37
REMARK SMILES IDX 14 38 17 39 15 40 33 41 18 42 19 43 32 44 34 45 29 46 20 47
REMARK SMILES IDX 30 48 22 49 28 50 21 51 23 52 25 53 24 54 26 55 27 56 37 57
REMARK SMILES IDX 38 58 31 60 40 62
REMARK H PARENT 55 9 53 18 51 20 47 23 49 25 38 59 31 61 40 63
REMARK Flexibility Score: inf
ROOT
ATOM      1  C   UNL     1      -4.581 -12.735  16.737  1.00  0.00     0.041 C 
ATOM      2  C   UNL     1      -4.469 -11.520  15.820  1.00  0.00     0.150 C 
ATOM      3  C   UNL     1      -3.913 -11.946  14.448  1.00  0.00     0.175 C 
ATOM      4  C   UNL     1      -3.830 -10.705  13.547  1.00  0.00     0.186 C 
ATOM      5  C   UNL     1      -5.283 -10.223  13.315  1.00  0.00     0.202 C 
ATOM      6  C   UNL     1      -6.196 -10.284  14.580  1.00  0.00     0.282 C 
ATOM      7  O   UNL     1      -5.751 -10.908  15.783  1.00  0.00    -0.344 OA
ENDROOT
BRANCH   3   8
ATOM      8  O   UNL     1      -4.729 -12.954  13.897  1.00  0.00    -0.388 OA
ATOM      9  H   UNL     1      -4.135 -13.553  13.372  1.00  0.00     0.211 HD
ENDBRANCH   3   8
BRANCH   4  10
ATOM     10  O   UNL     1      -2.951  -9.779  14.192  1.00  0.00    -0.341 OA
BRANCH  10  11
ATOM     11  C   UNL     1      -1.911  -9.225  13.397  1.00  0.00     0.282 C 
ATOM     12  C   UNL     1      -0.960 -10.271  12.758  1.00  0.00     0.202 C 
ATOM     13  O   UNL     1      -1.138  -8.379  14.230  1.00  0.00    -0.341 OA
ATOM     14  C   UNL     1       0.355  -9.592  12.297  1.00  0.00     0.179 C 
ATOM     15  C   UNL     1      -0.452  -7.419  13.438  1.00  0.00     0.178 C 
ATOM     16  C   UNL     1       0.294  -8.052  12.216  1.00  0.00     0.177 C 
BRANCH  12  17
ATOM     17  O   UNL     1      -0.657 -11.265  13.711  1.00  0.00    -0.385 OA
ATOM     18  H   UNL     1      -0.898 -12.134  13.306  1.00  0.00     0.211 HD
ENDBRANCH  12  17
BRANCH  14  19
ATOM     19  O   UNL     1       0.730 -10.141  11.060  1.00  0.00    -0.387 OA
ATOM     20  H   UNL     1       0.664 -11.130  11.152  1.00  0.00     0.211 HD
ENDBRANCH  14  19
BRANCH  15  21
ATOM     21  C   UNL     1       0.521  -6.651  14.340  1.00  0.00     0.191 C 
BRANCH  21  22
ATOM     22  O   UNL     1       0.502  -5.289  14.002  1.00  0.00    -0.394 OA
ATOM     23  H   UNL     1      -0.450  -5.007  14.108  1.00  0.00     0.210 HD
ENDBRANCH  21  22
ENDBRANCH  15  21
BRANCH  16  24
ATOM     24  O   UNL     1      -0.255  -7.607  11.001  1.00  0.00    -0.387 OA
ATOM     25  H   UNL     1      -0.835  -8.306  10.615  1.00  0.00     0.211 HD
ENDBRANCH  16  24
ENDBRANCH  10  11
ENDBRANCH   4  10
BRANCH   6  26
ATOM     26  O   UNL     1      -6.930  -9.097  14.844  1.00  0.00    -0.346 OA
BRANCH  26  27
ATOM     27  C   UNL     1      -7.607  -8.997  16.094  1.00  0.00     0.130 C 
ATOM     28  C   UNL     1      -9.082  -9.425  15.964  1.00  0.00     0.033 C 
ATOM     29  C   UNL     1      -7.519  -7.485  16.568  1.00  0.00     0.020 C 
ATOM     30  C   UNL     1      -9.793  -8.613  14.888  1.00  0.00     0.010 C 
ATOM     31  C   UNL     1      -8.423  -6.572  15.617  1.00  0.00     0.006 C 
ATOM     32  C   UNL     1      -6.030  -7.049  16.399  1.00  0.00     0.017 C 
ATOM     33  C   UNL     1      -9.872  -7.095  15.249  1.00  0.00    -0.022 C 
ATOM     34  C   UNL     1      -8.453  -5.059  15.960  1.00  0.00     0.005 C 
ATOM     35  C   UNL     1     -10.907  -6.911  16.378  1.00  0.00     0.012 C 
ATOM     36  C   UNL     1     -10.283  -6.292  13.956  1.00  0.00     0.024 C 
ATOM     37  C   UNL     1      -9.044  -4.156  14.836  1.00  0.00     0.008 C 
ATOM     38  C   UNL     1     -10.305  -4.712  14.044  1.00  0.00    -0.017 C 
ATOM     39  C   UNL     1     -11.483  -6.812  13.188  1.00  0.00    -0.024 C 
ATOM     40  C   UNL     1     -11.582  -4.251  14.850  1.00  0.00     0.013 C 
ATOM     41  C   UNL     1     -10.339  -4.183  12.508  1.00  0.00     0.009 C 
ATOM     42  C   UNL     1     -11.923  -6.200  12.080  1.00  0.00     0.005 C 
ATOM     43  C   UNL     1     -11.657  -4.724  11.791  1.00  0.00     0.096 C 
ATOM     44  C   UNL     1     -10.350  -2.608  12.381  1.00  0.00     0.043 C 
ATOM     45  C   UNL     1      -9.044  -4.700  11.740  1.00  0.00     0.015 C 
ATOM     46  C   UNL     1     -11.574  -4.378  10.274  1.00  0.00     0.037 C 
ATOM     47  O   UNL     1     -12.787  -4.009  12.291  1.00  0.00    -0.369 OA
ATOM     48  C   UNL     1     -10.829  -2.075  10.978  1.00  0.00     0.124 C 
ATOM     49  C   UNL     1     -11.992  -2.925  10.343  1.00  0.00     0.026 C 
ATOM     50  C   UNL     1     -12.454  -5.262   9.345  1.00  0.00     0.014 C 
ATOM     51  C   UNL     1     -13.139  -3.028  11.344  1.00  0.00     0.171 C 
ATOM     52  C   UNL     1     -12.442  -2.321   8.975  1.00  0.00     0.013 C 
ATOM     53  C   UNL     1     -12.597  -4.672   7.931  1.00  0.00    -0.035 C 
ATOM     54  C   UNL     1     -13.235  -3.266   8.056  1.00  0.00     0.007 C 
ATOM     55  C   UNL     1     -11.222  -4.594   7.201  1.00  0.00     0.011 C 
ATOM     56  C   UNL     1     -13.515  -5.583   7.100  1.00  0.00     0.011 C 
BRANCH  29  57
ATOM     57  C   UNL     1      -7.776  -7.295  18.104  1.00  0.00     0.165 C 
BRANCH  57  58
ATOM     58  O   UNL     1      -6.820  -6.506  18.742  1.00  0.00    -0.396 OA
ATOM     59  H   UNL     1      -5.938  -6.931  18.570  1.00  0.00     0.210 HD
ENDBRANCH  57  58
ENDBRANCH  29  57
BRANCH  48  60
ATOM     60  O   UNL     1      -9.742  -1.996  10.089  1.00  0.00    -0.392 OA
ATOM     61  H   UNL     1      -9.991  -1.330   9.392  1.00  0.00     0.210 HD
ENDBRANCH  48  60
ENDBRANCH  26  27
ENDBRANCH   6  26
BRANCH   5  62
ATOM     62  O   UNL     1      -5.386  -8.984  12.652  1.00  0.00    -0.385 OA
ATOM     63  H   UNL     1      -5.996  -8.410  13.205  1.00  0.00     0.211 HD
ENDBRANCH   5  62
TORSDOF 14
ENDMDL
MODEL 6
REMARK VINA RESULT:    -9.197      1.705      2.528
REMARK INTER + INTRA:         -16.262
REMARK INTER:                 -15.684
REMARK INTRA:                  -0.578
REMARK UNBOUND:                -1.689
REMARK SMILES C[C@@H]1O[C@@H](O[C@@H]2CC[C@@]3(C)[C@@H](CC[C@]4(C)[C@@H]3C=C[C@]35OC[C@@]6(CCC(C)(C)C[C@@H]63)[C@H](O)C[C@]54C)[C@@]2(C)CO)[C@@H](O)[C@@H](O[C@H]2O[C@@H](CO)[C@H](O)[C@H](O)[C@H]2O)[C@@H]1O
REMARK SMILES IDX 1 1 2 2 54 3 41 4 39 5 4 6 3 7 55 8 42 10 43 11 52 12 44 13
REMARK SMILES IDX 50 14 45 15 48 16 53 17 51 19 46 21 47 22 49 24 5 26 6 27
REMARK SMILES IDX 7 28 35 29 8 30 11 31 36 32 9 33 12 34 10 35 16 36 13 37
REMARK SMILES IDX 14 38 17 39 15 40 33 41 18 42 19 43 32 44 34 45 29 46 20 47
REMARK SMILES IDX 30 48 22 49 28 50 21 51 23 52 25 53 24 54 26 55 27 56 37 57
REMARK SMILES IDX 38 58 31 60 40 62
REMARK H PARENT 55 9 53 18 51 20 47 23 49 25 38 59 31 61 40 63
REMARK Flexibility Score: inf
ROOT
ATOM      1  C   UNL     1      -2.168 -11.090  15.479  1.00  0.00     0.041 C 
ATOM      2  C   UNL     1      -2.906  -9.974  14.744  1.00  0.00     0.150 C 
ATOM      3  C   UNL     1      -2.810 -10.195  13.223  1.00  0.00     0.175 C 
ATOM      4  C   UNL     1      -3.576  -9.066  12.516  1.00  0.00     0.186 C 
ATOM      5  C   UNL     1      -5.067  -9.227  12.903  1.00  0.00     0.202 C 
ATOM      6  C   UNL     1      -5.311  -9.601  14.398  1.00  0.00     0.282 C 
ATOM      7  O   UNL     1      -4.228  -9.939  15.262  1.00  0.00    -0.344 OA
ENDROOT
BRANCH   3   8
ATOM      8  O   UNL     1      -3.312 -11.469  12.895  1.00  0.00    -0.388 OA
ATOM      9  H   UNL     1      -2.600 -12.127  13.114  1.00  0.00     0.211 HD
ENDBRANCH   3   8
BRANCH   4  10
ATOM     10  O   UNL     1      -2.953  -7.836  12.896  1.00  0.00    -0.341 OA
BRANCH  10  11
ATOM     11  C   UNL     1      -1.607  -7.913  13.347  1.00  0.00     0.282 C 
ATOM     12  C   UNL     1      -1.213  -6.835  14.390  1.00  0.00     0.202 C 
ATOM     13  O   UNL     1      -0.766  -7.761  12.218  1.00  0.00    -0.341 OA
ATOM     14  C   UNL     1       0.330  -6.719  14.487  1.00  0.00     0.179 C 
ATOM     15  C   UNL     1       0.505  -8.339  12.482  1.00  0.00     0.178 C 
ATOM     16  C   UNL     1       1.108  -7.892  13.856  1.00  0.00     0.177 C 
BRANCH  12  17
ATOM     17  O   UNL     1      -1.747  -5.591  13.995  1.00  0.00    -0.385 OA
ATOM     18  H   UNL     1      -1.578  -4.958  14.735  1.00  0.00     0.211 HD
ENDBRANCH  12  17
BRANCH  14  19
ATOM     19  O   UNL     1       0.682  -6.557  15.837  1.00  0.00    -0.387 OA
ATOM     20  H   UNL     1       1.245  -5.737  15.891  1.00  0.00     0.211 HD
ENDBRANCH  14  19
BRANCH  15  21
ATOM     21  C   UNL     1       1.449  -7.986  11.326  1.00  0.00     0.191 C 
BRANCH  21  22
ATOM     22  O   UNL     1       1.966  -6.695  11.517  1.00  0.00    -0.394 OA
ATOM     23  H   UNL     1       1.473  -6.331  12.304  1.00  0.00     0.210 HD
ENDBRANCH  21  22
ENDBRANCH  15  21
BRANCH  16  24
ATOM     24  O   UNL     1       1.227  -8.983  14.735  1.00  0.00    -0.387 OA
ATOM     25  H   UNL     1       1.704  -8.707  15.554  1.00  0.00     0.211 HD
ENDBRANCH  16  24
ENDBRANCH  10  11
ENDBRANCH   4  10
BRANCH   6  26
ATOM     26  O   UNL     1      -6.284  -8.806  15.060  1.00  0.00    -0.346 OA
BRANCH  26  27
ATOM     27  C   UNL     1      -7.216  -9.466  15.913  1.00  0.00     0.130 C 
ATOM     28  C   UNL     1      -8.418 -10.006  15.112  1.00  0.00     0.033 C 
ATOM     29  C   UNL     1      -7.710  -8.413  16.991  1.00  0.00     0.020 C 
ATOM     30  C   UNL     1      -9.092  -8.891  14.323  1.00  0.00     0.010 C 
ATOM     31  C   UNL     1      -8.621  -7.308  16.283  1.00  0.00     0.006 C 
ATOM     32  C   UNL     1      -6.431  -7.714  17.551  1.00  0.00     0.017 C 
ATOM     33  C   UNL     1      -9.717  -7.803  15.253  1.00  0.00    -0.022 C 
ATOM     34  C   UNL     1      -9.195  -6.207  17.214  1.00  0.00     0.005 C 
ATOM     35  C   UNL     1     -10.980  -8.389  15.918  1.00  0.00     0.012 C 
ATOM     36  C   UNL     1     -10.064  -6.535  14.381  1.00  0.00     0.024 C 
ATOM     37  C   UNL     1      -9.776  -4.970  16.464  1.00  0.00     0.008 C 
ATOM     38  C   UNL     1     -10.595  -5.246  15.130  1.00  0.00    -0.017 C 
ATOM     39  C   UNL     1     -10.843  -6.783  13.104  1.00  0.00    -0.024 C 
ATOM     40  C   UNL     1     -12.096  -5.476  15.562  1.00  0.00     0.013 C 
ATOM     41  C   UNL     1     -10.454  -4.026  14.067  1.00  0.00     0.009 C 
ATOM     42  C   UNL     1     -11.197  -5.776  12.293  1.00  0.00     0.005 C 
ATOM     43  C   UNL     1     -11.347  -4.337  12.783  1.00  0.00     0.096 C 
ATOM     44  C   UNL     1     -10.927  -2.631  14.639  1.00  0.00     0.043 C 
ATOM     45  C   UNL     1      -8.928  -3.861  13.648  1.00  0.00     0.015 C 
ATOM     46  C   UNL     1     -11.045  -3.262  11.696  1.00  0.00     0.037 C 
ATOM     47  O   UNL     1     -12.724  -4.172  13.120  1.00  0.00    -0.369 OA
ATOM     48  C   UNL     1     -11.228  -1.548  13.535  1.00  0.00     0.124 C 
ATOM     49  C   UNL     1     -11.899  -2.137  12.239  1.00  0.00     0.026 C 
ATOM     50  C   UNL     1     -11.379  -3.684  10.237  1.00  0.00     0.014 C 
ATOM     51  C   UNL     1     -13.148  -2.920  12.635  1.00  0.00     0.171 C 
ATOM     52  C   UNL     1     -12.204  -1.006  11.205  1.00  0.00     0.013 C 
ATOM     53  C   UNL     1     -11.385  -2.492   9.264  1.00  0.00    -0.035 C 
ATOM     54  C   UNL     1     -12.441  -1.471   9.757  1.00  0.00     0.007 C 
ATOM     55  C   UNL     1      -9.979  -1.829   9.162  1.00  0.00     0.011 C 
ATOM     56  C   UNL     1     -11.769  -2.993   7.862  1.00  0.00     0.011 C 
BRANCH  29  57
ATOM     57  C   UNL     1      -8.343  -9.073  18.267  1.00  0.00     0.165 C 
BRANCH  57  58
ATOM     58  O   UNL     1      -8.237 -10.463  18.294  1.00  0.00    -0.396 OA
ATOM     59  H   UNL     1      -7.639 -10.689  19.054  1.00  0.00     0.210 HD
ENDBRANCH  57  58
ENDBRANCH  29  57
BRANCH  48  60
ATOM     60  O   UNL     1     -10.053  -0.851  13.202  1.00  0.00    -0.392 OA
ATOM     61  H   UNL     1      -9.814  -0.298  13.995  1.00  0.00     0.210 HD
ENDBRANCH  48  60
ENDBRANCH  26  27
ENDBRANCH   6  26
BRANCH   5  62
ATOM     62  O   UNL     1      -5.894  -8.166  12.483  1.00  0.00    -0.385 OA
ATOM     63  H   UNL     1      -6.058  -8.300  11.502  1.00  0.00     0.211 HD
ENDBRANCH   5  62
TORSDOF 14
ENDMDL
MODEL 7
REMARK VINA RESULT:    -9.030      2.298     11.067
REMARK INTER + INTRA:         -15.998
REMARK INTER:                 -14.607
REMARK INTRA:                  -1.391
REMARK UNBOUND:                -1.689
REMARK SMILES C[C@@H]1O[C@@H](O[C@@H]2CC[C@@]3(C)[C@@H](CC[C@]4(C)[C@@H]3C=C[C@]35OC[C@@]6(CCC(C)(C)C[C@@H]63)[C@H](O)C[C@]54C)[C@@]2(C)CO)[C@@H](O)[C@@H](O[C@H]2O[C@@H](CO)[C@H](O)[C@H](O)[C@H]2O)[C@@H]1O
REMARK SMILES IDX 1 1 2 2 54 3 41 4 39 5 4 6 3 7 55 8 42 10 43 11 52 12 44 13
REMARK SMILES IDX 50 14 45 15 48 16 53 17 51 19 46 21 47 22 49 24 5 26 6 27
REMARK SMILES IDX 7 28 35 29 8 30 11 31 36 32 9 33 12 34 10 35 16 36 13 37
REMARK SMILES IDX 14 38 17 39 15 40 33 41 18 42 19 43 32 44 34 45 29 46 20 47
REMARK SMILES IDX 30 48 22 49 28 50 21 51 23 52 25 53 24 54 26 55 27 56 37 57
REMARK SMILES IDX 38 58 31 60 40 62
REMARK H PARENT 55 9 53 18 51 20 47 23 49 25 38 59 31 61 40 63
REMARK Flexibility Score: inf
ROOT
ATOM      1  C   UNL     1     -10.688  -1.430  15.672  1.00  0.00     0.041 C 
ATOM      2  C   UNL     1     -10.430  -2.415  14.535  1.00  0.00     0.150 C 
ATOM      3  C   UNL     1     -10.125  -1.648  13.234  1.00  0.00     0.175 C 
ATOM      4  C   UNL     1      -9.854  -2.667  12.117  1.00  0.00     0.186 C 
ATOM      5  C   UNL     1      -8.561  -3.425  12.508  1.00  0.00     0.202 C 
ATOM      6  C   UNL     1      -8.456  -3.789  14.022  1.00  0.00     0.282 C 
ATOM      7  O   UNL     1      -9.399  -3.290  14.969  1.00  0.00    -0.344 OA
ENDROOT
BRANCH   3   8
ATOM      8  O   UNL     1      -9.037  -0.777  13.440  1.00  0.00    -0.388 OA
ATOM      9  H   UNL     1      -9.362   0.143  13.250  1.00  0.00     0.211 HD
ENDBRANCH   3   8
BRANCH   4  10
ATOM     10  O   UNL     1     -11.036  -3.461  11.980  1.00  0.00    -0.341 OA
BRANCH  10  11
ATOM     11  C   UNL     1     -11.352  -3.917  10.671  1.00  0.00     0.282 C 
ATOM     12  C   UNL     1     -11.804  -2.803   9.691  1.00  0.00     0.202 C 
ATOM     13  O   UNL     1     -12.407  -4.856  10.786  1.00  0.00    -0.341 OA
ATOM     14  C   UNL     1     -12.529  -3.422   8.469  1.00  0.00     0.179 C 
ATOM     15  C   UNL     1     -12.412  -5.715   9.654  1.00  0.00     0.178 C 
ATOM     16  C   UNL     1     -12.323  -4.941   8.296  1.00  0.00     0.177 C 
BRANCH  12  17
ATOM     17  O   UNL     1     -12.686  -1.928  10.359  1.00  0.00    -0.385 OA
ATOM     18  H   UNL     1     -13.178  -1.429   9.662  1.00  0.00     0.211 HD
ENDBRANCH  12  17
BRANCH  14  19
ATOM     19  O   UNL     1     -12.129  -2.731   7.314  1.00  0.00    -0.387 OA
ATOM     20  H   UNL     1     -12.064  -1.768   7.563  1.00  0.00     0.211 HD
ENDBRANCH  14  19
BRANCH  15  21
ATOM     21  C   UNL     1     -13.674  -6.584   9.711  1.00  0.00     0.191 C 
BRANCH  21  22
ATOM     22  O   UNL     1     -13.354  -7.845  10.237  1.00  0.00    -0.394 OA
ATOM     23  H   UNL     1     -13.235  -8.437   9.443  1.00  0.00     0.210 HD
ENDBRANCH  21  22
ENDBRANCH  15  21
BRANCH  16  24
ATOM     24  O   UNL     1     -11.126  -5.240   7.622  1.00  0.00    -0.387 OA
ATOM     25  H   UNL     1     -10.442  -5.544   8.264  1.00  0.00     0.211 HD
ENDBRANCH  16  24
ENDBRANCH  10  11
ENDBRANCH   4  10
BRANCH   6  26
ATOM     26  O   UNL     1      -8.107  -5.139  14.288  1.00  0.00    -0.346 OA
BRANCH  26  27
ATOM     27  C   UNL     1      -8.729  -5.781  15.398  1.00  0.00     0.130 C 
ATOM     28  C   UNL     1      -7.833  -5.716  16.651  1.00  0.00     0.033 C 
ATOM     29  C   UNL     1      -8.990  -7.293  14.995  1.00  0.00     0.020 C 
ATOM     30  C   UNL     1      -6.459  -6.313  16.371  1.00  0.00     0.010 C 
ATOM     31  C   UNL     1      -7.596  -8.068  14.890  1.00  0.00     0.006 C 
ATOM     32  C   UNL     1      -9.649  -7.271  13.580  1.00  0.00     0.017 C 
ATOM     33  C   UNL     1      -6.533  -7.837  16.040  1.00  0.00    -0.022 C 
ATOM     34  C   UNL     1      -7.684  -9.571  14.513  1.00  0.00     0.005 C 
ATOM     35  C   UNL     1      -6.842  -8.609  17.340  1.00  0.00     0.012 C 
ATOM     36  C   UNL     1      -5.153  -8.284  15.422  1.00  0.00     0.024 C 
ATOM     37  C   UNL     1      -6.329 -10.206  14.081  1.00  0.00     0.008 C 
ATOM     38  C   UNL     1      -5.030  -9.769  14.887  1.00  0.00    -0.017 C 
ATOM     39  C   UNL     1      -3.905  -7.872  16.178  1.00  0.00    -0.024 C 
ATOM     40  C   UNL     1      -4.907 -10.756  16.113  1.00  0.00     0.013 C 
ATOM     41  C   UNL     1      -3.699  -9.795  13.956  1.00  0.00     0.009 C 
ATOM     42  C   UNL     1      -2.682  -8.207  15.746  1.00  0.00     0.005 C 
ATOM     43  C   UNL     1      -2.428  -9.409  14.838  1.00  0.00     0.096 C 
ATOM     44  C   UNL     1      -3.408 -11.207  13.309  1.00  0.00     0.043 C 
ATOM     45  C   UNL     1      -3.869  -8.764  12.757  1.00  0.00     0.015 C 
ATOM     46  C   UNL     1      -1.199  -9.244  13.893  1.00  0.00     0.037 C 
ATOM     47  O   UNL     1      -2.109 -10.500  15.702  1.00  0.00    -0.369 OA
ATOM     48  C   UNL     1      -1.931 -11.389  12.791  1.00  0.00     0.124 C 
ATOM     49  C   UNL     1      -0.851 -10.705  13.708  1.00  0.00     0.026 C 
ATOM     50  C   UNL     1      -0.045  -8.368  14.457  1.00  0.00     0.014 C 
ATOM     51  C   UNL     1      -1.025 -11.202  15.141  1.00  0.00     0.171 C 
ATOM     52  C   UNL     1       0.589 -10.956  13.158  1.00  0.00     0.013 C 
ATOM     53  C   UNL     1       1.256  -8.515  13.649  1.00  0.00    -0.035 C 
ATOM     54  C   UNL     1       1.680 -10.005  13.682  1.00  0.00     0.007 C 
ATOM     55  C   UNL     1       1.078  -8.022  12.182  1.00  0.00     0.011 C 
ATOM     56  C   UNL     1       2.350  -7.654  14.301  1.00  0.00     0.011 C 
BRANCH  29  57
ATOM     57  C   UNL     1     -10.073  -8.000  15.883  1.00  0.00     0.165 C 
BRANCH  57  58
ATOM     58  O   UNL     1     -11.096  -8.601  15.152  1.00  0.00    -0.396 OA
ATOM     59  H   UNL     1     -10.719  -9.436  14.766  1.00  0.00     0.210 HD
ENDBRANCH  57  58
ENDBRANCH  29  57
BRANCH  48  60
ATOM     60  O   UNL     1      -1.816 -10.920  11.470  1.00  0.00    -0.392 OA
ATOM     61  H   UNL     1      -1.536  -9.966  11.530  1.00  0.00     0.210 HD
ENDBRANCH  48  60
ENDBRANCH  26  27
ENDBRANCH   6  26
BRANCH   5  62
ATOM     62  O   UNL     1      -8.260  -4.525  11.680  1.00  0.00    -0.385 OA
ATOM     63  H   UNL     1      -7.672  -5.136  12.216  1.00  0.00     0.211 HD
ENDBRANCH   5  62
TORSDOF 14
ENDMDL
MODEL 8
REMARK VINA RESULT:    -9.024      3.676     10.560
REMARK INTER + INTRA:         -15.989
REMARK INTER:                 -13.697
REMARK INTRA:                  -2.292
REMARK UNBOUND:                -1.689
REMARK SMILES C[C@@H]1O[C@@H](O[C@@H]2CC[C@@]3(C)[C@@H](CC[C@]4(C)[C@@H]3C=C[C@]35OC[C@@]6(CCC(C)(C)C[C@@H]63)[C@H](O)C[C@]54C)[C@@]2(C)CO)[C@@H](O)[C@@H](O[C@H]2O[C@@H](CO)[C@H](O)[C@H](O)[C@H]2O)[C@@H]1O
REMARK SMILES IDX 1 1 2 2 54 3 41 4 39 5 4 6 3 7 55 8 42 10 43 11 52 12 44 13
REMARK SMILES IDX 50 14 45 15 48 16 53 17 51 19 46 21 47 22 49 24 5 26 6 27
REMARK SMILES IDX 7 28 35 29 8 30 11 31 36 32 9 33 12 34 10 35 16 36 13 37
REMARK SMILES IDX 14 38 17 39 15 40 33 41 18 42 19 43 32 44 34 45 29 46 20 47
REMARK SMILES IDX 30 48 22 49 28 50 21 51 23 52 25 53 24 54 26 55 27 56 37 57
REMARK SMILES IDX 38 58 31 60 40 62
REMARK H PARENT 55 9 53 18 51 20 47 23 49 25 38 59 31 61 40 63
REMARK Flexibility Score: inf
ROOT
ATOM      1  C   UNL     1     -10.422  -6.411  12.525  1.00  0.00     0.041 C 
ATOM      2  C   UNL     1      -9.221  -7.006  13.255  1.00  0.00     0.150 C 
ATOM      3  C   UNL     1      -8.025  -7.121  12.291  1.00  0.00     0.175 C 
ATOM      4  C   UNL     1      -6.831  -7.705  13.061  1.00  0.00     0.186 C 
ATOM      5  C   UNL     1      -6.443  -6.665  14.141  1.00  0.00     0.202 C 
ATOM      6  C   UNL     1      -7.655  -5.990  14.855  1.00  0.00     0.282 C 
ATOM      7  O   UNL     1      -8.990  -6.200  14.402  1.00  0.00    -0.344 OA
ENDROOT
BRANCH   3   8
ATOM      8  O   UNL     1      -7.738  -5.858  11.737  1.00  0.00    -0.388 OA
ATOM      9  H   UNL     1      -7.830  -5.193  12.470  1.00  0.00     0.211 HD
ENDBRANCH   3   8
BRANCH   4  10
ATOM     10  O   UNL     1      -7.231  -8.993  13.538  1.00  0.00    -0.341 OA
BRANCH  10  11
ATOM     11  C   UNL     1      -6.213  -9.977  13.654  1.00  0.00     0.282 C 
ATOM     12  C   UNL     1      -6.165 -10.699  15.026  1.00  0.00     0.202 C 
ATOM     13  O   UNL     1      -4.967  -9.333  13.453  1.00  0.00    -0.341 OA
ATOM     14  C   UNL     1      -4.800 -11.408  15.215  1.00  0.00     0.179 C 
ATOM     15  C   UNL     1      -3.996 -10.282  13.033  1.00  0.00     0.178 C 
ATOM     16  C   UNL     1      -3.971 -11.569  13.924  1.00  0.00     0.177 C 
BRANCH  12  17
ATOM     17  O   UNL     1      -6.340  -9.751  16.055  1.00  0.00    -0.385 OA
ATOM     18  H   UNL     1      -5.912  -8.914  15.751  1.00  0.00     0.211 HD
ENDBRANCH  12  17
BRANCH  14  19
ATOM     19  O   UNL     1      -5.024 -12.655  15.821  1.00  0.00    -0.387 OA
ATOM     20  H   UNL     1      -5.528 -13.208  15.164  1.00  0.00     0.211 HD
ENDBRANCH  14  19
BRANCH  15  21
ATOM     21  C   UNL     1      -2.624  -9.597  13.015  1.00  0.00     0.191 C 
BRANCH  21  22
ATOM     22  O   UNL     1      -2.599  -8.620  12.007  1.00  0.00    -0.394 OA
ATOM     23  H   UNL     1      -3.403  -8.804  11.446  1.00  0.00     0.210 HD
ENDBRANCH  21  22
ENDBRANCH  15  21
BRANCH  16  24
ATOM     24  O   UNL     1      -4.354 -12.703  13.186  1.00  0.00    -0.387 OA
ATOM     25  H   UNL     1      -4.298 -13.509  13.751  1.00  0.00     0.211 HD
ENDBRANCH  16  24
ENDBRANCH  10  11
ENDBRANCH   4  10
BRANCH   6  26
ATOM     26  O   UNL     1      -7.577  -5.973  16.273  1.00  0.00    -0.346 OA
BRANCH  26  27
ATOM     27  C   UNL     1      -7.595  -4.706  16.926  1.00  0.00     0.130 C 
ATOM     28  C   UNL     1      -6.505  -3.774  16.362  1.00  0.00     0.033 C 
ATOM     29  C   UNL     1      -7.348  -4.959  18.472  1.00  0.00     0.020 C 
ATOM     30  C   UNL     1      -5.130  -4.421  16.460  1.00  0.00     0.010 C 
ATOM     31  C   UNL     1      -5.840  -5.439  18.702  1.00  0.00     0.006 C 
ATOM     32  C   UNL     1      -8.304  -6.118  18.895  1.00  0.00     0.017 C 
ATOM     33  C   UNL     1      -4.692  -4.660  17.940  1.00  0.00    -0.022 C 
ATOM     34  C   UNL     1      -5.436  -5.717  20.174  1.00  0.00     0.005 C 
ATOM     35  C   UNL     1      -4.335  -3.298  18.573  1.00  0.00     0.012 C 
ATOM     36  C   UNL     1      -3.456  -5.638  17.947  1.00  0.00     0.024 C 
ATOM     37  C   UNL     1      -4.100  -6.504  20.336  1.00  0.00     0.008 C 
ATOM     38  C   UNL     1      -2.911  -6.130  19.350  1.00  0.00    -0.017 C 
ATOM     39  C   UNL     1      -2.314  -5.296  17.009  1.00  0.00    -0.024 C 
ATOM     40  C   UNL     1      -2.107  -4.958  20.037  1.00  0.00     0.013 C 
ATOM     41  C   UNL     1      -1.960  -7.408  19.032  1.00  0.00     0.009 C 
ATOM     42  C   UNL     1      -1.212  -6.055  16.942  1.00  0.00     0.005 C 
ATOM     43  C   UNL     1      -0.756  -6.952  18.091  1.00  0.00     0.096 C 
ATOM     44  C   UNL     1      -1.324  -8.059  20.324  1.00  0.00     0.043 C 
ATOM     45  C   UNL     1      -2.817  -8.542  18.317  1.00  0.00     0.015 C 
ATOM     46  C   UNL     1       0.026  -8.220  17.636  1.00  0.00     0.037 C 
ATOM     47  O   UNL     1       0.168  -6.179  18.857  1.00  0.00    -0.369 OA
ATOM     48  C   UNL     1      -0.078  -8.980  20.037  1.00  0.00     0.124 C 
ATOM     49  C   UNL     1       0.851  -8.445  18.884  1.00  0.00     0.026 C 
ATOM     50  C   UNL     1       0.856  -8.052  16.332  1.00  0.00     0.014 C 
ATOM     51  C   UNL     1       1.256  -7.007  19.197  1.00  0.00     0.171 C 
ATOM     52  C   UNL     1       2.083  -9.383  18.679  1.00  0.00     0.013 C 
ATOM     53  C   UNL     1       1.859  -9.200  16.118  1.00  0.00    -0.035 C 
ATOM     54  C   UNL     1       2.817  -9.238  17.335  1.00  0.00     0.007 C 
ATOM     55  C   UNL     1       1.134 -10.568  15.941  1.00  0.00     0.011 C 
ATOM     56  C   UNL     1       2.664  -8.929  14.837  1.00  0.00     0.011 C 
BRANCH  29  57
ATOM     57  C   UNL     1      -7.807  -3.767  19.384  1.00  0.00     0.165 C 
BRANCH  57  58
ATOM     58  O   UNL     1      -8.989  -3.160  18.963  1.00  0.00    -0.396 OA
ATOM     59  H   UNL     1      -9.640  -3.890  18.791  1.00  0.00     0.210 HD
ENDBRANCH  57  58
ENDBRANCH  29  57
BRANCH  48  60
ATOM     60  O   UNL     1      -0.496 -10.293  19.756  1.00  0.00    -0.392 OA
ATOM     61  H   UNL     1      -0.229 -10.482  18.815  1.00  0.00     0.210 HD
ENDBRANCH  48  60
ENDBRANCH  26  27
ENDBRANCH   6  26
BRANCH   5  62
ATOM     62  O   UNL     1      -5.474  -7.115  15.060  1.00  0.00    -0.385 OA
ATOM     63  H   UNL     1      -4.940  -7.823  14.591  1.00  0.00     0.211 HD
ENDBRANCH   5  62
TORSDOF 14
ENDMDL
MODEL 9
REMARK VINA RESULT:    -8.956      2.321     11.207
REMARK INTER + INTRA:         -15.881
REMARK INTER:                 -14.812
REMARK INTRA:                  -1.070
REMARK UNBOUND:                -1.689
REMARK SMILES C[C@@H]1O[C@@H](O[C@@H]2CC[C@@]3(C)[C@@H](CC[C@]4(C)[C@@H]3C=C[C@]35OC[C@@]6(CCC(C)(C)C[C@@H]63)[C@H](O)C[C@]54C)[C@@]2(C)CO)[C@@H](O)[C@@H](O[C@H]2O[C@@H](CO)[C@H](O)[C@H](O)[C@H]2O)[C@@H]1O
REMARK SMILES IDX 1 1 2 2 54 3 41 4 39 5 4 6 3 7 55 8 42 10 43 11 52 12 44 13
REMARK SMILES IDX 50 14 45 15 48 16 53 17 51 19 46 21 47 22 49 24 5 26 6 27
REMARK SMILES IDX 7 28 35 29 8 30 11 31 36 32 9 33 12 34 10 35 16 36 13 37
REMARK SMILES IDX 14 38 17 39 15 40 33 41 18 42 19 43 32 44 34 45 29 46 20 47
REMARK SMILES IDX 30 48 22 49 28 50 21 51 23 52 25 53 24 54 26 55 27 56 37 57
REMARK SMILES IDX 38 58 31 60 40 62
REMARK H PARENT 55 9 53 18 51 20 47 23 49 25 38 59 31 61 40 63
REMARK Flexibility Score: inf
ROOT
ATOM      1  C   UNL     1     -12.142  -5.047  14.941  1.00  0.00     0.041 C 
ATOM      2  C   UNL     1     -10.910  -5.389  14.109  1.00  0.00     0.150 C 
ATOM      3  C   UNL     1     -10.545  -4.202  13.198  1.00  0.00     0.175 C 
ATOM      4  C   UNL     1      -9.293  -4.574  12.388  1.00  0.00     0.186 C 
ATOM      5  C   UNL     1      -8.136  -4.735  13.405  1.00  0.00     0.202 C 
ATOM      6  C   UNL     1      -8.531  -5.467  14.726  1.00  0.00     0.282 C 
ATOM      7  O   UNL     1      -9.891  -5.782  15.017  1.00  0.00    -0.344 OA
ENDROOT
BRANCH   3   8
ATOM      8  O   UNL     1     -10.354  -3.045  13.978  1.00  0.00    -0.388 OA
ATOM      9  H   UNL     1      -9.589  -3.229  14.585  1.00  0.00     0.211 HD
ENDBRANCH   3   8
BRANCH   4  10
ATOM     10  O   UNL     1      -9.623  -5.731  11.616  1.00  0.00    -0.341 OA
BRANCH  10  11
ATOM     11  C   UNL     1     -10.849  -5.693  10.898  1.00  0.00     0.282 C 
ATOM     12  C   UNL     1     -11.605  -7.046  10.838  1.00  0.00     0.202 C 
ATOM     13  O   UNL     1     -10.557  -5.294   9.570  1.00  0.00    -0.341 OA
ATOM     14  C   UNL     1     -12.662  -7.023   9.704  1.00  0.00     0.179 C 
ATOM     15  C   UNL     1     -11.716  -4.734   8.969  1.00  0.00     0.178 C 
ATOM     16  C   UNL     1     -12.994  -5.619   9.158  1.00  0.00     0.177 C 
BRANCH  12  17
ATOM     17  O   UNL     1     -10.682  -8.083  10.590  1.00  0.00    -0.385 OA
ATOM     18  H   UNL     1      -9.785  -7.668  10.564  1.00  0.00     0.211 HD
ENDBRANCH  12  17
BRANCH  14  19
ATOM     19  O   UNL     1     -13.823  -7.666  10.163  1.00  0.00    -0.387 OA
ATOM     20  H   UNL     1     -14.144  -7.151  10.953  1.00  0.00     0.211 HD
ENDBRANCH  14  19
BRANCH  15  21
ATOM     21  C   UNL     1     -11.426  -4.496   7.483  1.00  0.00     0.191 C 
BRANCH  21  22
ATOM     22  O   UNL     1     -11.409  -3.116   7.221  1.00  0.00    -0.394 OA
ATOM     23  H   UNL     1     -12.286  -2.923   6.785  1.00  0.00     0.210 HD
ENDBRANCH  21  22
ENDBRANCH  15  21
BRANCH  16  24
ATOM     24  O   UNL     1     -13.955  -4.959   9.943  1.00  0.00    -0.387 OA
ATOM     25  H   UNL     1     -13.512  -4.355  10.586  1.00  0.00     0.211 HD
ENDBRANCH  16  24
ENDBRANCH  10  11
ENDBRANCH   4  10
BRANCH   6  26
ATOM     26  O   UNL     1      -7.654  -6.514  15.113  1.00  0.00    -0.346 OA
BRANCH  26  27
ATOM     27  C   UNL     1      -8.040  -7.335  16.212  1.00  0.00     0.130 C 
ATOM     28  C   UNL     1      -7.046  -7.202  17.382  1.00  0.00     0.033 C 
ATOM     29  C   UNL     1      -8.080  -8.836  15.700  1.00  0.00     0.020 C 
ATOM     30  C   UNL     1      -5.626  -7.523  16.931  1.00  0.00     0.010 C 
ATOM     31  C   UNL     1      -6.593  -9.342  15.405  1.00  0.00     0.006 C 
ATOM     32  C   UNL     1      -8.875  -8.830  14.356  1.00  0.00     0.017 C 
ATOM     33  C   UNL     1      -5.473  -9.009  16.473  1.00  0.00    -0.022 C 
ATOM     34  C   UNL     1      -6.462 -10.805  14.906  1.00  0.00     0.005 C 
ATOM     35  C   UNL     1      -5.512  -9.915  17.722  1.00  0.00     0.012 C 
ATOM     36  C   UNL     1      -4.108  -9.158  15.699  1.00  0.00     0.024 C 
ATOM     37  C   UNL     1      -5.070 -11.156  14.301  1.00  0.00     0.008 C 
ATOM     38  C   UNL     1      -3.789 -10.554  15.025  1.00  0.00    -0.017 C 
ATOM     39  C   UNL     1      -2.878  -8.586  16.377  1.00  0.00    -0.024 C 
ATOM     40  C   UNL     1      -3.375 -11.590  16.143  1.00  0.00     0.013 C 
ATOM     41  C   UNL     1      -2.575 -10.276  13.983  1.00  0.00     0.009 C 
ATOM     42  C   UNL     1      -1.666  -8.666  15.810  1.00  0.00     0.005 C 
ATOM     43  C   UNL     1      -1.305  -9.735  14.780  1.00  0.00     0.096 C 
ATOM     44  C   UNL     1      -2.115 -11.563  13.190  1.00  0.00     0.043 C 
ATOM     45  C   UNL     1      -3.040  -9.208  12.899  1.00  0.00     0.015 C 
ATOM     46  C   UNL     1      -0.225  -9.286  13.750  1.00  0.00     0.037 C 
ATOM     47  O   UNL     1      -0.719 -10.811  15.513  1.00  0.00    -0.369 OA
ATOM     48  C   UNL     1      -0.689 -11.442  12.529  1.00  0.00     0.124 C 
ATOM     49  C   UNL     1       0.346 -10.644  13.406  1.00  0.00     0.026 C 
ATOM     50  C   UNL     1       0.815  -8.262  14.286  1.00  0.00     0.014 C 
ATOM     51  C   UNL     1       0.406 -11.267  14.798  1.00  0.00     0.171 C 
ATOM     52  C   UNL     1       1.744 -10.595  12.711  1.00  0.00     0.013 C 
ATOM     53  C   UNL     1       2.033  -8.117  13.356  1.00  0.00    -0.035 C 
ATOM     54  C   UNL     1       2.705  -9.506  13.219  1.00  0.00     0.007 C 
ATOM     55  C   UNL     1       1.625  -7.558  11.960  1.00  0.00     0.011 C 
ATOM     56  C   UNL     1       3.025  -7.125  13.984  1.00  0.00     0.011 C 
BRANCH  29  57
ATOM     57  C   UNL     1      -8.932  -9.787  16.614  1.00  0.00     0.165 C 
BRANCH  57  58
ATOM     58  O   UNL     1     -10.177  -9.268  16.961  1.00  0.00    -0.396 OA
ATOM     59  H   UNL     1     -10.570  -9.889  17.630  1.00  0.00     0.210 HD
ENDBRANCH  57  58
ENDBRANCH  29  57
BRANCH  48  60
ATOM     60  O   UNL     1      -0.792 -10.866  11.251  1.00  0.00    -0.392 OA
ATOM     61  H   UNL     1      -1.153 -11.572  10.648  1.00  0.00     0.210 HD
ENDBRANCH  48  60
ENDBRANCH  26  27
ENDBRANCH   6  26
BRANCH   5  62
ATOM     62  O   UNL     1      -6.946  -5.251  12.854  1.00  0.00    -0.385 OA
ATOM     63  H   UNL     1      -6.786  -4.753  11.997  1.00  0.00     0.211 HD
ENDBRANCH   5  62
TORSDOF 14
ENDMDL
