MODEL 1
REMARK VINA RESULT:    -6.123      0.000      0.000
REMARK INTER + INTRA:          -7.311
REMARK INTER:                  -7.018
REMARK INTRA:                  -0.293
REMARK UNBOUND:                -0.293
REMARK SMILES O=C1C[C@@H](c2ccc(O)cc2)Oc2cc(O)cc(O)c21
REMARK SMILES IDX 3 1 4 2 12 3 13 4 14 5 15 6 17 7 18 8 20 9 2 10 1 11 5 12
REMARK SMILES IDX 6 13 11 14 7 15 10 16 8 17 9 18 19 20 16 22
REMARK H PARENT 9 19 19 21 16 23
REMARK Flexibility Score: inf
ROOT
ATOM      1  C   UNL     1       0.743  54.873 -12.721  1.00  0.00     0.131 C 
ATOM      2  C   UNL     1       1.338  54.960 -11.309  1.00  0.00     0.211 C 
ATOM      3  O   UNL     1       1.378  53.661 -10.714  1.00  0.00    -0.484 OA
ATOM      4  C   UNL     1       1.812  52.534 -11.421  1.00  0.00     0.138 A 
ATOM      5  C   UNL     1       2.098  51.364 -10.712  1.00  0.00     0.093 A 
ATOM      6  C   UNL     1       2.530  50.222 -11.385  1.00  0.00     0.123 A 
ATOM      7  C   UNL     1       2.705  50.256 -12.768  1.00  0.00     0.093 A 
ATOM      8  C   UNL     1       2.449  51.427 -13.497  1.00  0.00     0.133 A 
ATOM      9  C   UNL     1       1.939  52.572 -12.827  1.00  0.00     0.102 A 
ATOM     10  C   UNL     1       1.429  53.796 -13.515  1.00  0.00     0.174 C 
ATOM     11  O   UNL     1       1.470  53.918 -14.767  1.00  0.00    -0.294 OA
ENDROOT
BRANCH   2  12
ATOM     12  C   UNL     1       0.551  55.926 -10.454  1.00  0.00    -0.007 A 
ATOM     13  C   UNL     1       1.004  57.242 -10.223  1.00  0.00     0.011 A 
ATOM     14  C   UNL     1      -0.626  55.481  -9.818  1.00  0.00     0.011 A 
ATOM     15  C   UNL     1       0.268  58.108  -9.406  1.00  0.00     0.046 A 
ATOM     16  C   UNL     1      -1.352  56.343  -8.993  1.00  0.00     0.046 A 
ATOM     17  C   UNL     1      -0.908  57.662  -8.786  1.00  0.00     0.115 A 
BRANCH  17  18
ATOM     18  O   UNL     1      -1.626  58.532  -7.970  1.00  0.00    -0.508 OA
ATOM     19  H   UNL     1      -2.466  58.999  -8.304  1.00  0.00     0.293 HD
ENDBRANCH  17  18
ENDBRANCH   2  12
BRANCH   8  20
ATOM     20  O   UNL     1       2.730  51.399 -14.865  1.00  0.00    -0.507 OA
ATOM     21  H   UNL     1       3.570  51.770 -15.278  1.00  0.00     0.293 HD
ENDBRANCH   8  20
BRANCH   6  22
ATOM     22  O   UNL     1       2.807  49.045 -10.685  1.00  0.00    -0.508 OA
ATOM     23  H   UNL     1       3.720  48.602 -10.727  1.00  0.00     0.293 HD
ENDBRANCH   6  22
TORSDOF 4
ENDMDL
MODEL 2
REMARK VINA RESULT:    -6.011      9.279     14.172
REMARK INTER + INTRA:          -7.182
REMARK INTER:                  -6.874
REMARK INTRA:                  -0.308
REMARK UNBOUND:                -0.293
REMARK SMILES O=C1C[C@@H](c2ccc(O)cc2)Oc2cc(O)cc(O)c21
REMARK SMILES IDX 3 1 4 2 12 3 13 4 14 5 15 6 17 7 18 8 20 9 2 10 1 11 5 12
REMARK SMILES IDX 6 13 11 14 7 15 10 16 8 17 9 18 19 20 16 22
REMARK H PARENT 9 19 19 21 16 23
REMARK Flexibility Score: inf
ROOT
ATOM      1  C   UNL     1      -6.719  63.114 -12.200  1.00  0.00     0.131 C 
ATOM      2  C   UNL     1      -7.272  62.466 -10.924  1.00  0.00     0.211 C 
ATOM      3  O   UNL     1      -7.546  63.470  -9.944  1.00  0.00    -0.484 OA
ATOM      4  C   UNL     1      -8.191  64.669 -10.271  1.00  0.00     0.138 A 
ATOM      5  C   UNL     1      -8.681  65.472  -9.239  1.00  0.00     0.093 A 
ATOM      6  C   UNL     1      -9.326  66.674  -9.529  1.00  0.00     0.123 A 
ATOM      7  C   UNL     1      -9.507  67.061 -10.856  1.00  0.00     0.093 A 
ATOM      8  C   UNL     1      -9.046  66.258 -11.909  1.00  0.00     0.133 A 
ATOM      9  C   UNL     1      -8.324  65.068 -11.620  1.00  0.00     0.102 A 
ATOM     10  C   UNL     1      -7.603  64.249 -12.638  1.00  0.00     0.174 C 
ATOM     11  O   UNL     1      -7.633  64.536 -13.863  1.00  0.00    -0.294 OA
ENDROOT
BRANCH   2  12
ATOM     12  C   UNL     1      -6.309  61.432 -10.387  1.00  0.00    -0.007 A 
ATOM     13  C   UNL     1      -5.893  61.444  -9.039  1.00  0.00     0.011 A 
ATOM     14  C   UNL     1      -5.764  60.476 -11.268  1.00  0.00     0.011 A 
ATOM     15  C   UNL     1      -4.980  60.489  -8.575  1.00  0.00     0.046 A 
ATOM     16  C   UNL     1      -4.844  59.532 -10.805  1.00  0.00     0.046 A 
ATOM     17  C   UNL     1      -4.451  59.534  -9.454  1.00  0.00     0.115 A 
BRANCH  17  18
ATOM     18  O   UNL     1      -3.539  58.595  -8.980  1.00  0.00    -0.508 OA
ATOM     19  H   UNL     1      -3.561  58.276  -8.014  1.00  0.00     0.293 HD
ENDBRANCH  17  18
ENDBRANCH   2  12
BRANCH   8  20
ATOM     20  O   UNL     1      -9.341  66.680 -13.207  1.00  0.00    -0.507 OA
ATOM     21  H   UNL     1      -9.438  66.061 -13.996  1.00  0.00     0.293 HD
ENDBRANCH   8  20
BRANCH   6  22
ATOM     22  O   UNL     1      -9.809  67.488  -8.501  1.00  0.00    -0.508 OA
ATOM     23  H   UNL     1      -9.304  67.600  -7.628  1.00  0.00     0.293 HD
ENDBRANCH   6  22
TORSDOF 4
ENDMDL
MODEL 3
REMARK VINA RESULT:    -5.714      6.082     11.779
REMARK INTER + INTRA:          -6.842
REMARK INTER:                  -6.530
REMARK INTRA:                  -0.312
REMARK UNBOUND:                -0.293
REMARK SMILES O=C1C[C@@H](c2ccc(O)cc2)Oc2cc(O)cc(O)c21
REMARK SMILES IDX 3 1 4 2 12 3 13 4 14 5 15 6 17 7 18 8 20 9 2 10 1 11 5 12
REMARK SMILES IDX 6 13 11 14 7 15 10 16 8 17 9 18 19 20 16 22
REMARK H PARENT 9 19 19 21 16 23
REMARK Flexibility Score: inf
ROOT
ATOM      1  C   UNL     1      -3.552  61.713  -6.789  1.00  0.00     0.131 C 
ATOM      2  C   UNL     1      -3.293  61.392  -8.267  1.00  0.00     0.211 C 
ATOM      3  O   UNL     1      -4.531  61.136  -8.936  1.00  0.00    -0.484 OA
ATOM      4  C   UNL     1      -5.659  61.941  -8.741  1.00  0.00     0.138 A 
ATOM      5  C   UNL     1      -6.734  61.817  -9.625  1.00  0.00     0.093 A 
ATOM      6  C   UNL     1      -7.875  62.601  -9.458  1.00  0.00     0.123 A 
ATOM      7  C   UNL     1      -7.931  63.533  -8.422  1.00  0.00     0.093 A 
ATOM      8  C   UNL     1      -6.854  63.692  -7.538  1.00  0.00     0.133 A 
ATOM      9  C   UNL     1      -5.718  62.846  -7.658  1.00  0.00     0.102 A 
ATOM     10  C   UNL     1      -4.612  62.772  -6.658  1.00  0.00     0.174 C 
ATOM     11  O   UNL     1      -4.584  63.514  -5.643  1.00  0.00    -0.294 OA
ENDROOT
BRANCH   2  12
ATOM     12  C   UNL     1      -2.349  60.220  -8.404  1.00  0.00    -0.007 A 
ATOM     13  C   UNL     1      -2.634  59.143  -9.270  1.00  0.00     0.011 A 
ATOM     14  C   UNL     1      -1.194  60.169  -7.598  1.00  0.00     0.011 A 
ATOM     15  C   UNL     1      -1.753  58.058  -9.359  1.00  0.00     0.046 A 
ATOM     16  C   UNL     1      -0.323  59.079  -7.680  1.00  0.00     0.046 A 
ATOM     17  C   UNL     1      -0.600  58.020  -8.563  1.00  0.00     0.115 A 
BRANCH  17  18
ATOM     18  O   UNL     1       0.263  56.931  -8.657  1.00  0.00    -0.508 OA
ATOM     19  H   UNL     1       0.120  56.201  -9.352  1.00  0.00     0.293 HD
ENDBRANCH  17  18
ENDBRANCH   2  12
BRANCH   8  20
ATOM     20  O   UNL     1      -6.960  64.704  -6.582  1.00  0.00    -0.507 OA
ATOM     21  H   UNL     1      -6.448  64.719  -5.715  1.00  0.00     0.293 HD
ENDBRANCH   8  20
BRANCH   6  22
ATOM     22  O   UNL     1      -8.959  62.475 -10.331  1.00  0.00    -0.508 OA
ATOM     23  H   UNL     1      -8.978  62.950 -11.228  1.00  0.00     0.293 HD
ENDBRANCH   6  22
TORSDOF 4
ENDMDL
MODEL 4
REMARK VINA RESULT:    -5.707      1.629      7.198
REMARK INTER + INTRA:          -6.834
REMARK INTER:                  -6.539
REMARK INTRA:                  -0.295
REMARK UNBOUND:                -0.293
REMARK SMILES O=C1C[C@@H](c2ccc(O)cc2)Oc2cc(O)cc(O)c21
REMARK SMILES IDX 3 1 4 2 12 3 13 4 14 5 15 6 17 7 18 8 20 9 2 10 1 11 5 12
REMARK SMILES IDX 6 13 11 14 7 15 10 16 8 17 9 18 19 20 16 22
REMARK H PARENT 9 19 19 21 16 23
REMARK Flexibility Score: inf
ROOT
ATOM      1  C   UNL     1      -0.340  54.241 -10.287  1.00  0.00     0.131 C 
ATOM      2  C   UNL     1       1.172  54.246 -10.546  1.00  0.00     0.211 C 
ATOM      3  O   UNL     1       1.586  55.535 -11.006  1.00  0.00    -0.484 OA
ATOM      4  C   UNL     1       1.130  56.717 -10.409  1.00  0.00     0.138 A 
ATOM      5  C   UNL     1       1.782  57.915 -10.710  1.00  0.00     0.093 A 
ATOM      6  C   UNL     1       1.352  59.112 -10.136  1.00  0.00     0.123 A 
ATOM      7  C   UNL     1       0.286  59.106  -9.236  1.00  0.00     0.093 A 
ATOM      8  C   UNL     1      -0.366  57.911  -8.901  1.00  0.00     0.133 A 
ATOM      9  C   UNL     1       0.019  56.699  -9.537  1.00  0.00     0.102 A 
ATOM     10  C   UNL     1      -0.730  55.412  -9.428  1.00  0.00     0.174 C 
ATOM     11  O   UNL     1      -1.750  55.299  -8.700  1.00  0.00    -0.294 OA
ENDROOT
BRANCH   2  12
ATOM     12  C   UNL     1       1.550  53.169 -11.536  1.00  0.00    -0.007 A 
ATOM     13  C   UNL     1       1.974  51.893 -11.109  1.00  0.00     0.011 A 
ATOM     14  C   UNL     1       1.545  53.468 -12.914  1.00  0.00     0.011 A 
ATOM     15  C   UNL     1       2.342  50.921 -12.048  1.00  0.00     0.046 A 
ATOM     16  C   UNL     1       1.925  52.501 -13.848  1.00  0.00     0.046 A 
ATOM     17  C   UNL     1       2.323  51.222 -13.417  1.00  0.00     0.115 A 
BRANCH  17  18
ATOM     18  O   UNL     1       2.699  50.249 -14.339  1.00  0.00    -0.508 OA
ATOM     19  H   UNL     1       3.669  50.140 -14.629  1.00  0.00     0.293 HD
ENDBRANCH  17  18
ENDBRANCH   2  12
BRANCH   8  20
ATOM     20  O   UNL     1      -1.367  57.983  -7.931  1.00  0.00    -0.507 OA
ATOM     21  H   UNL     1      -2.015  57.239  -7.729  1.00  0.00     0.293 HD
ENDBRANCH   8  20
BRANCH   6  22
ATOM     22  O   UNL     1       1.991  60.317 -10.440  1.00  0.00    -0.508 OA
ATOM     23  H   UNL     1       1.553  61.018 -11.029  1.00  0.00     0.293 HD
ENDBRANCH   6  22
TORSDOF 4
ENDMDL
MODEL 5
REMARK VINA RESULT:    -5.633      9.896     12.372
REMARK INTER + INTRA:          -6.750
REMARK INTER:                  -6.466
REMARK INTRA:                  -0.284
REMARK UNBOUND:                -0.293
REMARK SMILES O=C1C[C@@H](c2ccc(O)cc2)Oc2cc(O)cc(O)c21
REMARK SMILES IDX 3 1 4 2 12 3 13 4 14 5 15 6 17 7 18 8 20 9 2 10 1 11 5 12
REMARK SMILES IDX 6 13 11 14 7 15 10 16 8 17 9 18 19 20 16 22
REMARK H PARENT 9 19 19 21 16 23
REMARK Flexibility Score: inf
ROOT
ATOM      1  C   UNL     1      -2.899  62.582  -6.798  1.00  0.00     0.131 C 
ATOM      2  C   UNL     1      -3.976  63.321  -5.992  1.00  0.00     0.211 C 
ATOM      3  O   UNL     1      -5.064  63.683  -6.846  1.00  0.00    -0.484 OA
ATOM      4  C   UNL     1      -5.598  62.792  -7.784  1.00  0.00     0.138 A 
ATOM      5  C   UNL     1      -6.825  63.097  -8.378  1.00  0.00     0.093 A 
ATOM      6  C   UNL     1      -7.385  62.233  -9.319  1.00  0.00     0.123 A 
ATOM      7  C   UNL     1      -6.731  61.046  -9.646  1.00  0.00     0.093 A 
ATOM      8  C   UNL     1      -5.511  60.707  -9.043  1.00  0.00     0.133 A 
ATOM      9  C   UNL     1      -4.899  61.617  -8.139  1.00  0.00     0.102 A 
ATOM     10  C   UNL     1      -3.513  61.470  -7.602  1.00  0.00     0.174 C 
ATOM     11  O   UNL     1      -2.796  60.475  -7.880  1.00  0.00    -0.294 OA
ENDROOT
BRANCH   2  12
ATOM     12  C   UNL     1      -3.395  64.537  -5.308  1.00  0.00    -0.007 A 
ATOM     13  C   UNL     1      -3.879  64.980  -4.059  1.00  0.00     0.011 A 
ATOM     14  C   UNL     1      -2.395  65.284  -5.964  1.00  0.00     0.011 A 
ATOM     15  C   UNL     1      -3.339  66.125  -3.459  1.00  0.00     0.046 A 
ATOM     16  C   UNL     1      -1.866  66.432  -5.369  1.00  0.00     0.046 A 
ATOM     17  C   UNL     1      -2.336  66.855  -4.112  1.00  0.00     0.115 A 
BRANCH  17  18
ATOM     18  O   UNL     1      -1.814  67.995  -3.507  1.00  0.00    -0.508 OA
ATOM     19  H   UNL     1      -0.844  68.036  -3.202  1.00  0.00     0.293 HD
ENDBRANCH  17  18
ENDBRANCH   2  12
BRANCH   8  20
ATOM     20  O   UNL     1      -4.966  59.463  -9.366  1.00  0.00    -0.507 OA
ATOM     21  H   UNL     1      -5.434  58.583  -9.217  1.00  0.00     0.293 HD
ENDBRANCH   8  20
BRANCH   6  22
ATOM     22  O   UNL     1      -8.607  62.537  -9.926  1.00  0.00    -0.508 OA
ATOM     23  H   UNL     1      -8.657  62.880 -10.880  1.00  0.00     0.293 HD
ENDBRANCH   6  22
TORSDOF 4
ENDMDL
MODEL 6
REMARK VINA RESULT:    -5.612     10.384     12.484
REMARK INTER + INTRA:          -6.725
REMARK INTER:                  -6.421
REMARK INTRA:                  -0.304
REMARK UNBOUND:                -0.293
REMARK SMILES O=C1C[C@@H](c2ccc(O)cc2)Oc2cc(O)cc(O)c21
REMARK SMILES IDX 3 1 4 2 12 3 13 4 14 5 15 6 17 7 18 8 20 9 2 10 1 11 5 12
REMARK SMILES IDX 6 13 11 14 7 15 10 16 8 17 9 18 19 20 16 22
REMARK H PARENT 9 19 19 21 16 23
REMARK Flexibility Score: inf
ROOT
ATOM      1  C   UNL     1      -4.632  63.993  -5.640  1.00  0.00     0.131 C 
ATOM      2  C   UNL     1      -4.566  62.757  -6.547  1.00  0.00     0.211 C 
ATOM      3  O   UNL     1      -3.316  62.723  -7.239  1.00  0.00    -0.484 OA
ATOM      4  C   UNL     1      -2.103  62.992  -6.593  1.00  0.00     0.138 A 
ATOM      5  C   UNL     1      -0.910  62.667  -7.243  1.00  0.00     0.093 A 
ATOM      6  C   UNL     1       0.316  62.925  -6.630  1.00  0.00     0.123 A 
ATOM      7  C   UNL     1       0.350  63.481  -5.352  1.00  0.00     0.093 A 
ATOM      8  C   UNL     1      -0.836  63.792  -4.671  1.00  0.00     0.133 A 
ATOM      9  C   UNL     1      -2.087  63.600  -5.319  1.00  0.00     0.102 A 
ATOM     10  C   UNL     1      -3.396  64.087  -4.789  1.00  0.00     0.174 C 
ATOM     11  O   UNL     1      -3.486  64.667  -3.676  1.00  0.00    -0.294 OA
ENDROOT
BRANCH   2  12
ATOM     12  C   UNL     1      -5.725  62.741  -7.517  1.00  0.00    -0.007 A 
ATOM     13  C   UNL     1      -5.700  61.943  -8.680  1.00  0.00     0.011 A 
ATOM     14  C   UNL     1      -6.825  63.592  -7.289  1.00  0.00     0.011 A 
ATOM     15  C   UNL     1      -6.777  61.967  -9.575  1.00  0.00     0.046 A 
ATOM     16  C   UNL     1      -7.893  63.623  -8.189  1.00  0.00     0.046 A 
ATOM     17  C   UNL     1      -7.872  62.807  -9.336  1.00  0.00     0.115 A 
BRANCH  17  18
ATOM     18  O   UNL     1      -8.933  62.826 -10.238  1.00  0.00    -0.508 OA
ATOM     19  H   UNL     1      -8.827  63.215 -11.172  1.00  0.00     0.293 HD
ENDBRANCH  17  18
ENDBRANCH   2  12
BRANCH   8  20
ATOM     20  O   UNL     1      -0.714  64.269  -3.365  1.00  0.00    -0.507 OA
ATOM     21  H   UNL     1      -0.525  65.229  -3.128  1.00  0.00     0.293 HD
ENDBRANCH   8  20
BRANCH   6  22
ATOM     22  O   UNL     1       1.515  62.613  -7.278  1.00  0.00    -0.508 OA
ATOM     23  H   UNL     1       2.029  63.308  -7.810  1.00  0.00     0.293 HD
ENDBRANCH   6  22
TORSDOF 4
ENDMDL
MODEL 7
REMARK VINA RESULT:    -5.565     14.267     17.905
REMARK INTER + INTRA:          -6.671
REMARK INTER:                  -6.387
REMARK INTRA:                  -0.284
REMARK UNBOUND:                -0.293
REMARK SMILES O=C1C[C@@H](c2ccc(O)cc2)Oc2cc(O)cc(O)c21
REMARK SMILES IDX 3 1 4 2 12 3 13 4 14 5 15 6 17 7 18 8 20 9 2 10 1 11 5 12
REMARK SMILES IDX 6 13 11 14 7 15 10 16 8 17 9 18 19 20 16 22
REMARK H PARENT 9 19 19 21 16 23
REMARK Flexibility Score: inf
ROOT
ATOM      1  C   UNL     1      -0.883  67.240   0.700  1.00  0.00     0.131 C 
ATOM      2  C   UNL     1      -0.700  65.885   0.004  1.00  0.00     0.211 C 
ATOM      3  O   UNL     1       0.213  65.072   0.746  1.00  0.00    -0.484 OA
ATOM      4  C   UNL     1       0.146  64.966   2.140  1.00  0.00     0.138 A 
ATOM      5  C   UNL     1       0.868  63.950   2.772  1.00  0.00     0.093 A 
ATOM      6  C   UNL     1       0.828  63.817   4.159  1.00  0.00     0.123 A 
ATOM      7  C   UNL     1       0.040  64.683   4.916  1.00  0.00     0.093 A 
ATOM      8  C   UNL     1      -0.713  65.694   4.301  1.00  0.00     0.133 A 
ATOM      9  C   UNL     1      -0.619  65.881   2.895  1.00  0.00     0.102 A 
ATOM     10  C   UNL     1      -1.197  67.045   2.158  1.00  0.00     0.174 C 
ATOM     11  O   UNL     1      -1.871  67.932   2.742  1.00  0.00    -0.294 OA
ENDROOT
BRANCH   2  12
ATOM     12  C   UNL     1      -0.228  66.072  -1.419  1.00  0.00    -0.007 A 
ATOM     13  C   UNL     1      -0.607  65.179  -2.443  1.00  0.00     0.011 A 
ATOM     14  C   UNL     1       0.665  67.121  -1.716  1.00  0.00     0.011 A 
ATOM     15  C   UNL     1      -0.134  65.361  -3.749  1.00  0.00     0.046 A 
ATOM     16  C   UNL     1       1.145  67.294  -3.016  1.00  0.00     0.046 A 
ATOM     17  C   UNL     1       0.744  66.415  -4.039  1.00  0.00     0.115 A 
BRANCH  17  18
ATOM     18  O   UNL     1       1.212  66.580  -5.340  1.00  0.00    -0.508 OA
ATOM     19  H   UNL     1       0.712  66.189  -6.136  1.00  0.00     0.293 HD
ENDBRANCH  17  18
ENDBRANCH   2  12
BRANCH   8  20
ATOM     20  O   UNL     1      -1.538  66.464   5.124  1.00  0.00    -0.507 OA
ATOM     21  H   UNL     1      -1.784  66.217   6.069  1.00  0.00     0.293 HD
ENDBRANCH   8  20
BRANCH   6  22
ATOM     22  O   UNL     1       1.556  62.810   4.799  1.00  0.00    -0.508 OA
ATOM     23  H   UNL     1       1.182  61.873   4.914  1.00  0.00     0.293 HD
ENDBRANCH   6  22
TORSDOF 4
ENDMDL
MODEL 8
REMARK VINA RESULT:    -5.459     14.009     16.319
REMARK INTER + INTRA:          -6.550
REMARK INTER:                  -6.267
REMARK INTRA:                  -0.283
REMARK UNBOUND:                -0.293
REMARK SMILES O=C1C[C@@H](c2ccc(O)cc2)Oc2cc(O)cc(O)c21
REMARK SMILES IDX 3 1 4 2 12 3 13 4 14 5 15 6 17 7 18 8 20 9 2 10 1 11 5 12
REMARK SMILES IDX 6 13 11 14 7 15 10 16 8 17 9 18 19 20 16 22
REMARK H PARENT 9 19 19 21 16 23
REMARK Flexibility Score: inf
ROOT
ATOM      1  C   UNL     1      -1.983  62.645  -0.885  1.00  0.00     0.131 C 
ATOM      2  C   UNL     1      -1.586  63.434   0.370  1.00  0.00     0.211 C 
ATOM      3  O   UNL     1      -2.756  63.851   1.077  1.00  0.00    -0.484 OA
ATOM      4  C   UNL     1      -3.838  62.989   1.293  1.00  0.00     0.138 A 
ATOM      5  C   UNL     1      -4.814  63.356   2.224  1.00  0.00     0.093 A 
ATOM      6  C   UNL     1      -5.907  62.523   2.461  1.00  0.00     0.123 A 
ATOM      7  C   UNL     1      -6.010  61.306   1.789  1.00  0.00     0.093 A 
ATOM      8  C   UNL     1      -5.029  60.906   0.870  1.00  0.00     0.133 A 
ATOM      9  C   UNL     1      -3.951  61.782   0.569  1.00  0.00     0.102 A 
ATOM     10  C   UNL     1      -2.971  61.567  -0.537  1.00  0.00     0.174 C 
ATOM     11  O   UNL     1      -3.004  60.538  -1.261  1.00  0.00    -0.294 OA
ENDROOT
BRANCH   2  12
ATOM     12  C   UNL     1      -0.719  64.618   0.007  1.00  0.00    -0.007 A 
ATOM     13  C   UNL     1       0.030  65.308   0.984  1.00  0.00     0.011 A 
ATOM     14  C   UNL     1      -0.714  65.085  -1.323  1.00  0.00     0.011 A 
ATOM     15  C   UNL     1       0.804  66.418   0.624  1.00  0.00     0.046 A 
ATOM     16  C   UNL     1       0.051  66.200  -1.677  1.00  0.00     0.046 A 
ATOM     17  C   UNL     1       0.815  66.869  -0.703  1.00  0.00     0.115 A 
BRANCH  17  18
ATOM     18  O   UNL     1       1.584  67.978  -1.044  1.00  0.00    -0.508 OA
ATOM     19  H   UNL     1       2.198  68.425  -0.367  1.00  0.00     0.293 HD
ENDBRANCH  17  18
ENDBRANCH   2  12
BRANCH   8  20
ATOM     20  O   UNL     1      -5.168  59.637   0.303  1.00  0.00    -0.507 OA
ATOM     21  H   UNL     1      -5.837  59.407  -0.413  1.00  0.00     0.293 HD
ENDBRANCH   8  20
BRANCH   6  22
ATOM     22  O   UNL     1      -6.892  62.888   3.382  1.00  0.00    -0.508 OA
ATOM     23  H   UNL     1      -7.279  62.220   4.042  1.00  0.00     0.293 HD
ENDBRANCH   6  22
TORSDOF 4
ENDMDL
MODEL 9
REMARK VINA RESULT:    -5.389      8.453     11.857
REMARK INTER + INTRA:          -6.470
REMARK INTER:                  -6.166
REMARK INTRA:                  -0.304
REMARK UNBOUND:                -0.293
REMARK SMILES O=C1C[C@@H](c2ccc(O)cc2)Oc2cc(O)cc(O)c21
REMARK SMILES IDX 3 1 4 2 12 3 13 4 14 5 15 6 17 7 18 8 20 9 2 10 1 11 5 12
REMARK SMILES IDX 6 13 11 14 7 15 10 16 8 17 9 18 19 20 16 22
REMARK H PARENT 9 19 19 21 16 23
REMARK Flexibility Score: inf
ROOT
ATOM      1  C   UNL     1      -5.629  63.629  -6.115  1.00  0.00     0.131 C 
ATOM      2  C   UNL     1      -4.105  63.778  -6.211  1.00  0.00     0.211 C 
ATOM      3  O   UNL     1      -3.514  62.533  -6.591  1.00  0.00    -0.484 OA
ATOM      4  C   UNL     1      -4.051  61.739  -7.612  1.00  0.00     0.138 A 
ATOM      5  C   UNL     1      -3.279  60.693  -8.126  1.00  0.00     0.093 A 
ATOM      6  C   UNL     1      -3.784  59.880  -9.140  1.00  0.00     0.123 A 
ATOM      7  C   UNL     1      -5.052  60.131  -9.664  1.00  0.00     0.093 A 
ATOM      8  C   UNL     1      -5.833  61.191  -9.181  1.00  0.00     0.133 A 
ATOM      9  C   UNL     1      -5.355  61.977  -8.097  1.00  0.00     0.102 A 
ATOM     10  C   UNL     1      -6.174  62.985  -7.360  1.00  0.00     0.174 C 
ATOM     11  O   UNL     1      -7.357  63.251  -7.694  1.00  0.00    -0.294 OA
ENDROOT
BRANCH   2  12
ATOM     12  C   UNL     1      -3.531  64.274  -4.904  1.00  0.00    -0.007 A 
ATOM     13  C   UNL     1      -3.794  65.577  -4.432  1.00  0.00     0.011 A 
ATOM     14  C   UNL     1      -2.658  63.441  -4.174  1.00  0.00     0.011 A 
ATOM     15  C   UNL     1      -3.228  66.020  -3.230  1.00  0.00     0.046 A 
ATOM     16  C   UNL     1      -2.085  63.889  -2.982  1.00  0.00     0.046 A 
ATOM     17  C   UNL     1      -2.371  65.181  -2.504  1.00  0.00     0.115 A 
BRANCH  17  18
ATOM     18  O   UNL     1      -1.810  65.638  -1.314  1.00  0.00    -0.508 OA
ATOM     19  H   UNL     1      -1.708  65.025  -0.508  1.00  0.00     0.293 HD
ENDBRANCH  17  18
ENDBRANCH   2  12
BRANCH   8  20
ATOM     20  O   UNL     1      -7.055  61.422  -9.816  1.00  0.00    -0.507 OA
ATOM     21  H   UNL     1      -7.899  60.906  -9.627  1.00  0.00     0.293 HD
ENDBRANCH   8  20
BRANCH   6  22
ATOM     22  O   UNL     1      -3.024  58.825  -9.652  1.00  0.00    -0.508 OA
ATOM     23  H   UNL     1      -2.359  58.319  -9.075  1.00  0.00     0.293 HD
ENDBRANCH   6  22
TORSDOF 4
ENDMDL
