MODEL 1
REMARK VINA RESULT:    -3.969      0.000      0.000
REMARK INTER + INTRA:          -5.275
REMARK INTER:                  -5.129
REMARK INTRA:                  -0.146
REMARK UNBOUND:                -0.146
REMARK SMILES CCCCCCC(=O)[O-]
REMARK SMILES IDX 5 1 6 2 7 3 8 4 9 5 4 6 3 7 2 8 1 9
REMARK H PARENT
REMARK Flexibility Score: inf
ROOT
ATOM      1  C   UNL     1       2.762  -0.924  -1.802  1.00  0.00     0.006 C 
ENDROOT
BRANCH   1   2
ATOM      2  C   UNL     1       4.062  -0.640  -2.560  1.00  0.00     0.053 C 
BRANCH   2   3
ATOM      3  C   UNL     1       5.196  -0.452  -1.601  1.00  0.00     0.041 C 
ATOM      4  O   UNL     1       6.381  -0.656  -1.974  1.00  0.00    -0.550 OA
ATOM      5  O   UNL     1       4.941  -0.100  -0.283  1.00  0.00    -0.550 OA
ENDBRANCH   2   3
ENDBRANCH   1   2
BRANCH   1   6
ATOM      6  C   UNL     1       1.794  -1.749  -2.659  1.00  0.00     0.000 C 
BRANCH   6   7
ATOM      7  C   UNL     1       0.408  -1.829  -2.002  1.00  0.00    -0.000 C 
BRANCH   7   8
ATOM      8  C   UNL     1       0.314  -2.950  -0.957  1.00  0.00    -0.003 C 
ATOM      9  C   UNL     1       0.654  -4.325  -1.532  1.00  0.00     0.004 C 
ENDBRANCH   7   8
ENDBRANCH   6   7
ENDBRANCH   1   6
TORSDOF 5
ENDMDL
MODEL 2
REMARK VINA RESULT:    -3.932      0.128      1.085
REMARK INTER + INTRA:          -5.227
REMARK INTER:                  -5.085
REMARK INTRA:                  -0.142
REMARK UNBOUND:                -0.146
REMARK SMILES CCCCCCC(=O)[O-]
REMARK SMILES IDX 5 1 6 2 7 3 8 4 9 5 4 6 3 7 2 8 1 9
REMARK H PARENT
REMARK Flexibility Score: inf
ROOT
ATOM      1  C   UNL     1       2.651  -0.753  -1.954  1.00  0.00     0.006 C 
ENDROOT
BRANCH   1   2
ATOM      2  C   UNL     1       4.013  -0.650  -2.646  1.00  0.00     0.053 C 
BRANCH   2   3
ATOM      3  C   UNL     1       5.105  -0.506  -1.633  1.00  0.00     0.041 C 
ATOM      4  O   UNL     1       4.830  -0.195  -0.444  1.00  0.00    -0.550 OA
ATOM      5  O   UNL     1       6.432  -0.666  -2.012  1.00  0.00    -0.550 OA
ENDBRANCH   2   3
ENDBRANCH   1   2
BRANCH   1   6
ATOM      6  C   UNL     1       1.749  -1.771  -2.663  1.00  0.00     0.000 C 
BRANCH   6   7
ATOM      7  C   UNL     1       0.380  -1.867  -1.975  1.00  0.00    -0.000 C 
BRANCH   7   8
ATOM      8  C   UNL     1       0.317  -3.000  -0.940  1.00  0.00    -0.003 C 
ATOM      9  C   UNL     1       0.652  -4.366  -1.539  1.00  0.00     0.004 C 
ENDBRANCH   7   8
ENDBRANCH   6   7
ENDBRANCH   1   6
TORSDOF 5
ENDMDL
MODEL 3
REMARK VINA RESULT:    -3.912      3.068      4.816
REMARK INTER + INTRA:          -5.201
REMARK INTER:                  -4.993
REMARK INTRA:                  -0.208
REMARK UNBOUND:                -0.146
REMARK SMILES CCCCCCC(=O)[O-]
REMARK SMILES IDX 5 1 6 2 7 3 8 4 9 5 4 6 3 7 2 8 1 9
REMARK H PARENT
REMARK Flexibility Score: inf
ROOT
ATOM      1  C   UNL     1       1.744  -2.088  -3.151  1.00  0.00     0.006 C 
ENDROOT
BRANCH   1   2
ATOM      2  C   UNL     1       0.684  -1.662  -2.132  1.00  0.00     0.053 C 
BRANCH   2   3
ATOM      3  C   UNL     1       0.236  -2.837  -1.320  1.00  0.00     0.041 C 
ATOM      4  O   UNL     1      -0.551  -2.675  -0.351  1.00  0.00    -0.550 OA
ATOM      5  O   UNL     1       0.728  -4.105  -1.602  1.00  0.00    -0.550 OA
ENDBRANCH   2   3
ENDBRANCH   1   2
BRANCH   1   6
ATOM      6  C   UNL     1       3.050  -1.312  -2.944  1.00  0.00     0.000 C 
BRANCH   6   7
ATOM      7  C   UNL     1       2.988  -0.462  -1.666  1.00  0.00    -0.000 C 
BRANCH   7   8
ATOM      8  C   UNL     1       4.353  -0.339  -0.972  1.00  0.00    -0.003 C 
ATOM      9  C   UNL     1       5.523  -0.619  -1.915  1.00  0.00     0.004 C 
ENDBRANCH   7   8
ENDBRANCH   6   7
ENDBRANCH   1   6
TORSDOF 5
ENDMDL
MODEL 4
REMARK VINA RESULT:    -3.885      0.817      1.085
REMARK INTER + INTRA:          -5.167
REMARK INTER:                  -4.978
REMARK INTRA:                  -0.189
REMARK UNBOUND:                -0.146
REMARK SMILES CCCCCCC(=O)[O-]
REMARK SMILES IDX 5 1 6 2 7 3 8 4 9 5 4 6 3 7 2 8 1 9
REMARK H PARENT
REMARK Flexibility Score: inf
ROOT
ATOM      1  C   UNL     1       3.470  -0.820  -3.014  1.00  0.00     0.006 C 
ENDROOT
BRANCH   1   2
ATOM      2  C   UNL     1       3.562  -0.556  -1.508  1.00  0.00     0.053 C 
BRANCH   2   3
ATOM      3  C   UNL     1       4.985  -0.330  -1.102  1.00  0.00     0.041 C 
ATOM      4  O   UNL     1       5.924  -0.654  -1.876  1.00  0.00    -0.550 OA
ATOM      5  O   UNL     1       5.276   0.193   0.151  1.00  0.00    -0.550 OA
ENDBRANCH   2   3
ENDBRANCH   1   2
BRANCH   1   6
ATOM      6  C   UNL     1       2.310  -1.769  -3.336  1.00  0.00     0.000 C 
BRANCH   6   7
ATOM      7  C   UNL     1       1.172  -1.613  -2.317  1.00  0.00    -0.000 C 
BRANCH   7   8
ATOM      8  C   UNL     1       0.731  -2.956  -1.715  1.00  0.00    -0.003 C 
ATOM      9  C   UNL     1      -0.178  -2.788  -0.498  1.00  0.00     0.004 C 
ENDBRANCH   7   8
ENDBRANCH   6   7
ENDBRANCH   1   6
TORSDOF 5
ENDMDL
MODEL 5
REMARK VINA RESULT:    -3.883     10.562     11.951
REMARK INTER + INTRA:          -5.164
REMARK INTER:                  -4.959
REMARK INTRA:                  -0.205
REMARK UNBOUND:                -0.146
REMARK SMILES CCCCCCC(=O)[O-]
REMARK SMILES IDX 5 1 6 2 7 3 8 4 9 5 4 6 3 7 2 8 1 9
REMARK H PARENT
REMARK Flexibility Score: inf
ROOT
ATOM      1  C   UNL     1      -5.511  -1.179   5.770  1.00  0.00     0.006 C 
ENDROOT
BRANCH   1   2
ATOM      2  C   UNL     1      -5.890  -0.789   7.202  1.00  0.00     0.053 C 
BRANCH   2   3
ATOM      3  C   UNL     1      -5.941   0.700   7.343  1.00  0.00     0.041 C 
ATOM      4  O   UNL     1      -7.046   1.284   7.503  1.00  0.00    -0.550 OA
ATOM      5  O   UNL     1      -4.775   1.448   7.249  1.00  0.00    -0.550 OA
ENDBRANCH   2   3
ENDBRANCH   1   2
BRANCH   1   6
ATOM      6  C   UNL     1      -5.878  -2.640   5.481  1.00  0.00     0.000 C 
BRANCH   6   7
ATOM      7  C   UNL     1      -4.672  -3.410   4.923  1.00  0.00    -0.000 C 
BRANCH   7   8
ATOM      8  C   UNL     1      -3.337  -2.911   5.497  1.00  0.00    -0.003 C 
ATOM      9  C   UNL     1      -2.698  -3.910   6.462  1.00  0.00     0.004 C 
ENDBRANCH   7   8
ENDBRANCH   6   7
ENDBRANCH   1   6
TORSDOF 5
ENDMDL
MODEL 6
REMARK VINA RESULT:    -3.745     10.922     12.039
REMARK INTER + INTRA:          -4.985
REMARK INTER:                  -4.775
REMARK INTRA:                  -0.210
REMARK UNBOUND:                -0.146
REMARK SMILES CCCCCCC(=O)[O-]
REMARK SMILES IDX 5 1 6 2 7 3 8 4 9 5 4 6 3 7 2 8 1 9
REMARK H PARENT
REMARK Flexibility Score: inf
ROOT
ATOM      1  C   UNL     1      -5.239  -1.181   5.856  1.00  0.00     0.006 C 
ENDROOT
BRANCH   1   2
ATOM      2  C   UNL     1      -5.456  -0.711   7.298  1.00  0.00     0.053 C 
BRANCH   2   3
ATOM      3  C   UNL     1      -5.697   0.766   7.335  1.00  0.00     0.041 C 
ATOM      4  O   UNL     1      -4.734   1.568   7.221  1.00  0.00    -0.550 OA
ATOM      5  O   UNL     1      -6.979   1.256   7.547  1.00  0.00    -0.550 OA
ENDBRANCH   2   3
ENDBRANCH   1   2
BRANCH   1   6
ATOM      6  C   UNL     1      -4.253  -2.355   5.803  1.00  0.00     0.000 C 
BRANCH   6   7
ATOM      7  C   UNL     1      -4.770  -3.466   4.877  1.00  0.00    -0.000 C 
BRANCH   7   8
ATOM      8  C   UNL     1      -5.472  -4.596   5.646  1.00  0.00    -0.003 C 
ATOM      9  C   UNL     1      -6.991  -4.428   5.688  1.00  0.00     0.004 C 
ENDBRANCH   7   8
ENDBRANCH   6   7
ENDBRANCH   1   6
TORSDOF 5
ENDMDL
MODEL 7
REMARK VINA RESULT:    -3.682      3.057      4.962
REMARK INTER + INTRA:          -4.904
REMARK INTER:                  -4.743
REMARK INTRA:                  -0.162
REMARK UNBOUND:                -0.146
REMARK SMILES CCCCCCC(=O)[O-]
REMARK SMILES IDX 5 1 6 2 7 3 8 4 9 5 4 6 3 7 2 8 1 9
REMARK H PARENT
REMARK Flexibility Score: inf
ROOT
ATOM      1  C   UNL     1       2.551  -0.910  -1.982  1.00  0.00     0.006 C 
ENDROOT
BRANCH   1   2
ATOM      2  C   UNL     1       1.517  -1.771  -2.713  1.00  0.00     0.053 C 
BRANCH   2   3
ATOM      3  C   UNL     1       0.292  -1.945  -1.871  1.00  0.00     0.041 C 
ATOM      4  O   UNL     1      -0.649  -1.112  -1.942  1.00  0.00    -0.550 OA
ATOM      5  O   UNL     1       0.210  -3.001  -0.972  1.00  0.00    -0.550 OA
ENDBRANCH   2   3
ENDBRANCH   1   2
BRANCH   1   6
ATOM      6  C   UNL     1       3.805  -0.706  -2.842  1.00  0.00     0.000 C 
BRANCH   6   7
ATOM      7  C   UNL     1       5.045  -0.488  -1.963  1.00  0.00    -0.000 C 
BRANCH   7   8
ATOM      8  C   UNL     1       4.699  -0.378  -0.471  1.00  0.00    -0.003 C 
ATOM      9  C   UNL     1       5.690   0.492   0.303  1.00  0.00     0.004 C 
ENDBRANCH   7   8
ENDBRANCH   6   7
ENDBRANCH   1   6
TORSDOF 5
ENDMDL
MODEL 8
REMARK VINA RESULT:    -3.361     10.162     11.308
REMARK INTER + INTRA:          -4.489
REMARK INTER:                  -4.324
REMARK INTRA:                  -0.165
REMARK UNBOUND:                -0.146
REMARK SMILES CCCCCCC(=O)[O-]
REMARK SMILES IDX 5 1 6 2 7 3 8 4 9 5 4 6 3 7 2 8 1 9
REMARK H PARENT
REMARK Flexibility Score: inf
ROOT
ATOM      1  C   UNL     1      -4.523  -3.479   4.788  1.00  0.00     0.006 C 
ENDROOT
BRANCH   1   2
ATOM      2  C   UNL     1      -3.292  -3.422   5.697  1.00  0.00     0.053 C 
BRANCH   2   3
ATOM      3  C   UNL     1      -2.921  -4.795   6.163  1.00  0.00     0.041 C 
ATOM      4  O   UNL     1      -2.364  -5.603   5.374  1.00  0.00    -0.550 OA
ATOM      5  O   UNL     1      -3.235  -5.200   7.453  1.00  0.00    -0.550 OA
ENDBRANCH   2   3
ENDBRANCH   1   2
BRANCH   1   6
ATOM      6  C   UNL     1      -5.759  -2.913   5.498  1.00  0.00     0.000 C 
BRANCH   6   7
ATOM      7  C   UNL     1      -5.759  -1.377   5.461  1.00  0.00    -0.000 C 
BRANCH   7   8
ATOM      8  C   UNL     1      -6.315  -0.756   6.751  1.00  0.00    -0.003 C 
ATOM      9  C   UNL     1      -5.616   0.550   7.128  1.00  0.00     0.004 C 
ENDBRANCH   7   8
ENDBRANCH   6   7
ENDBRANCH   1   6
TORSDOF 5
ENDMDL
MODEL 9
REMARK VINA RESULT:    -3.294      9.668     10.527
REMARK INTER + INTRA:          -4.402
REMARK INTER:                  -4.127
REMARK INTRA:                  -0.275
REMARK UNBOUND:                -0.146
REMARK SMILES CCCCCCC(=O)[O-]
REMARK SMILES IDX 5 1 6 2 7 3 8 4 9 5 4 6 3 7 2 8 1 9
REMARK H PARENT
REMARK Flexibility Score: inf
ROOT
ATOM      1  C   UNL     1      -3.685  -4.445   5.504  1.00  0.00     0.006 C 
ENDROOT
BRANCH   1   2
ATOM      2  C   UNL     1      -3.201  -3.710   6.757  1.00  0.00     0.053 C 
BRANCH   2   3
ATOM      3  C   UNL     1      -1.928  -2.975   6.474  1.00  0.00     0.041 C 
ATOM      4  O   UNL     1      -1.347  -3.118   5.366  1.00  0.00    -0.550 OA
ATOM      5  O   UNL     1      -1.357  -2.171   7.451  1.00  0.00    -0.550 OA
ENDBRANCH   2   3
ENDBRANCH   1   2
BRANCH   1   6
ATOM      6  C   UNL     1      -4.736  -3.619   4.752  1.00  0.00     0.000 C 
BRANCH   6   7
ATOM      7  C   UNL     1      -6.066  -3.590   5.519  1.00  0.00    -0.000 C 
BRANCH   7   8
ATOM      8  C   UNL     1      -6.591  -2.163   5.737  1.00  0.00    -0.003 C 
ATOM      9  C   UNL     1      -5.491  -1.106   5.634  1.00  0.00     0.004 C 
ENDBRANCH   7   8
ENDBRANCH   6   7
ENDBRANCH   1   6
TORSDOF 5
ENDMDL
