MODEL 1
REMARK VINA RESULT:    -4.596      0.000      0.000
REMARK INTER + INTRA:          -5.695
REMARK INTER:                  -5.536
REMARK INTRA:                  -0.159
REMARK UNBOUND:                -0.159
REMARK SMILES [NH3+][C@H](Cc1cnc[nH]1)C(=O)[O-]
REMARK SMILES IDX 3 1 2 2 1 3 9 7 10 8 11 9 4 10 5 11 8 12 6 13 7 14
REMARK H PARENT 1 4 1 5 1 6 8 15
REMARK Flexibility Score: inf
ROOT
ATOM      1  C   UNL     1     -18.721  -8.455  43.733  1.00  0.00     0.127 C 
ENDROOT
BRANCH   1   2
ATOM      2  C   UNL     1     -17.652  -7.708  42.911  1.00  0.00     0.233 C 
BRANCH   2   3
ATOM      3  N   UNL     1     -16.678  -7.067  43.800  1.00  0.00    -0.350 N 
ATOM      4  H   UNL     1     -17.159  -6.606  44.607  1.00  0.00     0.345 HD
ATOM      5  H   UNL     1     -16.005  -7.781  44.164  1.00  0.00     0.345 HD
ATOM      6  H   UNL     1     -16.134  -6.347  43.271  1.00  0.00     0.345 HD
ENDBRANCH   2   3
BRANCH   2   7
ATOM      7  C   UNL     1     -16.950  -8.645  41.963  1.00  0.00     0.099 C 
ATOM      8  O   UNL     1     -16.974  -9.887  42.166  1.00  0.00    -0.544 OA
ATOM      9  O   UNL     1     -16.258  -8.144  40.866  1.00  0.00    -0.544 OA
ENDBRANCH   2   7
ENDBRANCH   1   2
BRANCH   1  10
ATOM     10  C   UNL     1     -20.110  -8.066  43.317  1.00  0.00     0.041 A 
ATOM     11  C   UNL     1     -20.938  -8.763  42.468  1.00  0.00     0.134 A 
ATOM     12  N   UNL     1     -20.716  -6.920  43.664  1.00  0.00    -0.348 N 
ATOM     13  N   UNL     1     -22.075  -8.063  42.287  1.00  0.00    -0.245 NA
ATOM     14  C   UNL     1     -21.903  -6.948  43.031  1.00  0.00     0.196 A 
ATOM     15  H   UNL     1     -20.345  -6.163  44.280  1.00  0.00     0.167 HD
ENDBRANCH   1  10
TORSDOF 4
ENDMDL
MODEL 2
REMARK VINA RESULT:    -4.594      4.637      5.379
REMARK INTER + INTRA:          -5.693
REMARK INTER:                  -5.541
REMARK INTRA:                  -0.152
REMARK UNBOUND:                -0.159
REMARK SMILES [NH3+][C@H](Cc1cnc[nH]1)C(=O)[O-]
REMARK SMILES IDX 3 1 2 2 1 3 9 7 10 8 11 9 4 10 5 11 8 12 6 13 7 14
REMARK H PARENT 1 4 1 5 1 6 8 15
REMARK Flexibility Score: inf
ROOT
ATOM      1  C   UNL     1     -17.326 -11.359  42.688  1.00  0.00     0.127 C 
ENDROOT
BRANCH   1   2
ATOM      2  C   UNL     1     -16.089 -10.883  43.475  1.00  0.00     0.233 C 
BRANCH   2   3
ATOM      3  N   UNL     1     -14.976 -10.606  42.562  1.00  0.00    -0.350 N 
ATOM      4  H   UNL     1     -15.243  -9.874  41.863  1.00  0.00     0.345 HD
ATOM      5  H   UNL     1     -14.145 -10.276  43.105  1.00  0.00     0.345 HD
ATOM      6  H   UNL     1     -14.707 -11.480  42.054  1.00  0.00     0.345 HD
ENDBRANCH   2   3
BRANCH   2   7
ATOM      7  C   UNL     1     -16.409  -9.656  44.289  1.00  0.00     0.099 C 
ATOM      8  O   UNL     1     -17.462  -9.005  44.066  1.00  0.00    -0.544 OA
ATOM      9  O   UNL     1     -15.535  -9.227  45.283  1.00  0.00    -0.544 OA
ENDBRANCH   2   7
ENDBRANCH   1   2
BRANCH   1  10
ATOM     10  C   UNL     1     -17.773 -12.722  43.130  1.00  0.00     0.041 A 
ATOM     11  C   UNL     1     -18.941 -13.029  43.788  1.00  0.00     0.134 A 
ATOM     12  N   UNL     1     -17.039 -13.839  43.010  1.00  0.00    -0.348 N 
ATOM     13  N   UNL     1     -18.953 -14.347  44.073  1.00  0.00    -0.245 NA
ATOM     14  C   UNL     1     -17.781 -14.805  43.584  1.00  0.00     0.196 A 
ATOM     15  H   UNL     1     -16.095 -13.940  42.577  1.00  0.00     0.167 HD
ENDBRANCH   1  10
TORSDOF 4
ENDMDL
MODEL 3
REMARK VINA RESULT:    -4.594      3.233      4.048
REMARK INTER + INTRA:          -5.693
REMARK INTER:                  -5.451
REMARK INTRA:                  -0.242
REMARK UNBOUND:                -0.159
REMARK SMILES [NH3+][C@H](Cc1cnc[nH]1)C(=O)[O-]
REMARK SMILES IDX 3 1 2 2 1 3 9 7 10 8 11 9 4 10 5 11 8 12 6 13 7 14
REMARK H PARENT 1 4 1 5 1 6 8 15
REMARK Flexibility Score: inf
ROOT
ATOM      1  C   UNL     1     -17.537  -9.804  43.619  1.00  0.00     0.127 C 
ENDROOT
BRANCH   1   2
ATOM      2  C   UNL     1     -17.659  -8.887  42.386  1.00  0.00     0.233 C 
BRANCH   2   3
ATOM      3  N   UNL     1     -18.114  -7.551  42.784  1.00  0.00    -0.350 N 
ATOM      4  H   UNL     1     -19.041  -7.330  42.352  1.00  0.00     0.345 HD
ATOM      5  H   UNL     1     -18.199  -7.500  43.825  1.00  0.00     0.345 HD
ATOM      6  H   UNL     1     -17.417  -6.833  42.479  1.00  0.00     0.345 HD
ENDBRANCH   2   3
BRANCH   2   7
ATOM      7  C   UNL     1     -16.345  -8.789  41.656  1.00  0.00     0.099 C 
ATOM      8  O   UNL     1     -16.145  -7.858  40.833  1.00  0.00    -0.544 OA
ATOM      9  O   UNL     1     -15.348  -9.735  41.874  1.00  0.00    -0.544 OA
ENDBRANCH   2   7
ENDBRANCH   1   2
BRANCH   1  10
ATOM     10  C   UNL     1     -17.916 -11.219  43.295  1.00  0.00     0.041 A 
ATOM     11  C   UNL     1     -19.191 -11.731  43.221  1.00  0.00     0.134 A 
ATOM     12  N   UNL     1     -17.039 -12.217  43.103  1.00  0.00    -0.348 N 
ATOM     13  N   UNL     1     -19.121 -13.054  42.971  1.00  0.00    -0.245 NA
ATOM     14  C   UNL     1     -17.797 -13.312  42.905  1.00  0.00     0.196 A 
ATOM     15  H   UNL     1     -15.997 -12.163  43.117  1.00  0.00     0.167 HD
ENDBRANCH   1  10
TORSDOF 4
ENDMDL
MODEL 4
REMARK VINA RESULT:    -4.566      4.423      5.159
REMARK INTER + INTRA:          -5.659
REMARK INTER:                  -5.501
REMARK INTRA:                  -0.158
REMARK UNBOUND:                -0.159
REMARK SMILES [NH3+][C@H](Cc1cnc[nH]1)C(=O)[O-]
REMARK SMILES IDX 3 1 2 2 1 3 9 7 10 8 11 9 4 10 5 11 8 12 6 13 7 14
REMARK H PARENT 1 4 1 5 1 6 8 15
REMARK Flexibility Score: inf
ROOT
ATOM      1  C   UNL     1     -17.134 -11.309  42.854  1.00  0.00     0.127 C 
ENDROOT
BRANCH   1   2
ATOM      2  C   UNL     1     -17.401 -10.440  44.098  1.00  0.00     0.233 C 
BRANCH   2   3
ATOM      3  N   UNL     1     -16.153 -10.196  44.830  1.00  0.00    -0.350 N 
ATOM      4  H   UNL     1     -15.429  -9.781  44.200  1.00  0.00     0.345 HD
ATOM      5  H   UNL     1     -16.331  -9.543  45.628  1.00  0.00     0.345 HD
ATOM      6  H   UNL     1     -15.790 -11.096  45.221  1.00  0.00     0.345 HD
ENDBRANCH   2   3
BRANCH   2   7
ATOM      7  C   UNL     1     -18.039  -9.130  43.714  1.00  0.00     0.099 C 
ATOM      8  O   UNL     1     -19.254  -9.090  43.388  1.00  0.00    -0.544 OA
ATOM      9  O   UNL     1     -17.287  -7.961  43.702  1.00  0.00    -0.544 OA
ENDBRANCH   2   7
ENDBRANCH   1   2
BRANCH   1  10
ATOM     10  C   UNL     1     -17.678 -12.698  43.024  1.00  0.00     0.041 A 
ATOM     11  C   UNL     1     -19.004 -13.057  43.101  1.00  0.00     0.134 A 
ATOM     12  N   UNL     1     -16.924 -13.794  43.204  1.00  0.00    -0.348 N 
ATOM     13  N   UNL     1     -19.089 -14.385  43.319  1.00  0.00    -0.245 NA
ATOM     14  C   UNL     1     -17.805 -14.798  43.374  1.00  0.00     0.196 A 
ATOM     15  H   UNL     1     -15.883 -13.856  43.221  1.00  0.00     0.167 HD
ENDBRANCH   1  10
TORSDOF 4
ENDMDL
MODEL 5
REMARK VINA RESULT:    -4.533      1.777      2.280
REMARK INTER + INTRA:          -5.619
REMARK INTER:                  -5.442
REMARK INTRA:                  -0.177
REMARK UNBOUND:                -0.159
REMARK SMILES [NH3+][C@H](Cc1cnc[nH]1)C(=O)[O-]
REMARK SMILES IDX 3 1 2 2 1 3 9 7 10 8 11 9 4 10 5 11 8 12 6 13 7 14
REMARK H PARENT 1 4 1 5 1 6 8 15
REMARK Flexibility Score: inf
ROOT
ATOM      1  C   UNL     1     -17.256  -7.878  42.674  1.00  0.00     0.127 C 
ENDROOT
BRANCH   1   2
ATOM      2  C   UNL     1     -16.678  -8.852  41.627  1.00  0.00     0.233 C 
BRANCH   2   3
ATOM      3  N   UNL     1     -16.160  -8.113  40.471  1.00  0.00    -0.350 N 
ATOM      4  H   UNL     1     -15.955  -7.119  40.727  1.00  0.00     0.345 HD
ATOM      5  H   UNL     1     -15.283  -8.566  40.123  1.00  0.00     0.345 HD
ATOM      6  H   UNL     1     -16.863  -8.127  39.697  1.00  0.00     0.345 HD
ENDBRANCH   2   3
BRANCH   2   7
ATOM      7  C   UNL     1     -15.590  -9.703  42.227  1.00  0.00     0.099 C 
ATOM      8  O   UNL     1     -14.399  -9.576  41.838  1.00  0.00    -0.544 OA
ATOM      9  O   UNL     1     -15.894 -10.646  43.203  1.00  0.00    -0.544 OA
ENDBRANCH   2   7
ENDBRANCH   1   2
BRANCH   1  10
ATOM     10  C   UNL     1     -18.670  -8.229  43.033  1.00  0.00     0.041 A 
ATOM     11  C   UNL     1     -19.232  -9.485  43.023  1.00  0.00     0.134 A 
ATOM     12  N   UNL     1     -19.620  -7.335  43.347  1.00  0.00    -0.348 N 
ATOM     13  N   UNL     1     -20.538  -9.387  43.343  1.00  0.00    -0.245 NA
ATOM     14  C   UNL     1     -20.736  -8.064  43.533  1.00  0.00     0.196 A 
ATOM     15  H   UNL     1     -19.522  -6.299  43.419  1.00  0.00     0.167 HD
ENDBRANCH   1  10
TORSDOF 4
ENDMDL
MODEL 6
REMARK VINA RESULT:    -4.521      2.391      2.545
REMARK INTER + INTRA:          -5.605
REMARK INTER:                  -5.348
REMARK INTRA:                  -0.257
REMARK UNBOUND:                -0.159
REMARK SMILES [NH3+][C@H](Cc1cnc[nH]1)C(=O)[O-]
REMARK SMILES IDX 3 1 2 2 1 3 9 7 10 8 11 9 4 10 5 11 8 12 6 13 7 14
REMARK H PARENT 1 4 1 5 1 6 8 15
REMARK Flexibility Score: inf
ROOT
ATOM      1  C   UNL     1     -17.813  -9.580  42.634  1.00  0.00     0.127 C 
ENDROOT
BRANCH   1   2
ATOM      2  C   UNL     1     -17.114 -10.174  43.873  1.00  0.00     0.233 C 
BRANCH   2   3
ATOM      3  N   UNL     1     -16.359 -11.377  43.507  1.00  0.00    -0.350 N 
ATOM      4  H   UNL     1     -16.562 -11.657  42.519  1.00  0.00     0.345 HD
ATOM      5  H   UNL     1     -15.333 -11.198  43.610  1.00  0.00     0.345 HD
ATOM      6  H   UNL     1     -16.617 -12.166  44.144  1.00  0.00     0.345 HD
ENDBRANCH   2   3
BRANCH   2   7
ATOM      7  C   UNL     1     -16.199  -9.163  44.512  1.00  0.00     0.099 C 
ATOM      8  O   UNL     1     -15.282  -9.540  45.287  1.00  0.00    -0.544 OA
ATOM      9  O   UNL     1     -16.369  -7.806  44.261  1.00  0.00    -0.544 OA
ENDBRANCH   2   7
ENDBRANCH   1   2
BRANCH   1  10
ATOM     10  C   UNL     1     -19.153  -8.999  42.980  1.00  0.00     0.041 A 
ATOM     11  C   UNL     1     -20.348  -9.676  43.047  1.00  0.00     0.134 A 
ATOM     12  N   UNL     1     -19.382  -7.695  43.203  1.00  0.00    -0.348 N 
ATOM     13  N   UNL     1     -21.336  -8.800  43.324  1.00  0.00    -0.245 NA
ATOM     14  C   UNL     1     -20.709  -7.607  43.412  1.00  0.00     0.196 A 
ATOM     15  H   UNL     1     -18.689  -6.916  43.202  1.00  0.00     0.167 HD
ENDBRANCH   1  10
TORSDOF 4
ENDMDL
MODEL 7
REMARK VINA RESULT:    -4.516      5.782      6.711
REMARK INTER + INTRA:          -5.599
REMARK INTER:                  -5.490
REMARK INTRA:                  -0.109
REMARK UNBOUND:                -0.159
REMARK SMILES [NH3+][C@H](Cc1cnc[nH]1)C(=O)[O-]
REMARK SMILES IDX 3 1 2 2 1 3 9 7 10 8 11 9 4 10 5 11 8 12 6 13 7 14
REMARK H PARENT 1 4 1 5 1 6 8 15
REMARK Flexibility Score: inf
ROOT
ATOM      1  C   UNL     1     -18.895 -13.644  44.121  1.00  0.00     0.127 C 
ENDROOT
BRANCH   1   2
ATOM      2  C   UNL     1     -18.987 -14.741  43.041  1.00  0.00     0.233 C 
BRANCH   2   3
ATOM      3  N   UNL     1     -17.777 -15.571  43.050  1.00  0.00    -0.350 N 
ATOM      4  H   UNL     1     -17.197 -15.389  42.197  1.00  0.00     0.345 HD
ATOM      5  H   UNL     1     -17.209 -15.362  43.903  1.00  0.00     0.345 HD
ATOM      6  H   UNL     1     -18.041 -16.582  43.073  1.00  0.00     0.345 HD
ENDBRANCH   2   3
BRANCH   2   7
ATOM      7  C   UNL     1     -20.205 -15.601  43.250  1.00  0.00     0.099 C 
ATOM      8  O   UNL     1     -20.755 -16.169  42.270  1.00  0.00    -0.544 OA
ATOM      9  O   UNL     1     -20.740 -15.763  44.524  1.00  0.00    -0.544 OA
ENDBRANCH   2   7
ENDBRANCH   1   2
BRANCH   1  10
ATOM     10  C   UNL     1     -18.295 -12.381  43.576  1.00  0.00     0.041 A 
ATOM     11  C   UNL     1     -18.978 -11.263  43.157  1.00  0.00     0.134 A 
ATOM     12  N   UNL     1     -16.986 -12.198  43.346  1.00  0.00    -0.348 N 
ATOM     13  N   UNL     1     -18.098 -10.364  42.673  1.00  0.00    -0.245 NA
ATOM     14  C   UNL     1     -16.897 -10.968  42.805  1.00  0.00     0.196 A 
ATOM     15  H   UNL     1     -16.205 -12.864  43.532  1.00  0.00     0.167 HD
ENDBRANCH   1  10
TORSDOF 4
ENDMDL
MODEL 8
REMARK VINA RESULT:    -4.501      3.711      4.463
REMARK INTER + INTRA:          -5.580
REMARK INTER:                  -5.403
REMARK INTRA:                  -0.178
REMARK UNBOUND:                -0.159
REMARK SMILES [NH3+][C@H](Cc1cnc[nH]1)C(=O)[O-]
REMARK SMILES IDX 3 1 2 2 1 3 9 7 10 8 11 9 4 10 5 11 8 12 6 13 7 14
REMARK H PARENT 1 4 1 5 1 6 8 15
REMARK Flexibility Score: inf
ROOT
ATOM      1  C   UNL     1     -15.949 -10.435  43.520  1.00  0.00     0.127 C 
ENDROOT
BRANCH   1   2
ATOM      2  C   UNL     1     -16.332  -9.381  44.579  1.00  0.00     0.233 C 
BRANCH   2   3
ATOM      3  N   UNL     1     -15.327  -9.340  45.647  1.00  0.00    -0.350 N 
ATOM      4  H   UNL     1     -15.780  -9.430  46.586  1.00  0.00     0.345 HD
ATOM      5  H   UNL     1     -14.641 -10.119  45.520  1.00  0.00     0.345 HD
ATOM      6  H   UNL     1     -14.804  -8.435  45.607  1.00  0.00     0.345 HD
ENDBRANCH   2   3
BRANCH   2   7
ATOM      7  C   UNL     1     -16.478  -8.018  43.953  1.00  0.00     0.099 C 
ATOM      8  O   UNL     1     -17.385  -7.803  43.108  1.00  0.00    -0.544 OA
ATOM      9  O   UNL     1     -15.603  -6.992  44.294  1.00  0.00    -0.544 OA
ENDBRANCH   2   7
ENDBRANCH   1   2
BRANCH   1  10
ATOM     10  C   UNL     1     -17.043 -11.444  43.326  1.00  0.00     0.041 A 
ATOM     11  C   UNL     1     -18.393 -11.188  43.254  1.00  0.00     0.134 A 
ATOM     12  N   UNL     1     -16.852 -12.771  43.271  1.00  0.00    -0.348 N 
ATOM     13  N   UNL     1     -19.057 -12.356  43.141  1.00  0.00    -0.245 NA
ATOM     14  C   UNL     1     -18.087 -13.295  43.155  1.00  0.00     0.196 A 
ATOM     15  H   UNL     1     -15.948 -13.289  43.321  1.00  0.00     0.167 HD
ENDBRANCH   1  10
TORSDOF 4
ENDMDL
MODEL 9
REMARK VINA RESULT:    -4.496      4.290      4.982
REMARK INTER + INTRA:          -5.574
REMARK INTER:                  -5.326
REMARK INTRA:                  -0.248
REMARK UNBOUND:                -0.159
REMARK SMILES [NH3+][C@H](Cc1cnc[nH]1)C(=O)[O-]
REMARK SMILES IDX 3 1 2 2 1 3 9 7 10 8 11 9 4 10 5 11 8 12 6 13 7 14
REMARK H PARENT 1 4 1 5 1 6 8 15
REMARK Flexibility Score: inf
ROOT
ATOM      1  C   UNL     1     -17.694 -11.877  43.464  1.00  0.00     0.127 C 
ENDROOT
BRANCH   1   2
ATOM      2  C   UNL     1     -18.309 -13.111  42.775  1.00  0.00     0.233 C 
BRANCH   2   3
ATOM      3  N   UNL     1     -17.257 -13.945  42.183  1.00  0.00    -0.350 N 
ATOM      4  H   UNL     1     -16.438 -13.360  41.897  1.00  0.00     0.345 HD
ATOM      5  H   UNL     1     -16.942 -14.663  42.875  1.00  0.00     0.345 HD
ATOM      6  H   UNL     1     -17.630 -14.443  41.343  1.00  0.00     0.345 HD
ENDBRANCH   2   3
BRANCH   2   7
ATOM      7  C   UNL     1     -19.124 -13.922  43.750  1.00  0.00     0.099 C 
ATOM      8  O   UNL     1     -20.368 -13.750  43.831  1.00  0.00    -0.544 OA
ATOM      9  O   UNL     1     -18.506 -14.854  44.576  1.00  0.00    -0.544 OA
ENDBRANCH   2   7
ENDBRANCH   1   2
BRANCH   1  10
ATOM     10  C   UNL     1     -18.596 -10.681  43.364  1.00  0.00     0.041 A 
ATOM     11  C   UNL     1     -18.247  -9.369  43.584  1.00  0.00     0.134 A 
ATOM     12  N   UNL     1     -19.913 -10.741  43.114  1.00  0.00    -0.348 N 
ATOM     13  N   UNL     1     -19.343  -8.595  43.462  1.00  0.00    -0.245 NA
ATOM     14  C   UNL     1     -20.336  -9.464  43.175  1.00  0.00     0.196 A 
ATOM     15  H   UNL     1     -20.490 -11.590  42.926  1.00  0.00     0.167 HD
ENDBRANCH   1  10
TORSDOF 4
ENDMDL
