MODEL 1
REMARK VINA RESULT:    -6.508      0.000      0.000
REMARK INTER + INTRA:         -11.431
REMARK INTER:                 -10.122
REMARK INTRA:                  -1.309
REMARK UNBOUND:                -1.309
REMARK SMILES C[C@]12C[C@]3(O)O[C@H](O1)[C@@]1(COC(=O)c4ccccc4)[C@@H]3C[C@]12O[C@@H]1O[C@H](CO)[C@H](O)[C@@H](O)[C@@H]1O
REMARK SMILES IDX 1 1 2 2 3 3 4 4 20 5 21 6 22 7 9 8 7 9 8 10 6 11 23 12 24 13
REMARK SMILES IDX 33 14 25 15 31 16 26 17 29 18 34 19 32 21 27 23 28 24 30 26
REMARK SMILES IDX 5 28 10 30 11 31 12 32 13 33 14 34 15 35 19 36 16 37 18 38
REMARK SMILES IDX 17 39
REMARK H PARENT 34 20 32 22 28 25 30 27 5 29
REMARK Flexibility Score: inf
ROOT
ATOM      1  C   UNL     1      23.968   2.349  37.625  1.00  0.00     0.046 C 
ATOM      2  C   UNL     1      23.725   1.270  36.570  1.00  0.00     0.104 C 
ATOM      3  C   UNL     1      22.278   1.418  35.966  1.00  0.00     0.104 C 
ATOM      4  C   UNL     1      22.202   0.272  34.896  1.00  0.00     0.175 C 
ATOM      5  C   UNL     1      23.459   0.304  33.971  1.00  0.00     0.070 C 
ATOM      6  C   UNL     1      24.214   1.642  34.022  1.00  0.00     0.050 C 
ATOM      7  C   UNL     1      24.773   1.177  35.383  1.00  0.00     0.115 C 
ATOM      8  C   UNL     1      24.465  -0.265  34.959  1.00  0.00     0.096 C 
ATOM      9  C   UNL     1      23.662  -0.903  36.080  1.00  0.00     0.267 C 
ATOM     10  O   UNL     1      23.753  -0.008  37.176  1.00  0.00    -0.342 OA
ATOM     11  O   UNL     1      22.323  -0.940  35.615  1.00  0.00    -0.320 OA
ENDROOT
BRANCH   7  12
ATOM     12  O   UNL     1      26.159   1.387  35.654  1.00  0.00    -0.339 OA
BRANCH  12  13
ATOM     13  C   UNL     1      26.408   2.658  36.246  1.00  0.00     0.282 C 
ATOM     14  C   UNL     1      27.599   2.583  37.232  1.00  0.00     0.202 C 
ATOM     15  O   UNL     1      26.542   3.686  35.263  1.00  0.00    -0.341 OA
ATOM     16  C   UNL     1      28.937   2.545  36.495  1.00  0.00     0.179 C 
ATOM     17  C   UNL     1      27.804   3.763  34.603  1.00  0.00     0.178 C 
ATOM     18  C   UNL     1      29.006   3.759  35.571  1.00  0.00     0.177 C 
BRANCH  14  19
ATOM     19  O   UNL     1      27.481   1.441  38.040  1.00  0.00    -0.385 OA
ATOM     20  H   UNL     1      27.348   0.665  37.433  1.00  0.00     0.211 HD
ENDBRANCH  14  19
BRANCH  16  21
ATOM     21  O   UNL     1      29.982   2.597  37.432  1.00  0.00    -0.387 OA
ATOM     22  H   UNL     1      29.617   3.025  38.250  1.00  0.00     0.211 HD
ENDBRANCH  16  21
BRANCH  17  23
ATOM     23  C   UNL     1      27.922   2.745  33.450  1.00  0.00     0.191 C 
BRANCH  23  24
ATOM     24  O   UNL     1      28.628   3.307  32.378  1.00  0.00    -0.394 OA
ATOM     25  H   UNL     1      27.996   3.365  31.615  1.00  0.00     0.210 HD
ENDBRANCH  23  24
ENDBRANCH  17  23
BRANCH  18  26
ATOM     26  O   UNL     1      30.213   3.764  34.851  1.00  0.00    -0.387 OA
ATOM     27  H   UNL     1      30.160   4.510  34.198  1.00  0.00     0.211 HD
ENDBRANCH  18  26
ENDBRANCH  12  13
ENDBRANCH   7  12
BRANCH   4  28
ATOM     28  O   UNL     1      21.017   0.313  34.151  1.00  0.00    -0.365 OA
ATOM     29  H   UNL     1      20.384  -0.314  34.588  1.00  0.00     0.214 HD
ENDBRANCH   4  28
BRANCH   8  30
ATOM     30  C   UNL     1      25.605  -1.121  34.370  1.00  0.00     0.249 C 
BRANCH  30  31
ATOM     31  O   UNL     1      26.079  -2.062  35.333  1.00  0.00    -0.461 OA
BRANCH  31  32
ATOM     32  C   UNL     1      27.388  -2.086  35.828  1.00  0.00     0.338 C 
ATOM     33  O   UNL     1      27.751  -1.257  36.706  1.00  0.00    -0.246 OA
BRANCH  32  34
ATOM     34  C   UNL     1      28.341  -3.101  35.327  1.00  0.00     0.060 A 
ATOM     35  C   UNL     1      27.952  -4.028  34.342  1.00  0.00     0.015 A 
ATOM     36  C   UNL     1      29.651  -3.157  35.837  1.00  0.00     0.015 A 
ATOM     37  C   UNL     1      28.857  -4.988  33.877  1.00  0.00     0.001 A 
ATOM     38  C   UNL     1      30.551  -4.118  35.369  1.00  0.00     0.001 A 
ATOM     39  C   UNL     1      30.155  -5.033  34.390  1.00  0.00     0.000 A 
ENDBRANCH  32  34
ENDBRANCH  31  32
ENDBRANCH  30  31
ENDBRANCH   8  30
TORSDOF 12
ENDMDL
MODEL 2
REMARK VINA RESULT:    -6.502      2.010      3.104
REMARK INTER + INTRA:         -11.423
REMARK INTER:                 -10.575
REMARK INTRA:                  -0.848
REMARK UNBOUND:                -1.309
REMARK SMILES C[C@]12C[C@]3(O)O[C@H](O1)[C@@]1(COC(=O)c4ccccc4)[C@@H]3C[C@]12O[C@@H]1O[C@H](CO)[C@H](O)[C@@H](O)[C@@H]1O
REMARK SMILES IDX 1 1 2 2 3 3 4 4 20 5 21 6 22 7 9 8 7 9 8 10 6 11 23 12 24 13
REMARK SMILES IDX 33 14 25 15 31 16 26 17 29 18 34 19 32 21 27 23 28 24 30 26
REMARK SMILES IDX 5 28 10 30 11 31 12 32 13 33 14 34 15 35 19 36 16 37 18 38
REMARK SMILES IDX 17 39
REMARK H PARENT 34 20 32 22 28 25 30 27 5 29
REMARK Flexibility Score: inf
ROOT
ATOM      1  C   UNL     1      21.639   1.953  37.991  1.00  0.00     0.046 C 
ATOM      2  C   UNL     1      22.468   1.188  36.960  1.00  0.00     0.104 C 
ATOM      3  C   UNL     1      21.848   1.367  35.523  1.00  0.00     0.104 C 
ATOM      4  C   UNL     1      22.819   0.557  34.595  1.00  0.00     0.175 C 
ATOM      5  C   UNL     1      24.303   0.952  34.877  1.00  0.00     0.070 C 
ATOM      6  C   UNL     1      24.440   2.286  35.629  1.00  0.00     0.050 C 
ATOM      7  C   UNL     1      24.019   1.517  36.898  1.00  0.00     0.115 C 
ATOM      8  C   UNL     1      24.468   0.225  36.203  1.00  0.00     0.096 C 
ATOM      9  C   UNL     1      23.320  -0.764  36.303  1.00  0.00     0.267 C 
ATOM     10  O   UNL     1      22.406  -0.200  37.228  1.00  0.00    -0.342 OA
ATOM     11  O   UNL     1      22.726  -0.790  35.015  1.00  0.00    -0.320 OA
ENDROOT
BRANCH   7  12
ATOM     12  O   UNL     1      24.731   1.767  38.109  1.00  0.00    -0.339 OA
BRANCH  12  13
ATOM     13  C   UNL     1      24.682   3.137  38.493  1.00  0.00     0.282 C 
ATOM     14  C   UNL     1      24.606   3.275  40.034  1.00  0.00     0.202 C 
ATOM     15  O   UNL     1      25.740   3.894  37.902  1.00  0.00    -0.341 OA
ATOM     16  C   UNL     1      25.965   3.031  40.687  1.00  0.00     0.179 C 
ATOM     17  C   UNL     1      27.018   3.779  38.525  1.00  0.00     0.178 C 
ATOM     18  C   UNL     1      26.976   3.983  40.054  1.00  0.00     0.177 C 
BRANCH  14  19
ATOM     19  O   UNL     1      23.671   2.366  40.551  1.00  0.00    -0.385 OA
ATOM     20  H   UNL     1      24.183   1.619  40.960  1.00  0.00     0.211 HD
ENDBRANCH  14  19
BRANCH  16  21
ATOM     21  O   UNL     1      25.866   3.284  42.066  1.00  0.00    -0.387 OA
ATOM     22  H   UNL     1      26.646   2.847  42.497  1.00  0.00     0.211 HD
ENDBRANCH  16  21
BRANCH  17  23
ATOM     23  C   UNL     1      27.773   2.511  38.079  1.00  0.00     0.191 C 
BRANCH  23  24
ATOM     24  O   UNL     1      29.147   2.771  37.990  1.00  0.00    -0.394 OA
ATOM     25  H   UNL     1      29.282   3.709  38.288  1.00  0.00     0.210 HD
ENDBRANCH  23  24
ENDBRANCH  17  23
BRANCH  18  26
ATOM     26  O   UNL     1      28.253   3.786  40.608  1.00  0.00    -0.387 OA
ATOM     27  H   UNL     1      28.190   4.007  41.574  1.00  0.00     0.211 HD
ENDBRANCH  18  26
ENDBRANCH  12  13
ENDBRANCH   7  12
BRANCH   4  28
ATOM     28  O   UNL     1      22.502   0.695  33.237  1.00  0.00    -0.365 OA
ATOM     29  H   UNL     1      21.945   1.512  33.156  1.00  0.00     0.214 HD
ENDBRANCH   4  28
BRANCH   8  30
ATOM     30  C   UNL     1      25.872  -0.332  36.515  1.00  0.00     0.249 C 
BRANCH  30  31
ATOM     31  O   UNL     1      25.959  -1.710  36.154  1.00  0.00    -0.461 OA
BRANCH  31  32
ATOM     32  C   UNL     1      26.505  -2.172  34.950  1.00  0.00     0.338 C 
ATOM     33  O   UNL     1      25.979  -1.852  33.849  1.00  0.00    -0.246 OA
BRANCH  32  34
ATOM     34  C   UNL     1      27.712  -3.027  34.975  1.00  0.00     0.060 A 
ATOM     35  C   UNL     1      28.782  -2.735  35.842  1.00  0.00     0.015 A 
ATOM     36  C   UNL     1      27.809  -4.142  34.122  1.00  0.00     0.015 A 
ATOM     37  C   UNL     1      29.922  -3.546  35.856  1.00  0.00     0.001 A 
ATOM     38  C   UNL     1      28.952  -4.947  34.139  1.00  0.00     0.001 A 
ATOM     39  C   UNL     1      30.006  -4.650  35.005  1.00  0.00     0.000 A 
ENDBRANCH  32  34
ENDBRANCH  31  32
ENDBRANCH  30  31
ENDBRANCH   8  30
TORSDOF 12
ENDMDL
MODEL 3
REMARK VINA RESULT:    -6.440      2.738      4.352
REMARK INTER + INTRA:         -11.326
REMARK INTER:                 -10.753
REMARK INTRA:                  -0.573
REMARK UNBOUND:                -1.309
REMARK SMILES C[C@]12C[C@]3(O)O[C@H](O1)[C@@]1(COC(=O)c4ccccc4)[C@@H]3C[C@]12O[C@@H]1O[C@H](CO)[C@H](O)[C@@H](O)[C@@H]1O
REMARK SMILES IDX 1 1 2 2 3 3 4 4 20 5 21 6 22 7 9 8 7 9 8 10 6 11 23 12 24 13
REMARK SMILES IDX 33 14 25 15 31 16 26 17 29 18 34 19 32 21 27 23 28 24 30 26
REMARK SMILES IDX 5 28 10 30 11 31 12 32 13 33 14 34 15 35 19 36 16 37 18 38
REMARK SMILES IDX 17 39
REMARK H PARENT 34 20 32 22 28 25 30 27 5 29
REMARK Flexibility Score: inf
ROOT
ATOM      1  C   UNL     1      21.505   1.722  37.657  1.00  0.00     0.046 C 
ATOM      2  C   UNL     1      22.779   1.271  36.944  1.00  0.00     0.104 C 
ATOM      3  C   UNL     1      22.651   1.518  35.394  1.00  0.00     0.104 C 
ATOM      4  C   UNL     1      24.031   1.037  34.825  1.00  0.00     0.175 C 
ATOM      5  C   UNL     1      25.207   1.665  35.637  1.00  0.00     0.070 C 
ATOM      6  C   UNL     1      24.784   2.889  36.465  1.00  0.00     0.050 C 
ATOM      7  C   UNL     1      24.146   1.893  37.455  1.00  0.00     0.115 C 
ATOM      8  C   UNL     1      25.079   0.813  36.890  1.00  0.00     0.096 C 
ATOM      9  C   UNL     1      24.215  -0.380  36.519  1.00  0.00     0.267 C 
ATOM     10  O   UNL     1      22.943  -0.127  37.092  1.00  0.00    -0.342 OA
ATOM     11  O   UNL     1      24.107  -0.347  35.106  1.00  0.00    -0.320 OA
ENDROOT
BRANCH   7  12
ATOM     12  O   UNL     1      24.338   2.110  38.853  1.00  0.00    -0.339 OA
BRANCH  12  13
ATOM     13  C   UNL     1      23.825   3.368  39.280  1.00  0.00     0.282 C 
ATOM     14  C   UNL     1      23.105   3.234  40.645  1.00  0.00     0.202 C 
ATOM     15  O   UNL     1      24.827   4.386  39.259  1.00  0.00    -0.341 OA
ATOM     16  C   UNL     1      24.101   3.128  41.798  1.00  0.00     0.179 C 
ATOM     17  C   UNL     1      25.734   4.398  40.360  1.00  0.00     0.178 C 
ATOM     18  C   UNL     1      25.034   4.336  41.734  1.00  0.00     0.177 C 
BRANCH  14  19
ATOM     19  O   UNL     1      22.277   2.101  40.640  1.00  0.00    -0.385 OA
ATOM     20  H   UNL     1      22.277   1.741  39.713  1.00  0.00     0.211 HD
ENDBRANCH  14  19
BRANCH  16  21
ATOM     21  O   UNL     1      23.400   3.129  43.015  1.00  0.00    -0.387 OA
ATOM     22  H   UNL     1      23.108   2.194  43.182  1.00  0.00     0.211 HD
ENDBRANCH  16  21
BRANCH  17  23
ATOM     23  C   UNL     1      26.874   3.374  40.187  1.00  0.00     0.191 C 
BRANCH  23  24
ATOM     24  O   UNL     1      28.079   3.906  40.666  1.00  0.00    -0.394 OA
ATOM     25  H   UNL     1      28.809   3.471  40.153  1.00  0.00     0.210 HD
ENDBRANCH  23  24
ENDBRANCH  17  23
BRANCH  18  26
ATOM     26  O   UNL     1      25.987   4.278  42.765  1.00  0.00    -0.387 OA
ATOM     27  H   UNL     1      26.565   3.491  42.585  1.00  0.00     0.211 HD
ENDBRANCH  18  26
ENDBRANCH  12  13
ENDBRANCH   7  12
BRANCH   4  28
ATOM     28  O   UNL     1      24.163   1.291  33.453  1.00  0.00    -0.365 OA
ATOM     29  H   UNL     1      24.193   0.408  33.001  1.00  0.00     0.214 HD
ENDBRANCH   4  28
BRANCH   8  30
ATOM     30  C   UNL     1      26.384   0.495  37.647  1.00  0.00     0.249 C 
BRANCH  30  31
ATOM     31  O   UNL     1      27.233  -0.340  36.860  1.00  0.00    -0.461 OA
BRANCH  31  32
ATOM     32  C   UNL     1      27.500  -1.683  37.152  1.00  0.00     0.338 C 
ATOM     33  O   UNL     1      27.382  -2.113  38.332  1.00  0.00    -0.246 OA
BRANCH  32  34
ATOM     34  C   UNL     1      27.907  -2.601  36.066  1.00  0.00     0.060 A 
ATOM     35  C   UNL     1      29.197  -3.163  36.044  1.00  0.00     0.015 A 
ATOM     36  C   UNL     1      27.007  -2.918  35.031  1.00  0.00     0.015 A 
ATOM     37  C   UNL     1      29.575  -4.025  35.010  1.00  0.00     0.001 A 
ATOM     38  C   UNL     1      27.391  -3.780  34.000  1.00  0.00     0.001 A 
ATOM     39  C   UNL     1      28.673  -4.333  33.989  1.00  0.00     0.000 A 
ENDBRANCH  32  34
ENDBRANCH  31  32
ENDBRANCH  30  31
ENDBRANCH   8  30
TORSDOF 12
ENDMDL
MODEL 4
REMARK VINA RESULT:    -6.370      1.356      5.440
REMARK INTER + INTRA:         -11.217
REMARK INTER:                 -10.670
REMARK INTRA:                  -0.547
REMARK UNBOUND:                -1.309
REMARK SMILES C[C@]12C[C@]3(O)O[C@H](O1)[C@@]1(COC(=O)c4ccccc4)[C@@H]3C[C@]12O[C@@H]1O[C@H](CO)[C@H](O)[C@@H](O)[C@@H]1O
REMARK SMILES IDX 1 1 2 2 3 3 4 4 20 5 21 6 22 7 9 8 7 9 8 10 6 11 23 12 24 13
REMARK SMILES IDX 33 14 25 15 31 16 26 17 29 18 34 19 32 21 27 23 28 24 30 26
REMARK SMILES IDX 5 28 10 30 11 31 12 32 13 33 14 34 15 35 19 36 16 37 18 38
REMARK SMILES IDX 17 39
REMARK H PARENT 34 20 32 22 28 25 30 27 5 29
REMARK Flexibility Score: inf
ROOT
ATOM      1  C   UNL     1      26.303   3.362  32.954  1.00  0.00     0.046 C 
ATOM      2  C   UNL     1      27.156   2.868  34.121  1.00  0.00     0.104 C 
ATOM      3  C   UNL     1      27.953   4.067  34.758  1.00  0.00     0.104 C 
ATOM      4  C   UNL     1      28.741   3.405  35.941  1.00  0.00     0.175 C 
ATOM      5  C   UNL     1      27.786   2.531  36.814  1.00  0.00     0.070 C 
ATOM      6  C   UNL     1      26.300   2.861  36.598  1.00  0.00     0.050 C 
ATOM      7  C   UNL     1      26.406   2.077  35.274  1.00  0.00     0.115 C 
ATOM      8  C   UNL     1      27.632   1.361  35.854  1.00  0.00     0.096 C 
ATOM      9  C   UNL     1      28.751   1.485  34.834  1.00  0.00     0.267 C 
ATOM     10  O   UNL     1      28.140   1.967  33.650  1.00  0.00    -0.342 OA
ATOM     11  O   UNL     1      29.626   2.475  35.348  1.00  0.00    -0.320 OA
ENDROOT
BRANCH   7  12
ATOM     12  O   UNL     1      25.352   1.177  34.934  1.00  0.00    -0.339 OA
BRANCH  12  13
ATOM     13  C   UNL     1      24.294   1.196  35.888  1.00  0.00     0.282 C 
ATOM     14  C   UNL     1      22.946   1.538  35.208  1.00  0.00     0.202 C 
ATOM     15  O   UNL     1      24.256  -0.002  36.665  1.00  0.00    -0.341 OA
ATOM     16  C   UNL     1      22.380   0.340  34.447  1.00  0.00     0.179 C 
ATOM     17  C   UNL     1      23.655  -1.135  36.042  1.00  0.00     0.178 C 
ATOM     18  C   UNL     1      22.276  -0.834  35.418  1.00  0.00     0.177 C 
BRANCH  14  19
ATOM     19  O   UNL     1      23.115   2.614  34.322  1.00  0.00    -0.385 OA
ATOM     20  H   UNL     1      23.559   3.344  34.830  1.00  0.00     0.211 HD
ENDBRANCH  14  19
BRANCH  16  21
ATOM     21  O   UNL     1      21.107   0.667  33.952  1.00  0.00    -0.387 OA
ATOM     22  H   UNL     1      21.245   1.231  33.147  1.00  0.00     0.211 HD
ENDBRANCH  16  21
BRANCH  17  23
ATOM     23  C   UNL     1      24.628  -1.866  35.096  1.00  0.00     0.191 C 
BRANCH  23  24
ATOM     24  O   UNL     1      24.195  -3.181  34.876  1.00  0.00    -0.394 OA
ATOM     25  H   UNL     1      23.787  -3.202  33.971  1.00  0.00     0.210 HD
ENDBRANCH  23  24
ENDBRANCH  17  23
BRANCH  18  26
ATOM     26  O   UNL     1      21.777  -1.973  34.762  1.00  0.00    -0.387 OA
ATOM     27  H   UNL     1      21.981  -2.755  35.340  1.00  0.00     0.211 HD
ENDBRANCH  18  26
ENDBRANCH  12  13
ENDBRANCH   7  12
BRANCH   4  28
ATOM     28  O   UNL     1      29.430   4.345  36.719  1.00  0.00    -0.365 OA
ATOM     29  H   UNL     1      30.168   3.858  37.169  1.00  0.00     0.214 HD
ENDBRANCH   4  28
BRANCH   8  30
ATOM     30  C   UNL     1      27.443  -0.032  36.488  1.00  0.00     0.249 C 
BRANCH  30  31
ATOM     31  O   UNL     1      28.129  -1.028  35.731  1.00  0.00    -0.461 OA
BRANCH  31  32
ATOM     32  C   UNL     1      28.280  -2.359  36.139  1.00  0.00     0.338 C 
ATOM     33  O   UNL     1      27.748  -2.759  37.211  1.00  0.00    -0.246 OA
BRANCH  32  34
ATOM     34  C   UNL     1      29.051  -3.299  35.297  1.00  0.00     0.060 A 
ATOM     35  C   UNL     1      28.395  -4.200  34.437  1.00  0.00     0.015 A 
ATOM     36  C   UNL     1      30.458  -3.310  35.353  1.00  0.00     0.015 A 
ATOM     37  C   UNL     1      29.133  -5.089  33.649  1.00  0.00     0.001 A 
ATOM     38  C   UNL     1      31.190  -4.201  34.563  1.00  0.00     0.001 A 
ATOM     39  C   UNL     1      30.528  -5.090  33.712  1.00  0.00     0.000 A 
ENDBRANCH  32  34
ENDBRANCH  31  32
ENDBRANCH  30  31
ENDBRANCH   8  30
TORSDOF 12
ENDMDL
MODEL 5
REMARK VINA RESULT:    -6.301      2.328      4.122
REMARK INTER + INTRA:         -11.110
REMARK INTER:                 -10.543
REMARK INTRA:                  -0.567
REMARK UNBOUND:                -1.309
REMARK SMILES C[C@]12C[C@]3(O)O[C@H](O1)[C@@]1(COC(=O)c4ccccc4)[C@@H]3C[C@]12O[C@@H]1O[C@H](CO)[C@H](O)[C@@H](O)[C@@H]1O
REMARK SMILES IDX 1 1 2 2 3 3 4 4 20 5 21 6 22 7 9 8 7 9 8 10 6 11 23 12 24 13
REMARK SMILES IDX 33 14 25 15 31 16 26 17 29 18 34 19 32 21 27 23 28 24 30 26
REMARK SMILES IDX 5 28 10 30 11 31 12 32 13 33 14 34 15 35 19 36 16 37 18 38
REMARK SMILES IDX 17 39
REMARK H PARENT 34 20 32 22 28 25 30 27 5 29
REMARK Flexibility Score: inf
ROOT
ATOM      1  C   UNL     1      21.384   2.098  36.553  1.00  0.00     0.046 C 
ATOM      2  C   UNL     1      22.561   1.295  36.001  1.00  0.00     0.104 C 
ATOM      3  C   UNL     1      22.779   1.628  34.477  1.00  0.00     0.104 C 
ATOM      4  C   UNL     1      24.022   0.757  34.080  1.00  0.00     0.175 C 
ATOM      5  C   UNL     1      25.179   0.951  35.110  1.00  0.00     0.070 C 
ATOM      6  C   UNL     1      25.015   2.215  35.971  1.00  0.00     0.050 C 
ATOM      7  C   UNL     1      23.946   1.434  36.763  1.00  0.00     0.115 C 
ATOM      8  C   UNL     1      24.586   0.137  36.250  1.00  0.00     0.096 C 
ATOM      9  C   UNL     1      23.475  -0.707  35.651  1.00  0.00     0.267 C 
ATOM     10  O   UNL     1      22.264  -0.088  36.048  1.00  0.00    -0.342 OA
ATOM     11  O   UNL     1      23.624  -0.590  34.245  1.00  0.00    -0.320 OA
ENDROOT
BRANCH   7  12
ATOM     12  O   UNL     1      23.955   1.528  38.187  1.00  0.00    -0.339 OA
BRANCH  12  13
ATOM     13  C   UNL     1      23.561   2.816  38.648  1.00  0.00     0.282 C 
ATOM     14  C   UNL     1      22.775   2.709  39.978  1.00  0.00     0.202 C 
ATOM     15  O   UNL     1      24.666   3.721  38.707  1.00  0.00    -0.341 OA
ATOM     16  C   UNL     1      23.706   2.453  41.162  1.00  0.00     0.179 C 
ATOM     17  C   UNL     1      25.522   3.593  39.840  1.00  0.00     0.178 C 
ATOM     18  C   UNL     1      24.763   3.555  41.183  1.00  0.00     0.177 C 
BRANCH  14  19
ATOM     19  O   UNL     1      21.833   1.672  39.895  1.00  0.00    -0.385 OA
ATOM     20  H   UNL     1      21.175   1.930  39.196  1.00  0.00     0.211 HD
ENDBRANCH  14  19
BRANCH  16  21
ATOM     21  O   UNL     1      22.959   2.483  42.351  1.00  0.00    -0.387 OA
ATOM     22  H   UNL     1      22.200   1.854  42.232  1.00  0.00     0.211 HD
ENDBRANCH  16  21
BRANCH  17  23
ATOM     23  C   UNL     1      26.553   2.460  39.667  1.00  0.00     0.191 C 
BRANCH  23  24
ATOM     24  O   UNL     1      27.791   2.846  40.200  1.00  0.00    -0.394 OA
ATOM     25  H   UNL     1      28.384   2.051  40.156  1.00  0.00     0.210 HD
ENDBRANCH  23  24
ENDBRANCH  17  23
BRANCH  18  26
ATOM     26  O   UNL     1      25.661   3.356  42.246  1.00  0.00    -0.387 OA
ATOM     27  H   UNL     1      25.171   2.863  42.954  1.00  0.00     0.211 HD
ENDBRANCH  18  26
ENDBRANCH  12  13
ENDBRANCH   7  12
BRANCH   4  28
ATOM     28  O   UNL     1      24.455   1.008  32.771  1.00  0.00    -0.365 OA
ATOM     29  H   UNL     1      24.732   1.960  32.740  1.00  0.00     0.214 HD
ENDBRANCH   4  28
BRANCH   8  30
ATOM     30  C   UNL     1      25.585  -0.604  37.162  1.00  0.00     0.249 C 
BRANCH  30  31
ATOM     31  O   UNL     1      26.235  -1.655  36.449  1.00  0.00    -0.461 OA
BRANCH  31  32
ATOM     32  C   UNL     1      27.533  -1.565  35.930  1.00  0.00     0.338 C 
ATOM     33  O   UNL     1      28.134  -0.456  35.909  1.00  0.00    -0.246 OA
BRANCH  32  34
ATOM     34  C   UNL     1      28.202  -2.781  35.419  1.00  0.00     0.060 A 
ATOM     35  C   UNL     1      29.489  -3.135  35.865  1.00  0.00     0.015 A 
ATOM     36  C   UNL     1      27.560  -3.599  34.471  1.00  0.00     0.015 A 
ATOM     37  C   UNL     1      30.117  -4.284  35.374  1.00  0.00     0.001 A 
ATOM     38  C   UNL     1      28.193  -4.746  33.983  1.00  0.00     0.001 A 
ATOM     39  C   UNL     1      29.470  -5.088  34.434  1.00  0.00     0.000 A 
ENDBRANCH  32  34
ENDBRANCH  31  32
ENDBRANCH  30  31
ENDBRANCH   8  30
TORSDOF 12
ENDMDL
MODEL 6
REMARK VINA RESULT:    -6.014      1.909      2.984
REMARK INTER + INTRA:         -10.663
REMARK INTER:                 -10.343
REMARK INTRA:                  -0.321
REMARK UNBOUND:                -1.309
REMARK SMILES C[C@]12C[C@]3(O)O[C@H](O1)[C@@]1(COC(=O)c4ccccc4)[C@@H]3C[C@]12O[C@@H]1O[C@H](CO)[C@H](O)[C@@H](O)[C@@H]1O
REMARK SMILES IDX 1 1 2 2 3 3 4 4 20 5 21 6 22 7 9 8 7 9 8 10 6 11 23 12 24 13
REMARK SMILES IDX 33 14 25 15 31 16 26 17 29 18 34 19 32 21 27 23 28 24 30 26
REMARK SMILES IDX 5 28 10 30 11 31 12 32 13 33 14 34 15 35 19 36 16 37 18 38
REMARK SMILES IDX 17 39
REMARK H PARENT 34 20 32 22 28 25 30 27 5 29
REMARK Flexibility Score: inf
ROOT
ATOM      1  C   UNL     1      22.150   1.278  34.905  1.00  0.00     0.046 C 
ATOM      2  C   UNL     1      23.296   0.296  35.144  1.00  0.00     0.104 C 
ATOM      3  C   UNL     1      22.895  -1.141  34.641  1.00  0.00     0.104 C 
ATOM      4  C   UNL     1      24.171  -2.007  34.928  1.00  0.00     0.175 C 
ATOM      5  C   UNL     1      25.448  -1.298  34.375  1.00  0.00     0.070 C 
ATOM      6  C   UNL     1      25.133  -0.204  33.342  1.00  0.00     0.050 C 
ATOM      7  C   UNL     1      24.709   0.680  34.533  1.00  0.00     0.115 C 
ATOM      8  C   UNL     1      25.566  -0.216  35.437  1.00  0.00     0.096 C 
ATOM      9  C   UNL     1      24.692  -0.650  36.601  1.00  0.00     0.267 C 
ATOM     10  O   UNL     1      23.530   0.160  36.532  1.00  0.00    -0.342 OA
ATOM     11  O   UNL     1      24.341  -1.997  36.332  1.00  0.00    -0.320 OA
ENDROOT
BRANCH   7  12
ATOM     12  O   UNL     1      25.132   2.043  34.548  1.00  0.00    -0.339 OA
BRANCH  12  13
ATOM     13  C   UNL     1      24.753   2.741  33.366  1.00  0.00     0.282 C 
ATOM     14  C   UNL     1      24.426   4.221  33.681  1.00  0.00     0.202 C 
ATOM     15  O   UNL     1      25.713   2.576  32.320  1.00  0.00    -0.341 OA
ATOM     16  C   UNL     1      25.696   5.045  33.888  1.00  0.00     0.179 C 
ATOM     17  C   UNL     1      26.882   3.388  32.407  1.00  0.00     0.178 C 
ATOM     18  C   UNL     1      26.577   4.881  32.651  1.00  0.00     0.177 C 
BRANCH  14  19
ATOM     19  O   UNL     1      23.627   4.301  34.832  1.00  0.00    -0.385 OA
ATOM     20  H   UNL     1      23.090   5.134  34.759  1.00  0.00     0.211 HD
ENDBRANCH  14  19
BRANCH  16  21
ATOM     21  O   UNL     1      25.347   6.397  34.051  1.00  0.00    -0.387 OA
ATOM     22  H   UNL     1      24.358   6.450  33.991  1.00  0.00     0.211 HD
ENDBRANCH  16  21
BRANCH  17  23
ATOM     23  C   UNL     1      27.933   2.795  33.367  1.00  0.00     0.191 C 
BRANCH  23  24
ATOM     24  O   UNL     1      29.215   2.906  32.809  1.00  0.00    -0.394 OA
ATOM     25  H   UNL     1      29.815   3.228  33.531  1.00  0.00     0.210 HD
ENDBRANCH  23  24
ENDBRANCH  17  23
BRANCH  18  26
ATOM     26  O   UNL     1      27.772   5.606  32.798  1.00  0.00    -0.387 OA
ATOM     27  H   UNL     1      27.604   6.520  32.447  1.00  0.00     0.211 HD
ENDBRANCH  18  26
ENDBRANCH  12  13
ENDBRANCH   7  12
BRANCH   4  28
ATOM     28  O   UNL     1      24.055  -3.312  34.433  1.00  0.00    -0.365 OA
ATOM     29  H   UNL     1      23.540  -3.252  33.587  1.00  0.00     0.214 HD
ENDBRANCH   4  28
BRANCH   8  30
ATOM     30  C   UNL     1      26.993   0.247  35.796  1.00  0.00     0.249 C 
BRANCH  30  31
ATOM     31  O   UNL     1      27.949  -0.758  35.460  1.00  0.00    -0.461 OA
BRANCH  31  32
ATOM     32  C   UNL     1      28.110  -1.956  36.167  1.00  0.00     0.338 C 
ATOM     33  O   UNL     1      27.736  -2.039  37.369  1.00  0.00    -0.246 OA
BRANCH  32  34
ATOM     34  C   UNL     1      28.706  -3.129  35.493  1.00  0.00     0.060 A 
ATOM     35  C   UNL     1      30.050  -3.483  35.720  1.00  0.00     0.015 A 
ATOM     36  C   UNL     1      27.937  -3.904  34.605  1.00  0.00     0.015 A 
ATOM     37  C   UNL     1      30.608  -4.591  35.074  1.00  0.00     0.001 A 
ATOM     38  C   UNL     1      28.501  -5.010  33.962  1.00  0.00     0.001 A 
ATOM     39  C   UNL     1      29.834  -5.353  34.197  1.00  0.00     0.000 A 
ENDBRANCH  32  34
ENDBRANCH  31  32
ENDBRANCH  30  31
ENDBRANCH   8  30
TORSDOF 12
ENDMDL
MODEL 7
REMARK VINA RESULT:    -5.791      3.248      7.016
REMARK INTER + INTRA:         -10.315
REMARK INTER:                  -8.876
REMARK INTRA:                  -1.439
REMARK UNBOUND:                -1.309
REMARK SMILES C[C@]12C[C@]3(O)O[C@H](O1)[C@@]1(COC(=O)c4ccccc4)[C@@H]3C[C@]12O[C@@H]1O[C@H](CO)[C@H](O)[C@@H](O)[C@@H]1O
REMARK SMILES IDX 1 1 2 2 3 3 4 4 20 5 21 6 22 7 9 8 7 9 8 10 6 11 23 12 24 13
REMARK SMILES IDX 33 14 25 15 31 16 26 17 29 18 34 19 32 21 27 23 28 24 30 26
REMARK SMILES IDX 5 28 10 30 11 31 12 32 13 33 14 34 15 35 19 36 16 37 18 38
REMARK SMILES IDX 17 39
REMARK H PARENT 34 20 32 22 28 25 30 27 5 29
REMARK Flexibility Score: inf
ROOT
ATOM      1  C   UNL     1      21.874   3.150  34.567  1.00  0.00     0.046 C 
ATOM      2  C   UNL     1      22.374   3.322  36.000  1.00  0.00     0.104 C 
ATOM      3  C   UNL     1      21.174   3.682  36.955  1.00  0.00     0.104 C 
ATOM      4  C   UNL     1      21.843   3.793  38.369  1.00  0.00     0.175 C 
ATOM      5  C   UNL     1      22.738   2.545  38.651  1.00  0.00     0.070 C 
ATOM      6  C   UNL     1      22.421   1.354  37.731  1.00  0.00     0.050 C 
ATOM      7  C   UNL     1      23.187   2.113  36.627  1.00  0.00     0.115 C 
ATOM      8  C   UNL     1      23.897   2.903  37.734  1.00  0.00     0.096 C 
ATOM      9  C   UNL     1      23.749   4.377  37.401  1.00  0.00     0.267 C 
ATOM     10  O   UNL     1      23.258   4.424  36.072  1.00  0.00    -0.342 OA
ATOM     11  O   UNL     1      22.756   4.870  38.285  1.00  0.00    -0.320 OA
ENDROOT
BRANCH   7  12
ATOM     12  O   UNL     1      24.094   1.378  35.806  1.00  0.00    -0.339 OA
BRANCH  12  13
ATOM     13  C   UNL     1      23.462   0.290  35.139  1.00  0.00     0.282 C 
ATOM     14  C   UNL     1      24.044   0.103  33.716  1.00  0.00     0.202 C 
ATOM     15  O   UNL     1      23.482  -0.901  35.927  1.00  0.00    -0.341 OA
ATOM     16  C   UNL     1      25.412  -0.577  33.754  1.00  0.00     0.179 C 
ATOM     17  C   UNL     1      24.706  -1.632  35.929  1.00  0.00     0.178 C 
ATOM     18  C   UNL     1      25.269  -1.892  34.516  1.00  0.00     0.177 C 
BRANCH  14  19
ATOM     19  O   UNL     1      24.161   1.348  33.079  1.00  0.00    -0.385 OA
ATOM     20  H   UNL     1      24.181   2.041  33.791  1.00  0.00     0.211 HD
ENDBRANCH  14  19
BRANCH  16  21
ATOM     21  O   UNL     1      25.839  -0.828  32.439  1.00  0.00    -0.387 OA
ATOM     22  H   UNL     1      26.379  -0.046  32.155  1.00  0.00     0.211 HD
ENDBRANCH  16  21
BRANCH  17  23
ATOM     23  C   UNL     1      25.733  -1.047  36.919  1.00  0.00     0.191 C 
BRANCH  23  24
ATOM     24  O   UNL     1      26.595  -2.055  37.375  1.00  0.00    -0.394 OA
ATOM     25  H   UNL     1      27.495  -1.645  37.462  1.00  0.00     0.210 HD
ENDBRANCH  23  24
ENDBRANCH  17  23
BRANCH  18  26
ATOM     26  O   UNL     1      26.508  -2.552  34.598  1.00  0.00    -0.387 OA
ATOM     27  H   UNL     1      26.448  -3.359  34.022  1.00  0.00     0.211 HD
ENDBRANCH  18  26
ENDBRANCH  12  13
ENDBRANCH   7  12
BRANCH   4  28
ATOM     28  O   UNL     1      20.906   3.992  39.391  1.00  0.00    -0.365 OA
ATOM     29  H   UNL     1      21.392   3.886  40.249  1.00  0.00     0.214 HD
ENDBRANCH   4  28
BRANCH   8  30
ATOM     30  C   UNL     1      25.300   2.447  38.183  1.00  0.00     0.249 C 
BRANCH  30  31
ATOM     31  O   UNL     1      25.956   3.481  38.916  1.00  0.00    -0.461 OA
BRANCH  31  32
ATOM     32  C   UNL     1      26.277   3.396  40.277  1.00  0.00     0.338 C 
ATOM     33  O   UNL     1      27.482   3.416  40.648  1.00  0.00    -0.246 OA
BRANCH  32  34
ATOM     34  C   UNL     1      25.194   3.299  41.279  1.00  0.00     0.060 A 
ATOM     35  C   UNL     1      24.247   4.332  41.418  1.00  0.00     0.015 A 
ATOM     36  C   UNL     1      25.100   2.171  42.115  1.00  0.00     0.015 A 
ATOM     37  C   UNL     1      23.229   4.234  42.373  1.00  0.00     0.001 A 
ATOM     38  C   UNL     1      24.080   2.079  43.067  1.00  0.00     0.001 A 
ATOM     39  C   UNL     1      23.146   3.109  43.195  1.00  0.00     0.000 A 
ENDBRANCH  32  34
ENDBRANCH  31  32
ENDBRANCH  30  31
ENDBRANCH   8  30
TORSDOF 12
ENDMDL
MODEL 8
REMARK VINA RESULT:    -5.745      2.804      7.219
REMARK INTER + INTRA:         -10.244
REMARK INTER:                  -9.545
REMARK INTRA:                  -0.699
REMARK UNBOUND:                -1.309
REMARK SMILES C[C@]12C[C@]3(O)O[C@H](O1)[C@@]1(COC(=O)c4ccccc4)[C@@H]3C[C@]12O[C@@H]1O[C@H](CO)[C@H](O)[C@@H](O)[C@@H]1O
REMARK SMILES IDX 1 1 2 2 3 3 4 4 20 5 21 6 22 7 9 8 7 9 8 10 6 11 23 12 24 13
REMARK SMILES IDX 33 14 25 15 31 16 26 17 29 18 34 19 32 21 27 23 28 24 30 26
REMARK SMILES IDX 5 28 10 30 11 31 12 32 13 33 14 34 15 35 19 36 16 37 18 38
REMARK SMILES IDX 17 39
REMARK H PARENT 34 20 32 22 28 25 30 27 5 29
REMARK Flexibility Score: inf
ROOT
ATOM      1  C   UNL     1      24.087  -2.016  34.681  1.00  0.00     0.046 C 
ATOM      2  C   UNL     1      25.164  -1.325  35.517  1.00  0.00     0.104 C 
ATOM      3  C   UNL     1      26.592  -1.655  34.943  1.00  0.00     0.104 C 
ATOM      4  C   UNL     1      27.564  -0.858  35.881  1.00  0.00     0.175 C 
ATOM      5  C   UNL     1      27.090   0.621  36.031  1.00  0.00     0.070 C 
ATOM      6  C   UNL     1      26.101   1.053  34.936  1.00  0.00     0.050 C 
ATOM      7  C   UNL     1      25.032   0.245  35.701  1.00  0.00     0.115 C 
ATOM      8  C   UNL     1      25.907   0.372  36.955  1.00  0.00     0.096 C 
ATOM      9  C   UNL     1      26.085  -1.025  37.523  1.00  0.00     0.267 C 
ATOM     10  O   UNL     1      25.156  -1.843  36.833  1.00  0.00    -0.342 OA
ATOM     11  O   UNL     1      27.403  -1.414  37.171  1.00  0.00    -0.320 OA
ENDROOT
BRANCH   7  12
ATOM     12  O   UNL     1      23.739   0.825  35.871  1.00  0.00    -0.339 OA
BRANCH  12  13
ATOM     13  C   UNL     1      23.568   2.005  35.094  1.00  0.00     0.282 C 
ATOM     14  C   UNL     1      22.357   1.865  34.138  1.00  0.00     0.202 C 
ATOM     15  O   UNL     1      23.522   3.178  35.909  1.00  0.00    -0.341 OA
ATOM     16  C   UNL     1      21.033   2.035  34.881  1.00  0.00     0.179 C 
ATOM     17  C   UNL     1      22.280   3.442  36.558  1.00  0.00     0.178 C 
ATOM     18  C   UNL     1      21.064   3.377  35.609  1.00  0.00     0.177 C 
BRANCH  14  19
ATOM     19  O   UNL     1      22.382   0.609  33.514  1.00  0.00    -0.385 OA
ATOM     20  H   UNL     1      21.698   0.045  33.963  1.00  0.00     0.211 HD
ENDBRANCH  14  19
BRANCH  16  21
ATOM     21  O   UNL     1      19.978   2.018  33.954  1.00  0.00    -0.387 OA
ATOM     22  H   UNL     1      19.802   1.066  33.732  1.00  0.00     0.211 HD
ENDBRANCH  16  21
BRANCH  17  23
ATOM     23  C   UNL     1      22.112   2.623  37.853  1.00  0.00     0.191 C 
BRANCH  23  24
ATOM     24  O   UNL     1      21.319   3.325  38.771  1.00  0.00    -0.394 OA
ATOM     25  H   UNL     1      20.519   3.642  38.277  1.00  0.00     0.210 HD
ENDBRANCH  23  24
ENDBRANCH  17  23
BRANCH  18  26
ATOM     26  O   UNL     1      19.873   3.576  36.328  1.00  0.00    -0.387 OA
ATOM     27  H   UNL     1      19.883   4.513  36.658  1.00  0.00     0.211 HD
ENDBRANCH  18  26
ENDBRANCH  12  13
ENDBRANCH   7  12
BRANCH   4  28
ATOM     28  O   UNL     1      28.897  -0.927  35.455  1.00  0.00    -0.365 OA
ATOM     29  H   UNL     1      29.132  -0.029  35.106  1.00  0.00     0.214 HD
ENDBRANCH   4  28
BRANCH   8  30
ATOM     30  C   UNL     1      25.580   1.482  37.975  1.00  0.00     0.249 C 
BRANCH  30  31
ATOM     31  O   UNL     1      26.164   1.189  39.243  1.00  0.00    -0.461 OA
BRANCH  31  32
ATOM     32  C   UNL     1      26.391   2.144  40.242  1.00  0.00     0.338 C 
ATOM     33  O   UNL     1      27.501   2.740  40.312  1.00  0.00    -0.246 OA
BRANCH  32  34
ATOM     34  C   UNL     1      25.315   2.463  41.206  1.00  0.00     0.060 A 
ATOM     35  C   UNL     1      25.125   1.676  42.358  1.00  0.00     0.015 A 
ATOM     36  C   UNL     1      24.460   3.557  40.978  1.00  0.00     0.015 A 
ATOM     37  C   UNL     1      24.102   1.982  43.262  1.00  0.00     0.001 A 
ATOM     38  C   UNL     1      23.439   3.857  41.885  1.00  0.00     0.001 A 
ATOM     39  C   UNL     1      23.261   3.071  43.025  1.00  0.00     0.000 A 
ENDBRANCH  32  34
ENDBRANCH  31  32
ENDBRANCH  30  31
ENDBRANCH   8  30
TORSDOF 12
ENDMDL
MODEL 9
REMARK VINA RESULT:    -5.704      3.025      5.197
REMARK INTER + INTRA:         -10.181
REMARK INTER:                  -8.885
REMARK INTRA:                  -1.295
REMARK UNBOUND:                -1.309
REMARK SMILES C[C@]12C[C@]3(O)O[C@H](O1)[C@@]1(COC(=O)c4ccccc4)[C@@H]3C[C@]12O[C@@H]1O[C@H](CO)[C@H](O)[C@@H](O)[C@@H]1O
REMARK SMILES IDX 1 1 2 2 3 3 4 4 20 5 21 6 22 7 9 8 7 9 8 10 6 11 23 12 24 13
REMARK SMILES IDX 33 14 25 15 31 16 26 17 29 18 34 19 32 21 27 23 28 24 30 26
REMARK SMILES IDX 5 28 10 30 11 31 12 32 13 33 14 34 15 35 19 36 16 37 18 38
REMARK SMILES IDX 17 39
REMARK H PARENT 34 20 32 22 28 25 30 27 5 29
REMARK Flexibility Score: inf
ROOT
ATOM      1  C   UNL     1      21.125   1.989  38.633  1.00  0.00     0.046 C 
ATOM      2  C   UNL     1      22.220   1.736  37.597  1.00  0.00     0.104 C 
ATOM      3  C   UNL     1      21.713   2.140  36.162  1.00  0.00     0.104 C 
ATOM      4  C   UNL     1      22.947   1.852  35.236  1.00  0.00     0.175 C 
ATOM      5  C   UNL     1      24.240   2.492  35.833  1.00  0.00     0.070 C 
ATOM      6  C   UNL     1      23.948   3.574  36.885  1.00  0.00     0.050 C 
ATOM      7  C   UNL     1      23.627   2.421  37.859  1.00  0.00     0.115 C 
ATOM      8  C   UNL     1      24.466   1.499  36.963  1.00  0.00     0.096 C 
ATOM      9  C   UNL     1      23.615   0.281  36.649  1.00  0.00     0.267 C 
ATOM     10  O   UNL     1      22.502   0.352  37.524  1.00  0.00    -0.342 OA
ATOM     11  O   UNL     1      23.175   0.458  35.313  1.00  0.00    -0.320 OA
ENDROOT
BRANCH   7  12
ATOM     12  O   UNL     1      24.130   2.500  39.192  1.00  0.00    -0.339 OA
BRANCH  12  13
ATOM     13  C   UNL     1      23.647   3.647  39.886  1.00  0.00     0.282 C 
ATOM     14  C   UNL     1      23.284   3.293  41.349  1.00  0.00     0.202 C 
ATOM     15  O   UNL     1      24.542   4.755  39.769  1.00  0.00    -0.341 OA
ATOM     16  C   UNL     1      24.532   3.159  42.221  1.00  0.00     0.179 C 
ATOM     17  C   UNL     1      25.682   4.734  40.626  1.00  0.00     0.178 C 
ATOM     18  C   UNL     1      25.335   4.452  42.103  1.00  0.00     0.177 C 
BRANCH  14  19
ATOM     19  O   UNL     1      22.560   2.091  41.386  1.00  0.00    -0.385 OA
ATOM     20  H   UNL     1      22.442   1.792  40.446  1.00  0.00     0.211 HD
ENDBRANCH  14  19
BRANCH  16  21
ATOM     21  O   UNL     1      24.143   2.957  43.555  1.00  0.00    -0.387 OA
ATOM     22  H   UNL     1      23.935   1.991  43.653  1.00  0.00     0.211 HD
ENDBRANCH  16  21
BRANCH  17  23
ATOM     23  C   UNL     1      26.816   3.853  40.066  1.00  0.00     0.191 C 
BRANCH  23  24
ATOM     24  O   UNL     1      28.045   4.232  40.625  1.00  0.00    -0.394 OA
ATOM     25  H   UNL     1      28.720   4.175  39.899  1.00  0.00     0.210 HD
ENDBRANCH  23  24
ENDBRANCH  17  23
BRANCH  18  26
ATOM     26  O   UNL     1      26.509   4.376  42.874  1.00  0.00    -0.387 OA
ATOM     27  H   UNL     1      27.078   5.147  42.616  1.00  0.00     0.211 HD
ENDBRANCH  18  26
ENDBRANCH  12  13
ENDBRANCH   7  12
BRANCH   4  28
ATOM     28  O   UNL     1      22.734   2.266  33.915  1.00  0.00    -0.365 OA
ATOM     29  H   UNL     1      22.593   1.444  33.378  1.00  0.00     0.214 HD
ENDBRANCH   4  28
BRANCH   8  30
ATOM     30  C   UNL     1      25.931   1.221  37.357  1.00  0.00     0.249 C 
BRANCH  30  31
ATOM     31  O   UNL     1      26.370  -0.025  36.817  1.00  0.00    -0.461 OA
BRANCH  31  32
ATOM     32  C   UNL     1      27.141  -0.148  35.654  1.00  0.00     0.338 C 
ATOM     33  O   UNL     1      28.178  -0.866  35.653  1.00  0.00    -0.246 OA
BRANCH  32  34
ATOM     34  C   UNL     1      26.725   0.556  34.422  1.00  0.00     0.060 A 
ATOM     35  C   UNL     1      27.234   1.833  34.117  1.00  0.00     0.015 A 
ATOM     36  C   UNL     1      25.805  -0.041  33.540  1.00  0.00     0.015 A 
ATOM     37  C   UNL     1      26.831   2.495  32.952  1.00  0.00     0.001 A 
ATOM     38  C   UNL     1      25.406   0.625  32.378  1.00  0.00     0.001 A 
ATOM     39  C   UNL     1      25.918   1.891  32.084  1.00  0.00     0.000 A 
ENDBRANCH  32  34
ENDBRANCH  31  32
ENDBRANCH  30  31
ENDBRANCH   8  30
TORSDOF 12
ENDMDL
