MODEL 1
REMARK VINA RESULT:    -2.221      0.000      0.000
REMARK INTER + INTRA:          -2.221
REMARK INTER:                  -2.221
REMARK INTRA:                   0.000
REMARK UNBOUND:                 0.000
REMARK SMILES CC(=O)[O-]
REMARK SMILES IDX 1 1 2 2 3 3 4 4
REMARK H PARENT
REMARK Flexibility Score: inf
ROOT
ATOM      1  C   UNL     1      17.058 -21.249  22.983  1.00  0.00     0.063 C 
ATOM      2  C   UNL     1      15.897 -21.278  23.917  1.00  0.00     0.038 C 
ATOM      3  O   UNL     1      14.726 -21.149  23.473  1.00  0.00    -0.550 OA
ATOM      4  O   UNL     1      16.099 -21.502  25.273  1.00  0.00    -0.550 OA
ENDROOT
TORSDOF 0
ENDMDL
MODEL 2
REMARK VINA RESULT:    -2.217      0.299      1.627
REMARK INTER + INTRA:          -2.217
REMARK INTER:                  -2.217
REMARK INTRA:                   0.000
REMARK UNBOUND:                 0.000
REMARK SMILES CC(=O)[O-]
REMARK SMILES IDX 1 1 2 2 3 3 4 4
REMARK H PARENT
REMARK Flexibility Score: inf
ROOT
ATOM      1  C   UNL     1      17.002 -21.210  23.121  1.00  0.00     0.063 C 
ATOM      2  C   UNL     1      15.902 -21.178  24.126  1.00  0.00     0.038 C 
ATOM      3  O   UNL     1      16.125 -21.520  25.318  1.00  0.00    -0.550 OA
ATOM      4  O   UNL     1      14.640 -20.721  23.766  1.00  0.00    -0.550 OA
ENDROOT
TORSDOF 0
ENDMDL
MODEL 3
REMARK VINA RESULT:    -2.167      1.793      1.985
REMARK INTER + INTRA:          -2.167
REMARK INTER:                  -2.167
REMARK INTRA:                   0.000
REMARK UNBOUND:                 0.000
REMARK SMILES CC(=O)[O-]
REMARK SMILES IDX 1 1 2 2 3 3 4 4
REMARK H PARENT
REMARK Flexibility Score: inf
ROOT
ATOM      1  C   UNL     1      16.100 -21.148  24.771  1.00  0.00     0.063 C 
ATOM      2  C   UNL     1      14.811 -21.015  24.034  1.00  0.00     0.038 C 
ATOM      3  O   UNL     1      13.976 -20.136  24.376  1.00  0.00    -0.550 OA
ATOM      4  O   UNL     1      14.550 -21.823  22.935  1.00  0.00    -0.550 OA
ENDROOT
TORSDOF 0
ENDMDL
MODEL 4
REMARK VINA RESULT:    -2.157      1.722      1.760
REMARK INTER + INTRA:          -2.157
REMARK INTER:                  -2.157
REMARK INTRA:                   0.000
REMARK UNBOUND:                 0.000
REMARK SMILES CC(=O)[O-]
REMARK SMILES IDX 1 1 2 2 3 3 4 4
REMARK H PARENT
REMARK Flexibility Score: inf
ROOT
ATOM      1  C   UNL     1      16.216 -21.146  24.566  1.00  0.00     0.063 C 
ATOM      2  C   UNL     1      14.879 -21.090  23.908  1.00  0.00     0.038 C 
ATOM      3  O   UNL     1      14.605 -21.880  22.966  1.00  0.00    -0.550 OA
ATOM      4  O   UNL     1      13.913 -20.203  24.367  1.00  0.00    -0.550 OA
ENDROOT
TORSDOF 0
ENDMDL
MODEL 5
REMARK VINA RESULT:    -2.124     22.448     22.758
REMARK INTER + INTRA:          -2.124
REMARK INTER:                  -2.124
REMARK INTRA:                   0.000
REMARK UNBOUND:                 0.000
REMARK SMILES CC(=O)[O-]
REMARK SMILES IDX 1 1 2 2 3 3 4 4
REMARK H PARENT
REMARK Flexibility Score: inf
ROOT
ATOM      1  C   UNL     1      27.566 -10.652  38.852  1.00  0.00     0.063 C 
ATOM      2  C   UNL     1      28.300  -9.358  38.762  1.00  0.00     0.038 C 
ATOM      3  O   UNL     1      27.688  -8.271  38.935  1.00  0.00    -0.550 OA
ATOM      4  O   UNL     1      29.672  -9.348  38.540  1.00  0.00    -0.550 OA
ENDROOT
TORSDOF 0
ENDMDL
MODEL 6
REMARK VINA RESULT:    -2.118      1.268      1.818
REMARK INTER + INTRA:          -2.118
REMARK INTER:                  -2.118
REMARK INTRA:                   0.000
REMARK UNBOUND:                 0.000
REMARK SMILES CC(=O)[O-]
REMARK SMILES IDX 1 1 2 2 3 3 4 4
REMARK H PARENT
REMARK Flexibility Score: inf
ROOT
ATOM      1  C   UNL     1      14.055 -20.233  24.107  1.00  0.00     0.063 C 
ATOM      2  C   UNL     1      15.241 -21.135  24.061  1.00  0.00     0.038 C 
ATOM      3  O   UNL     1      15.720 -21.494  22.954  1.00  0.00    -0.550 OA
ATOM      4  O   UNL     1      15.855 -21.539  25.241  1.00  0.00    -0.550 OA
ENDROOT
TORSDOF 0
ENDMDL
MODEL 7
REMARK VINA RESULT:    -2.082      3.064      3.410
REMARK INTER + INTRA:          -2.082
REMARK INTER:                  -2.082
REMARK INTRA:                   0.000
REMARK UNBOUND:                 0.000
REMARK SMILES CC(=O)[O-]
REMARK SMILES IDX 1 1 2 2 3 3 4 4
REMARK H PARENT
REMARK Flexibility Score: inf
ROOT
ATOM      1  C   UNL     1      14.173 -23.788  21.217  1.00  0.00     0.063 C 
ATOM      2  C   UNL     1      13.628 -22.639  21.994  1.00  0.00     0.038 C 
ATOM      3  O   UNL     1      12.413 -22.326  21.892  1.00  0.00    -0.550 OA
ATOM      4  O   UNL     1      14.448 -21.942  22.873  1.00  0.00    -0.550 OA
ENDROOT
TORSDOF 0
ENDMDL
MODEL 8
REMARK VINA RESULT:    -2.061      1.787      2.477
REMARK INTER + INTRA:          -2.061
REMARK INTER:                  -2.061
REMARK INTRA:                   0.000
REMARK UNBOUND:                 0.000
REMARK SMILES CC(=O)[O-]
REMARK SMILES IDX 1 1 2 2 3 3 4 4
REMARK H PARENT
REMARK Flexibility Score: inf
ROOT
ATOM      1  C   UNL     1      15.526 -21.171  24.260  1.00  0.00     0.063 C 
ATOM      2  C   UNL     1      16.342 -21.383  23.030  1.00  0.00     0.038 C 
ATOM      3  O   UNL     1      17.528 -20.963  22.979  1.00  0.00    -0.550 OA
ATOM      4  O   UNL     1      15.815 -22.092  21.958  1.00  0.00    -0.550 OA
ENDROOT
TORSDOF 0
ENDMDL
MODEL 9
REMARK VINA RESULT:    -2.021      2.759      3.080
REMARK INTER + INTRA:          -2.021
REMARK INTER:                  -2.021
REMARK INTRA:                   0.000
REMARK UNBOUND:                 0.000
REMARK SMILES CC(=O)[O-]
REMARK SMILES IDX 1 1 2 2 3 3 4 4
REMARK H PARENT
REMARK Flexibility Score: inf
ROOT
ATOM      1  C   UNL     1      14.245 -23.486  21.185  1.00  0.00     0.063 C 
ATOM      2  C   UNL     1      14.865 -22.213  21.651  1.00  0.00     0.038 C 
ATOM      3  O   UNL     1      15.438 -21.451  20.828  1.00  0.00    -0.550 OA
ATOM      4  O   UNL     1      14.766 -21.836  22.985  1.00  0.00    -0.550 OA
ENDROOT
TORSDOF 0
ENDMDL
