MODEL 1
REMARK VINA RESULT:     2.643      0.000      0.000
REMARK INTER + INTRA:           3.392
REMARK INTER:                   3.570
REMARK INTRA:                  -0.179
REMARK UNBOUND:                -0.179
REMARK SMILES CCCCCCCC(=O)[O-]
REMARK SMILES IDX 5 1 6 2 7 3 8 4 9 5 10 6 4 7 3 8 2 9 1 10
REMARK H PARENT
REMARK Flexibility Score: inf
ROOT
ATOM      1  C   UNL     1      12.095  12.051  17.539  1.00  0.00     0.000 C 
ENDROOT
BRANCH   1   2
ATOM      2  C   UNL     1      11.130  12.516  16.435  1.00  0.00     0.006 C 
BRANCH   2   3
ATOM      3  C   UNL     1       9.903  11.601  16.316  1.00  0.00     0.053 C 
BRANCH   3   4
ATOM      4  C   UNL     1       8.787  12.263  15.566  1.00  0.00     0.041 C 
ATOM      5  O   UNL     1       8.683  12.111  14.320  1.00  0.00    -0.550 OA
ATOM      6  O   UNL     1       7.879  13.069  16.240  1.00  0.00    -0.550 OA
ENDBRANCH   3   4
ENDBRANCH   2   3
ENDBRANCH   1   2
BRANCH   1   7
ATOM      7  C   UNL     1      13.569  12.169  17.120  1.00  0.00     0.000 C 
BRANCH   7   8
ATOM      8  C   UNL     1      14.243  13.439  17.668  1.00  0.00    -0.000 C 
BRANCH   8   9
ATOM      9  C   UNL     1      14.017  14.662  16.765  1.00  0.00    -0.003 C 
ATOM     10  C   UNL     1      14.300  15.983  17.480  1.00  0.00     0.004 C 
ENDBRANCH   8   9
ENDBRANCH   7   8
ENDBRANCH   1   7
TORSDOF 6
ENDMDL
MODEL 2
REMARK VINA RESULT:     3.194      3.070      5.370
REMARK INTER + INTRA:           4.136
REMARK INTER:                   4.379
REMARK INTRA:                  -0.243
REMARK UNBOUND:                -0.179
REMARK SMILES CCCCCCCC(=O)[O-]
REMARK SMILES IDX 5 1 6 2 7 3 8 4 9 5 10 6 4 7 3 8 2 9 1 10
REMARK H PARENT
REMARK Flexibility Score: inf
ROOT
ATOM      1  C   UNL     1      11.300  12.632  16.649  1.00  0.00     0.000 C 
ENDROOT
BRANCH   1   2
ATOM      2  C   UNL     1      12.393  11.858  17.405  1.00  0.00     0.006 C 
BRANCH   2   3
ATOM      3  C   UNL     1      13.430  12.793  18.042  1.00  0.00     0.053 C 
BRANCH   3   4
ATOM      4  C   UNL     1      14.145  13.614  17.012  1.00  0.00     0.041 C 
ATOM      5  O   UNL     1      14.806  13.051  16.101  1.00  0.00    -0.550 OA
ATOM      6  O   UNL     1      14.103  15.001  17.077  1.00  0.00    -0.550 OA
ENDBRANCH   3   4
ENDBRANCH   2   3
ENDBRANCH   1   2
BRANCH   1   7
ATOM      7  C   UNL     1      10.058  11.773  16.366  1.00  0.00     0.000 C 
BRANCH   7   8
ATOM      8  C   UNL     1       8.787  12.616  16.162  1.00  0.00    -0.000 C 
BRANCH   8   9
ATOM      9  C   UNL     1       8.097  12.327  14.819  1.00  0.00    -0.003 C 
ATOM     10  C   UNL     1       9.049  11.724  13.786  1.00  0.00     0.004 C 
ENDBRANCH   8   9
ENDBRANCH   7   8
ENDBRANCH   1   7
TORSDOF 6
ENDMDL
MODEL 3
REMARK VINA RESULT:     3.289      3.138      5.314
REMARK INTER + INTRA:           4.264
REMARK INTER:                   4.454
REMARK INTRA:                  -0.190
REMARK UNBOUND:                -0.179
REMARK SMILES CCCCCCCC(=O)[O-]
REMARK SMILES IDX 5 1 6 2 7 3 8 4 9 5 10 6 4 7 3 8 2 9 1 10
REMARK H PARENT
REMARK Flexibility Score: inf
ROOT
ATOM      1  C   UNL     1      12.206  11.736  17.432  1.00  0.00     0.000 C 
ENDROOT
BRANCH   1   2
ATOM      2  C   UNL     1      13.367  12.646  17.868  1.00  0.00     0.006 C 
BRANCH   2   3
ATOM      3  C   UNL     1      13.967  13.425  16.688  1.00  0.00     0.053 C 
BRANCH   3   4
ATOM      4  C   UNL     1      14.108  14.884  17.000  1.00  0.00     0.041 C 
ATOM      5  O   UNL     1      14.945  15.271  17.858  1.00  0.00    -0.550 OA
ATOM      6  O   UNL     1      13.296  15.812  16.361  1.00  0.00    -0.550 OA
ENDBRANCH   3   4
ENDBRANCH   2   3
ENDBRANCH   1   2
BRANCH   1   7
ATOM      7  C   UNL     1      11.141  12.489  16.619  1.00  0.00     0.000 C 
BRANCH   7   8
ATOM      8  C   UNL     1       9.792  11.751  16.582  1.00  0.00    -0.000 C 
BRANCH   8   9
ATOM      9  C   UNL     1       8.769  12.440  15.665  1.00  0.00    -0.003 C 
ATOM     10  C   UNL     1       8.902  12.009  14.205  1.00  0.00     0.004 C 
ENDBRANCH   8   9
ENDBRANCH   7   8
ENDBRANCH   1   7
TORSDOF 6
ENDMDL
MODEL 4
REMARK VINA RESULT:     4.477      1.045      1.947
REMARK INTER + INTRA:           5.869
REMARK INTER:                   6.145
REMARK INTRA:                  -0.276
REMARK UNBOUND:                -0.179
REMARK SMILES CCCCCCCC(=O)[O-]
REMARK SMILES IDX 5 1 6 2 7 3 8 4 9 5 10 6 4 7 3 8 2 9 1 10
REMARK H PARENT
REMARK Flexibility Score: inf
ROOT
ATOM      1  C   UNL     1      11.918  11.766  17.862  1.00  0.00     0.000 C 
ENDROOT
BRANCH   1   2
ATOM      2  C   UNL     1      11.138  12.389  16.691  1.00  0.00     0.006 C 
BRANCH   2   3
ATOM      3  C   UNL     1       9.961  11.509  16.247  1.00  0.00     0.053 C 
BRANCH   3   4
ATOM      4  C   UNL     1       8.908  12.306  15.539  1.00  0.00     0.041 C 
ATOM      5  O   UNL     1       8.127  13.046  16.192  1.00  0.00    -0.550 OA
ATOM      6  O   UNL     1       8.773  12.208  14.160  1.00  0.00    -0.550 OA
ENDBRANCH   3   4
ENDBRANCH   2   3
ENDBRANCH   1   2
BRANCH   1   7
ATOM      7  C   UNL     1      13.257  12.474  18.120  1.00  0.00     0.000 C 
BRANCH   7   8
ATOM      8  C   UNL     1      13.611  13.495  17.024  1.00  0.00    -0.000 C 
BRANCH   8   9
ATOM      9  C   UNL     1      14.781  13.031  16.143  1.00  0.00    -0.003 C 
ATOM     10  C   UNL     1      15.164  11.572  16.391  1.00  0.00     0.004 C 
ENDBRANCH   8   9
ENDBRANCH   7   8
ENDBRANCH   1   7
TORSDOF 6
ENDMDL
