MODEL 1
REMARK VINA RESULT:    -3.652      0.000      0.000
REMARK INTER + INTRA:         -13.249
REMARK INTER:                  -9.202
REMARK INTRA:                  -4.047
REMARK UNBOUND:                -4.047
REMARK SMILES CCCCCCCCCCCCCCCCCCCCCCCCCCCC(=O)[O-]
REMARK SMILES IDX 15 1 16 2 17 3 18 4 19 5 20 6 21 7 22 8 23 9 24 10 25 11
REMARK SMILES IDX 26 12 27 13 28 14 29 15 30 16 14 17 13 18 12 19 11 20 10 21
REMARK SMILES IDX 9 22 8 23 7 24 6 25 5 26 4 27 3 28 2 29 1 30
REMARK H PARENT
REMARK Flexibility Score: inf
ROOT
ATOM      1  C   UNL     1    -105.321  32.864 -38.093  1.00  0.00     0.000 C 
ENDROOT
BRANCH   1   2
ATOM      2  C   UNL     1    -106.816  32.712 -37.747  1.00  0.00     0.000 C 
BRANCH   2   3
ATOM      3  C   UNL     1    -107.171  32.925 -36.262  1.00  0.00     0.000 C 
BRANCH   3   4
ATOM      4  C   UNL     1    -106.217  32.245 -35.257  1.00  0.00     0.000 C 
BRANCH   4   5
ATOM      5  C   UNL     1    -105.278  33.200 -34.500  1.00  0.00     0.000 C 
BRANCH   5   6
ATOM      6  C   UNL     1    -105.318  32.994 -32.976  1.00  0.00     0.000 C 
BRANCH   6   7
ATOM      7  C   UNL     1    -106.585  32.258 -32.503  1.00  0.00     0.000 C 
BRANCH   7   8
ATOM      8  C   UNL     1    -107.529  33.089 -31.614  1.00  0.00     0.000 C 
BRANCH   8   9
ATOM      9  C   UNL     1    -107.252  34.600 -31.692  1.00  0.00     0.000 C 
BRANCH   9  10
ATOM     10  C   UNL     1    -108.435  35.390 -32.273  1.00  0.00     0.000 C 
BRANCH  10  11
ATOM     11  C   UNL     1    -108.884  34.860 -33.642  1.00  0.00     0.000 C 
BRANCH  11  12
ATOM     12  C   UNL     1    -110.046  35.694 -34.201  1.00  0.00     0.006 C 
BRANCH  12  13
ATOM     13  C   UNL     1    -110.205  37.034 -33.471  1.00  0.00     0.053 C 
BRANCH  13  14
ATOM     14  C   UNL     1    -109.549  38.157 -34.215  1.00  0.00     0.041 C 
ATOM     15  O   UNL     1    -110.073  38.612 -35.266  1.00  0.00    -0.550 OA
ATOM     16  O   UNL     1    -108.380  38.726 -33.727  1.00  0.00    -0.550 OA
ENDBRANCH  13  14
ENDBRANCH  12  13
ENDBRANCH  11  12
ENDBRANCH  10  11
ENDBRANCH   9  10
ENDBRANCH   8   9
ENDBRANCH   7   8
ENDBRANCH   6   7
ENDBRANCH   5   6
ENDBRANCH   4   5
ENDBRANCH   3   4
ENDBRANCH   2   3
ENDBRANCH   1   2
BRANCH   1  17
ATOM     17  C   UNL     1    -104.706  31.687 -38.872  1.00  0.00     0.000 C 
BRANCH  17  18
ATOM     18  C   UNL     1    -103.260  31.377 -38.446  1.00  0.00     0.000 C 
BRANCH  18  19
ATOM     19  C   UNL     1    -103.061  31.438 -36.922  1.00  0.00     0.000 C 
BRANCH  19  20
ATOM     20  C   UNL     1    -103.308  30.117 -36.171  1.00  0.00     0.000 C 
BRANCH  20  21
ATOM     21  C   UNL     1    -103.099  30.212 -34.645  1.00  0.00     0.000 C 
BRANCH  21  22
ATOM     22  C   UNL     1    -102.189  31.388 -34.244  1.00  0.00    -0.000 C 
BRANCH  22  23
ATOM     23  C   UNL     1    -101.038  30.954 -33.322  1.00  0.00    -0.000 C 
BRANCH  23  24
ATOM     24  C   UNL     1     -99.849  30.357 -34.096  1.00  0.00    -0.000 C 
BRANCH  24  25
ATOM     25  C   UNL     1     -99.465  31.192 -35.332  1.00  0.00    -0.000 C 
BRANCH  25  26
ATOM     26  C   UNL     1     -99.567  30.444 -36.679  1.00  0.00    -0.000 C 
BRANCH  26  27
ATOM     27  C   UNL     1     -99.476  31.339 -37.928  1.00  0.00    -0.000 C 
BRANCH  27  28
ATOM     28  C   UNL     1     -99.135  32.799 -37.588  1.00  0.00    -0.000 C 
BRANCH  28  29
ATOM     29  C   UNL     1     -97.738  33.207 -38.078  1.00  0.00    -0.003 C 
ATOM     30  C   UNL     1     -97.460  32.750 -39.510  1.00  0.00     0.004 C 
ENDBRANCH  28  29
ENDBRANCH  27  28
ENDBRANCH  26  27
ENDBRANCH  25  26
ENDBRANCH  24  25
ENDBRANCH  23  24
ENDBRANCH  22  23
ENDBRANCH  21  22
ENDBRANCH  20  21
ENDBRANCH  19  20
ENDBRANCH  18  19
ENDBRANCH  17  18
ENDBRANCH   1  17
TORSDOF 26
ENDMDL
MODEL 2
REMARK VINA RESULT:    -3.400      1.474      2.301
REMARK INTER + INTRA:         -12.615
REMARK INTER:                  -8.599
REMARK INTRA:                  -4.016
REMARK UNBOUND:                -4.047
REMARK SMILES CCCCCCCCCCCCCCCCCCCCCCCCCCCC(=O)[O-]
REMARK SMILES IDX 15 1 16 2 17 3 18 4 19 5 20 6 21 7 22 8 23 9 24 10 25 11
REMARK SMILES IDX 26 12 27 13 28 14 29 15 30 16 14 17 13 18 12 19 11 20 10 21
REMARK SMILES IDX 9 22 8 23 7 24 6 25 5 26 4 27 3 28 2 29 1 30
REMARK H PARENT
REMARK Flexibility Score: inf
ROOT
ATOM      1  C   UNL     1    -106.505  32.352 -38.136  1.00  0.00     0.000 C 
ENDROOT
BRANCH   1   2
ATOM      2  C   UNL     1    -107.296  31.748 -36.958  1.00  0.00     0.000 C 
BRANCH   2   3
ATOM      3  C   UNL     1    -108.221  32.732 -36.214  1.00  0.00     0.000 C 
BRANCH   3   4
ATOM      4  C   UNL     1    -107.724  33.171 -34.821  1.00  0.00     0.000 C 
BRANCH   4   5
ATOM      5  C   UNL     1    -108.778  33.107 -33.702  1.00  0.00     0.000 C 
BRANCH   5   6
ATOM      6  C   UNL     1    -108.551  31.933 -32.735  1.00  0.00     0.000 C 
BRANCH   6   7
ATOM      7  C   UNL     1    -107.931  32.369 -31.394  1.00  0.00     0.000 C 
BRANCH   7   8
ATOM      8  C   UNL     1    -106.410  32.159 -31.280  1.00  0.00     0.000 C 
BRANCH   8   9
ATOM      9  C   UNL     1    -105.726  33.206 -30.383  1.00  0.00     0.000 C 
BRANCH   9  10
ATOM     10  C   UNL     1    -105.040  34.319 -31.190  1.00  0.00     0.000 C 
BRANCH  10  11
ATOM     11  C   UNL     1    -106.013  35.064 -32.114  1.00  0.00     0.000 C 
BRANCH  11  12
ATOM     12  C   UNL     1    -106.520  36.355 -31.455  1.00  0.00     0.006 C 
BRANCH  12  13
ATOM     13  C   UNL     1    -108.045  36.495 -31.548  1.00  0.00     0.053 C 
BRANCH  13  14
ATOM     14  C   UNL     1    -108.468  37.152 -32.827  1.00  0.00     0.041 C 
ATOM     15  O   UNL     1    -109.207  36.536 -33.640  1.00  0.00    -0.550 OA
ATOM     16  O   UNL     1    -108.078  38.456 -33.102  1.00  0.00    -0.550 OA
ENDBRANCH  13  14
ENDBRANCH  12  13
ENDBRANCH  11  12
ENDBRANCH  10  11
ENDBRANCH   9  10
ENDBRANCH   8   9
ENDBRANCH   7   8
ENDBRANCH   6   7
ENDBRANCH   5   6
ENDBRANCH   4   5
ENDBRANCH   3   4
ENDBRANCH   2   3
ENDBRANCH   1   2
BRANCH   1  17
ATOM     17  C   UNL     1    -105.309  33.236 -37.736  1.00  0.00     0.000 C 
BRANCH  17  18
ATOM     18  C   UNL     1    -104.295  32.501 -36.840  1.00  0.00     0.000 C 
BRANCH  18  19
ATOM     19  C   UNL     1    -103.989  33.261 -35.538  1.00  0.00     0.000 C 
BRANCH  19  20
ATOM     20  C   UNL     1    -104.449  32.564 -34.244  1.00  0.00     0.000 C 
BRANCH  20  21
ATOM     21  C   UNL     1    -104.700  31.049 -34.400  1.00  0.00     0.000 C 
BRANCH  21  22
ATOM     22  C   UNL     1    -103.501  30.200 -33.939  1.00  0.00    -0.000 C 
BRANCH  22  23
ATOM     23  C   UNL     1    -102.728  30.852 -32.783  1.00  0.00    -0.000 C 
BRANCH  23  24
ATOM     24  C   UNL     1    -101.376  31.437 -33.227  1.00  0.00    -0.000 C 
BRANCH  24  25
ATOM     25  C   UNL     1    -100.823  30.759 -34.495  1.00  0.00    -0.000 C 
BRANCH  25  26
ATOM     26  C   UNL     1    -100.602  31.705 -35.695  1.00  0.00    -0.000 C 
BRANCH  26  27
ATOM     27  C   UNL     1     -99.499  31.267 -36.675  1.00  0.00    -0.000 C 
BRANCH  27  28
ATOM     28  C   UNL     1     -99.502  32.086 -37.976  1.00  0.00    -0.000 C 
BRANCH  28  29
ATOM     29  C   UNL     1     -98.352  33.102 -38.036  1.00  0.00    -0.003 C 
ATOM     30  C   UNL     1     -97.426  32.873 -39.231  1.00  0.00     0.004 C 
ENDBRANCH  28  29
ENDBRANCH  27  28
ENDBRANCH  26  27
ENDBRANCH  25  26
ENDBRANCH  24  25
ENDBRANCH  23  24
ENDBRANCH  22  23
ENDBRANCH  21  22
ENDBRANCH  20  21
ENDBRANCH  19  20
ENDBRANCH  18  19
ENDBRANCH  17  18
ENDBRANCH   1  17
TORSDOF 26
ENDMDL
MODEL 3
REMARK VINA RESULT:    -3.387      2.638      7.714
REMARK INTER + INTRA:         -12.583
REMARK INTER:                  -7.743
REMARK INTRA:                  -4.839
REMARK UNBOUND:                -4.047
REMARK SMILES CCCCCCCCCCCCCCCCCCCCCCCCCCCC(=O)[O-]
REMARK SMILES IDX 15 1 16 2 17 3 18 4 19 5 20 6 21 7 22 8 23 9 24 10 25 11
REMARK SMILES IDX 26 12 27 13 28 14 29 15 30 16 14 17 13 18 12 19 11 20 10 21
REMARK SMILES IDX 9 22 8 23 7 24 6 25 5 26 4 27 3 28 2 29 1 30
REMARK H PARENT
REMARK Flexibility Score: inf
ROOT
ATOM      1  C   UNL     1    -103.549  31.948 -36.367  1.00  0.00     0.000 C 
ENDROOT
BRANCH   1   2
ATOM      2  C   UNL     1    -103.238  31.322 -37.742  1.00  0.00     0.000 C 
BRANCH   2   3
ATOM      3  C   UNL     1    -102.063  30.325 -37.758  1.00  0.00     0.000 C 
BRANCH   3   4
ATOM      4  C   UNL     1    -100.918  30.679 -38.731  1.00  0.00     0.000 C 
BRANCH   4   5
ATOM      5  C   UNL     1     -99.542  30.883 -38.073  1.00  0.00     0.000 C 
BRANCH   5   6
ATOM      6  C   UNL     1     -99.558  31.960 -36.975  1.00  0.00     0.000 C 
BRANCH   6   7
ATOM      7  C   UNL     1     -99.258  31.397 -35.574  1.00  0.00     0.000 C 
BRANCH   7   8
ATOM      8  C   UNL     1    -100.445  31.418 -34.594  1.00  0.00     0.000 C 
BRANCH   8   9
ATOM      9  C   UNL     1    -100.845  30.014 -34.105  1.00  0.00     0.000 C 
BRANCH   9  10
ATOM     10  C   UNL     1    -102.155  30.019 -33.301  1.00  0.00     0.000 C 
BRANCH  10  11
ATOM     11  C   UNL     1    -102.564  31.427 -32.846  1.00  0.00     0.000 C 
BRANCH  11  12
ATOM     12  C   UNL     1    -104.066  31.490 -32.533  1.00  0.00     0.006 C 
BRANCH  12  13
ATOM     13  C   UNL     1    -104.617  32.920 -32.609  1.00  0.00     0.053 C 
BRANCH  13  14
ATOM     14  C   UNL     1    -105.180  33.371 -31.296  1.00  0.00     0.041 C 
ATOM     15  O   UNL     1    -106.197  32.805 -30.814  1.00  0.00    -0.550 OA
ATOM     16  O   UNL     1    -104.561  34.392 -30.586  1.00  0.00    -0.550 OA
ENDBRANCH  13  14
ENDBRANCH  12  13
ENDBRANCH  11  12
ENDBRANCH  10  11
ENDBRANCH   9  10
ENDBRANCH   8   9
ENDBRANCH   7   8
ENDBRANCH   6   7
ENDBRANCH   5   6
ENDBRANCH   4   5
ENDBRANCH   3   4
ENDBRANCH   2   3
ENDBRANCH   1   2
BRANCH   1  17
ATOM     17  C   UNL     1    -104.647  33.028 -36.373  1.00  0.00     0.000 C 
BRANCH  17  18
ATOM     18  C   UNL     1    -105.267  33.244 -37.765  1.00  0.00     0.000 C 
BRANCH  18  19
ATOM     19  C   UNL     1    -106.744  32.816 -37.833  1.00  0.00     0.000 C 
BRANCH  19  20
ATOM     20  C   UNL     1    -106.991  31.366 -38.287  1.00  0.00     0.000 C 
BRANCH  20  21
ATOM     21  C   UNL     1    -106.817  30.318 -37.168  1.00  0.00     0.000 C 
BRANCH  21  22
ATOM     22  C   UNL     1    -107.842  30.490 -36.031  1.00  0.00    -0.000 C 
BRANCH  22  23
ATOM     23  C   UNL     1    -107.177  30.784 -34.678  1.00  0.00    -0.000 C 
BRANCH  23  24
ATOM     24  C   UNL     1    -107.927  31.856 -33.868  1.00  0.00    -0.000 C 
BRANCH  24  25
ATOM     25  C   UNL     1    -107.806  33.262 -34.486  1.00  0.00    -0.000 C 
BRANCH  25  26
ATOM     26  C   UNL     1    -108.985  34.210 -34.181  1.00  0.00    -0.000 C 
BRANCH  26  27
ATOM     27  C   UNL     1    -110.309  33.846 -34.877  1.00  0.00    -0.000 C 
BRANCH  27  28
ATOM     28  C   UNL     1    -110.107  33.367 -36.324  1.00  0.00    -0.000 C 
BRANCH  28  29
ATOM     29  C   UNL     1    -109.958  34.531 -37.315  1.00  0.00    -0.003 C 
ATOM     30  C   UNL     1    -110.914  35.686 -37.013  1.00  0.00     0.004 C 
ENDBRANCH  28  29
ENDBRANCH  27  28
ENDBRANCH  26  27
ENDBRANCH  25  26
ENDBRANCH  24  25
ENDBRANCH  23  24
ENDBRANCH  22  23
ENDBRANCH  21  22
ENDBRANCH  20  21
ENDBRANCH  19  20
ENDBRANCH  18  19
ENDBRANCH  17  18
ENDBRANCH   1  17
TORSDOF 26
ENDMDL
MODEL 4
REMARK VINA RESULT:    -3.362     11.490     15.410
REMARK INTER + INTRA:         -12.519
REMARK INTER:                  -6.735
REMARK INTRA:                  -5.784
REMARK UNBOUND:                -4.047
REMARK SMILES CCCCCCCCCCCCCCCCCCCCCCCCCCCC(=O)[O-]
REMARK SMILES IDX 15 1 16 2 17 3 18 4 19 5 20 6 21 7 22 8 23 9 24 10 25 11
REMARK SMILES IDX 26 12 27 13 28 14 29 15 30 16 14 17 13 18 12 19 11 20 10 21
REMARK SMILES IDX 9 22 8 23 7 24 6 25 5 26 4 27 3 28 2 29 1 30
REMARK H PARENT
REMARK Flexibility Score: inf
ROOT
ATOM      1  C   UNL     1    -109.632  44.560 -46.799  1.00  0.00     0.000 C 
ENDROOT
BRANCH   1   2
ATOM      2  C   UNL     1    -108.870  45.898 -46.888  1.00  0.00     0.000 C 
BRANCH   2   3
ATOM      3  C   UNL     1    -109.309  46.972 -45.873  1.00  0.00     0.000 C 
BRANCH   3   4
ATOM      4  C   UNL     1    -108.213  47.428 -44.888  1.00  0.00     0.000 C 
BRANCH   4   5
ATOM      5  C   UNL     1    -108.657  47.526 -43.417  1.00  0.00     0.000 C 
BRANCH   5   6
ATOM      6  C   UNL     1    -110.154  47.226 -43.224  1.00  0.00     0.000 C 
BRANCH   6   7
ATOM      7  C   UNL     1    -110.702  47.744 -41.882  1.00  0.00     0.000 C 
BRANCH   7   8
ATOM      8  C   UNL     1    -111.717  46.815 -41.190  1.00  0.00     0.000 C 
BRANCH   8   9
ATOM      9  C   UNL     1    -111.914  45.481 -41.932  1.00  0.00     0.000 C 
BRANCH   9  10
ATOM     10  C   UNL     1    -111.668  44.261 -41.030  1.00  0.00     0.000 C 
BRANCH  10  11
ATOM     11  C   UNL     1    -111.789  44.596 -39.537  1.00  0.00     0.000 C 
BRANCH  11  12
ATOM     12  C   UNL     1    -111.118  43.516 -38.675  1.00  0.00     0.006 C 
BRANCH  12  13
ATOM     13  C   UNL     1    -110.641  42.320 -39.508  1.00  0.00     0.053 C 
BRANCH  13  14
ATOM     14  C   UNL     1    -109.728  41.424 -38.726  1.00  0.00     0.041 C 
ATOM     15  O   UNL     1    -108.837  40.758 -39.316  1.00  0.00    -0.550 OA
ATOM     16  O   UNL     1    -109.838  41.354 -37.343  1.00  0.00    -0.550 OA
ENDBRANCH  13  14
ENDBRANCH  12  13
ENDBRANCH  11  12
ENDBRANCH  10  11
ENDBRANCH   9  10
ENDBRANCH   8   9
ENDBRANCH   7   8
ENDBRANCH   6   7
ENDBRANCH   5   6
ENDBRANCH   4   5
ENDBRANCH   3   4
ENDBRANCH   2   3
ENDBRANCH   1   2
BRANCH   1  17
ATOM     17  C   UNL     1    -110.129  44.183 -45.391  1.00  0.00     0.000 C 
BRANCH  17  18
ATOM     18  C   UNL     1    -109.118  43.323 -44.610  1.00  0.00     0.000 C 
BRANCH  18  19
ATOM     19  C   UNL     1    -108.824  43.877 -43.205  1.00  0.00     0.000 C 
BRANCH  19  20
ATOM     20  C   UNL     1    -108.021  42.943 -42.282  1.00  0.00     0.000 C 
BRANCH  20  21
ATOM     21  C   UNL     1    -107.624  43.579 -40.934  1.00  0.00     0.000 C 
BRANCH  21  22
ATOM     22  C   UNL     1    -108.092  45.041 -40.808  1.00  0.00    -0.000 C 
BRANCH  22  23
ATOM     23  C   UNL     1    -108.112  45.529 -39.351  1.00  0.00    -0.000 C 
BRANCH  23  24
ATOM     24  C   UNL     1    -108.562  46.995 -39.223  1.00  0.00    -0.000 C 
BRANCH  24  25
ATOM     25  C   UNL     1    -108.923  47.382 -37.776  1.00  0.00    -0.000 C 
BRANCH  25  26
ATOM     26  C   UNL     1    -110.414  47.220 -37.412  1.00  0.00    -0.000 C 
BRANCH  26  27
ATOM     27  C   UNL     1    -110.709  46.162 -36.333  1.00  0.00    -0.000 C 
BRANCH  27  28
ATOM     28  C   UNL     1    -109.484  45.853 -35.456  1.00  0.00    -0.000 C 
BRANCH  28  29
ATOM     29  C   UNL     1    -108.923  44.445 -35.704  1.00  0.00    -0.003 C 
ATOM     30  C   UNL     1    -107.422  44.454 -35.996  1.00  0.00     0.004 C 
ENDBRANCH  28  29
ENDBRANCH  27  28
ENDBRANCH  26  27
ENDBRANCH  25  26
ENDBRANCH  24  25
ENDBRANCH  23  24
ENDBRANCH  22  23
ENDBRANCH  21  22
ENDBRANCH  20  21
ENDBRANCH  19  20
ENDBRANCH  18  19
ENDBRANCH  17  18
ENDBRANCH   1  17
TORSDOF 26
ENDMDL
MODEL 5
REMARK VINA RESULT:    -3.354      1.778      6.090
REMARK INTER + INTRA:         -12.499
REMARK INTER:                  -7.616
REMARK INTRA:                  -4.884
REMARK UNBOUND:                -4.047
REMARK SMILES CCCCCCCCCCCCCCCCCCCCCCCCCCCC(=O)[O-]
REMARK SMILES IDX 15 1 16 2 17 3 18 4 19 5 20 6 21 7 22 8 23 9 24 10 25 11
REMARK SMILES IDX 26 12 27 13 28 14 29 15 30 16 14 17 13 18 12 19 11 20 10 21
REMARK SMILES IDX 9 22 8 23 7 24 6 25 5 26 4 27 3 28 2 29 1 30
REMARK H PARENT
REMARK Flexibility Score: inf
ROOT
ATOM      1  C   UNL     1     -99.834  32.059 -36.661  1.00  0.00     0.000 C 
ENDROOT
BRANCH   1   2
ATOM      2  C   UNL     1     -99.574  31.491 -38.071  1.00  0.00     0.000 C 
BRANCH   2   3
ATOM      3  C   UNL     1    -100.680  30.567 -38.620  1.00  0.00     0.000 C 
BRANCH   3   4
ATOM      4  C   UNL     1    -102.003  30.587 -37.826  1.00  0.00     0.000 C 
BRANCH   4   5
ATOM      5  C   UNL     1    -103.272  30.772 -38.677  1.00  0.00     0.000 C 
BRANCH   5   6
ATOM      6  C   UNL     1    -104.081  32.018 -38.280  1.00  0.00     0.000 C 
BRANCH   6   7
ATOM      7  C   UNL     1    -105.536  31.976 -38.783  1.00  0.00     0.000 C 
BRANCH   7   8
ATOM      8  C   UNL     1    -106.312  30.694 -38.427  1.00  0.00     0.000 C 
BRANCH   8   9
ATOM      9  C   UNL     1    -107.279  30.886 -37.245  1.00  0.00     0.000 C 
BRANCH   9  10
ATOM     10  C   UNL     1    -107.735  32.345 -37.085  1.00  0.00     0.000 C 
BRANCH  10  11
ATOM     11  C   UNL     1    -107.409  32.916 -35.698  1.00  0.00     0.000 C 
BRANCH  11  12
ATOM     12  C   UNL     1    -108.666  32.973 -34.817  1.00  0.00     0.006 C 
BRANCH  12  13
ATOM     13  C   UNL     1    -108.680  34.204 -33.902  1.00  0.00     0.053 C 
BRANCH  13  14
ATOM     14  C   UNL     1    -109.960  34.974 -34.021  1.00  0.00     0.041 C 
ATOM     15  O   UNL     1    -110.688  35.153 -33.010  1.00  0.00    -0.550 OA
ATOM     16  O   UNL     1    -110.329  35.526 -35.242  1.00  0.00    -0.550 OA
ENDBRANCH  13  14
ENDBRANCH  12  13
ENDBRANCH  11  12
ENDBRANCH  10  11
ENDBRANCH   9  10
ENDBRANCH   8   9
ENDBRANCH   7   8
ENDBRANCH   6   7
ENDBRANCH   5   6
ENDBRANCH   4   5
ENDBRANCH   3   4
ENDBRANCH   2   3
ENDBRANCH   1   2
BRANCH   1  17
ATOM     17  C   UNL     1     -99.010  31.411 -35.532  1.00  0.00     0.000 C 
BRANCH  17  18
ATOM     18  C   UNL     1     -99.654  30.125 -34.985  1.00  0.00     0.000 C 
BRANCH  18  19
ATOM     19  C   UNL     1    -100.008  30.224 -33.491  1.00  0.00     0.000 C 
BRANCH  19  20
ATOM     20  C   UNL     1    -101.509  30.359 -33.176  1.00  0.00     0.000 C 
BRANCH  20  21
ATOM     21  C   UNL     1    -102.026  31.813 -33.186  1.00  0.00     0.000 C 
BRANCH  21  22
ATOM     22  C   UNL     1    -102.571  32.238 -34.561  1.00  0.00    -0.000 C 
BRANCH  22  23
ATOM     23  C   UNL     1    -104.096  32.084 -34.664  1.00  0.00    -0.000 C 
BRANCH  23  24
ATOM     24  C   UNL     1    -104.532  30.624 -34.880  1.00  0.00    -0.000 C 
BRANCH  24  25
ATOM     25  C   UNL     1    -105.651  30.189 -33.915  1.00  0.00    -0.000 C 
BRANCH  25  26
ATOM     26  C   UNL     1    -105.471  30.661 -32.456  1.00  0.00    -0.000 C 
BRANCH  26  27
ATOM     27  C   UNL     1    -106.649  31.472 -31.885  1.00  0.00    -0.000 C 
BRANCH  27  28
ATOM     28  C   UNL     1    -106.201  32.524 -30.857  1.00  0.00    -0.000 C 
BRANCH  28  29
ATOM     29  C   UNL     1    -105.002  33.350 -31.344  1.00  0.00    -0.003 C 
ATOM     30  C   UNL     1    -105.414  34.500 -32.263  1.00  0.00     0.004 C 
ENDBRANCH  28  29
ENDBRANCH  27  28
ENDBRANCH  26  27
ENDBRANCH  25  26
ENDBRANCH  24  25
ENDBRANCH  23  24
ENDBRANCH  22  23
ENDBRANCH  21  22
ENDBRANCH  20  21
ENDBRANCH  19  20
ENDBRANCH  18  19
ENDBRANCH  17  18
ENDBRANCH   1  17
TORSDOF 26
ENDMDL
MODEL 6
REMARK VINA RESULT:    -3.346      9.447     13.450
REMARK INTER + INTRA:         -12.478
REMARK INTER:                  -7.877
REMARK INTRA:                  -4.601
REMARK UNBOUND:                -4.047
REMARK SMILES CCCCCCCCCCCCCCCCCCCCCCCCCCCC(=O)[O-]
REMARK SMILES IDX 15 1 16 2 17 3 18 4 19 5 20 6 21 7 22 8 23 9 24 10 25 11
REMARK SMILES IDX 26 12 27 13 28 14 29 15 30 16 14 17 13 18 12 19 11 20 10 21
REMARK SMILES IDX 9 22 8 23 7 24 6 25 5 26 4 27 3 28 2 29 1 30
REMARK H PARENT
REMARK Flexibility Score: inf
ROOT
ATOM      1  C   UNL     1    -109.806  44.206 -37.599  1.00  0.00     0.000 C 
ENDROOT
BRANCH   1   2
ATOM      2  C   UNL     1    -108.284  44.183 -37.850  1.00  0.00     0.000 C 
BRANCH   2   3
ATOM      3  C   UNL     1    -107.428  44.853 -36.756  1.00  0.00     0.000 C 
BRANCH   3   4
ATOM      4  C   UNL     1    -108.228  45.519 -35.617  1.00  0.00     0.000 C 
BRANCH   4   5
ATOM      5  C   UNL     1    -107.464  45.679 -34.290  1.00  0.00     0.000 C 
BRANCH   5   6
ATOM      6  C   UNL     1    -105.991  45.251 -34.393  1.00  0.00     0.000 C 
BRANCH   6   7
ATOM      7  C   UNL     1    -105.682  43.963 -33.607  1.00  0.00     0.000 C 
BRANCH   7   8
ATOM      8  C   UNL     1    -106.788  43.510 -32.636  1.00  0.00     0.000 C 
BRANCH   8   9
ATOM      9  C   UNL     1    -107.386  42.141 -33.003  1.00  0.00     0.000 C 
BRANCH   9  10
ATOM     10  C   UNL     1    -107.372  41.875 -34.517  1.00  0.00     0.000 C 
BRANCH  10  11
ATOM     11  C   UNL     1    -108.782  41.792 -35.115  1.00  0.00     0.000 C 
BRANCH  11  12
ATOM     12  C   UNL     1    -108.889  40.629 -36.114  1.00  0.00     0.006 C 
BRANCH  12  13
ATOM     13  C   UNL     1    -110.053  39.685 -35.784  1.00  0.00     0.053 C 
BRANCH  13  14
ATOM     14  C   UNL     1    -109.916  39.087 -34.417  1.00  0.00     0.041 C 
ATOM     15  O   UNL     1    -108.898  38.406 -34.123  1.00  0.00    -0.550 OA
ATOM     16  O   UNL     1    -110.894  39.313 -33.457  1.00  0.00    -0.550 OA
ENDBRANCH  13  14
ENDBRANCH  12  13
ENDBRANCH  11  12
ENDBRANCH  10  11
ENDBRANCH   9  10
ENDBRANCH   8   9
ENDBRANCH   7   8
ENDBRANCH   6   7
ENDBRANCH   5   6
ENDBRANCH   4   5
ENDBRANCH   3   4
ENDBRANCH   2   3
ENDBRANCH   1   2
BRANCH   1  17
ATOM     17  C   UNL     1    -110.668  43.678 -38.760  1.00  0.00     0.000 C 
BRANCH  17  18
ATOM     18  C   UNL     1    -110.390  42.200 -39.088  1.00  0.00     0.000 C 
BRANCH  18  19
ATOM     19  C   UNL     1    -109.913  41.990 -40.536  1.00  0.00     0.000 C 
BRANCH  19  20
ATOM     20  C   UNL     1    -108.388  41.881 -40.719  1.00  0.00     0.000 C 
BRANCH  20  21
ATOM     21  C   UNL     1    -107.817  42.817 -41.805  1.00  0.00     0.000 C 
BRANCH  21  22
ATOM     22  C   UNL     1    -108.911  43.406 -42.715  1.00  0.00    -0.000 C 
BRANCH  22  23
ATOM     23  C   UNL     1    -108.891  44.941 -42.743  1.00  0.00    -0.000 C 
BRANCH  23  24
ATOM     24  C   UNL     1    -109.206  45.565 -41.371  1.00  0.00    -0.000 C 
BRANCH  24  25
ATOM     25  C   UNL     1    -107.966  46.185 -40.701  1.00  0.00    -0.000 C 
BRANCH  25  26
ATOM     26  C   UNL     1    -108.217  47.534 -39.992  1.00  0.00    -0.000 C 
BRANCH  26  27
ATOM     27  C   UNL     1    -107.702  48.771 -40.749  1.00  0.00    -0.000 C 
BRANCH  27  28
ATOM     28  C   UNL     1    -106.550  48.441 -41.712  1.00  0.00    -0.000 C 
BRANCH  28  29
ATOM     29  C   UNL     1    -106.811  48.945 -43.139  1.00  0.00    -0.003 C 
ATOM     30  C   UNL     1    -108.149  48.461 -43.698  1.00  0.00     0.004 C 
ENDBRANCH  28  29
ENDBRANCH  27  28
ENDBRANCH  26  27
ENDBRANCH  25  26
ENDBRANCH  24  25
ENDBRANCH  23  24
ENDBRANCH  22  23
ENDBRANCH  21  22
ENDBRANCH  20  21
ENDBRANCH  19  20
ENDBRANCH  18  19
ENDBRANCH  17  18
ENDBRANCH   1  17
TORSDOF 26
ENDMDL
MODEL 7
REMARK VINA RESULT:    -3.310     11.215     15.754
REMARK INTER + INTRA:         -12.388
REMARK INTER:                  -7.620
REMARK INTRA:                  -4.767
REMARK UNBOUND:                -4.047
REMARK SMILES CCCCCCCCCCCCCCCCCCCCCCCCCCCC(=O)[O-]
REMARK SMILES IDX 15 1 16 2 17 3 18 4 19 5 20 6 21 7 22 8 23 9 24 10 25 11
REMARK SMILES IDX 26 12 27 13 28 14 29 15 30 16 14 17 13 18 12 19 11 20 10 21
REMARK SMILES IDX 9 22 8 23 7 24 6 25 5 26 4 27 3 28 2 29 1 30
REMARK H PARENT
REMARK Flexibility Score: inf
ROOT
ATOM      1  C   UNL     1    -110.967  43.773 -43.475  1.00  0.00     0.000 C 
ENDROOT
BRANCH   1   2
ATOM      2  C   UNL     1    -111.336  45.209 -43.050  1.00  0.00     0.000 C 
BRANCH   2   3
ATOM      3  C   UNL     1    -110.274  45.936 -42.201  1.00  0.00     0.000 C 
BRANCH   3   4
ATOM      4  C   UNL     1    -108.932  45.189 -42.053  1.00  0.00     0.000 C 
BRANCH   4   5
ATOM      5  C   UNL     1    -108.395  45.091 -40.614  1.00  0.00     0.000 C 
BRANCH   5   6
ATOM      6  C   UNL     1    -107.684  43.757 -40.331  1.00  0.00     0.000 C 
BRANCH   6   7
ATOM      7  C   UNL     1    -107.836  42.740 -41.478  1.00  0.00     0.000 C 
BRANCH   7   8
ATOM      8  C   UNL     1    -108.641  41.475 -41.125  1.00  0.00     0.000 C 
BRANCH   8   9
ATOM      9  C   UNL     1    -110.086  41.784 -40.695  1.00  0.00     0.000 C 
BRANCH   9  10
ATOM     10  C   UNL     1    -110.460  41.122 -39.360  1.00  0.00     0.000 C 
BRANCH  10  11
ATOM     11  C   UNL     1    -109.230  40.739 -38.525  1.00  0.00     0.000 C 
BRANCH  11  12
ATOM     12  C   UNL     1    -109.251  41.442 -37.160  1.00  0.00     0.006 C 
BRANCH  12  13
ATOM     13  C   UNL     1    -109.308  42.969 -37.292  1.00  0.00     0.053 C 
BRANCH  13  14
ATOM     14  C   UNL     1    -108.382  43.648 -36.329  1.00  0.00     0.041 C 
ATOM     15  O   UNL     1    -107.615  44.564 -36.727  1.00  0.00    -0.550 OA
ATOM     16  O   UNL     1    -108.395  43.296 -34.986  1.00  0.00    -0.550 OA
ENDBRANCH  13  14
ENDBRANCH  12  13
ENDBRANCH  11  12
ENDBRANCH  10  11
ENDBRANCH   9  10
ENDBRANCH   8   9
ENDBRANCH   7   8
ENDBRANCH   6   7
ENDBRANCH   5   6
ENDBRANCH   4   5
ENDBRANCH   3   4
ENDBRANCH   2   3
ENDBRANCH   1   2
BRANCH   1  17
ATOM     17  C   UNL     1    -110.679  43.588 -44.976  1.00  0.00     0.000 C 
BRANCH  17  18
ATOM     18  C   UNL     1    -109.179  43.680 -45.314  1.00  0.00     0.000 C 
BRANCH  18  19
ATOM     19  C   UNL     1    -108.909  44.434 -46.627  1.00  0.00     0.000 C 
BRANCH  19  20
ATOM     20  C   UNL     1    -109.122  45.958 -46.570  1.00  0.00     0.000 C 
BRANCH  20  21
ATOM     21  C   UNL     1    -108.494  46.635 -45.334  1.00  0.00     0.000 C 
BRANCH  21  22
ATOM     22  C   UNL     1    -109.050  48.049 -45.086  1.00  0.00    -0.000 C 
BRANCH  22  23
ATOM     23  C   UNL     1    -107.964  49.132 -45.172  1.00  0.00    -0.000 C 
BRANCH  23  24
ATOM     24  C   UNL     1    -106.607  48.659 -44.621  1.00  0.00    -0.000 C 
BRANCH  24  25
ATOM     25  C   UNL     1    -105.917  49.721 -43.746  1.00  0.00    -0.000 C 
BRANCH  25  26
ATOM     26  C   UNL     1    -106.042  49.492 -42.224  1.00  0.00    -0.000 C 
BRANCH  26  27
ATOM     27  C   UNL     1    -106.980  48.342 -41.815  1.00  0.00    -0.000 C 
BRANCH  27  28
ATOM     28  C   UNL     1    -107.721  48.622 -40.497  1.00  0.00    -0.000 C 
BRANCH  28  29
ATOM     29  C   UNL     1    -108.759  49.746 -40.631  1.00  0.00    -0.003 C 
ATOM     30  C   UNL     1    -109.726  49.518 -41.793  1.00  0.00     0.004 C 
ENDBRANCH  28  29
ENDBRANCH  27  28
ENDBRANCH  26  27
ENDBRANCH  25  26
ENDBRANCH  24  25
ENDBRANCH  23  24
ENDBRANCH  22  23
ENDBRANCH  21  22
ENDBRANCH  20  21
ENDBRANCH  19  20
ENDBRANCH  18  19
ENDBRANCH  17  18
ENDBRANCH   1  17
TORSDOF 26
ENDMDL
MODEL 8
REMARK VINA RESULT:    -3.281      1.838      3.023
REMARK INTER + INTRA:         -12.315
REMARK INTER:                  -7.663
REMARK INTRA:                  -4.652
REMARK UNBOUND:                -4.047
REMARK SMILES CCCCCCCCCCCCCCCCCCCCCCCCCCCC(=O)[O-]
REMARK SMILES IDX 15 1 16 2 17 3 18 4 19 5 20 6 21 7 22 8 23 9 24 10 25 11
REMARK SMILES IDX 26 12 27 13 28 14 29 15 30 16 14 17 13 18 12 19 11 20 10 21
REMARK SMILES IDX 9 22 8 23 7 24 6 25 5 26 4 27 3 28 2 29 1 30
REMARK H PARENT
REMARK Flexibility Score: inf
ROOT
ATOM      1  C   UNL     1    -107.547  32.247 -36.411  1.00  0.00     0.000 C 
ENDROOT
BRANCH   1   2
ATOM      2  C   UNL     1    -106.905  32.887 -35.163  1.00  0.00     0.000 C 
BRANCH   2   3
ATOM      3  C   UNL     1    -107.014  32.055 -33.870  1.00  0.00     0.000 C 
BRANCH   3   4
ATOM      4  C   UNL     1    -106.095  32.513 -32.718  1.00  0.00     0.000 C 
BRANCH   4   5
ATOM      5  C   UNL     1    -105.455  33.900 -32.906  1.00  0.00     0.000 C 
BRANCH   5   6
ATOM      6  C   UNL     1    -105.311  34.676 -31.586  1.00  0.00     0.000 C 
BRANCH   6   7
ATOM      7  C   UNL     1    -105.947  36.077 -31.639  1.00  0.00     0.000 C 
BRANCH   7   8
ATOM      8  C   UNL     1    -107.485  36.100 -31.565  1.00  0.00     0.000 C 
BRANCH   8   9
ATOM      9  C   UNL     1    -108.125  37.012 -32.626  1.00  0.00     0.000 C 
BRANCH   9  10
ATOM     10  C   UNL     1    -109.177  36.282 -33.476  1.00  0.00     0.000 C 
BRANCH  10  11
ATOM     11  C   UNL     1    -109.577  34.924 -32.883  1.00  0.00     0.000 C 
BRANCH  11  12
ATOM     12  C   UNL     1    -110.149  33.998 -33.967  1.00  0.00     0.006 C 
BRANCH  12  13
ATOM     13  C   UNL     1    -110.271  34.698 -35.326  1.00  0.00     0.053 C 
BRANCH  13  14
ATOM     14  C   UNL     1    -111.299  34.046 -36.200  1.00  0.00     0.041 C 
ATOM     15  O   UNL     1    -112.470  34.506 -36.250  1.00  0.00    -0.550 OA
ATOM     16  O   UNL     1    -110.953  32.955 -36.987  1.00  0.00    -0.550 OA
ENDBRANCH  13  14
ENDBRANCH  12  13
ENDBRANCH  11  12
ENDBRANCH  10  11
ENDBRANCH   9  10
ENDBRANCH   8   9
ENDBRANCH   7   8
ENDBRANCH   6   7
ENDBRANCH   5   6
ENDBRANCH   4   5
ENDBRANCH   3   4
ENDBRANCH   2   3
ENDBRANCH   1   2
BRANCH   1  17
ATOM     17  C   UNL     1    -107.081  32.829 -37.759  1.00  0.00     0.000 C 
BRANCH  17  18
ATOM     18  C   UNL     1    -105.592  33.222 -37.758  1.00  0.00     0.000 C 
BRANCH  18  19
ATOM     19  C   UNL     1    -104.716  32.241 -38.556  1.00  0.00     0.000 C 
BRANCH  19  20
ATOM     20  C   UNL     1    -103.633  31.510 -37.742  1.00  0.00     0.000 C 
BRANCH  20  21
ATOM     21  C   UNL     1    -104.181  30.400 -36.821  1.00  0.00     0.000 C 
BRANCH  21  22
ATOM     22  C   UNL     1    -103.900  30.673 -35.332  1.00  0.00    -0.000 C 
BRANCH  22  23
ATOM     23  C   UNL     1    -103.297  32.065 -35.092  1.00  0.00    -0.000 C 
BRANCH  23  24
ATOM     24  C   UNL     1    -102.109  32.038 -34.114  1.00  0.00    -0.000 C 
BRANCH  24  25
ATOM     25  C   UNL     1    -101.333  30.708 -34.158  1.00  0.00    -0.000 C 
BRANCH  25  26
ATOM     26  C   UNL     1     -99.797  30.849 -34.084  1.00  0.00    -0.000 C 
BRANCH  26  27
ATOM     27  C   UNL     1     -99.105  31.134 -35.429  1.00  0.00    -0.000 C 
BRANCH  27  28
ATOM     28  C   UNL     1     -99.983  30.768 -36.638  1.00  0.00    -0.000 C 
BRANCH  28  29
ATOM     29  C   UNL     1     -99.937  31.832 -37.744  1.00  0.00    -0.003 C 
ATOM     30  C   UNL     1     -98.756  32.791 -37.589  1.00  0.00     0.004 C 
ENDBRANCH  28  29
ENDBRANCH  27  28
ENDBRANCH  26  27
ENDBRANCH  25  26
ENDBRANCH  24  25
ENDBRANCH  23  24
ENDBRANCH  22  23
ENDBRANCH  21  22
ENDBRANCH  20  21
ENDBRANCH  19  20
ENDBRANCH  18  19
ENDBRANCH  17  18
ENDBRANCH   1  17
TORSDOF 26
ENDMDL
MODEL 9
REMARK VINA RESULT:    -3.274     12.373     15.940
REMARK INTER + INTRA:         -12.297
REMARK INTER:                  -6.275
REMARK INTRA:                  -6.022
REMARK UNBOUND:                -4.047
REMARK SMILES CCCCCCCCCCCCCCCCCCCCCCCCCCCC(=O)[O-]
REMARK SMILES IDX 15 1 16 2 17 3 18 4 19 5 20 6 21 7 22 8 23 9 24 10 25 11
REMARK SMILES IDX 26 12 27 13 28 14 29 15 30 16 14 17 13 18 12 19 11 20 10 21
REMARK SMILES IDX 9 22 8 23 7 24 6 25 5 26 4 27 3 28 2 29 1 30
REMARK H PARENT
REMARK Flexibility Score: inf
ROOT
ATOM      1  C   UNL     1    -107.064  48.341 -41.338  1.00  0.00     0.000 C 
ENDROOT
BRANCH   1   2
ATOM      2  C   UNL     1    -107.170  49.296 -42.545  1.00  0.00     0.000 C 
BRANCH   2   3
ATOM      3  C   UNL     1    -106.901  48.650 -43.918  1.00  0.00     0.000 C 
BRANCH   3   4
ATOM      4  C   UNL     1    -108.160  48.193 -44.684  1.00  0.00     0.000 C 
BRANCH   4   5
ATOM      5  C   UNL     1    -108.558  46.722 -44.467  1.00  0.00     0.000 C 
BRANCH   5   6
ATOM      6  C   UNL     1    -109.659  46.552 -43.406  1.00  0.00     0.000 C 
BRANCH   6   7
ATOM      7  C   UNL     1    -110.536  47.807 -43.242  1.00  0.00     0.000 C 
BRANCH   7   8
ATOM      8  C   UNL     1    -111.402  47.837 -41.970  1.00  0.00     0.000 C 
BRANCH   8   9
ATOM      9  C   UNL     1    -111.805  46.433 -41.485  1.00  0.00     0.000 C 
BRANCH   9  10
ATOM     10  C   UNL     1    -112.041  46.377 -39.967  1.00  0.00     0.000 C 
BRANCH  10  11
ATOM     11  C   UNL     1    -111.874  44.962 -39.396  1.00  0.00     0.000 C 
BRANCH  11  12
ATOM     12  C   UNL     1    -111.139  44.996 -38.047  1.00  0.00     0.006 C 
BRANCH  12  13
ATOM     13  C   UNL     1    -110.805  43.590 -37.532  1.00  0.00     0.053 C 
BRANCH  13  14
ATOM     14  C   UNL     1    -109.587  43.591 -36.659  1.00  0.00     0.041 C 
ATOM     15  O   UNL     1    -108.900  42.543 -36.528  1.00  0.00    -0.550 OA
ATOM     16  O   UNL     1    -109.189  44.758 -36.019  1.00  0.00    -0.550 OA
ENDBRANCH  13  14
ENDBRANCH  12  13
ENDBRANCH  11  12
ENDBRANCH  10  11
ENDBRANCH   9  10
ENDBRANCH   8   9
ENDBRANCH   7   8
ENDBRANCH   6   7
ENDBRANCH   5   6
ENDBRANCH   4   5
ENDBRANCH   3   4
ENDBRANCH   2   3
ENDBRANCH   1   2
BRANCH   1  17
ATOM     17  C   UNL     1    -108.182  48.485 -40.289  1.00  0.00     0.000 C 
BRANCH  17  18
ATOM     18  C   UNL     1    -108.484  47.169 -39.550  1.00  0.00     0.000 C 
BRANCH  18  19
ATOM     19  C   UNL     1    -108.130  45.924 -40.381  1.00  0.00     0.000 C 
BRANCH  19  20
ATOM     20  C   UNL     1    -107.774  44.666 -39.567  1.00  0.00     0.000 C 
BRANCH  20  21
ATOM     21  C   UNL     1    -108.201  43.342 -40.235  1.00  0.00     0.000 C 
BRANCH  21  22
ATOM     22  C   UNL     1    -107.775  43.259 -41.712  1.00  0.00    -0.000 C 
BRANCH  22  23
ATOM     23  C   UNL     1    -108.970  43.085 -42.661  1.00  0.00    -0.000 C 
BRANCH  23  24
ATOM     24  C   UNL     1    -110.313  42.993 -41.915  1.00  0.00    -0.000 C 
BRANCH  24  25
ATOM     25  C   UNL     1    -111.526  43.077 -42.861  1.00  0.00    -0.000 C 
BRANCH  25  26
ATOM     26  C   UNL     1    -111.175  43.147 -44.363  1.00  0.00    -0.000 C 
BRANCH  26  27
ATOM     27  C   UNL     1    -111.868  44.280 -45.141  1.00  0.00    -0.000 C 
BRANCH  27  28
ATOM     28  C   UNL     1    -111.067  44.729 -46.374  1.00  0.00    -0.000 C 
BRANCH  28  29
ATOM     29  C   UNL     1    -109.750  43.956 -46.534  1.00  0.00    -0.003 C 
ATOM     30  C   UNL     1    -108.854  44.540 -47.627  1.00  0.00     0.004 C 
ENDBRANCH  28  29
ENDBRANCH  27  28
ENDBRANCH  26  27
ENDBRANCH  25  26
ENDBRANCH  24  25
ENDBRANCH  23  24
ENDBRANCH  22  23
ENDBRANCH  21  22
ENDBRANCH  20  21
ENDBRANCH  19  20
ENDBRANCH  18  19
ENDBRANCH  17  18
ENDBRANCH   1  17
TORSDOF 26
ENDMDL
