MODEL 1
REMARK VINA RESULT:    -3.197      0.000      0.000
REMARK INTER + INTRA:          -3.821
REMARK INTER:                  -3.757
REMARK INTRA:                  -0.063
REMARK UNBOUND:                -0.063
REMARK SMILES CCCCC(=O)[O-]
REMARK SMILES IDX 4 1 5 2 6 3 7 4 3 5 2 6 1 7
REMARK H PARENT
REMARK Flexibility Score: inf
ROOT
ATOM      1  C   UNL     1      49.483   8.510  17.874  1.00  0.00     0.053 C 
ENDROOT
BRANCH   1   2
ATOM      2  C   UNL     1      49.889   8.164  16.477  1.00  0.00     0.041 C 
ATOM      3  O   UNL     1      50.488   7.082  16.241  1.00  0.00    -0.550 OA
ATOM      4  O   UNL     1      49.562   9.012  15.427  1.00  0.00    -0.550 OA
ENDBRANCH   1   2
BRANCH   1   5
ATOM      5  C   UNL     1      50.710   8.902  18.707  1.00  0.00     0.006 C 
BRANCH   5   6
ATOM      6  C   UNL     1      51.068   7.844  19.763  1.00  0.00    -0.003 C 
ATOM      7  C   UNL     1      49.882   7.471  20.651  1.00  0.00     0.004 C 
ENDBRANCH   5   6
ENDBRANCH   1   5
TORSDOF 3
ENDMDL
MODEL 2
REMARK VINA RESULT:    -3.133     11.396     12.256
REMARK INTER + INTRA:          -3.746
REMARK INTER:                  -3.633
REMARK INTRA:                  -0.113
REMARK UNBOUND:                -0.063
REMARK SMILES CCCCC(=O)[O-]
REMARK SMILES IDX 4 1 5 2 6 3 7 4 3 5 2 6 1 7
REMARK H PARENT
REMARK Flexibility Score: inf
ROOT
ATOM      1  C   UNL     1      55.597  -1.218  18.785  1.00  0.00     0.053 C 
ENDROOT
BRANCH   1   2
ATOM      2  C   UNL     1      54.480  -2.144  19.153  1.00  0.00     0.041 C 
ATOM      3  O   UNL     1      54.271  -3.184  18.477  1.00  0.00    -0.550 OA
ATOM      4  O   UNL     1      53.701  -1.884  20.273  1.00  0.00    -0.550 OA
ENDBRANCH   1   2
BRANCH   1   5
ATOM      5  C   UNL     1      56.919  -1.710  19.386  1.00  0.00     0.006 C 
BRANCH   5   6
ATOM      6  C   UNL     1      57.841  -2.352  18.337  1.00  0.00    -0.003 C 
ATOM      7  C   UNL     1      57.792  -3.879  18.364  1.00  0.00     0.004 C 
ENDBRANCH   5   6
ENDBRANCH   1   5
TORSDOF 3
ENDMDL
MODEL 3
REMARK VINA RESULT:    -3.122     11.084     11.904
REMARK INTER + INTRA:          -3.733
REMARK INTER:                  -3.689
REMARK INTRA:                  -0.044
REMARK UNBOUND:                -0.063
REMARK SMILES CCCCC(=O)[O-]
REMARK SMILES IDX 4 1 5 2 6 3 7 4 3 5 2 6 1 7
REMARK H PARENT
REMARK Flexibility Score: inf
ROOT
ATOM      1  C   UNL     1      55.546  -1.113  18.788  1.00  0.00     0.053 C 
ENDROOT
BRANCH   1   2
ATOM      2  C   UNL     1      54.571  -2.186  19.159  1.00  0.00     0.041 C 
ATOM      3  O   UNL     1      53.817  -2.040  20.156  1.00  0.00    -0.550 OA
ATOM      4  O   UNL     1      54.460  -3.326  18.374  1.00  0.00    -0.550 OA
ENDBRANCH   1   2
BRANCH   1   5
ATOM      5  C   UNL     1      56.962  -1.500  19.230  1.00  0.00     0.006 C 
BRANCH   5   6
ATOM      6  C   UNL     1      57.921  -1.683  18.043  1.00  0.00    -0.003 C 
ATOM      7  C   UNL     1      58.290  -0.360  17.373  1.00  0.00     0.004 C 
ENDBRANCH   5   6
ENDBRANCH   1   5
TORSDOF 3
ENDMDL
MODEL 4
REMARK VINA RESULT:    -3.121     11.840     12.696
REMARK INTER + INTRA:          -3.732
REMARK INTER:                  -3.642
REMARK INTRA:                  -0.090
REMARK UNBOUND:                -0.063
REMARK SMILES CCCCC(=O)[O-]
REMARK SMILES IDX 4 1 5 2 6 3 7 4 3 5 2 6 1 7
REMARK H PARENT
REMARK Flexibility Score: inf
ROOT
ATOM      1  C   UNL     1      56.906  -1.876  19.458  1.00  0.00     0.053 C 
ENDROOT
BRANCH   1   2
ATOM      2  C   UNL     1      57.757  -2.633  18.489  1.00  0.00     0.041 C 
ATOM      3  O   UNL     1      57.858  -3.884  18.577  1.00  0.00    -0.550 OA
ATOM      4  O   UNL     1      58.400  -1.962  17.456  1.00  0.00    -0.550 OA
ENDBRANCH   1   2
BRANCH   1   5
ATOM      5  C   UNL     1      55.554  -1.526  18.824  1.00  0.00     0.006 C 
BRANCH   5   6
ATOM      6  C   UNL     1      54.417  -2.431  19.324  1.00  0.00    -0.003 C 
ATOM      7  C   UNL     1      54.253  -3.695  18.480  1.00  0.00     0.004 C 
ENDBRANCH   5   6
ENDBRANCH   1   5
TORSDOF 3
ENDMDL
MODEL 5
REMARK VINA RESULT:    -3.045      6.534      7.321
REMARK INTER + INTRA:          -3.642
REMARK INTER:                  -3.543
REMARK INTRA:                  -0.100
REMARK UNBOUND:                -0.063
REMARK SMILES CCCCC(=O)[O-]
REMARK SMILES IDX 4 1 5 2 6 3 7 4 3 5 2 6 1 7
REMARK H PARENT
REMARK Flexibility Score: inf
ROOT
ATOM      1  C   UNL     1      49.926  13.772  18.285  1.00  0.00     0.053 C 
ENDROOT
BRANCH   1   2
ATOM      2  C   UNL     1      49.779  15.193  18.730  1.00  0.00     0.041 C 
ATOM      3  O   UNL     1      50.298  16.124  18.060  1.00  0.00    -0.550 OA
ATOM      4  O   UNL     1      49.025  15.494  19.857  1.00  0.00    -0.550 OA
ENDBRANCH   1   2
BRANCH   1   5
ATOM      5  C   UNL     1      48.989  13.481  17.106  1.00  0.00     0.006 C 
BRANCH   5   6
ATOM      6  C   UNL     1      49.740  12.956  15.872  1.00  0.00    -0.003 C 
ATOM      7  C   UNL     1      50.246  14.080  14.968  1.00  0.00     0.004 C 
ENDBRANCH   5   6
ENDBRANCH   1   5
TORSDOF 3
ENDMDL
MODEL 6
REMARK VINA RESULT:    -3.035      6.040      6.618
REMARK INTER + INTRA:          -3.631
REMARK INTER:                  -3.580
REMARK INTRA:                  -0.051
REMARK UNBOUND:                -0.063
REMARK SMILES CCCCC(=O)[O-]
REMARK SMILES IDX 4 1 5 2 6 3 7 4 3 5 2 6 1 7
REMARK H PARENT
REMARK Flexibility Score: inf
ROOT
ATOM      1  C   UNL     1      49.954  15.144  17.719  1.00  0.00     0.053 C 
ENDROOT
BRANCH   1   2
ATOM      2  C   UNL     1      49.595  13.747  17.323  1.00  0.00     0.041 C 
ATOM      3  O   UNL     1      50.160  12.767  17.875  1.00  0.00    -0.550 OA
ATOM      4  O   UNL     1      48.600  13.526  16.379  1.00  0.00    -0.550 OA
ENDBRANCH   1   2
BRANCH   1   5
ATOM      5  C   UNL     1      49.851  15.312  19.240  1.00  0.00     0.006 C 
BRANCH   5   6
ATOM      6  C   UNL     1      48.435  15.032  19.770  1.00  0.00    -0.003 C 
ATOM      7  C   UNL     1      48.131  15.784  21.065  1.00  0.00     0.004 C 
ENDBRANCH   5   6
ENDBRANCH   1   5
TORSDOF 3
ENDMDL
MODEL 7
REMARK VINA RESULT:    -3.017      4.983      6.181
REMARK INTER + INTRA:          -3.609
REMARK INTER:                  -3.543
REMARK INTRA:                  -0.067
REMARK UNBOUND:                -0.063
REMARK SMILES CCCCC(=O)[O-]
REMARK SMILES IDX 4 1 5 2 6 3 7 4 3 5 2 6 1 7
REMARK H PARENT
REMARK Flexibility Score: inf
ROOT
ATOM      1  C   UNL     1      49.719  13.753  17.560  1.00  0.00     0.053 C 
ENDROOT
BRANCH   1   2
ATOM      2  C   UNL     1      49.322  12.622  18.454  1.00  0.00     0.041 C 
ATOM      3  O   UNL     1      48.354  12.752  19.248  1.00  0.00    -0.550 OA
ATOM      4  O   UNL     1      49.990  11.407  18.377  1.00  0.00    -0.550 OA
ENDBRANCH   1   2
BRANCH   1   5
ATOM      5  C   UNL     1      48.916  13.710  16.254  1.00  0.00     0.006 C 
BRANCH   5   6
ATOM      6  C   UNL     1      49.612  12.883  15.161  1.00  0.00    -0.003 C 
ATOM      7  C   UNL     1      50.878  13.554  14.629  1.00  0.00     0.004 C 
ENDBRANCH   5   6
ENDBRANCH   1   5
TORSDOF 3
ENDMDL
MODEL 8
REMARK VINA RESULT:    -2.979      5.604      6.307
REMARK INTER + INTRA:          -3.565
REMARK INTER:                  -3.478
REMARK INTRA:                  -0.087
REMARK UNBOUND:                -0.063
REMARK SMILES CCCCC(=O)[O-]
REMARK SMILES IDX 4 1 5 2 6 3 7 4 3 5 2 6 1 7
REMARK H PARENT
REMARK Flexibility Score: inf
ROOT
ATOM      1  C   UNL     1      49.300  13.572  15.977  1.00  0.00     0.053 C 
ENDROOT
BRANCH   1   2
ATOM      2  C   UNL     1      50.323  14.168  15.062  1.00  0.00     0.041 C 
ATOM      3  O   UNL     1      51.024  13.426  14.326  1.00  0.00    -0.550 OA
ATOM      4  O   UNL     1      50.468  15.548  14.985  1.00  0.00    -0.550 OA
ENDBRANCH   1   2
BRANCH   1   5
ATOM      5  C   UNL     1      49.959  13.089  17.274  1.00  0.00     0.006 C 
BRANCH   5   6
ATOM      6  C   UNL     1      49.389  13.785  18.520  1.00  0.00    -0.003 C 
ATOM      7  C   UNL     1      49.969  15.184  18.732  1.00  0.00     0.004 C 
ENDBRANCH   5   6
ENDBRANCH   1   5
TORSDOF 3
ENDMDL
MODEL 9
REMARK VINA RESULT:    -2.925      6.258      6.859
REMARK INTER + INTRA:          -3.501
REMARK INTER:                  -3.428
REMARK INTRA:                  -0.073
REMARK UNBOUND:                -0.063
REMARK SMILES CCCCC(=O)[O-]
REMARK SMILES IDX 4 1 5 2 6 3 7 4 3 5 2 6 1 7
REMARK H PARENT
REMARK Flexibility Score: inf
ROOT
ATOM      1  C   UNL     1      51.987   2.936  19.107  1.00  0.00     0.053 C 
ENDROOT
BRANCH   1   2
ATOM      2  C   UNL     1      53.209   2.233  19.606  1.00  0.00     0.041 C 
ATOM      3  O   UNL     1      53.361   1.001  19.397  1.00  0.00    -0.550 OA
ATOM      4  O   UNL     1      54.205   2.948  20.259  1.00  0.00    -0.550 OA
ENDBRANCH   1   2
BRANCH   1   5
ATOM      5  C   UNL     1      51.101   3.370  20.282  1.00  0.00     0.006 C 
BRANCH   5   6
ATOM      6  C   UNL     1      50.424   2.181  20.981  1.00  0.00    -0.003 C 
ATOM      7  C   UNL     1      48.950   2.035  20.603  1.00  0.00     0.004 C 
ENDBRANCH   5   6
ENDBRANCH   1   5
TORSDOF 3
ENDMDL
