MODEL 1
REMARK VINA RESULT:    -2.060      0.000      0.000
REMARK INTER + INTRA:          -4.040
REMARK INTER:                  -3.264
REMARK INTRA:                  -0.776
REMARK UNBOUND:                -0.776
REMARK SMILES CCCCCCCCCCCC(=O)[O-]
REMARK SMILES IDX 7 1 8 2 9 3 10 4 11 5 12 6 13 7 14 8 6 9 5 10 4 11 3 12 2 13
REMARK SMILES IDX 1 14
REMARK H PARENT
REMARK Flexibility Score: inf
ROOT
ATOM      1  C   UNL     1      -3.417   4.991   6.875  1.00  0.00     0.000 C 
ENDROOT
BRANCH   1   2
ATOM      2  C   UNL     1      -3.066   3.673   7.590  1.00  0.00     0.000 C 
BRANCH   2   3
ATOM      3  C   UNL     1      -4.144   2.578   7.438  1.00  0.00     0.000 C 
BRANCH   3   4
ATOM      4  C   UNL     1      -5.507   3.013   7.996  1.00  0.00     0.006 C 
BRANCH   4   5
ATOM      5  C   UNL     1      -5.433   3.246   9.508  1.00  0.00     0.053 C 
BRANCH   5   6
ATOM      6  C   UNL     1      -6.189   4.479   9.886  1.00  0.00     0.041 C 
ATOM      7  O   UNL     1      -5.582   5.571  10.046  1.00  0.00    -0.550 OA
ATOM      8  O   UNL     1      -7.558   4.414  10.113  1.00  0.00    -0.550 OA
ENDBRANCH   5   6
ENDBRANCH   4   5
ENDBRANCH   3   4
ENDBRANCH   2   3
ENDBRANCH   1   2
BRANCH   1   9
ATOM      9  C   UNL     1      -3.134   6.266   7.690  1.00  0.00     0.000 C 
BRANCH   9  10
ATOM     10  C   UNL     1      -2.298   6.053   8.971  1.00  0.00    -0.000 C 
BRANCH  10  11
ATOM     11  C   UNL     1      -2.618   7.019  10.125  1.00  0.00    -0.000 C 
BRANCH  11  12
ATOM     12  C   UNL     1      -1.786   8.312  10.070  1.00  0.00    -0.000 C 
BRANCH  12  13
ATOM     13  C   UNL     1      -0.280   8.038   9.949  1.00  0.00    -0.003 C 
ATOM     14  C   UNL     1       0.557   9.317   9.986  1.00  0.00     0.004 C 
ENDBRANCH  12  13
ENDBRANCH  11  12
ENDBRANCH  10  11
ENDBRANCH   9  10
ENDBRANCH   1   9
TORSDOF 10
ENDMDL
MODEL 2
REMARK VINA RESULT:    -1.980      2.831      6.062
REMARK INTER + INTRA:          -3.913
REMARK INTER:                  -3.239
REMARK INTRA:                  -0.675
REMARK UNBOUND:                -0.776
REMARK SMILES CCCCCCCCCCCC(=O)[O-]
REMARK SMILES IDX 7 1 8 2 9 3 10 4 11 5 12 6 13 7 14 8 6 9 5 10 4 11 3 12 2 13
REMARK SMILES IDX 1 14
REMARK H PARENT
REMARK Flexibility Score: inf
ROOT
ATOM      1  C   UNL     1      -3.150   4.720   6.970  1.00  0.00     0.000 C 
ENDROOT
BRANCH   1   2
ATOM      2  C   UNL     1      -3.011   6.046   7.742  1.00  0.00     0.000 C 
BRANCH   2   3
ATOM      3  C   UNL     1      -2.517   5.869   9.194  1.00  0.00     0.000 C 
BRANCH   3   4
ATOM      4  C   UNL     1      -2.204   7.209   9.877  1.00  0.00     0.006 C 
BRANCH   4   5
ATOM      5  C   UNL     1      -0.693   7.450   9.949  1.00  0.00     0.053 C 
BRANCH   5   6
ATOM      6  C   UNL     1      -0.390   8.912   9.872  1.00  0.00     0.041 C 
ATOM      7  O   UNL     1      -1.287   9.728   9.533  1.00  0.00    -0.550 OA
ATOM      8  O   UNL     1       0.897   9.370  10.125  1.00  0.00    -0.550 OA
ENDBRANCH   5   6
ENDBRANCH   4   5
ENDBRANCH   3   4
ENDBRANCH   2   3
ENDBRANCH   1   2
BRANCH   1   9
ATOM      9  C   UNL     1      -4.438   3.930   7.267  1.00  0.00     0.000 C 
BRANCH   9  10
ATOM     10  C   UNL     1      -4.293   2.817   8.327  1.00  0.00    -0.000 C 
BRANCH  10  11
ATOM     11  C   UNL     1      -5.233   2.947   9.538  1.00  0.00    -0.000 C 
BRANCH  11  12
ATOM     12  C   UNL     1      -5.462   4.408   9.964  1.00  0.00    -0.000 C 
BRANCH  12  13
ATOM     13  C   UNL     1      -6.951   4.751  10.112  1.00  0.00    -0.003 C 
ATOM     14  C   UNL     1      -7.844   3.510  10.125  1.00  0.00     0.004 C 
ENDBRANCH  12  13
ENDBRANCH  11  12
ENDBRANCH  10  11
ENDBRANCH   9  10
ENDBRANCH   1   9
TORSDOF 10
ENDMDL
MODEL 3
REMARK VINA RESULT:    -1.246      1.946      3.085
REMARK INTER + INTRA:          -2.751
REMARK INTER:                  -2.917
REMARK INTRA:                   0.166
REMARK UNBOUND:                -0.776
REMARK SMILES CCCCCCCCCCCC(=O)[O-]
REMARK SMILES IDX 7 1 8 2 9 3 10 4 11 5 12 6 13 7 14 8 6 9 5 10 4 11 3 12 2 13
REMARK SMILES IDX 1 14
REMARK H PARENT
REMARK Flexibility Score: inf
ROOT
ATOM      1  C   UNL     1      -6.084   4.303   9.657  1.00  0.00     0.000 C 
ENDROOT
BRANCH   1   2
ATOM      2  C   UNL     1      -5.104   3.116   9.616  1.00  0.00     0.000 C 
BRANCH   2   3
ATOM      3  C   UNL     1      -5.132   2.333   8.285  1.00  0.00     0.000 C 
BRANCH   3   4
ATOM      4  C   UNL     1      -3.963   2.702   7.360  1.00  0.00     0.006 C 
BRANCH   4   5
ATOM      5  C   UNL     1      -3.367   4.060   7.742  1.00  0.00     0.053 C 
BRANCH   5   6
ATOM      6  C   UNL     1      -3.386   4.990   6.572  1.00  0.00     0.041 C 
ATOM      7  O   UNL     1      -2.995   4.595   5.442  1.00  0.00    -0.550 OA
ATOM      8  O   UNL     1      -3.787   6.310   6.739  1.00  0.00    -0.550 OA
ENDBRANCH   5   6
ENDBRANCH   4   5
ENDBRANCH   3   4
ENDBRANCH   2   3
ENDBRANCH   1   2
BRANCH   1   9
ATOM      9  C   UNL     1      -5.468   5.635  10.124  1.00  0.00     0.000 C 
BRANCH   9  10
ATOM     10  C   UNL     1      -3.926   5.696  10.077  1.00  0.00    -0.000 C 
BRANCH  10  11
ATOM     11  C   UNL     1      -3.338   7.099   9.848  1.00  0.00    -0.000 C 
BRANCH  11  12
ATOM     12  C   UNL     1      -1.813   7.148  10.048  1.00  0.00    -0.000 C 
BRANCH  12  13
ATOM     13  C   UNL     1      -1.239   8.559   9.854  1.00  0.00    -0.003 C 
ATOM     14  C   UNL     1       0.264   8.627  10.125  1.00  0.00     0.004 C 
ENDBRANCH  12  13
ENDBRANCH  11  12
ENDBRANCH  10  11
ENDBRANCH   9  10
ENDBRANCH   1   9
TORSDOF 10
ENDMDL
MODEL 4
REMARK VINA RESULT:    -0.686      3.458      6.686
REMARK INTER + INTRA:          -1.863
REMARK INTER:                  -1.571
REMARK INTRA:                  -0.293
REMARK UNBOUND:                -0.776
REMARK SMILES CCCCCCCCCCCC(=O)[O-]
REMARK SMILES IDX 7 1 8 2 9 3 10 4 11 5 12 6 13 7 14 8 6 9 5 10 4 11 3 12 2 13
REMARK SMILES IDX 1 14
REMARK H PARENT
REMARK Flexibility Score: inf
ROOT
ATOM      1  C   UNL     1      -3.500   5.338   8.186  1.00  0.00     0.000 C 
ENDROOT
BRANCH   1   2
ATOM      2  C   UNL     1      -2.369   6.358   8.415  1.00  0.00     0.000 C 
BRANCH   2   3
ATOM      3  C   UNL     1      -2.301   6.896   9.861  1.00  0.00     0.000 C 
BRANCH   3   4
ATOM      4  C   UNL     1      -1.273   8.025  10.022  1.00  0.00     0.006 C 
BRANCH   4   5
ATOM      5  C   UNL     1       0.149   7.464  10.117  1.00  0.00     0.053 C 
BRANCH   5   6
ATOM      6  C   UNL     1       1.153   8.571  10.090  1.00  0.00     0.041 C 
ATOM      7  O   UNL     1       0.775   9.768   9.989  1.00  0.00    -0.550 OA
ATOM      8  O   UNL     1       2.511   8.280  10.125  1.00  0.00    -0.550 OA
ENDBRANCH   5   6
ENDBRANCH   4   5
ENDBRANCH   3   4
ENDBRANCH   2   3
ENDBRANCH   1   2
BRANCH   1   9
ATOM      9  C   UNL     1      -4.766   5.574   9.029  1.00  0.00     0.000 C 
BRANCH   9  10
ATOM     10  C   UNL     1      -5.136   4.425   9.992  1.00  0.00    -0.000 C 
BRANCH  10  11
ATOM     11  C   UNL     1      -6.196   3.446   9.459  1.00  0.00    -0.000 C 
BRANCH  11  12
ATOM     12  C   UNL     1      -5.897   2.960   8.029  1.00  0.00    -0.000 C 
BRANCH  12  13
ATOM     13  C   UNL     1      -4.611   2.124   7.950  1.00  0.00    -0.003 C 
ATOM     14  C   UNL     1      -4.358   1.563   6.550  1.00  0.00     0.004 C 
ENDBRANCH  12  13
ENDBRANCH  11  12
ENDBRANCH  10  11
ENDBRANCH   9  10
ENDBRANCH   1   9
TORSDOF 10
ENDMDL
MODEL 5
REMARK VINA RESULT:    -0.285     10.897     12.853
REMARK INTER + INTRA:          -1.227
REMARK INTER:                  -0.955
REMARK INTRA:                  -0.272
REMARK UNBOUND:                -0.776
REMARK SMILES CCCCCCCCCCCC(=O)[O-]
REMARK SMILES IDX 7 1 8 2 9 3 10 4 11 5 12 6 13 7 14 8 6 9 5 10 4 11 3 12 2 13
REMARK SMILES IDX 1 14
REMARK H PARENT
REMARK Flexibility Score: inf
ROOT
ATOM      1  C   UNL     1      -1.283   7.911  -1.575  1.00  0.00     0.000 C 
ENDROOT
BRANCH   1   2
ATOM      2  C   UNL     1       0.205   8.142  -1.893  1.00  0.00     0.000 C 
BRANCH   2   3
ATOM      3  C   UNL     1       1.156   7.177  -1.153  1.00  0.00     0.000 C 
BRANCH   3   4
ATOM      4  C   UNL     1       2.601   7.263  -1.667  1.00  0.00     0.006 C 
BRANCH   4   5
ATOM      5  C   UNL     1       2.854   8.599  -2.372  1.00  0.00     0.053 C 
BRANCH   5   6
ATOM      6  C   UNL     1       3.978   9.335  -1.713  1.00  0.00     0.041 C 
ATOM      7  O   UNL     1       3.766  10.023  -0.680  1.00  0.00    -0.550 OA
ATOM      8  O   UNL     1       5.250   9.303  -2.270  1.00  0.00    -0.550 OA
ENDBRANCH   5   6
ENDBRANCH   4   5
ENDBRANCH   3   4
ENDBRANCH   2   3
ENDBRANCH   1   2
BRANCH   1   9
ATOM      9  C   UNL     1      -1.790   8.611  -0.300  1.00  0.00     0.000 C 
BRANCH   9  10
ATOM     10  C   UNL     1      -3.278   8.366   0.034  1.00  0.00    -0.000 C 
BRANCH  10  11
ATOM     11  C   UNL     1      -4.073   9.626   0.418  1.00  0.00    -0.000 C 
BRANCH  11  12
ATOM     12  C   UNL     1      -4.988  10.124  -0.715  1.00  0.00    -0.000 C 
BRANCH  12  13
ATOM     13  C   UNL     1      -5.279   9.035  -1.757  1.00  0.00    -0.003 C 
ATOM     14  C   UNL     1      -4.301   9.068  -2.932  1.00  0.00     0.004 C 
ENDBRANCH  12  13
ENDBRANCH  11  12
ENDBRANCH  10  11
ENDBRANCH   9  10
ENDBRANCH   1   9
TORSDOF 10
ENDMDL
MODEL 6
REMARK VINA RESULT:    -0.184     10.473     11.650
REMARK INTER + INTRA:          -1.067
REMARK INTER:                  -1.200
REMARK INTRA:                   0.133
REMARK UNBOUND:                -0.776
REMARK SMILES CCCCCCCCCCCC(=O)[O-]
REMARK SMILES IDX 7 1 8 2 9 3 10 4 11 5 12 6 13 7 14 8 6 9 5 10 4 11 3 12 2 13
REMARK SMILES IDX 1 14
REMARK H PARENT
REMARK Flexibility Score: inf
ROOT
ATOM      1  C   UNL     1      -1.256   8.035  -2.314  1.00  0.00     0.000 C 
ENDROOT
BRANCH   1   2
ATOM      2  C   UNL     1      -1.521   8.331  -0.826  1.00  0.00     0.000 C 
BRANCH   2   3
ATOM      3  C   UNL     1      -2.958   7.996  -0.372  1.00  0.00     0.000 C 
BRANCH   3   4
ATOM      4  C   UNL     1      -3.581   9.110   0.483  1.00  0.00     0.006 C 
BRANCH   4   5
ATOM      5  C   UNL     1      -4.322  10.124  -0.393  1.00  0.00     0.053 C 
BRANCH   5   6
ATOM      6  C   UNL     1      -5.013   9.435  -1.525  1.00  0.00     0.041 C 
ATOM      7  O   UNL     1      -6.255   9.228  -1.479  1.00  0.00    -0.550 OA
ATOM      8  O   UNL     1      -4.279   8.974  -2.610  1.00  0.00    -0.550 OA
ENDBRANCH   5   6
ENDBRANCH   4   5
ENDBRANCH   3   4
ENDBRANCH   2   3
ENDBRANCH   1   2
BRANCH   1   9
ATOM      9  C   UNL     1       0.169   7.548  -2.634  1.00  0.00     0.000 C 
BRANCH   9  10
ATOM     10  C   UNL     1       1.013   7.140  -1.407  1.00  0.00    -0.000 C 
BRANCH  10  11
ATOM     11  C   UNL     1       2.452   7.684  -1.397  1.00  0.00    -0.000 C 
BRANCH  11  12
ATOM     12  C   UNL     1       2.518   9.205  -1.621  1.00  0.00    -0.000 C 
BRANCH  12  13
ATOM     13  C   UNL     1       3.942   9.760  -1.471  1.00  0.00    -0.003 C 
ATOM     14  C   UNL     1       4.971   8.968  -2.277  1.00  0.00     0.004 C 
ENDBRANCH  12  13
ENDBRANCH  11  12
ENDBRANCH  10  11
ENDBRANCH   9  10
ENDBRANCH   1   9
TORSDOF 10
ENDMDL
MODEL 7
REMARK VINA RESULT:     0.272      1.825      2.922
REMARK INTER + INTRA:          -0.344
REMARK INTER:                  -0.367
REMARK INTRA:                   0.023
REMARK UNBOUND:                -0.776
REMARK SMILES CCCCCCCCCCCC(=O)[O-]
REMARK SMILES IDX 7 1 8 2 9 3 10 4 11 5 12 6 13 7 14 8 6 9 5 10 4 11 3 12 2 13
REMARK SMILES IDX 1 14
REMARK H PARENT
REMARK Flexibility Score: inf
ROOT
ATOM      1  C   UNL     1      -3.245   6.582   9.712  1.00  0.00     0.000 C 
ENDROOT
BRANCH   1   2
ATOM      2  C   UNL     1      -3.492   5.089   9.423  1.00  0.00     0.000 C 
BRANCH   2   3
ATOM      3  C   UNL     1      -3.635   4.763   7.921  1.00  0.00     0.000 C 
BRANCH   3   4
ATOM      4  C   UNL     1      -3.238   3.316   7.592  1.00  0.00     0.006 C 
BRANCH   4   5
ATOM      5  C   UNL     1      -4.476   2.440   7.385  1.00  0.00     0.053 C 
BRANCH   5   6
ATOM      6  C   UNL     1      -5.306   2.400   8.628  1.00  0.00     0.041 C 
ATOM      7  O   UNL     1      -6.556   2.536   8.561  1.00  0.00    -0.550 OA
ATOM      8  O   UNL     1      -4.695   2.264   9.868  1.00  0.00    -0.550 OA
ENDBRANCH   5   6
ENDBRANCH   4   5
ENDBRANCH   3   4
ENDBRANCH   2   3
ENDBRANCH   1   2
BRANCH   1   9
ATOM      9  C   UNL     1      -1.774   6.957   9.970  1.00  0.00     0.000 C 
BRANCH   9  10
ATOM     10  C   UNL     1      -1.491   8.472  10.062  1.00  0.00    -0.000 C 
BRANCH  10  11
ATOM     11  C   UNL     1      -0.002   8.853  10.120  1.00  0.00    -0.000 C 
BRANCH  11  12
ATOM     12  C   UNL     1       0.932   7.658   9.858  1.00  0.00    -0.000 C 
BRANCH  12  13
ATOM     13  C   UNL     1       2.407   7.996  10.120  1.00  0.00    -0.003 C 
ATOM     14  C   UNL     1       3.308   6.761  10.093  1.00  0.00     0.004 C 
ENDBRANCH  12  13
ENDBRANCH  11  12
ENDBRANCH  10  11
ENDBRANCH   9  10
ENDBRANCH   1   9
TORSDOF 10
ENDMDL
MODEL 8
REMARK VINA RESULT:     0.749      2.752      5.930
REMARK INTER + INTRA:           0.411
REMARK INTER:                   0.670
REMARK INTRA:                  -0.259
REMARK UNBOUND:                -0.776
REMARK SMILES CCCCCCCCCCCC(=O)[O-]
REMARK SMILES IDX 7 1 8 2 9 3 10 4 11 5 12 6 13 7 14 8 6 9 5 10 4 11 3 12 2 13
REMARK SMILES IDX 1 14
REMARK H PARENT
REMARK Flexibility Score: inf
ROOT
ATOM      1  C   UNL     1      -5.587   5.319  10.122  1.00  0.00     0.000 C 
ENDROOT
BRANCH   1   2
ATOM      2  C   UNL     1      -4.220   6.028  10.120  1.00  0.00     0.000 C 
BRANCH   2   3
ATOM      3  C   UNL     1      -3.398   5.787   8.836  1.00  0.00     0.000 C 
BRANCH   3   4
ATOM      4  C   UNL     1      -2.236   6.781   8.685  1.00  0.00     0.006 C 
BRANCH   4   5
ATOM      5  C   UNL     1      -1.629   7.127  10.048  1.00  0.00     0.053 C 
BRANCH   5   6
ATOM      6  C   UNL     1      -1.023   8.493  10.021  1.00  0.00     0.041 C 
ATOM      7  O   UNL     1      -1.753   9.507   9.858  1.00  0.00    -0.550 OA
ATOM      8  O   UNL     1       0.353   8.647  10.124  1.00  0.00    -0.550 OA
ENDBRANCH   5   6
ENDBRANCH   4   5
ENDBRANCH   3   4
ENDBRANCH   2   3
ENDBRANCH   1   2
BRANCH   1   9
ATOM      9  C   UNL     1      -5.518   3.780  10.122  1.00  0.00     0.000 C 
BRANCH   9  10
ATOM     10  C   UNL     1      -6.408   3.085   9.069  1.00  0.00    -0.000 C 
BRANCH  10  11
ATOM     11  C   UNL     1      -5.670   2.606   7.808  1.00  0.00    -0.000 C 
BRANCH  11  12
ATOM     12  C   UNL     1      -4.312   3.302   7.609  1.00  0.00    -0.000 C 
BRANCH  12  13
ATOM     13  C   UNL     1      -3.141   2.310   7.582  1.00  0.00    -0.003 C 
ATOM     14  C   UNL     1      -3.212   1.282   8.713  1.00  0.00     0.004 C 
ENDBRANCH  12  13
ENDBRANCH  11  12
ENDBRANCH  10  11
ENDBRANCH   9  10
ENDBRANCH   1   9
TORSDOF 10
ENDMDL
