MODEL 1
REMARK VINA RESULT:    -2.747      0.000      0.000
REMARK INTER + INTRA:         -10.012
REMARK INTER:                  -5.960
REMARK INTRA:                  -4.052
REMARK UNBOUND:                -4.052
REMARK SMILES CCCCCCCCCCCCCCCCCCCCCC(=O)[O-]
REMARK SMILES IDX 12 1 11 2 10 3 9 4 8 5 7 6 6 7 5 8 4 9 3 10 2 11 1 12 13 13
REMARK SMILES IDX 14 14 15 15 16 16 17 17 18 18 19 19 20 20 21 21 22 22 23 23
REMARK SMILES IDX 24 24
REMARK H PARENT
REMARK Flexibility Score: inf
ROOT
ATOM      1  C   UNL     1     -98.452 -29.202  80.434  1.00  0.00     0.000 C 
ENDROOT
BRANCH   1   2
ATOM      2  C   UNL     1     -99.215 -28.024  81.064  1.00  0.00     0.000 C 
BRANCH   2   3
ATOM      3  C   UNL     1     -99.703 -27.005  80.021  1.00  0.00     0.000 C 
BRANCH   3   4
ATOM      4  C   UNL     1     -99.427 -25.552  80.441  1.00  0.00    -0.000 C 
BRANCH   4   5
ATOM      5  C   UNL     1     -99.946 -25.225  81.853  1.00  0.00    -0.000 C 
BRANCH   5   6
ATOM      6  C   UNL     1     -98.940 -24.510  82.772  1.00  0.00    -0.000 C 
BRANCH   6   7
ATOM      7  C   UNL     1     -99.090 -24.902  84.249  1.00  0.00    -0.000 C 
BRANCH   7   8
ATOM      8  C   UNL     1     -99.709 -26.298  84.388  1.00  0.00    -0.000 C 
BRANCH   8   9
ATOM      9  C   UNL     1    -101.043 -26.236  85.142  1.00  0.00    -0.000 C 
BRANCH   9  10
ATOM     10  C   UNL     1    -101.895 -27.482  84.855  1.00  0.00    -0.000 C 
BRANCH  10  11
ATOM     11  C   UNL     1    -102.987 -27.222  83.806  1.00  0.00    -0.003 C 
ATOM     12  C   UNL     1    -102.632 -27.784  82.430  1.00  0.00     0.004 C 
ENDBRANCH  10  11
ENDBRANCH   9  10
ENDBRANCH   8   9
ENDBRANCH   7   8
ENDBRANCH   6   7
ENDBRANCH   5   6
ENDBRANCH   4   5
ENDBRANCH   3   4
ENDBRANCH   2   3
ENDBRANCH   1   2
BRANCH   1  13
ATOM     13  C   UNL     1     -98.091 -28.956  78.960  1.00  0.00     0.000 C 
BRANCH  13  14
ATOM     14  C   UNL     1     -96.579 -28.761  78.721  1.00  0.00     0.000 C 
BRANCH  14  15
ATOM     15  C   UNL     1     -96.264 -27.408  78.057  1.00  0.00     0.000 C 
BRANCH  15  16
ATOM     16  C   UNL     1     -95.266 -26.569  78.869  1.00  0.00     0.000 C 
BRANCH  16  17
ATOM     17  C   UNL     1     -95.923 -25.342  79.527  1.00  0.00     0.000 C 
BRANCH  17  18
ATOM     18  C   UNL     1     -95.793 -25.358  81.057  1.00  0.00     0.000 C 
BRANCH  18  19
ATOM     19  C   UNL     1     -95.759 -26.785  81.633  1.00  0.00     0.000 C 
BRANCH  19  20
ATOM     20  C   UNL     1     -96.237 -26.857  83.095  1.00  0.00     0.006 C 
BRANCH  20  21
ATOM     21  C   UNL     1     -96.568 -28.282  83.572  1.00  0.00     0.053 C 
BRANCH  21  22
ATOM     22  C   UNL     1     -96.203 -28.507  85.007  1.00  0.00     0.041 C 
ATOM     23  O   UNL     1     -96.049 -27.527  85.783  1.00  0.00    -0.550 OA
ATOM     24  O   UNL     1     -96.000 -29.797  85.483  1.00  0.00    -0.550 OA
ENDBRANCH  21  22
ENDBRANCH  20  21
ENDBRANCH  19  20
ENDBRANCH  18  19
ENDBRANCH  17  18
ENDBRANCH  16  17
ENDBRANCH  15  16
ENDBRANCH  14  15
ENDBRANCH  13  14
ENDBRANCH   1  13
TORSDOF 20
ENDMDL
MODEL 2
REMARK VINA RESULT:    -2.732     14.756     17.067
REMARK INTER + INTRA:          -9.978
REMARK INTER:                  -7.178
REMARK INTRA:                  -2.801
REMARK UNBOUND:                -4.052
REMARK SMILES CCCCCCCCCCCCCCCCCCCCCC(=O)[O-]
REMARK SMILES IDX 12 1 11 2 10 3 9 4 8 5 7 6 6 7 5 8 4 9 3 10 2 11 1 12 13 13
REMARK SMILES IDX 14 14 15 15 16 16 17 17 18 18 19 19 20 20 21 21 22 22 23 23
REMARK SMILES IDX 24 24
REMARK H PARENT
REMARK Flexibility Score: inf
ROOT
ATOM      1  C   UNL     1     -97.179 -40.430  87.771  1.00  0.00     0.000 C 
ENDROOT
BRANCH   1   2
ATOM      2  C   UNL     1     -97.175 -40.047  89.260  1.00  0.00     0.000 C 
BRANCH   2   3
ATOM      3  C   UNL     1     -98.575 -39.685  89.784  1.00  0.00     0.000 C 
BRANCH   3   4
ATOM      4  C   UNL     1     -98.956 -40.479  91.046  1.00  0.00    -0.000 C 
BRANCH   4   5
ATOM      5  C   UNL     1     -99.122 -39.586  92.290  1.00  0.00    -0.000 C 
BRANCH   5   6
ATOM      6  C   UNL     1     -99.952 -40.201  93.431  1.00  0.00    -0.000 C 
BRANCH   6   7
ATOM      7  C   UNL     1     -99.828 -39.425  94.750  1.00  0.00    -0.000 C 
BRANCH   7   8
ATOM      8  C   UNL     1    -101.017 -38.476  94.944  1.00  0.00    -0.000 C 
BRANCH   8   9
ATOM      9  C   UNL     1    -100.583 -37.013  94.789  1.00  0.00    -0.000 C 
BRANCH   9  10
ATOM     10  C   UNL     1    -100.854 -36.508  93.363  1.00  0.00    -0.000 C 
BRANCH  10  11
ATOM     11  C   UNL     1    -102.167 -37.056  92.782  1.00  0.00    -0.003 C 
ATOM     12  C   UNL     1    -102.002 -37.617  91.370  1.00  0.00     0.004 C 
ENDBRANCH  10  11
ENDBRANCH   9  10
ENDBRANCH   8   9
ENDBRANCH   7   8
ENDBRANCH   6   7
ENDBRANCH   5   6
ENDBRANCH   4   5
ENDBRANCH   3   4
ENDBRANCH   2   3
ENDBRANCH   1   2
BRANCH   1  13
ATOM     13  C   UNL     1     -97.018 -41.943  87.545  1.00  0.00     0.000 C 
BRANCH  13  14
ATOM     14  C   UNL     1     -96.138 -42.634  88.607  1.00  0.00     0.000 C 
BRANCH  14  15
ATOM     15  C   UNL     1     -96.848 -43.832  89.262  1.00  0.00     0.000 C 
BRANCH  15  16
ATOM     16  C   UNL     1     -96.787 -43.789  90.796  1.00  0.00     0.000 C 
BRANCH  16  17
ATOM     17  C   UNL     1     -95.924 -42.628  91.321  1.00  0.00     0.000 C 
BRANCH  17  18
ATOM     18  C   UNL     1     -96.098 -42.403  92.831  1.00  0.00     0.000 C 
BRANCH  18  19
ATOM     19  C   UNL     1     -96.019 -40.916  93.219  1.00  0.00     0.000 C 
BRANCH  19  20
ATOM     20  C   UNL     1     -95.639 -40.697  94.695  1.00  0.00     0.006 C 
BRANCH  20  21
ATOM     21  C   UNL     1     -94.612 -41.709  95.230  1.00  0.00     0.053 C 
BRANCH  21  22
ATOM     22  C   UNL     1     -93.319 -41.063  95.624  1.00  0.00     0.041 C 
ATOM     23  O   UNL     1     -93.240 -39.810  95.720  1.00  0.00    -0.550 OA
ATOM     24  O   UNL     1     -92.190 -41.841  95.852  1.00  0.00    -0.550 OA
ENDBRANCH  21  22
ENDBRANCH  20  21
ENDBRANCH  19  20
ENDBRANCH  18  19
ENDBRANCH  17  18
ENDBRANCH  16  17
ENDBRANCH  15  16
ENDBRANCH  14  15
ENDBRANCH  13  14
ENDBRANCH   1  13
TORSDOF 20
ENDMDL
MODEL 3
REMARK VINA RESULT:    -2.648     14.658     17.112
REMARK INTER + INTRA:          -9.796
REMARK INTER:                  -6.419
REMARK INTRA:                  -3.378
REMARK UNBOUND:                -4.052
REMARK SMILES CCCCCCCCCCCCCCCCCCCCCC(=O)[O-]
REMARK SMILES IDX 12 1 11 2 10 3 9 4 8 5 7 6 6 7 5 8 4 9 3 10 2 11 1 12 13 13
REMARK SMILES IDX 14 14 15 15 16 16 17 17 18 18 19 19 20 20 21 21 22 22 23 23
REMARK SMILES IDX 24 24
REMARK H PARENT
REMARK Flexibility Score: inf
ROOT
ATOM      1  C   UNL     1    -102.441 -36.504  92.128  1.00  0.00     0.000 C 
ENDROOT
BRANCH   1   2
ATOM      2  C   UNL     1    -101.531 -35.619  92.998  1.00  0.00     0.000 C 
BRANCH   2   3
ATOM      3  C   UNL     1    -102.245 -35.080  94.248  1.00  0.00     0.000 C 
BRANCH   3   4
ATOM      4  C   UNL     1    -101.428 -35.295  95.533  1.00  0.00    -0.000 C 
BRANCH   4   5
ATOM      5  C   UNL     1    -100.359 -36.394  95.389  1.00  0.00    -0.000 C 
BRANCH   5   6
ATOM      6  C   UNL     1    -100.608 -37.663  96.224  1.00  0.00    -0.000 C 
BRANCH   6   7
ATOM      7  C   UNL     1    -101.200 -38.817  95.403  1.00  0.00    -0.000 C 
BRANCH   7   8
ATOM      8  C   UNL     1    -100.382 -40.101  95.589  1.00  0.00    -0.000 C 
BRANCH   8   9
ATOM      9  C   UNL     1     -98.878 -39.803  95.564  1.00  0.00    -0.000 C 
BRANCH   9  10
ATOM     10  C   UNL     1     -98.089 -41.006  95.023  1.00  0.00    -0.000 C 
BRANCH  10  11
ATOM     11  C   UNL     1     -96.569 -40.825  95.160  1.00  0.00    -0.003 C 
ATOM     12  C   UNL     1     -95.864 -40.697  93.811  1.00  0.00     0.004 C 
ENDBRANCH  10  11
ENDBRANCH   9  10
ENDBRANCH   8   9
ENDBRANCH   7   8
ENDBRANCH   6   7
ENDBRANCH   5   6
ENDBRANCH   4   5
ENDBRANCH   3   4
ENDBRANCH   2   3
ENDBRANCH   1   2
BRANCH   1  13
ATOM     13  C   UNL     1    -101.763 -37.816  91.701  1.00  0.00     0.000 C 
BRANCH  13  14
ATOM     14  C   UNL     1    -100.245 -37.843  91.977  1.00  0.00     0.000 C 
BRANCH  14  15
ATOM     15  C   UNL     1     -99.669 -39.269  91.924  1.00  0.00     0.000 C 
BRANCH  15  16
ATOM     16  C   UNL     1    -100.760 -40.349  91.949  1.00  0.00     0.000 C 
BRANCH  16  17
ATOM     17  C   UNL     1    -100.180 -41.775  91.965  1.00  0.00     0.000 C 
BRANCH  17  18
ATOM     18  C   UNL     1     -99.352 -42.086  90.709  1.00  0.00     0.000 C 
BRANCH  18  19
ATOM     19  C   UNL     1     -97.860 -42.295  91.022  1.00  0.00     0.000 C 
BRANCH  19  20
ATOM     20  C   UNL     1     -96.938 -41.369  90.209  1.00  0.00     0.006 C 
BRANCH  20  21
ATOM     21  C   UNL     1     -97.594 -40.791  88.943  1.00  0.00     0.053 C 
BRANCH  21  22
ATOM     22  C   UNL     1     -97.269 -41.582  87.714  1.00  0.00     0.041 C 
ATOM     23  O   UNL     1     -98.190 -41.969  86.948  1.00  0.00    -0.550 OA
ATOM     24  O   UNL     1     -95.952 -41.923  87.430  1.00  0.00    -0.550 OA
ENDBRANCH  21  22
ENDBRANCH  20  21
ENDBRANCH  19  20
ENDBRANCH  18  19
ENDBRANCH  17  18
ENDBRANCH  16  17
ENDBRANCH  15  16
ENDBRANCH  14  15
ENDBRANCH  13  14
ENDBRANCH   1  13
TORSDOF 20
ENDMDL
MODEL 4
REMARK VINA RESULT:    -2.617      2.089      5.703
REMARK INTER + INTRA:          -9.730
REMARK INTER:                  -5.788
REMARK INTRA:                  -3.942
REMARK UNBOUND:                -4.052
REMARK SMILES CCCCCCCCCCCCCCCCCCCCCC(=O)[O-]
REMARK SMILES IDX 12 1 11 2 10 3 9 4 8 5 7 6 6 7 5 8 4 9 3 10 2 11 1 12 13 13
REMARK SMILES IDX 14 14 15 15 16 16 17 17 18 18 19 19 20 20 21 21 22 22 23 23
REMARK SMILES IDX 24 24
REMARK H PARENT
REMARK Flexibility Score: inf
ROOT
ATOM      1  C   UNL     1     -96.489 -28.249  83.789  1.00  0.00     0.000 C 
ENDROOT
BRANCH   1   2
ATOM      2  C   UNL     1     -96.303 -27.940  82.294  1.00  0.00     0.000 C 
BRANCH   2   3
ATOM      3  C   UNL     1     -96.525 -26.455  81.962  1.00  0.00     0.000 C 
BRANCH   3   4
ATOM      4  C   UNL     1     -96.784 -26.217  80.465  1.00  0.00    -0.000 C 
BRANCH   4   5
ATOM      5  C   UNL     1     -95.713 -26.855  79.561  1.00  0.00    -0.000 C 
BRANCH   5   6
ATOM      6  C   UNL     1     -96.247 -27.850  78.514  1.00  0.00    -0.000 C 
BRANCH   6   7
ATOM      7  C   UNL     1     -96.342 -29.287  79.044  1.00  0.00    -0.000 C 
BRANCH   7   8
ATOM      8  C   UNL     1     -97.744 -29.866  78.817  1.00  0.00    -0.000 C 
BRANCH   8   9
ATOM      9  C   UNL     1     -98.743 -29.302  79.834  1.00  0.00    -0.000 C 
BRANCH   9  10
ATOM     10  C   UNL     1    -100.078 -28.952  79.157  1.00  0.00    -0.000 C 
BRANCH  10  11
ATOM     11  C   UNL     1     -99.902 -28.000  77.964  1.00  0.00    -0.003 C 
ATOM     12  C   UNL     1     -99.825 -26.532  78.383  1.00  0.00     0.004 C 
ENDBRANCH  10  11
ENDBRANCH   9  10
ENDBRANCH   8   9
ENDBRANCH   7   8
ENDBRANCH   6   7
ENDBRANCH   5   6
ENDBRANCH   4   5
ENDBRANCH   3   4
ENDBRANCH   2   3
ENDBRANCH   1   2
BRANCH   1  13
ATOM     13  C   UNL     1     -97.862 -27.808  84.321  1.00  0.00     0.000 C 
BRANCH  13  14
ATOM     14  C   UNL     1     -97.806 -26.530  85.185  1.00  0.00     0.000 C 
BRANCH  14  15
ATOM     15  C   UNL     1     -99.120 -25.729  85.127  1.00  0.00     0.000 C 
BRANCH  15  16
ATOM     16  C   UNL     1     -99.131 -24.693  83.994  1.00  0.00     0.000 C 
BRANCH  16  17
ATOM     17  C   UNL     1    -100.364 -24.825  83.083  1.00  0.00     0.000 C 
BRANCH  17  18
ATOM     18  C   UNL     1    -100.186 -25.907  82.007  1.00  0.00     0.000 C 
BRANCH  18  19
ATOM     19  C   UNL     1    -101.357 -26.906  81.975  1.00  0.00     0.000 C 
BRANCH  19  20
ATOM     20  C   UNL     1    -101.036 -28.234  82.685  1.00  0.00     0.006 C 
BRANCH  20  21
ATOM     21  C   UNL     1    -101.590 -28.323  84.118  1.00  0.00     0.053 C 
BRANCH  21  22
ATOM     22  C   UNL     1    -101.435 -29.690  84.710  1.00  0.00     0.041 C 
ATOM     23  O   UNL     1    -100.342 -30.306  84.606  1.00  0.00    -0.550 OA
ATOM     24  O   UNL     1    -102.508 -30.301  85.347  1.00  0.00    -0.550 OA
ENDBRANCH  21  22
ENDBRANCH  20  21
ENDBRANCH  19  20
ENDBRANCH  18  19
ENDBRANCH  17  18
ENDBRANCH  16  17
ENDBRANCH  15  16
ENDBRANCH  14  15
ENDBRANCH  13  14
ENDBRANCH   1  13
TORSDOF 20
ENDMDL
MODEL 5
REMARK VINA RESULT:    -2.617      2.519      5.939
REMARK INTER + INTRA:          -9.728
REMARK INTER:                  -5.598
REMARK INTRA:                  -4.129
REMARK UNBOUND:                -4.052
REMARK SMILES CCCCCCCCCCCCCCCCCCCCCC(=O)[O-]
REMARK SMILES IDX 12 1 11 2 10 3 9 4 8 5 7 6 6 7 5 8 4 9 3 10 2 11 1 12 13 13
REMARK SMILES IDX 14 14 15 15 16 16 17 17 18 18 19 19 20 20 21 21 22 22 23 23
REMARK SMILES IDX 24 24
REMARK H PARENT
REMARK Flexibility Score: inf
ROOT
ATOM      1  C   UNL     1     -96.574 -27.980  83.251  1.00  0.00     0.000 C 
ENDROOT
BRANCH   1   2
ATOM      2  C   UNL     1     -96.086 -27.599  81.842  1.00  0.00     0.000 C 
BRANCH   2   3
ATOM      3  C   UNL     1     -95.684 -26.119  81.733  1.00  0.00     0.000 C 
BRANCH   3   4
ATOM      4  C   UNL     1     -94.595 -25.880  80.674  1.00  0.00    -0.000 C 
BRANCH   4   5
ATOM      5  C   UNL     1     -95.070 -24.985  79.514  1.00  0.00    -0.000 C 
BRANCH   5   6
ATOM      6  C   UNL     1     -96.579 -24.679  79.499  1.00  0.00    -0.000 C 
BRANCH   6   7
ATOM      7  C   UNL     1     -97.337 -25.448  78.408  1.00  0.00    -0.000 C 
BRANCH   7   8
ATOM      8  C   UNL     1     -96.364 -26.157  77.457  1.00  0.00    -0.000 C 
BRANCH   8   9
ATOM      9  C   UNL     1     -96.671 -27.657  77.374  1.00  0.00    -0.000 C 
BRANCH   9  10
ATOM     10  C   UNL     1     -97.511 -28.113  78.577  1.00  0.00    -0.000 C 
BRANCH  10  11
ATOM     11  C   UNL     1     -97.144 -29.528  79.051  1.00  0.00    -0.003 C 
ATOM     12  C   UNL     1     -98.346 -30.470  79.090  1.00  0.00     0.004 C 
ENDBRANCH  10  11
ENDBRANCH   9  10
ENDBRANCH   8   9
ENDBRANCH   7   8
ENDBRANCH   6   7
ENDBRANCH   5   6
ENDBRANCH   4   5
ENDBRANCH   3   4
ENDBRANCH   2   3
ENDBRANCH   1   2
BRANCH   1  13
ATOM     13  C   UNL     1     -96.819 -26.756  84.147  1.00  0.00     0.000 C 
BRANCH  13  14
ATOM     14  C   UNL     1     -98.212 -26.748  84.812  1.00  0.00     0.000 C 
BRANCH  14  15
ATOM     15  C   UNL     1     -98.971 -25.434  84.557  1.00  0.00     0.000 C 
BRANCH  15  16
ATOM     16  C   UNL     1     -98.710 -24.861  83.156  1.00  0.00     0.000 C 
BRANCH  16  17
ATOM     17  C   UNL     1     -99.858 -25.155  82.174  1.00  0.00     0.000 C 
BRANCH  17  18
ATOM     18  C   UNL     1     -99.509 -26.276  81.183  1.00  0.00     0.000 C 
BRANCH  18  19
ATOM     19  C   UNL     1    -100.434 -27.499  81.325  1.00  0.00     0.000 C 
BRANCH  19  20
ATOM     20  C   UNL     1     -99.735 -28.712  81.966  1.00  0.00     0.006 C 
BRANCH  20  21
ATOM     21  C   UNL     1    -100.478 -29.286  83.184  1.00  0.00     0.053 C 
BRANCH  21  22
ATOM     22  C   UNL     1    -101.494 -30.320  82.804  1.00  0.00     0.041 C 
ATOM     23  O   UNL     1    -101.276 -31.095  81.836  1.00  0.00    -0.550 OA
ATOM     24  O   UNL     1    -102.695 -30.406  83.496  1.00  0.00    -0.550 OA
ENDBRANCH  21  22
ENDBRANCH  20  21
ENDBRANCH  19  20
ENDBRANCH  18  19
ENDBRANCH  17  18
ENDBRANCH  16  17
ENDBRANCH  15  16
ENDBRANCH  14  15
ENDBRANCH  13  14
ENDBRANCH   1  13
TORSDOF 20
ENDMDL
MODEL 6
REMARK VINA RESULT:    -2.600     14.432     17.890
REMARK INTER + INTRA:          -9.691
REMARK INTER:                  -6.079
REMARK INTRA:                  -3.612
REMARK UNBOUND:                -4.052
REMARK SMILES CCCCCCCCCCCCCCCCCCCCCC(=O)[O-]
REMARK SMILES IDX 12 1 11 2 10 3 9 4 8 5 7 6 6 7 5 8 4 9 3 10 2 11 1 12 13 13
REMARK SMILES IDX 14 14 15 15 16 16 17 17 18 18 19 19 20 20 21 21 22 22 23 23
REMARK SMILES IDX 24 24
REMARK H PARENT
REMARK Flexibility Score: inf
ROOT
ATOM      1  C   UNL     1     -99.329 -39.910  93.058  1.00  0.00     0.000 C 
ENDROOT
BRANCH   1   2
ATOM      2  C   UNL     1     -99.382 -40.840  94.282  1.00  0.00     0.000 C 
BRANCH   2   3
ATOM      3  C   UNL     1     -98.597 -40.287  95.483  1.00  0.00     0.000 C 
BRANCH   3   4
ATOM      4  C   UNL     1     -97.375 -41.151  95.838  1.00  0.00    -0.000 C 
BRANCH   4   5
ATOM      5  C   UNL     1     -96.074 -40.649  95.185  1.00  0.00    -0.000 C 
BRANCH   5   6
ATOM      6  C   UNL     1     -95.497 -41.564  94.089  1.00  0.00    -0.000 C 
BRANCH   6   7
ATOM      7  C   UNL     1     -96.067 -41.267  92.695  1.00  0.00    -0.000 C 
BRANCH   7   8
ATOM      8  C   UNL     1     -96.674 -42.528  92.069  1.00  0.00    -0.000 C 
BRANCH   8   9
ATOM      9  C   UNL     1     -97.263 -42.225  90.685  1.00  0.00    -0.000 C 
BRANCH   9  10
ATOM     10  C   UNL     1     -96.734 -40.888  90.143  1.00  0.00    -0.000 C 
BRANCH  10  11
ATOM     11  C   UNL     1     -97.659 -40.274  89.081  1.00  0.00    -0.003 C 
ATOM     12  C   UNL     1     -97.280 -40.683  87.658  1.00  0.00     0.004 C 
ENDBRANCH  10  11
ENDBRANCH   9  10
ENDBRANCH   8   9
ENDBRANCH   7   8
ENDBRANCH   6   7
ENDBRANCH   5   6
ENDBRANCH   4   5
ENDBRANCH   3   4
ENDBRANCH   2   3
ENDBRANCH   1   2
BRANCH   1  13
ATOM     13  C   UNL     1    -100.260 -40.367  91.922  1.00  0.00     0.000 C 
BRANCH  13  14
ATOM     14  C   UNL     1    -101.705 -40.649  92.387  1.00  0.00     0.000 C 
BRANCH  14  15
ATOM     15  C   UNL     1    -102.606 -39.407  92.271  1.00  0.00     0.000 C 
BRANCH  15  16
ATOM     16  C   UNL     1    -103.291 -39.048  93.598  1.00  0.00     0.000 C 
BRANCH  16  17
ATOM     17  C   UNL     1    -102.781 -39.898  94.775  1.00  0.00     0.000 C 
BRANCH  17  18
ATOM     18  C   UNL     1    -102.223 -39.039  95.921  1.00  0.00     0.000 C 
BRANCH  18  19
ATOM     19  C   UNL     1    -102.074 -37.558  95.530  1.00  0.00     0.000 C 
BRANCH  19  20
ATOM     20  C   UNL     1    -100.621 -37.161  95.212  1.00  0.00     0.006 C 
BRANCH  20  21
ATOM     21  C   UNL     1    -100.496 -35.898  94.342  1.00  0.00     0.053 C 
BRANCH  21  22
ATOM     22  C   UNL     1    -100.982 -36.114  92.942  1.00  0.00     0.041 C 
ATOM     23  O   UNL     1    -100.301 -36.798  92.133  1.00  0.00    -0.550 OA
ATOM     24  O   UNL     1    -102.169 -35.532  92.517  1.00  0.00    -0.550 OA
ENDBRANCH  21  22
ENDBRANCH  20  21
ENDBRANCH  19  20
ENDBRANCH  18  19
ENDBRANCH  17  18
ENDBRANCH  16  17
ENDBRANCH  15  16
ENDBRANCH  14  15
ENDBRANCH  13  14
ENDBRANCH   1  13
TORSDOF 20
ENDMDL
MODEL 7
REMARK VINA RESULT:    -2.584     14.989     17.676
REMARK INTER + INTRA:          -9.657
REMARK INTER:                  -6.147
REMARK INTRA:                  -3.510
REMARK UNBOUND:                -4.052
REMARK SMILES CCCCCCCCCCCCCCCCCCCCCC(=O)[O-]
REMARK SMILES IDX 12 1 11 2 10 3 9 4 8 5 7 6 6 7 5 8 4 9 3 10 2 11 1 12 13 13
REMARK SMILES IDX 14 14 15 15 16 16 17 17 18 18 19 19 20 20 21 21 22 22 23 23
REMARK SMILES IDX 24 24
REMARK H PARENT
REMARK Flexibility Score: inf
ROOT
ATOM      1  C   UNL     1    -100.264 -39.501  96.975  1.00  0.00     0.000 C 
ENDROOT
BRANCH   1   2
ATOM      2  C   UNL     1    -100.826 -38.556  95.898  1.00  0.00     0.000 C 
BRANCH   2   3
ATOM      3  C   UNL     1    -100.075 -37.217  95.833  1.00  0.00     0.000 C 
BRANCH   3   4
ATOM      4  C   UNL     1    -100.990 -36.046  95.434  1.00  0.00    -0.000 C 
BRANCH   4   5
ATOM      5  C   UNL     1    -101.703 -36.271  94.088  1.00  0.00    -0.000 C 
BRANCH   5   6
ATOM      6  C   UNL     1    -100.773 -36.397  92.868  1.00  0.00    -0.000 C 
BRANCH   6   7
ATOM      7  C   UNL     1    -101.194 -37.515  91.903  1.00  0.00    -0.000 C 
BRANCH   7   8
ATOM      8  C   UNL     1     -99.987 -38.361  91.481  1.00  0.00    -0.000 C 
BRANCH   8   9
ATOM      9  C   UNL     1     -99.661 -39.421  92.541  1.00  0.00    -0.000 C 
BRANCH   9  10
ATOM     10  C   UNL     1    -100.373 -40.746  92.229  1.00  0.00    -0.000 C 
BRANCH  10  11
ATOM     11  C   UNL     1    -101.207 -41.261  93.412  1.00  0.00    -0.003 C 
ATOM     12  C   UNL     1    -100.807 -42.669  93.851  1.00  0.00     0.004 C 
ENDBRANCH  10  11
ENDBRANCH   9  10
ENDBRANCH   8   9
ENDBRANCH   7   8
ENDBRANCH   6   7
ENDBRANCH   5   6
ENDBRANCH   4   5
ENDBRANCH   3   4
ENDBRANCH   2   3
ENDBRANCH   1   2
BRANCH   1  13
ATOM     13  C   UNL     1     -98.746 -39.711  96.849  1.00  0.00     0.000 C 
BRANCH  13  14
ATOM     14  C   UNL     1     -98.351 -40.696  95.729  1.00  0.00     0.000 C 
BRANCH  14  15
ATOM     15  C   UNL     1     -96.846 -40.644  95.412  1.00  0.00     0.000 C 
BRANCH  15  16
ATOM     16  C   UNL     1     -96.543 -40.931  93.934  1.00  0.00     0.000 C 
BRANCH  16  17
ATOM     17  C   UNL     1     -97.043 -42.316  93.486  1.00  0.00     0.000 C 
BRANCH  17  18
ATOM     18  C   UNL     1     -97.167 -42.429  91.959  1.00  0.00     0.000 C 
BRANCH  18  19
ATOM     19  C   UNL     1     -96.666 -41.170  91.231  1.00  0.00     0.000 C 
BRANCH  19  20
ATOM     20  C   UNL     1     -97.343 -40.954  89.865  1.00  0.00     0.006 C 
BRANCH  20  21
ATOM     21  C   UNL     1     -97.774 -42.257  89.170  1.00  0.00     0.053 C 
BRANCH  21  22
ATOM     22  C   UNL     1     -97.308 -42.333  87.749  1.00  0.00     0.041 C 
ATOM     23  O   UNL     1     -96.098 -42.568  87.491  1.00  0.00    -0.550 OA
ATOM     24  O   UNL     1     -98.200 -42.110  86.707  1.00  0.00    -0.550 OA
ENDBRANCH  21  22
ENDBRANCH  20  21
ENDBRANCH  19  20
ENDBRANCH  18  19
ENDBRANCH  17  18
ENDBRANCH  16  17
ENDBRANCH  15  16
ENDBRANCH  14  15
ENDBRANCH  13  14
ENDBRANCH   1  13
TORSDOF 20
ENDMDL
MODEL 8
REMARK VINA RESULT:    -2.551     14.488     17.046
REMARK INTER + INTRA:          -9.585
REMARK INTER:                  -5.905
REMARK INTRA:                  -3.681
REMARK UNBOUND:                -4.052
REMARK SMILES CCCCCCCCCCCCCCCCCCCCCC(=O)[O-]
REMARK SMILES IDX 12 1 11 2 10 3 9 4 8 5 7 6 6 7 5 8 4 9 3 10 2 11 1 12 13 13
REMARK SMILES IDX 14 14 15 15 16 16 17 17 18 18 19 19 20 20 21 21 22 22 23 23
REMARK SMILES IDX 24 24
REMARK H PARENT
REMARK Flexibility Score: inf
ROOT
ATOM      1  C   UNL     1    -102.583 -37.449  95.872  1.00  0.00     0.000 C 
ENDROOT
BRANCH   1   2
ATOM      2  C   UNL     1    -102.190 -36.069  95.318  1.00  0.00     0.000 C 
BRANCH   2   3
ATOM      3  C   UNL     1    -100.706 -35.987  94.925  1.00  0.00     0.000 C 
BRANCH   3   4
ATOM      4  C   UNL     1    -100.505 -35.793  93.413  1.00  0.00    -0.000 C 
BRANCH   4   5
ATOM      5  C   UNL     1    -100.740 -37.083  92.605  1.00  0.00    -0.000 C 
BRANCH   5   6
ATOM      6  C   UNL     1    -102.002 -37.083  91.723  1.00  0.00    -0.000 C 
BRANCH   6   7
ATOM      7  C   UNL     1    -103.104 -38.012  92.250  1.00  0.00    -0.000 C 
BRANCH   7   8
ATOM      8  C   UNL     1    -102.761 -39.482  91.978  1.00  0.00    -0.000 C 
BRANCH   8   9
ATOM      9  C   UNL     1    -103.514 -40.409  92.940  1.00  0.00    -0.000 C 
BRANCH   9  10
ATOM     10  C   UNL     1    -103.282 -41.884  92.576  1.00  0.00    -0.000 C 
BRANCH  10  11
ATOM     11  C   UNL     1    -102.355 -42.054  91.362  1.00  0.00    -0.003 C 
ATOM     12  C   UNL     1    -101.339 -43.180  91.546  1.00  0.00     0.004 C 
ENDBRANCH  10  11
ENDBRANCH   9  10
ENDBRANCH   8   9
ENDBRANCH   7   8
ENDBRANCH   6   7
ENDBRANCH   5   6
ENDBRANCH   4   5
ENDBRANCH   3   4
ENDBRANCH   2   3
ENDBRANCH   1   2
BRANCH   1  13
ATOM     13  C   UNL     1    -101.366 -38.292  96.289  1.00  0.00     0.000 C 
BRANCH  13  14
ATOM     14  C   UNL     1    -101.208 -39.592  95.471  1.00  0.00     0.000 C 
BRANCH  14  15
ATOM     15  C   UNL     1     -99.792 -39.743  94.886  1.00  0.00     0.000 C 
BRANCH  15  16
ATOM     16  C   UNL     1     -99.759 -40.643  93.642  1.00  0.00     0.000 C 
BRANCH  16  17
ATOM     17  C   UNL     1     -98.652 -40.243  92.652  1.00  0.00     0.000 C 
BRANCH  17  18
ATOM     18  C   UNL     1     -99.173 -40.104  91.213  1.00  0.00     0.000 C 
BRANCH  18  19
ATOM     19  C   UNL     1     -98.414 -41.003  90.221  1.00  0.00     0.000 C 
BRANCH  19  20
ATOM     20  C   UNL     1     -97.223 -40.294  89.553  1.00  0.00     0.006 C 
BRANCH  20  21
ATOM     21  C   UNL     1     -97.300 -40.258  88.016  1.00  0.00     0.053 C 
BRANCH  21  22
ATOM     22  C   UNL     1     -97.129 -41.613  87.401  1.00  0.00     0.041 C 
ATOM     23  O   UNL     1     -96.003 -42.176  87.412  1.00  0.00    -0.550 OA
ATOM     24  O   UNL     1     -98.204 -42.241  86.783  1.00  0.00    -0.550 OA
ENDBRANCH  21  22
ENDBRANCH  20  21
ENDBRANCH  19  20
ENDBRANCH  18  19
ENDBRANCH  17  18
ENDBRANCH  16  17
ENDBRANCH  15  16
ENDBRANCH  14  15
ENDBRANCH  13  14
ENDBRANCH   1  13
TORSDOF 20
ENDMDL
MODEL 9
REMARK VINA RESULT:    -2.520      3.048      4.730
REMARK INTER + INTRA:          -9.518
REMARK INTER:                  -5.699
REMARK INTRA:                  -3.819
REMARK UNBOUND:                -4.052
REMARK SMILES CCCCCCCCCCCCCCCCCCCCCC(=O)[O-]
REMARK SMILES IDX 12 1 11 2 10 3 9 4 8 5 7 6 6 7 5 8 4 9 3 10 2 11 1 12 13 13
REMARK SMILES IDX 14 14 15 15 16 16 17 17 18 18 19 19 20 20 21 21 22 22 23 23
REMARK SMILES IDX 24 24
REMARK H PARENT
REMARK Flexibility Score: inf
ROOT
ATOM      1  C   UNL     1     -96.411 -27.938  82.509  1.00  0.00     0.000 C 
ENDROOT
BRANCH   1   2
ATOM      2  C   UNL     1     -97.720 -27.989  83.315  1.00  0.00     0.000 C 
BRANCH   2   3
ATOM      3  C   UNL     1     -97.567 -27.420  84.735  1.00  0.00     0.000 C 
BRANCH   3   4
ATOM      4  C   UNL     1     -98.400 -26.146  84.954  1.00  0.00    -0.000 C 
BRANCH   4   5
ATOM      5  C   UNL     1     -99.885 -26.329  84.587  1.00  0.00    -0.000 C 
BRANCH   5   6
ATOM      6  C   UNL     1    -100.378 -25.474  83.406  1.00  0.00    -0.000 C 
BRANCH   6   7
ATOM      7  C   UNL     1    -101.292 -26.246  82.444  1.00  0.00    -0.000 C 
BRANCH   7   8
ATOM      8  C   UNL     1    -100.481 -26.888  81.312  1.00  0.00    -0.000 C 
BRANCH   8   9
ATOM      9  C   UNL     1    -100.734 -28.400  81.243  1.00  0.00    -0.000 C 
BRANCH   9  10
ATOM     10  C   UNL     1    -101.630 -28.860  82.404  1.00  0.00    -0.000 C 
BRANCH  10  11
ATOM     11  C   UNL     1    -100.904 -29.809  83.370  1.00  0.00    -0.003 C 
ATOM     12  C   UNL     1    -101.564 -29.871  84.747  1.00  0.00     0.004 C 
ENDBRANCH  10  11
ENDBRANCH   9  10
ENDBRANCH   8   9
ENDBRANCH   7   8
ENDBRANCH   6   7
ENDBRANCH   5   6
ENDBRANCH   4   5
ENDBRANCH   3   4
ENDBRANCH   2   3
ENDBRANCH   1   2
BRANCH   1  13
ATOM     13  C   UNL     1     -95.951 -26.502  82.210  1.00  0.00     0.000 C 
BRANCH  13  14
ATOM     14  C   UNL     1     -97.052 -25.621  81.582  1.00  0.00     0.000 C 
BRANCH  14  15
ATOM     15  C   UNL     1     -96.967 -25.590  80.046  1.00  0.00     0.000 C 
BRANCH  15  16
ATOM     16  C   UNL     1     -95.526 -25.723  79.530  1.00  0.00     0.000 C 
BRANCH  16  17
ATOM     17  C   UNL     1     -95.361 -26.884  78.533  1.00  0.00     0.000 C 
BRANCH  17  18
ATOM     18  C   UNL     1     -96.618 -27.761  78.440  1.00  0.00     0.000 C 
BRANCH  18  19
ATOM     19  C   UNL     1     -96.428 -29.138  79.100  1.00  0.00     0.000 C 
BRANCH  19  20
ATOM     20  C   UNL     1     -97.756 -29.870  79.363  1.00  0.00     0.006 C 
BRANCH  20  21
ATOM     21  C   UNL     1     -98.850 -29.567  78.324  1.00  0.00     0.053 C 
BRANCH  21  22
ATOM     22  C   UNL     1     -99.447 -30.810  77.738  1.00  0.00     0.041 C 
ATOM     23  O   UNL     1     -98.719 -31.632  77.121  1.00  0.00    -0.550 OA
ATOM     24  O   UNL     1    -100.812 -31.046  77.842  1.00  0.00    -0.550 OA
ENDBRANCH  21  22
ENDBRANCH  20  21
ENDBRANCH  19  20
ENDBRANCH  18  19
ENDBRANCH  17  18
ENDBRANCH  16  17
ENDBRANCH  15  16
ENDBRANCH  14  15
ENDBRANCH  13  14
ENDBRANCH   1  13
TORSDOF 20
ENDMDL
