MODEL 1
REMARK VINA RESULT:    -6.147      0.000      0.000
REMARK INTER + INTRA:         -10.254
REMARK INTER:                  -9.201
REMARK INTRA:                  -1.053
REMARK UNBOUND:                -1.053
REMARK SMILES COC(=O)C1=CO[C@@H](O[C@H]2O[C@H](CO)[C@@H](O)[C@@H](O)[C@@H]2O)[C@H]2C(CO)=CC[C@H]12
REMARK SMILES IDX 9 1 8 2 5 3 6 4 27 5 7 6 21 7 26 8 22 9 25 10 3 11 4 12 2 13
REMARK SMILES IDX 1 14 23 15 24 16 10 18 19 19 11 20 17 21 12 22 15 23 20 24
REMARK SMILES IDX 18 26 13 28 14 29 16 31
REMARK H PARENT 24 17 20 25 18 27 14 30 16 32
REMARK Flexibility Score: inf
ROOT
ATOM      1  O   UNL     1     -13.672   2.446  22.795  1.00  0.00    -0.310 OA
ENDROOT
BRANCH   1   2
ATOM      2  C   UNL     1     -12.608   2.290  23.717  1.00  0.00     0.316 C 
ATOM      3  C   UNL     1     -11.491   4.972  24.121  1.00  0.00     0.076 C 
ATOM      4  C   UNL     1     -12.277   4.403  25.063  1.00  0.00     0.202 C 
ATOM      5  C   UNL     1     -11.380   4.237  22.808  1.00  0.00     0.047 C 
ATOM      6  O   UNL     1     -12.836   3.114  24.880  1.00  0.00    -0.471 OA
ATOM      7  C   UNL     1     -11.293   2.741  23.081  1.00  0.00     0.094 C 
ATOM      8  C   UNL     1     -10.208   4.469  21.853  1.00  0.00     0.037 C 
ATOM      9  C   UNL     1     -10.846   2.209  21.761  1.00  0.00    -0.039 C 
ATOM     10  C   UNL     1     -10.179   3.164  21.107  1.00  0.00    -0.024 C 
BRANCH   3  11
ATOM     11  C   UNL     1     -10.950   6.337  24.313  1.00  0.00     0.337 C 
ATOM     12  O   UNL     1     -11.733   7.322  24.405  1.00  0.00    -0.246 OA
BRANCH  11  13
ATOM     13  O   UNL     1      -9.567   6.533  24.400  1.00  0.00    -0.466 OA
ATOM     14  C   UNL     1      -8.698   5.602  25.033  1.00  0.00     0.282 C 
ENDBRANCH  11  13
ENDBRANCH   3  11
BRANCH   9  15
ATOM     15  C   UNL     1     -10.905   0.771  21.329  1.00  0.00     0.187 C 
BRANCH  15  16
ATOM     16  O   UNL     1     -12.228   0.309  21.357  1.00  0.00    -0.392 OA
ATOM     17  H   UNL     1     -12.524   0.230  20.412  1.00  0.00     0.211 HD
ENDBRANCH  15  16
ENDBRANCH   9  15
ENDBRANCH   1   2
BRANCH   1  18
ATOM     18  C   UNL     1     -14.889   2.777  23.452  1.00  0.00     0.286 C 
ATOM     19  C   UNL     1     -15.490   1.528  24.146  1.00  0.00     0.202 C 
ATOM     20  O   UNL     1     -15.804   3.341  22.525  1.00  0.00    -0.341 OA
ATOM     21  C   UNL     1     -16.012   0.505  23.117  1.00  0.00     0.179 C 
ATOM     22  C   UNL     1     -16.135   2.432  21.484  1.00  0.00     0.178 C 
ATOM     23  C   UNL     1     -16.880   1.198  22.049  1.00  0.00     0.177 C 
BRANCH  19  24
ATOM     24  O   UNL     1     -16.504   1.890  25.052  1.00  0.00    -0.385 OA
ATOM     25  H   UNL     1     -17.275   2.238  24.534  1.00  0.00     0.211 HD
ENDBRANCH  19  24
BRANCH  21  26
ATOM     26  O   UNL     1     -14.917  -0.138  22.514  1.00  0.00    -0.387 OA
ATOM     27  H   UNL     1     -14.163   0.508  22.510  1.00  0.00     0.211 HD
ENDBRANCH  21  26
BRANCH  22  28
ATOM     28  C   UNL     1     -16.984   3.180  20.447  1.00  0.00     0.191 C 
BRANCH  28  29
ATOM     29  O   UNL     1     -17.376   4.431  20.945  1.00  0.00    -0.394 OA
ATOM     30  H   UNL     1     -17.126   5.094  20.251  1.00  0.00     0.210 HD
ENDBRANCH  28  29
ENDBRANCH  22  28
BRANCH  23  31
ATOM     31  O   UNL     1     -17.165   0.282  21.020  1.00  0.00    -0.387 OA
ATOM     32  H   UNL     1     -16.947   0.727  20.161  1.00  0.00     0.211 HD
ENDBRANCH  23  31
ENDBRANCH   1  18
TORSDOF 11
ENDMDL
MODEL 2
REMARK VINA RESULT:    -5.881      1.479      2.059
REMARK INTER + INTRA:          -9.855
REMARK INTER:                  -8.971
REMARK INTRA:                  -0.884
REMARK UNBOUND:                -1.053
REMARK SMILES COC(=O)C1=CO[C@@H](O[C@H]2O[C@H](CO)[C@@H](O)[C@@H](O)[C@@H]2O)[C@H]2C(CO)=CC[C@H]12
REMARK SMILES IDX 9 1 8 2 5 3 6 4 27 5 7 6 21 7 26 8 22 9 25 10 3 11 4 12 2 13
REMARK SMILES IDX 1 14 23 15 24 16 10 18 19 19 11 20 17 21 12 22 15 23 20 24
REMARK SMILES IDX 18 26 13 28 14 29 16 31
REMARK H PARENT 24 17 20 25 18 27 14 30 16 32
REMARK Flexibility Score: inf
ROOT
ATOM      1  O   UNL     1     -12.835   1.515  22.606  1.00  0.00    -0.310 OA
ENDROOT
BRANCH   1   2
ATOM      2  C   UNL     1     -11.592   1.496  23.286  1.00  0.00     0.316 C 
ATOM      3  C   UNL     1     -11.109   4.254  24.160  1.00  0.00     0.076 C 
ATOM      4  C   UNL     1     -11.508   3.310  25.042  1.00  0.00     0.202 C 
ATOM      5  C   UNL     1     -11.107   3.852  22.705  1.00  0.00     0.047 C 
ATOM      6  O   UNL     1     -11.759   1.976  24.636  1.00  0.00    -0.471 OA
ATOM      7  C   UNL     1     -10.598   2.422  22.584  1.00  0.00     0.094 C 
ATOM      8  C   UNL     1     -10.264   4.594  21.667  1.00  0.00     0.037 C 
ATOM      9  C   UNL     1     -10.331   2.310  21.121  1.00  0.00    -0.039 C 
ATOM     10  C   UNL     1     -10.077   3.525  20.627  1.00  0.00    -0.024 C 
BRANCH   3  11
ATOM     11  C   UNL     1     -10.892   5.652  24.596  1.00  0.00     0.337 C 
ATOM     12  O   UNL     1     -11.823   6.498  24.498  1.00  0.00    -0.246 OA
BRANCH  11  13
ATOM     13  O   UNL     1      -9.654   6.033  25.125  1.00  0.00    -0.466 OA
ATOM     14  C   UNL     1      -8.456   5.308  24.874  1.00  0.00     0.282 C 
ENDBRANCH  11  13
ENDBRANCH   3  11
BRANCH   9  15
ATOM     15  C   UNL     1     -10.127   1.028  20.363  1.00  0.00     0.187 C 
BRANCH  15  16
ATOM     16  O   UNL     1      -9.470   1.281  19.151  1.00  0.00    -0.392 OA
ATOM     17  H   UNL     1     -10.176   1.417  18.466  1.00  0.00     0.211 HD
ENDBRANCH  15  16
ENDBRANCH   9  15
ENDBRANCH   1   2
BRANCH   1  18
ATOM     18  C   UNL     1     -13.919   1.264  23.492  1.00  0.00     0.286 C 
ATOM     19  C   UNL     1     -15.118   0.650  22.726  1.00  0.00     0.202 C 
ATOM     20  O   UNL     1     -14.292   2.462  24.156  1.00  0.00    -0.341 OA
ATOM     21  C   UNL     1     -15.776   1.680  21.786  1.00  0.00     0.179 C 
ATOM     22  C   UNL     1     -14.731   3.461  23.246  1.00  0.00     0.178 C 
ATOM     23  C   UNL     1     -16.022   3.011  22.519  1.00  0.00     0.177 C 
BRANCH  19  24
ATOM     24  O   UNL     1     -16.064   0.107  23.615  1.00  0.00    -0.385 OA
ATOM     25  H   UNL     1     -15.934   0.527  24.503  1.00  0.00     0.211 HD
ENDBRANCH  19  24
BRANCH  21  26
ATOM     26  O   UNL     1     -14.941   1.883  20.673  1.00  0.00    -0.387 OA
ATOM     27  H   UNL     1     -15.384   1.459  19.892  1.00  0.00     0.211 HD
ENDBRANCH  21  26
BRANCH  22  28
ATOM     28  C   UNL     1     -14.945   4.763  24.029  1.00  0.00     0.191 C 
BRANCH  28  29
ATOM     29  O   UNL     1     -14.720   5.873  23.204  1.00  0.00    -0.394 OA
ATOM     30  H   UNL     1     -14.862   5.557  22.274  1.00  0.00     0.210 HD
ENDBRANCH  28  29
ENDBRANCH  22  28
BRANCH  23  31
ATOM     31  O   UNL     1     -16.426   3.985  21.588  1.00  0.00    -0.387 OA
ATOM     32  H   UNL     1     -15.998   3.759  20.721  1.00  0.00     0.211 HD
ENDBRANCH  23  31
ENDBRANCH   1  18
TORSDOF 11
ENDMDL
MODEL 3
REMARK VINA RESULT:    -5.786      2.187      4.090
REMARK INTER + INTRA:          -9.713
REMARK INTER:                  -8.383
REMARK INTRA:                  -1.331
REMARK UNBOUND:                -1.053
REMARK SMILES COC(=O)C1=CO[C@@H](O[C@H]2O[C@H](CO)[C@@H](O)[C@@H](O)[C@@H]2O)[C@H]2C(CO)=CC[C@H]12
REMARK SMILES IDX 9 1 8 2 5 3 6 4 27 5 7 6 21 7 26 8 22 9 25 10 3 11 4 12 2 13
REMARK SMILES IDX 1 14 23 15 24 16 10 18 19 19 11 20 17 21 12 22 15 23 20 24
REMARK SMILES IDX 18 26 13 28 14 29 16 31
REMARK H PARENT 24 17 20 25 18 27 14 30 16 32
REMARK Flexibility Score: inf
ROOT
ATOM      1  O   UNL     1     -13.052   2.428  22.783  1.00  0.00    -0.310 OA
ENDROOT
BRANCH   1   2
ATOM      2  C   UNL     1     -12.337   3.428  22.081  1.00  0.00     0.316 C 
ATOM      3  C   UNL     1      -9.648   3.469  23.251  1.00  0.00     0.076 C 
ATOM      4  C   UNL     1      -9.866   2.900  22.043  1.00  0.00     0.202 C 
ATOM      5  C   UNL     1     -10.872   3.905  24.017  1.00  0.00     0.047 C 
ATOM      6  O   UNL     1     -11.161   2.858  21.469  1.00  0.00    -0.471 OA
ATOM      7  C   UNL     1     -11.874   4.518  23.048  1.00  0.00     0.094 C 
ATOM      8  C   UNL     1     -10.795   4.957  25.125  1.00  0.00     0.037 C 
ATOM      9  C   UNL     1     -12.830   5.192  23.974  1.00  0.00    -0.039 C 
ATOM     10  C   UNL     1     -12.197   5.497  25.110  1.00  0.00    -0.024 C 
BRANCH   3  11
ATOM     11  C   UNL     1      -8.295   3.465  23.853  1.00  0.00     0.337 C 
ATOM     12  O   UNL     1      -7.540   4.468  23.723  1.00  0.00    -0.246 OA
BRANCH  11  13
ATOM     13  O   UNL     1      -7.856   2.348  24.573  1.00  0.00    -0.466 OA
ATOM     14  C   UNL     1      -6.479   2.047  24.758  1.00  0.00     0.282 C 
ENDBRANCH  11  13
ENDBRANCH   3  11
BRANCH   9  15
ATOM     15  C   UNL     1     -14.203   5.683  23.611  1.00  0.00     0.187 C 
BRANCH  15  16
ATOM     16  O   UNL     1     -15.171   5.040  24.395  1.00  0.00    -0.392 OA
ATOM     17  H   UNL     1     -15.654   4.413  23.797  1.00  0.00     0.211 HD
ENDBRANCH  15  16
ENDBRANCH   9  15
ENDBRANCH   1   2
BRANCH   1  18
ATOM     18  C   UNL     1     -14.048   1.826  21.966  1.00  0.00     0.286 C 
ATOM     19  C   UNL     1     -15.465   2.197  22.472  1.00  0.00     0.202 C 
ATOM     20  O   UNL     1     -13.867   0.418  21.935  1.00  0.00    -0.341 OA
ATOM     21  C   UNL     1     -15.782   1.519  23.819  1.00  0.00     0.179 C 
ATOM     22  C   UNL     1     -13.990  -0.164  23.225  1.00  0.00     0.178 C 
ATOM     23  C   UNL     1     -15.426   0.022  23.775  1.00  0.00     0.177 C 
BRANCH  19  24
ATOM     24  O   UNL     1     -16.445   1.885  21.511  1.00  0.00    -0.385 OA
ATOM     25  H   UNL     1     -16.121   2.189  20.625  1.00  0.00     0.211 HD
ENDBRANCH  19  24
BRANCH  21  26
ATOM     26  O   UNL     1     -15.057   2.163  24.838  1.00  0.00    -0.387 OA
ATOM     27  H   UNL     1     -15.136   1.601  25.654  1.00  0.00     0.211 HD
ENDBRANCH  21  26
BRANCH  22  28
ATOM     28  C   UNL     1     -13.610  -1.647  23.120  1.00  0.00     0.191 C 
BRANCH  28  29
ATOM     29  O   UNL     1     -12.750  -1.856  22.034  1.00  0.00    -0.394 OA
ATOM     30  H   UNL     1     -11.897  -2.187  22.418  1.00  0.00     0.210 HD
ENDBRANCH  28  29
ENDBRANCH  22  28
BRANCH  23  31
ATOM     31  O   UNL     1     -15.529  -0.517  25.071  1.00  0.00    -0.387 OA
ATOM     32  H   UNL     1     -14.687  -1.010  25.253  1.00  0.00     0.211 HD
ENDBRANCH  23  31
ENDBRANCH   1  18
TORSDOF 11
ENDMDL
MODEL 4
REMARK VINA RESULT:    -5.574      1.698      3.222
REMARK INTER + INTRA:          -9.396
REMARK INTER:                  -9.155
REMARK INTRA:                  -0.241
REMARK UNBOUND:                -1.053
REMARK SMILES COC(=O)C1=CO[C@@H](O[C@H]2O[C@H](CO)[C@@H](O)[C@@H](O)[C@@H]2O)[C@H]2C(CO)=CC[C@H]12
REMARK SMILES IDX 9 1 8 2 5 3 6 4 27 5 7 6 21 7 26 8 22 9 25 10 3 11 4 12 2 13
REMARK SMILES IDX 1 14 23 15 24 16 10 18 19 19 11 20 17 21 12 22 15 23 20 24
REMARK SMILES IDX 18 26 13 28 14 29 16 31
REMARK H PARENT 24 17 20 25 18 27 14 30 16 32
REMARK Flexibility Score: inf
ROOT
ATOM      1  O   UNL     1     -14.327   2.567  23.494  1.00  0.00    -0.310 OA
ENDROOT
BRANCH   1   2
ATOM      2  C   UNL     1     -13.725   3.389  22.510  1.00  0.00     0.316 C 
ATOM      3  C   UNL     1     -10.829   3.056  22.842  1.00  0.00     0.076 C 
ATOM      4  C   UNL     1     -11.480   2.456  21.819  1.00  0.00     0.202 C 
ATOM      5  C   UNL     1     -11.691   3.737  23.877  1.00  0.00     0.047 C 
ATOM      6  O   UNL     1     -12.881   2.594  21.651  1.00  0.00    -0.471 OA
ATOM      7  C   UNL     1     -12.843   4.445  23.177  1.00  0.00     0.094 C 
ATOM      8  C   UNL     1     -11.137   4.829  24.792  1.00  0.00     0.037 C 
ATOM      9  C   UNL     1     -13.370   5.326  24.259  1.00  0.00    -0.039 C 
ATOM     10  C   UNL     1     -12.388   5.592  25.124  1.00  0.00    -0.024 C 
BRANCH   3  11
ATOM     11  C   UNL     1      -9.373   2.865  23.024  1.00  0.00     0.337 C 
ATOM     12  O   UNL     1      -8.908   1.715  23.254  1.00  0.00    -0.246 OA
BRANCH  11  13
ATOM     13  O   UNL     1      -8.509   3.963  22.936  1.00  0.00    -0.466 OA
ATOM     14  C   UNL     1      -7.495   4.222  23.898  1.00  0.00     0.282 C 
ENDBRANCH  11  13
ENDBRANCH   3  11
BRANCH   9  15
ATOM     15  C   UNL     1     -14.706   6.014  24.257  1.00  0.00     0.187 C 
BRANCH  15  16
ATOM     16  O   UNL     1     -15.077   6.352  22.949  1.00  0.00    -0.392 OA
ATOM     17  H   UNL     1     -14.591   5.732  22.344  1.00  0.00     0.211 HD
ENDBRANCH  15  16
ENDBRANCH   9  15
ENDBRANCH   1   2
BRANCH   1  18
ATOM     18  C   UNL     1     -15.696   2.899  23.685  1.00  0.00     0.286 C 
ATOM     19  C   UNL     1     -16.418   1.789  24.490  1.00  0.00     0.202 C 
ATOM     20  O   UNL     1     -16.324   3.114  22.430  1.00  0.00    -0.341 OA
ATOM     21  C   UNL     1     -16.570   0.497  23.663  1.00  0.00     0.179 C 
ATOM     22  C   UNL     1     -16.295   1.952  21.613  1.00  0.00     0.178 C 
ATOM     23  C   UNL     1     -17.116   0.808  22.257  1.00  0.00     0.177 C 
BRANCH  19  24
ATOM     24  O   UNL     1     -17.669   2.233  24.959  1.00  0.00    -0.385 OA
ATOM     25  H   UNL     1     -17.513   2.939  25.638  1.00  0.00     0.211 HD
ENDBRANCH  19  24
BRANCH  21  26
ATOM     26  O   UNL     1     -15.318  -0.138  23.571  1.00  0.00    -0.387 OA
ATOM     27  H   UNL     1     -15.301  -0.626  22.705  1.00  0.00     0.211 HD
ENDBRANCH  21  26
BRANCH  22  28
ATOM     28  C   UNL     1     -16.835   2.327  20.227  1.00  0.00     0.191 C 
BRANCH  28  29
ATOM     29  O   UNL     1     -16.731   3.709  20.018  1.00  0.00    -0.394 OA
ATOM     30  H   UNL     1     -15.998   3.833  19.361  1.00  0.00     0.210 HD
ENDBRANCH  28  29
ENDBRANCH  22  28
BRANCH  23  31
ATOM     31  O   UNL     1     -17.046  -0.353  21.466  1.00  0.00    -0.387 OA
ATOM     32  H   UNL     1     -16.159  -0.352  21.020  1.00  0.00     0.211 HD
ENDBRANCH  23  31
ENDBRANCH   1  18
TORSDOF 11
ENDMDL
MODEL 5
REMARK VINA RESULT:    -5.048      2.610      4.425
REMARK INTER + INTRA:          -8.609
REMARK INTER:                  -8.579
REMARK INTRA:                  -0.030
REMARK UNBOUND:                -1.053
REMARK SMILES COC(=O)C1=CO[C@@H](O[C@H]2O[C@H](CO)[C@@H](O)[C@@H](O)[C@@H]2O)[C@H]2C(CO)=CC[C@H]12
REMARK SMILES IDX 9 1 8 2 5 3 6 4 27 5 7 6 21 7 26 8 22 9 25 10 3 11 4 12 2 13
REMARK SMILES IDX 1 14 23 15 24 16 10 18 19 19 11 20 17 21 12 22 15 23 20 24
REMARK SMILES IDX 18 26 13 28 14 29 16 31
REMARK H PARENT 24 17 20 25 18 27 14 30 16 32
REMARK Flexibility Score: inf
ROOT
ATOM      1  O   UNL     1     -10.703   3.888  22.527  1.00  0.00    -0.310 OA
ENDROOT
BRANCH   1   2
ATOM      2  C   UNL     1     -11.208   4.158  23.823  1.00  0.00     0.316 C 
ATOM      3  C   UNL     1     -10.495   6.944  24.401  1.00  0.00     0.076 C 
ATOM      4  C   UNL     1     -11.764   6.610  24.071  1.00  0.00     0.202 C 
ATOM      5  C   UNL     1      -9.461   5.852  24.276  1.00  0.00     0.047 C 
ATOM      6  O   UNL     1     -12.124   5.272  23.775  1.00  0.00    -0.471 OA
ATOM      7  C   UNL     1     -10.062   4.540  24.762  1.00  0.00     0.094 C 
ATOM      8  C   UNL     1      -8.134   5.910  25.035  1.00  0.00     0.037 C 
ATOM      9  C   UNL     1      -8.854   3.677  24.903  1.00  0.00    -0.039 C 
ATOM     10  C   UNL     1      -7.787   4.451  25.125  1.00  0.00    -0.024 C 
BRANCH   3  11
ATOM     11  C   UNL     1     -10.131   8.354  24.666  1.00  0.00     0.337 C 
ATOM     12  O   UNL     1      -8.991   8.639  25.124  1.00  0.00    -0.246 OA
BRANCH  11  13
ATOM     13  O   UNL     1     -11.052   9.374  24.401  1.00  0.00    -0.466 OA
ATOM     14  C   UNL     1     -10.706  10.555  23.688  1.00  0.00     0.282 C 
ENDBRANCH  11  13
ENDBRANCH   3  11
BRANCH   9  15
ATOM     15  C   UNL     1      -8.855   2.180  25.032  1.00  0.00     0.187 C 
BRANCH  15  16
ATOM     16  O   UNL     1      -8.810   1.583  23.765  1.00  0.00    -0.392 OA
ATOM     17  H   UNL     1      -7.950   1.091  23.710  1.00  0.00     0.211 HD
ENDBRANCH  15  16
ENDBRANCH   9  15
ENDBRANCH   1   2
BRANCH   1  18
ATOM     18  C   UNL     1     -11.753   3.713  21.584  1.00  0.00     0.286 C 
ATOM     19  C   UNL     1     -12.929   2.927  22.216  1.00  0.00     0.202 C 
ATOM     20  O   UNL     1     -11.261   3.058  20.424  1.00  0.00    -0.341 OA
ATOM     21  C   UNL     1     -12.553   1.454  22.471  1.00  0.00     0.179 C 
ATOM     22  C   UNL     1     -10.756   1.764  20.718  1.00  0.00     0.178 C 
ATOM     23  C   UNL     1     -11.887   0.836  21.227  1.00  0.00     0.177 C 
BRANCH  19  24
ATOM     24  O   UNL     1     -14.087   3.018  21.422  1.00  0.00    -0.385 OA
ATOM     25  H   UNL     1     -14.861   2.721  21.965  1.00  0.00     0.211 HD
ENDBRANCH  19  24
BRANCH  21  26
ATOM     26  O   UNL     1     -11.682   1.387  23.573  1.00  0.00    -0.387 OA
ATOM     27  H   UNL     1     -11.917   0.566  24.082  1.00  0.00     0.211 HD
ENDBRANCH  21  26
BRANCH  22  28
ATOM     28  C   UNL     1     -10.095   1.208  19.449  1.00  0.00     0.191 C 
BRANCH  28  29
ATOM     29  O   UNL     1      -9.119   0.258  19.782  1.00  0.00    -0.394 OA
ATOM     30  H   UNL     1      -8.321   0.774  20.068  1.00  0.00     0.210 HD
ENDBRANCH  28  29
ENDBRANCH  22  28
BRANCH  23  31
ATOM     31  O   UNL     1     -11.373  -0.431  21.558  1.00  0.00    -0.387 OA
ATOM     32  H   UNL     1     -12.119  -1.081  21.481  1.00  0.00     0.211 HD
ENDBRANCH  23  31
ENDBRANCH   1  18
TORSDOF 11
ENDMDL
MODEL 6
REMARK VINA RESULT:    -4.860      1.849      6.592
REMARK INTER + INTRA:          -8.328
REMARK INTER:                  -7.183
REMARK INTRA:                  -1.145
REMARK UNBOUND:                -1.053
REMARK SMILES COC(=O)C1=CO[C@@H](O[C@H]2O[C@H](CO)[C@@H](O)[C@@H](O)[C@@H]2O)[C@H]2C(CO)=CC[C@H]12
REMARK SMILES IDX 9 1 8 2 5 3 6 4 27 5 7 6 21 7 26 8 22 9 25 10 3 11 4 12 2 13
REMARK SMILES IDX 1 14 23 15 24 16 10 18 19 19 11 20 17 21 12 22 15 23 20 24
REMARK SMILES IDX 18 26 13 28 14 29 16 31
REMARK H PARENT 24 17 20 25 18 27 14 30 16 32
REMARK Flexibility Score: inf
ROOT
ATOM      1  O   UNL     1     -11.825   3.002  23.221  1.00  0.00    -0.310 OA
ENDROOT
BRANCH   1   2
ATOM      2  C   UNL     1     -12.229   1.904  22.423  1.00  0.00     0.316 C 
ATOM      3  C   UNL     1     -15.065   2.347  21.818  1.00  0.00     0.076 C 
ATOM      4  C   UNL     1     -14.116   2.569  20.880  1.00  0.00     0.202 C 
ATOM      5  C   UNL     1     -14.571   2.043  23.211  1.00  0.00     0.047 C 
ATOM      6  O   UNL     1     -12.741   2.373  21.158  1.00  0.00    -0.471 OA
ATOM      7  C   UNL     1     -13.353   1.135  23.120  1.00  0.00     0.094 C 
ATOM      8  C   UNL     1     -15.448   1.321  24.236  1.00  0.00     0.037 C 
ATOM      9  C   UNL     1     -13.212   0.661  24.527  1.00  0.00    -0.039 C 
ATOM     10  C   UNL     1     -14.406   0.703  25.125  1.00  0.00    -0.024 C 
BRANCH   3  11
ATOM     11  C   UNL     1     -16.494   2.597  21.520  1.00  0.00     0.337 C 
ATOM     12  O   UNL     1     -16.894   3.768  21.275  1.00  0.00    -0.246 OA
BRANCH  11  13
ATOM     13  O   UNL     1     -17.400   1.531  21.505  1.00  0.00    -0.466 OA
ATOM     14  C   UNL     1     -17.187   0.354  20.736  1.00  0.00     0.282 C 
ENDBRANCH  11  13
ENDBRANCH   3  11
BRANCH   9  15
ATOM     15  C   UNL     1     -11.995   0.002  25.113  1.00  0.00     0.187 C 
BRANCH  15  16
ATOM     16  O   UNL     1     -10.843   0.732  24.789  1.00  0.00    -0.392 OA
ATOM     17  H   UNL     1     -10.951   1.036  23.850  1.00  0.00     0.211 HD
ENDBRANCH  15  16
ENDBRANCH   9  15
ENDBRANCH   1   2
BRANCH   1  18
ATOM     18  C   UNL     1     -11.441   4.115  22.423  1.00  0.00     0.286 C 
ATOM     19  C   UNL     1      -9.974   3.964  21.948  1.00  0.00     0.202 C 
ATOM     20  O   UNL     1     -11.625   5.321  23.150  1.00  0.00    -0.341 OA
ATOM     21  C   UNL     1      -8.981   4.120  23.116  1.00  0.00     0.179 C 
ATOM     22  C   UNL     1     -10.824   5.363  24.323  1.00  0.00     0.178 C 
ATOM     23  C   UNL     1      -9.319   5.364  23.959  1.00  0.00     0.177 C 
BRANCH  19  24
ATOM     24  O   UNL     1      -9.679   4.874  20.915  1.00  0.00    -0.385 OA
ATOM     25  H   UNL     1      -8.974   5.491  21.236  1.00  0.00     0.211 HD
ENDBRANCH  19  24
BRANCH  21  26
ATOM     26  O   UNL     1      -9.028   2.963  23.915  1.00  0.00    -0.387 OA
ATOM     27  H   UNL     1      -9.731   2.373  23.535  1.00  0.00     0.211 HD
ENDBRANCH  21  26
BRANCH  22  28
ATOM     28  C   UNL     1     -11.214   6.611  25.125  1.00  0.00     0.191 C 
BRANCH  28  29
ATOM     29  O   UNL     1     -10.478   7.722  24.691  1.00  0.00    -0.394 OA
ATOM     30  H   UNL     1     -10.814   8.496  25.214  1.00  0.00     0.210 HD
ENDBRANCH  28  29
ENDBRANCH  22  28
BRANCH  23  31
ATOM     31  O   UNL     1      -8.531   5.360  25.125  1.00  0.00    -0.387 OA
ATOM     32  H   UNL     1      -9.152   5.337  25.899  1.00  0.00     0.211 HD
ENDBRANCH  23  31
ENDBRANCH   1  18
TORSDOF 11
ENDMDL
MODEL 7
REMARK VINA RESULT:    -4.843      1.568      2.263
REMARK INTER + INTRA:          -8.303
REMARK INTER:                  -6.908
REMARK INTRA:                  -1.394
REMARK UNBOUND:                -1.053
REMARK SMILES COC(=O)C1=CO[C@@H](O[C@H]2O[C@H](CO)[C@@H](O)[C@@H](O)[C@@H]2O)[C@H]2C(CO)=CC[C@H]12
REMARK SMILES IDX 9 1 8 2 5 3 6 4 27 5 7 6 21 7 26 8 22 9 25 10 3 11 4 12 2 13
REMARK SMILES IDX 1 14 23 15 24 16 10 18 19 19 11 20 17 21 12 22 15 23 20 24
REMARK SMILES IDX 18 26 13 28 14 29 16 31
REMARK H PARENT 24 17 20 25 18 27 14 30 16 32
REMARK Flexibility Score: inf
ROOT
ATOM      1  O   UNL     1     -14.891   2.632  23.148  1.00  0.00    -0.310 OA
ENDROOT
BRANCH   1   2
ATOM      2  C   UNL     1     -14.178   3.083  24.286  1.00  0.00     0.316 C 
ATOM      3  C   UNL     1     -11.646   4.165  23.276  1.00  0.00     0.076 C 
ATOM      4  C   UNL     1     -12.639   4.992  23.677  1.00  0.00     0.202 C 
ATOM      5  C   UNL     1     -11.983   2.696  23.210  1.00  0.00     0.047 C 
ATOM      6  O   UNL     1     -13.874   4.487  24.154  1.00  0.00    -0.471 OA
ATOM      7  C   UNL     1     -12.853   2.331  24.407  1.00  0.00     0.094 C 
ATOM      8  C   UNL     1     -10.898   1.618  23.248  1.00  0.00     0.037 C 
ATOM      9  C   UNL     1     -12.801   0.841  24.386  1.00  0.00    -0.039 C 
ATOM     10  C   UNL     1     -11.668   0.450  23.795  1.00  0.00    -0.024 C 
BRANCH   3  11
ATOM     11  C   UNL     1     -10.378   4.712  22.741  1.00  0.00     0.337 C 
ATOM     12  O   UNL     1     -10.141   4.665  21.503  1.00  0.00    -0.246 OA
BRANCH  11  13
ATOM     13  O   UNL     1      -9.445   5.287  23.610  1.00  0.00    -0.466 OA
ATOM     14  C   UNL     1      -9.194   4.777  24.914  1.00  0.00     0.282 C 
ENDBRANCH  11  13
ENDBRANCH   3  11
BRANCH   9  15
ATOM     15  C   UNL     1     -13.731  -0.080  25.125  1.00  0.00     0.187 C 
BRANCH  15  16
ATOM     16  O   UNL     1     -14.102  -1.156  24.307  1.00  0.00    -0.392 OA
ATOM     17  H   UNL     1     -13.738  -1.976  24.731  1.00  0.00     0.211 HD
ENDBRANCH  15  16
ENDBRANCH   9  15
ENDBRANCH   1   2
BRANCH   1  18
ATOM     18  C   UNL     1     -16.296   2.676  23.360  1.00  0.00     0.286 C 
ATOM     19  C   UNL     1     -16.850   1.255  23.639  1.00  0.00     0.202 C 
ATOM     20  O   UNL     1     -16.939   3.266  22.240  1.00  0.00    -0.341 OA
ATOM     21  C   UNL     1     -16.798   0.369  22.379  1.00  0.00     0.179 C 
ATOM     22  C   UNL     1     -16.728   2.520  21.050  1.00  0.00     0.178 C 
ATOM     23  C   UNL     1     -17.373   1.117  21.161  1.00  0.00     0.177 C 
BRANCH  19  24
ATOM     24  O   UNL     1     -18.156   1.312  24.159  1.00  0.00    -0.385 OA
ATOM     25  H   UNL     1     -18.232   2.124  24.723  1.00  0.00     0.211 HD
ENDBRANCH  19  24
BRANCH  21  26
ATOM     26  O   UNL     1     -15.465  -0.005  22.136  1.00  0.00    -0.387 OA
ATOM     27  H   UNL     1     -15.245   0.278  21.209  1.00  0.00     0.211 HD
ENDBRANCH  21  26
BRANCH  22  28
ATOM     28  C   UNL     1     -17.307   3.319  19.875  1.00  0.00     0.191 C 
BRANCH  28  29
ATOM     29  O   UNL     1     -17.762   4.571  20.310  1.00  0.00    -0.394 OA
ATOM     30  H   UNL     1     -16.967   5.166  20.314  1.00  0.00     0.210 HD
ENDBRANCH  28  29
ENDBRANCH  22  28
BRANCH  23  31
ATOM     31  O   UNL     1     -17.122   0.367  19.997  1.00  0.00    -0.387 OA
ATOM     32  H   UNL     1     -16.244   0.661  19.641  1.00  0.00     0.211 HD
ENDBRANCH  23  31
ENDBRANCH   1  18
TORSDOF 11
ENDMDL
