MODEL 1
REMARK VINA RESULT:    -4.638      0.000      0.000
REMARK INTER + INTRA:          -5.912
REMARK INTER:                  -5.723
REMARK INTRA:                  -0.189
REMARK UNBOUND:                -0.189
REMARK SMILES COC(=O)c1ccccc1C(=O)OC
REMARK SMILES IDX 5 1 6 2 7 3 8 4 9 5 10 6 3 7 4 8 2 9 1 10 11 11 12 12 13 13
REMARK SMILES IDX 14 14
REMARK H PARENT
REMARK Flexibility Score: inf
ROOT
ATOM      1  C   UNL     1     181.076 180.423 185.598  1.00  0.00     0.074 A 
ATOM      2  C   UNL     1     181.492 179.080 185.621  1.00  0.00     0.016 A 
ATOM      3  C   UNL     1     180.966 178.153 184.720  1.00  0.00     0.001 A 
ATOM      4  C   UNL     1     180.016 178.553 183.783  1.00  0.00     0.001 A 
ATOM      5  C   UNL     1     179.571 179.875 183.757  1.00  0.00     0.016 A 
ATOM      6  C   UNL     1     180.072 180.820 184.671  1.00  0.00     0.074 A 
ENDROOT
BRANCH   1   7
ATOM      7  C   UNL     1     181.758 181.374 186.505  1.00  0.00     0.338 C 
ATOM      8  O   UNL     1     182.651 182.148 186.062  1.00  0.00    -0.246 OA
BRANCH   7   9
ATOM      9  O   UNL     1     181.449 181.368 187.868  1.00  0.00    -0.465 OA
ATOM     10  C   UNL     1     182.389 180.992 188.868  1.00  0.00     0.282 C 
ENDBRANCH   7   9
ENDBRANCH   1   7
BRANCH   6  11
ATOM     11  C   UNL     1     179.473 182.175 184.661  1.00  0.00     0.338 C 
ATOM     12  O   UNL     1     178.893 182.623 185.688  1.00  0.00    -0.246 OA
BRANCH  11  13
ATOM     13  O   UNL     1     179.504 182.933 183.486  1.00  0.00    -0.465 OA
ATOM     14  C   UNL     1     178.327 183.285 182.768  1.00  0.00     0.282 C 
ENDBRANCH  11  13
ENDBRANCH   6  11
TORSDOF 4
ENDMDL
MODEL 2
REMARK VINA RESULT:    -4.633      0.113      4.140
REMARK INTER + INTRA:          -5.906
REMARK INTER:                  -5.703
REMARK INTRA:                  -0.203
REMARK UNBOUND:                -0.189
REMARK SMILES COC(=O)c1ccccc1C(=O)OC
REMARK SMILES IDX 5 1 6 2 7 3 8 4 9 5 10 6 3 7 4 8 2 9 1 10 11 11 12 12 13 13
REMARK SMILES IDX 14 14
REMARK H PARENT
REMARK Flexibility Score: inf
ROOT
ATOM      1  C   UNL     1     180.090 180.900 184.659  1.00  0.00     0.074 A 
ATOM      2  C   UNL     1     179.572 179.979 183.732  1.00  0.00     0.016 A 
ATOM      3  C   UNL     1     179.969 178.641 183.754  1.00  0.00     0.001 A 
ATOM      4  C   UNL     1     180.890 178.203 184.702  1.00  0.00     0.001 A 
ATOM      5  C   UNL     1     181.435 179.104 185.617  1.00  0.00     0.016 A 
ATOM      6  C   UNL     1     181.066 180.461 185.598  1.00  0.00     0.074 A 
ENDROOT
BRANCH   1   7
ATOM      7  C   UNL     1     179.541 182.274 184.650  1.00  0.00     0.338 C 
ATOM      8  O   UNL     1     178.926 182.722 185.658  1.00  0.00    -0.246 OA
BRANCH   7   9
ATOM      9  O   UNL     1     179.654 183.055 183.496  1.00  0.00    -0.465 OA
ATOM     10  C   UNL     1     178.527 183.450 182.722  1.00  0.00     0.282 C 
ENDBRANCH   7   9
ENDBRANCH   1   7
BRANCH   6  11
ATOM     11  C   UNL     1     181.768 181.382 186.522  1.00  0.00     0.338 C 
ATOM     12  O   UNL     1     182.679 182.142 186.094  1.00  0.00    -0.246 OA
BRANCH  11  13
ATOM     13  O   UNL     1     181.455 181.360 187.885  1.00  0.00    -0.465 OA
ATOM     14  C   UNL     1     182.394 180.975 188.882  1.00  0.00     0.282 C 
ENDBRANCH  11  13
ENDBRANCH   6  11
TORSDOF 4
ENDMDL
MODEL 3
REMARK VINA RESULT:    -4.618      2.149      2.914
REMARK INTER + INTRA:          -5.887
REMARK INTER:                  -5.476
REMARK INTRA:                  -0.412
REMARK UNBOUND:                -0.189
REMARK SMILES COC(=O)c1ccccc1C(=O)OC
REMARK SMILES IDX 5 1 6 2 7 3 8 4 9 5 10 6 3 7 4 8 2 9 1 10 11 11 12 12 13 13
REMARK SMILES IDX 14 14
REMARK H PARENT
REMARK Flexibility Score: inf
ROOT
ATOM      1  C   UNL     1     180.883 178.419 184.116  1.00  0.00     0.074 A 
ATOM      2  C   UNL     1     180.989 177.018 184.183  1.00  0.00     0.016 A 
ATOM      3  C   UNL     1     181.433 176.282 183.084  1.00  0.00     0.001 A 
ATOM      4  C   UNL     1     181.779 176.932 181.902  1.00  0.00     0.001 A 
ATOM      5  C   UNL     1     181.660 178.319 181.805  1.00  0.00     0.016 A 
ATOM      6  C   UNL     1     181.193 179.078 182.893  1.00  0.00     0.074 A 
ENDROOT
BRANCH   1   7
ATOM      7  C   UNL     1     180.515 179.144 185.353  1.00  0.00     0.338 C 
ATOM      8  O   UNL     1     179.309 179.435 185.586  1.00  0.00    -0.246 OA
BRANCH   7   9
ATOM      9  O   UNL     1     181.518 179.558 186.235  1.00  0.00    -0.465 OA
ATOM     10  C   UNL     1     181.583 180.879 186.759  1.00  0.00     0.282 C 
ENDBRANCH   7   9
ENDBRANCH   1   7
BRANCH   6  11
ATOM     11  C   UNL     1     180.983 180.530 182.684  1.00  0.00     0.338 C 
ATOM     12  O   UNL     1     181.862 181.359 183.047  1.00  0.00    -0.246 OA
BRANCH  11  13
ATOM     13  O   UNL     1     179.778 180.980 182.135  1.00  0.00    -0.465 OA
ATOM     14  C   UNL     1     178.831 181.737 182.880  1.00  0.00     0.282 C 
ENDBRANCH  11  13
ENDBRANCH   6  11
TORSDOF 4
ENDMDL
MODEL 4
REMARK VINA RESULT:    -4.606      2.144      4.181
REMARK INTER + INTRA:          -5.872
REMARK INTER:                  -5.459
REMARK INTRA:                  -0.413
REMARK UNBOUND:                -0.189
REMARK SMILES COC(=O)c1ccccc1C(=O)OC
REMARK SMILES IDX 5 1 6 2 7 3 8 4 9 5 10 6 3 7 4 8 2 9 1 10 11 11 12 12 13 13
REMARK SMILES IDX 14 14
REMARK H PARENT
REMARK Flexibility Score: inf
ROOT
ATOM      1  C   UNL     1     181.208 179.113 182.925  1.00  0.00     0.074 A 
ATOM      2  C   UNL     1     181.667 178.374 181.820  1.00  0.00     0.016 A 
ATOM      3  C   UNL     1     181.766 176.984 181.881  1.00  0.00     0.001 A 
ATOM      4  C   UNL     1     181.408 176.310 183.046  1.00  0.00     0.001 A 
ATOM      5  C   UNL     1     180.972 177.023 184.162  1.00  0.00     0.016 A 
ATOM      6  C   UNL     1     180.886 178.427 184.130  1.00  0.00     0.074 A 
ENDROOT
BRANCH   1   7
ATOM      7  C   UNL     1     181.021 180.571 182.753  1.00  0.00     0.338 C 
ATOM      8  O   UNL     1     181.899 181.380 183.164  1.00  0.00    -0.246 OA
BRANCH   7   9
ATOM      9  O   UNL     1     179.837 181.052 182.184  1.00  0.00    -0.465 OA
ATOM     10  C   UNL     1     178.836 181.720 182.943  1.00  0.00     0.282 C 
ENDBRANCH   7   9
ENDBRANCH   1   7
BRANCH   6  11
ATOM     11  C   UNL     1     180.525 179.127 185.385  1.00  0.00     0.338 C 
ATOM     12  O   UNL     1     179.323 179.425 185.625  1.00  0.00    -0.246 OA
BRANCH  11  13
ATOM     13  O   UNL     1     181.534 179.507 186.276  1.00  0.00    -0.465 OA
ATOM     14  C   UNL     1     181.638 180.827 186.799  1.00  0.00     0.282 C 
ENDBRANCH  11  13
ENDBRANCH   6  11
TORSDOF 4
ENDMDL
MODEL 5
REMARK VINA RESULT:    -4.594      1.258      3.931
REMARK INTER + INTRA:          -5.857
REMARK INTER:                  -5.616
REMARK INTRA:                  -0.241
REMARK UNBOUND:                -0.189
REMARK SMILES COC(=O)c1ccccc1C(=O)OC
REMARK SMILES IDX 5 1 6 2 7 3 8 4 9 5 10 6 3 7 4 8 2 9 1 10 11 11 12 12 13 13
REMARK SMILES IDX 14 14
REMARK H PARENT
REMARK Flexibility Score: inf
ROOT
ATOM      1  C   UNL     1     180.448 180.225 183.415  1.00  0.00     0.074 A 
ATOM      2  C   UNL     1     180.672 179.149 182.538  1.00  0.00     0.016 A 
ATOM      3  C   UNL     1     180.912 177.865 183.030  1.00  0.00     0.001 A 
ATOM      4  C   UNL     1     180.931 177.636 184.403  1.00  0.00     0.001 A 
ATOM      5  C   UNL     1     180.734 178.693 185.292  1.00  0.00     0.016 A 
ATOM      6  C   UNL     1     180.514 179.999 184.819  1.00  0.00     0.074 A 
ENDROOT
BRANCH   1   7
ATOM      7  C   UNL     1     180.088 181.534 182.825  1.00  0.00     0.338 C 
ATOM      8  O   UNL     1     180.984 182.385 182.567  1.00  0.00    -0.246 OA
BRANCH   7   9
ATOM      9  O   UNL     1     178.743 181.847 182.609  1.00  0.00    -0.465 OA
ATOM     10  C   UNL     1     178.248 183.180 182.649  1.00  0.00     0.282 C 
ENDBRANCH   7   9
ENDBRANCH   1   7
BRANCH   6  11
ATOM     11  C   UNL     1     180.426 181.091 185.817  1.00  0.00     0.338 C 
ATOM     12  O   UNL     1     179.338 181.703 185.997  1.00  0.00    -0.246 OA
BRANCH  11  13
ATOM     13  O   UNL     1     181.574 181.478 186.516  1.00  0.00    -0.465 OA
ATOM     14  C   UNL     1     181.772 181.175 187.892  1.00  0.00     0.282 C 
ENDBRANCH  11  13
ENDBRANCH   6  11
TORSDOF 4
ENDMDL
MODEL 6
REMARK VINA RESULT:    -4.455      2.026      2.795
REMARK INTER + INTRA:          -5.686
REMARK INTER:                  -5.353
REMARK INTRA:                  -0.332
REMARK UNBOUND:                -0.189
REMARK SMILES COC(=O)c1ccccc1C(=O)OC
REMARK SMILES IDX 5 1 6 2 7 3 8 4 9 5 10 6 3 7 4 8 2 9 1 10 11 11 12 12 13 13
REMARK SMILES IDX 14 14
REMARK H PARENT
REMARK Flexibility Score: inf
ROOT
ATOM      1  C   UNL     1     180.812 178.585 184.175  1.00  0.00     0.074 A 
ATOM      2  C   UNL     1     181.118 177.213 184.174  1.00  0.00     0.016 A 
ATOM      3  C   UNL     1     181.531 176.573 183.004  1.00  0.00     0.001 A 
ATOM      4  C   UNL     1     181.645 177.294 181.818  1.00  0.00     0.001 A 
ATOM      5  C   UNL     1     181.324 178.652 181.790  1.00  0.00     0.016 A 
ATOM      6  C   UNL     1     180.884 179.311 182.952  1.00  0.00     0.074 A 
ENDROOT
BRANCH   1   7
ATOM      7  C   UNL     1     180.490 179.221 185.472  1.00  0.00     0.338 C 
ATOM      8  O   UNL     1     179.302 179.549 185.744  1.00  0.00    -0.246 OA
BRANCH   7   9
ATOM      9  O   UNL     1     181.520 179.512 186.372  1.00  0.00    -0.465 OA
ATOM     10  C   UNL     1     181.585 180.733 187.098  1.00  0.00     0.282 C 
ENDBRANCH   7   9
ENDBRANCH   1   7
BRANCH   6  11
ATOM     11  C   UNL     1     180.453 180.722 182.825  1.00  0.00     0.338 C 
ATOM     12  O   UNL     1     179.261 180.999 182.517  1.00  0.00    -0.246 OA
BRANCH  11  13
ATOM     13  O   UNL     1     181.391 181.746 182.991  1.00  0.00    -0.465 OA
ATOM     14  C   UNL     1     181.280 182.729 184.014  1.00  0.00     0.282 C 
ENDBRANCH  11  13
ENDBRANCH   6  11
TORSDOF 4
ENDMDL
MODEL 7
REMARK VINA RESULT:    -4.364      5.839      7.462
REMARK INTER + INTRA:          -5.574
REMARK INTER:                  -5.149
REMARK INTRA:                  -0.425
REMARK UNBOUND:                -0.189
REMARK SMILES COC(=O)c1ccccc1C(=O)OC
REMARK SMILES IDX 5 1 6 2 7 3 8 4 9 5 10 6 3 7 4 8 2 9 1 10 11 11 12 12 13 13
REMARK SMILES IDX 14 14
REMARK H PARENT
REMARK Flexibility Score: inf
ROOT
ATOM      1  C   UNL     1     181.761 175.834 182.595  1.00  0.00     0.074 A 
ATOM      2  C   UNL     1     181.132 176.349 183.742  1.00  0.00     0.016 A 
ATOM      3  C   UNL     1     180.791 177.700 183.825  1.00  0.00     0.001 A 
ATOM      4  C   UNL     1     181.073 178.556 182.763  1.00  0.00     0.001 A 
ATOM      5  C   UNL     1     181.717 178.072 181.625  1.00  0.00     0.016 A 
ATOM      6  C   UNL     1     182.090 176.719 181.530  1.00  0.00     0.074 A 
ENDROOT
BRANCH   1   7
ATOM      7  C   UNL     1     181.990 174.373 182.529  1.00  0.00     0.338 C 
ATOM      8  O   UNL     1     183.001 173.860 183.087  1.00  0.00    -0.246 OA
BRANCH   7   9
ATOM      9  O   UNL     1     181.113 173.569 181.796  1.00  0.00    -0.465 OA
ATOM     10  C   UNL     1     181.554 172.471 181.006  1.00  0.00     0.282 C 
ENDBRANCH   7   9
ENDBRANCH   1   7
BRANCH   6  11
ATOM     11  C   UNL     1     182.872 176.298 180.344  1.00  0.00     0.338 C 
ATOM     12  O   UNL     1     184.101 176.039 180.450  1.00  0.00    -0.246 OA
BRANCH  11  13
ATOM     13  O   UNL     1     182.249 176.249 179.092  1.00  0.00    -0.465 OA
ATOM     14  C   UNL     1     181.018 175.569 178.874  1.00  0.00     0.282 C 
ENDBRANCH  11  13
ENDBRANCH   6  11
TORSDOF 4
ENDMDL
MODEL 8
REMARK VINA RESULT:    -4.331      1.743      3.539
REMARK INTER + INTRA:          -5.533
REMARK INTER:                  -5.056
REMARK INTRA:                  -0.477
REMARK UNBOUND:                -0.189
REMARK SMILES COC(=O)c1ccccc1C(=O)OC
REMARK SMILES IDX 5 1 6 2 7 3 8 4 9 5 10 6 3 7 4 8 2 9 1 10 11 11 12 12 13 13
REMARK SMILES IDX 14 14
REMARK H PARENT
REMARK Flexibility Score: inf
ROOT
ATOM      1  C   UNL     1     180.757 180.087 183.156  1.00  0.00     0.074 A 
ATOM      2  C   UNL     1     180.938 178.876 182.465  1.00  0.00     0.016 A 
ATOM      3  C   UNL     1     180.976 177.661 183.150  1.00  0.00     0.001 A 
ATOM      4  C   UNL     1     180.835 177.637 184.536  1.00  0.00     0.001 A 
ATOM      5  C   UNL     1     180.679 178.829 185.244  1.00  0.00     0.016 A 
ATOM      6  C   UNL     1     180.660 180.066 184.576  1.00  0.00     0.074 A 
ENDROOT
BRANCH   1   7
ATOM      7  C   UNL     1     180.613 181.325 182.356  1.00  0.00     0.338 C 
ATOM      8  O   UNL     1     179.505 181.614 181.824  1.00  0.00    -0.246 OA
BRANCH   7   9
ATOM      9  O   UNL     1     181.727 182.143 182.143  1.00  0.00    -0.465 OA
ATOM     10  C   UNL     1     181.794 183.486 182.606  1.00  0.00     0.282 C 
ENDBRANCH   7   9
ENDBRANCH   1   7
BRANCH   6  11
ATOM     11  C   UNL     1     180.605 181.296 185.400  1.00  0.00     0.338 C 
ATOM     12  O   UNL     1     181.657 181.768 185.911  1.00  0.00    -0.246 OA
BRANCH  11  13
ATOM     13  O   UNL     1     179.369 181.898 185.655  1.00  0.00    -0.465 OA
ATOM     14  C   UNL     1     178.993 183.149 185.091  1.00  0.00     0.282 C 
ENDBRANCH  11  13
ENDBRANCH   6  11
TORSDOF 4
ENDMDL
MODEL 9
REMARK VINA RESULT:    -4.262      2.012      3.769
REMARK INTER + INTRA:          -5.448
REMARK INTER:                  -5.009
REMARK INTRA:                  -0.439
REMARK UNBOUND:                -0.189
REMARK SMILES COC(=O)c1ccccc1C(=O)OC
REMARK SMILES IDX 5 1 6 2 7 3 8 4 9 5 10 6 3 7 4 8 2 9 1 10 11 11 12 12 13 13
REMARK SMILES IDX 14 14
REMARK H PARENT
REMARK Flexibility Score: inf
ROOT
ATOM      1  C   UNL     1     182.579 180.037 185.971  1.00  0.00     0.074 A 
ATOM      2  C   UNL     1     183.832 179.913 186.597  1.00  0.00     0.016 A 
ATOM      3  C   UNL     1     184.018 180.334 187.914  1.00  0.00     0.001 A 
ATOM      4  C   UNL     1     182.956 180.887 188.626  1.00  0.00     0.001 A 
ATOM      5  C   UNL     1     181.710 181.042 188.017  1.00  0.00     0.016 A 
ATOM      6  C   UNL     1     181.507 180.645 186.684  1.00  0.00     0.074 A 
ENDROOT
BRANCH   1   7
ATOM      7  C   UNL     1     182.424 179.466 184.614  1.00  0.00     0.338 C 
ATOM      8  O   UNL     1     182.566 180.197 183.595  1.00  0.00    -0.246 OA
BRANCH   7   9
ATOM      9  O   UNL     1     182.060 178.124 184.468  1.00  0.00    -0.465 OA
ATOM     10  C   UNL     1     180.808 177.721 183.926  1.00  0.00     0.282 C 
ENDBRANCH   7   9
ENDBRANCH   1   7
BRANCH   6  11
ATOM     11  C   UNL     1     180.193 180.943 186.066  1.00  0.00     0.338 C 
ATOM     12  O   UNL     1     179.265 180.089 186.100  1.00  0.00    -0.246 OA
BRANCH  11  13
ATOM     13  O   UNL     1     180.008 182.154 185.392  1.00  0.00    -0.465 OA
ATOM     14  C   UNL     1     179.563 182.221 184.043  1.00  0.00     0.282 C 
ENDBRANCH  11  13
ENDBRANCH   6  11
TORSDOF 4
ENDMDL
