MODEL 1
REMARK VINA RESULT:    -4.442      0.000      0.000
REMARK INTER + INTRA:          -5.114
REMARK INTER:                  -4.831
REMARK INTRA:                  -0.283
REMARK UNBOUND:                -0.283
REMARK SMILES CC(=O)c1cc(C)ccc1O
REMARK SMILES IDX 7 1 6 2 5 3 4 4 10 5 9 6 8 7 2 8 3 9 1 10 11 11
REMARK H PARENT 11 12
REMARK Flexibility Score: inf
ROOT
ATOM      1  C   UNL     1      -0.745   1.805 -28.124  1.00  0.00     0.044 C 
ATOM      2  C   UNL     1      -0.123   2.972 -27.414  1.00  0.00    -0.050 A 
ATOM      3  C   UNL     1      -0.880   3.735 -26.513  1.00  0.00     0.019 A 
ATOM      4  C   UNL     1      -0.326   4.861 -25.872  1.00  0.00     0.059 A 
ATOM      5  C   UNL     1       1.017   5.208 -26.145  1.00  0.00     0.126 A 
ATOM      6  C   UNL     1       1.761   4.455 -27.066  1.00  0.00     0.047 A 
ATOM      7  C   UNL     1       1.193   3.351 -27.701  1.00  0.00     0.007 A 
ENDROOT
BRANCH   4   8
ATOM      8  C   UNL     1      -1.175   5.635 -24.927  1.00  0.00     0.163 C 
ATOM      9  O   UNL     1      -0.643   6.175 -23.920  1.00  0.00    -0.294 OA
ATOM     10  C   UNL     1      -2.651   5.802 -25.125  1.00  0.00     0.093 C 
ENDBRANCH   4   8
BRANCH   5  11
ATOM     11  O   UNL     1       1.625   6.282 -25.495  1.00  0.00    -0.507 OA
ATOM     12  H   UNL     1       2.587   6.543 -25.681  1.00  0.00     0.293 HD
ENDBRANCH   5  11
TORSDOF 2
ENDMDL
MODEL 2
REMARK VINA RESULT:    -4.435     15.293     16.506
REMARK INTER + INTRA:          -5.107
REMARK INTER:                  -4.824
REMARK INTRA:                  -0.283
REMARK UNBOUND:                -0.283
REMARK SMILES CC(=O)c1cc(C)ccc1O
REMARK SMILES IDX 7 1 6 2 5 3 4 4 10 5 9 6 8 7 2 8 3 9 1 10 11 11
REMARK H PARENT 11 12
REMARK Flexibility Score: inf
ROOT
ATOM      1  C   UNL     1     -16.199   0.643 -20.503  1.00  0.00     0.044 C 
ATOM      2  C   UNL     1     -16.174   2.033 -21.069  1.00  0.00    -0.050 A 
ATOM      3  C   UNL     1     -15.244   2.971 -20.597  1.00  0.00     0.019 A 
ATOM      4  C   UNL     1     -15.236   4.292 -21.085  1.00  0.00     0.059 A 
ATOM      5  C   UNL     1     -16.180   4.660 -22.072  1.00  0.00     0.126 A 
ATOM      6  C   UNL     1     -17.123   3.725 -22.521  1.00  0.00     0.047 A 
ATOM      7  C   UNL     1     -17.125   2.424 -22.019  1.00  0.00     0.007 A 
ENDROOT
BRANCH   4   8
ATOM      8  C   UNL     1     -14.228   5.246 -20.548  1.00  0.00     0.163 C 
ATOM      9  O   UNL     1     -13.749   6.131 -21.307  1.00  0.00    -0.294 OA
ATOM     10  C   UNL     1     -13.755   5.199 -19.127  1.00  0.00     0.093 C 
ENDBRANCH   4   8
BRANCH   5  11
ATOM     11  O   UNL     1     -16.176   5.941 -22.623  1.00  0.00    -0.507 OA
ATOM     12  H   UNL     1     -16.104   6.092 -23.623  1.00  0.00     0.293 HD
ENDBRANCH   5  11
TORSDOF 2
ENDMDL
MODEL 3
REMARK VINA RESULT:    -4.351     16.144     17.493
REMARK INTER + INTRA:          -5.015
REMARK INTER:                  -4.709
REMARK INTRA:                  -0.306
REMARK UNBOUND:                -0.283
REMARK SMILES CC(=O)c1cc(C)ccc1O
REMARK SMILES IDX 7 1 6 2 5 3 4 4 10 5 9 6 8 7 2 8 3 9 1 10 11 11
REMARK H PARENT 11 12
REMARK Flexibility Score: inf
ROOT
ATOM      1  C   UNL     1     -15.968  -0.095 -18.380  1.00  0.00     0.044 C 
ATOM      2  C   UNL     1     -16.211   0.598 -19.689  1.00  0.00    -0.050 A 
ATOM      3  C   UNL     1     -15.972   1.974 -19.814  1.00  0.00     0.019 A 
ATOM      4  C   UNL     1     -16.239   2.649 -21.021  1.00  0.00     0.059 A 
ATOM      5  C   UNL     1     -16.745   1.912 -22.117  1.00  0.00     0.126 A 
ATOM      6  C   UNL     1     -17.004   0.541 -21.977  1.00  0.00     0.047 A 
ATOM      7  C   UNL     1     -16.747  -0.110 -20.771  1.00  0.00     0.007 A 
ENDROOT
BRANCH   4   8
ATOM      8  C   UNL     1     -15.968   4.110 -21.098  1.00  0.00     0.163 C 
ATOM      9  O   UNL     1     -16.852   4.879 -21.565  1.00  0.00    -0.294 OA
ATOM     10  C   UNL     1     -14.676   4.714 -20.636  1.00  0.00     0.093 C 
ENDBRANCH   4   8
BRANCH   5  11
ATOM     11  O   UNL     1     -16.973   2.526 -23.348  1.00  0.00    -0.507 OA
ATOM     12  H   UNL     1     -16.339   2.407 -24.129  1.00  0.00     0.293 HD
ENDBRANCH   5  11
TORSDOF 2
ENDMDL
MODEL 4
REMARK VINA RESULT:    -4.309     17.478     17.942
REMARK INTER + INTRA:          -4.970
REMARK INTER:                  -4.665
REMARK INTRA:                  -0.305
REMARK UNBOUND:                -0.283
REMARK SMILES CC(=O)c1cc(C)ccc1O
REMARK SMILES IDX 7 1 6 2 5 3 4 4 10 5 9 6 8 7 2 8 3 9 1 10 11 11
REMARK H PARENT 11 12
REMARK Flexibility Score: inf
ROOT
ATOM      1  C   UNL     1      -4.244  13.546 -11.126  1.00  0.00     0.044 C 
ATOM      2  C   UNL     1      -2.747  13.652 -11.102  1.00  0.00    -0.050 A 
ATOM      3  C   UNL     1      -2.106  14.738 -11.717  1.00  0.00     0.019 A 
ATOM      4  C   UNL     1      -0.701  14.829 -11.743  1.00  0.00     0.059 A 
ATOM      5  C   UNL     1       0.060  13.808 -11.128  1.00  0.00     0.126 A 
ATOM      6  C   UNL     1      -0.586  12.713 -10.537  1.00  0.00     0.047 A 
ATOM      7  C   UNL     1      -1.979  12.631 -10.531  1.00  0.00     0.007 A 
ENDROOT
BRANCH   4   8
ATOM      8  C   UNL     1      -0.073  16.001 -12.410  1.00  0.00     0.163 C 
ATOM      9  O   UNL     1       0.854  16.623 -11.823  1.00  0.00    -0.294 OA
ATOM     10  C   UNL     1      -0.500  16.479 -13.765  1.00  0.00     0.093 C 
ENDBRANCH   4   8
BRANCH   5  11
ATOM     11  O   UNL     1       1.452  13.882 -11.082  1.00  0.00    -0.507 OA
ATOM     12  H   UNL     1       1.953  13.977 -10.206  1.00  0.00     0.293 HD
ENDBRANCH   5  11
TORSDOF 2
ENDMDL
MODEL 5
REMARK VINA RESULT:    -4.303     13.220     14.212
REMARK INTER + INTRA:          -4.963
REMARK INTER:                  -4.659
REMARK INTRA:                  -0.304
REMARK UNBOUND:                -0.283
REMARK SMILES CC(=O)c1cc(C)ccc1O
REMARK SMILES IDX 7 1 6 2 5 3 4 4 10 5 9 6 8 7 2 8 3 9 1 10 11 11
REMARK H PARENT 11 12
REMARK Flexibility Score: inf
ROOT
ATOM      1  C   UNL     1      -0.039  14.942 -16.466  1.00  0.00     0.044 C 
ATOM      2  C   UNL     1       0.799  15.394 -17.626  1.00  0.00    -0.050 A 
ATOM      3  C   UNL     1       0.448  16.547 -18.343  1.00  0.00     0.019 A 
ATOM      4  C   UNL     1       1.197  16.960 -19.463  1.00  0.00     0.059 A 
ATOM      5  C   UNL     1       2.322  16.196 -19.850  1.00  0.00     0.126 A 
ATOM      6  C   UNL     1       2.653  15.031 -19.143  1.00  0.00     0.047 A 
ATOM      7  C   UNL     1       1.894  14.629 -18.045  1.00  0.00     0.007 A 
ENDROOT
BRANCH   4   8
ATOM      8  C   UNL     1       0.778  18.190 -20.188  1.00  0.00     0.163 C 
ATOM      9  O   UNL     1       1.648  19.047 -20.503  1.00  0.00    -0.294 OA
ATOM     10  C   UNL     1      -0.648  18.454 -20.565  1.00  0.00     0.093 C 
ENDBRANCH   4   8
BRANCH   5  11
ATOM     11  O   UNL     1       3.125  16.595 -20.919  1.00  0.00    -0.507 OA
ATOM     12  H   UNL     1       3.290  15.992 -21.716  1.00  0.00     0.293 HD
ENDBRANCH   5  11
TORSDOF 2
ENDMDL
MODEL 6
REMARK VINA RESULT:    -4.213     20.455     22.330
REMARK INTER + INTRA:          -4.865
REMARK INTER:                  -4.575
REMARK INTRA:                  -0.291
REMARK UNBOUND:                -0.283
REMARK SMILES CC(=O)c1cc(C)ccc1O
REMARK SMILES IDX 7 1 6 2 5 3 4 4 10 5 9 6 8 7 2 8 3 9 1 10 11 11
REMARK H PARENT 11 12
REMARK Flexibility Score: inf
ROOT
ATOM      1  C   UNL     1     -11.578  18.583 -14.263  1.00  0.00     0.044 C 
ATOM      2  C   UNL     1     -12.753  17.742 -13.858  1.00  0.00    -0.050 A 
ATOM      3  C   UNL     1     -13.174  16.680 -14.671  1.00  0.00     0.019 A 
ATOM      4  C   UNL     1     -14.303  15.909 -14.329  1.00  0.00     0.059 A 
ATOM      5  C   UNL     1     -15.004  16.217 -13.140  1.00  0.00     0.126 A 
ATOM      6  C   UNL     1     -14.592  17.296 -12.345  1.00  0.00     0.047 A 
ATOM      7  C   UNL     1     -13.480  18.058 -12.704  1.00  0.00     0.007 A 
ENDROOT
BRANCH   4   8
ATOM      8  C   UNL     1     -14.706  14.795 -15.228  1.00  0.00     0.163 C 
ATOM      9  O   UNL     1     -15.158  13.729 -14.727  1.00  0.00    -0.294 OA
ATOM     10  C   UNL     1     -14.597  14.887 -16.720  1.00  0.00     0.093 C 
ENDBRANCH   4   8
BRANCH   5  11
ATOM     11  O   UNL     1     -16.094  15.449 -12.733  1.00  0.00    -0.507 OA
ATOM     12  H   UNL     1     -15.996  14.470 -12.491  1.00  0.00     0.293 HD
ENDBRANCH   5  11
TORSDOF 2
ENDMDL
MODEL 7
REMARK VINA RESULT:    -4.180     19.809     21.635
REMARK INTER + INTRA:          -4.829
REMARK INTER:                  -4.529
REMARK INTRA:                  -0.301
REMARK UNBOUND:                -0.283
REMARK SMILES CC(=O)c1cc(C)ccc1O
REMARK SMILES IDX 7 1 6 2 5 3 4 4 10 5 9 6 8 7 2 8 3 9 1 10 11 11
REMARK H PARENT 11 12
REMARK Flexibility Score: inf
ROOT
ATOM      1  C   UNL     1     -13.001  15.441 -17.611  1.00  0.00     0.044 C 
ATOM      2  C   UNL     1     -13.717  15.192 -16.317  1.00  0.00    -0.050 A 
ATOM      3  C   UNL     1     -13.666  16.142 -15.286  1.00  0.00     0.019 A 
ATOM      4  C   UNL     1     -14.295  15.904 -14.049  1.00  0.00     0.059 A 
ATOM      5  C   UNL     1     -14.993  14.689 -13.861  1.00  0.00     0.126 A 
ATOM      6  C   UNL     1     -15.020  13.733 -14.887  1.00  0.00     0.047 A 
ATOM      7  C   UNL     1     -14.381  13.978 -16.102  1.00  0.00     0.007 A 
ENDROOT
BRANCH   4   8
ATOM      8  C   UNL     1     -14.206  16.946 -12.991  1.00  0.00     0.163 C 
ATOM      9  O   UNL     1     -15.234  17.234 -12.319  1.00  0.00    -0.294 OA
ATOM     10  C   UNL     1     -12.932  17.674 -12.684  1.00  0.00     0.093 C 
ENDBRANCH   4   8
BRANCH   5  11
ATOM     11  O   UNL     1     -15.676  14.432 -12.673  1.00  0.00    -0.507 OA
ATOM     12  H   UNL     1     -16.576  14.852 -12.473  1.00  0.00     0.293 HD
ENDBRANCH   5  11
TORSDOF 2
ENDMDL
MODEL 8
REMARK VINA RESULT:    -4.075     13.962     16.219
REMARK INTER + INTRA:          -4.715
REMARK INTER:                  -4.435
REMARK INTRA:                  -0.279
REMARK UNBOUND:                -0.283
REMARK SMILES CC(=O)c1cc(C)ccc1O
REMARK SMILES IDX 7 1 6 2 5 3 4 4 10 5 9 6 8 7 2 8 3 9 1 10 11 11
REMARK H PARENT 11 12
REMARK Flexibility Score: inf
ROOT
ATOM      1  C   UNL     1      -9.025  13.386 -23.786  1.00  0.00     0.044 C 
ATOM      2  C   UNL     1     -10.374  13.586 -23.159  1.00  0.00    -0.050 A 
ATOM      3  C   UNL     1     -11.055  14.801 -23.323  1.00  0.00     0.019 A 
ATOM      4  C   UNL     1     -12.302  15.022 -22.704  1.00  0.00     0.059 A 
ATOM      5  C   UNL     1     -12.864  13.990 -21.918  1.00  0.00     0.126 A 
ATOM      6  C   UNL     1     -12.167  12.787 -21.738  1.00  0.00     0.047 A 
ATOM      7  C   UNL     1     -10.928  12.589 -22.348  1.00  0.00     0.007 A 
ENDROOT
BRANCH   4   8
ATOM      8  C   UNL     1     -12.979  16.330 -22.911  1.00  0.00     0.163 C 
ATOM      9  O   UNL     1     -13.196  17.077 -21.918  1.00  0.00    -0.294 OA
ATOM     10  C   UNL     1     -13.419  16.803 -24.263  1.00  0.00     0.093 C 
ENDBRANCH   4   8
BRANCH   5  11
ATOM     11  O   UNL     1     -14.120  14.143 -21.330  1.00  0.00    -0.507 OA
ATOM     12  H   UNL     1     -14.813  14.778 -21.708  1.00  0.00     0.293 HD
ENDBRANCH   5  11
TORSDOF 2
ENDMDL
MODEL 9
REMARK VINA RESULT:    -2.579     17.769     19.971
REMARK INTER + INTRA:          -3.088
REMARK INTER:                  -2.812
REMARK INTRA:                  -0.275
REMARK UNBOUND:                -0.283
REMARK SMILES CC(=O)c1cc(C)ccc1O
REMARK SMILES IDX 7 1 6 2 5 3 4 4 10 5 9 6 8 7 2 8 3 9 1 10 11 11
REMARK H PARENT 11 12
REMARK Flexibility Score: inf
ROOT
ATOM      1  C   UNL     1     -11.873  -1.125 -10.345  1.00  0.00     0.044 C 
ATOM      2  C   UNL     1     -12.859  -0.311 -11.131  1.00  0.00    -0.050 A 
ATOM      3  C   UNL     1     -12.472   0.912 -11.698  1.00  0.00     0.019 A 
ATOM      4  C   UNL     1     -13.396   1.710 -12.400  1.00  0.00     0.059 A 
ATOM      5  C   UNL     1     -14.727   1.252 -12.536  1.00  0.00     0.126 A 
ATOM      6  C   UNL     1     -15.113   0.040 -11.948  1.00  0.00     0.047 A 
ATOM      7  C   UNL     1     -14.189  -0.732 -11.244  1.00  0.00     0.007 A 
ENDROOT
BRANCH   4   8
ATOM      8  C   UNL     1     -12.932   3.000 -12.978  1.00  0.00     0.163 C 
ATOM      9  O   UNL     1     -13.758   3.939 -13.138  1.00  0.00    -0.294 OA
ATOM     10  C   UNL     1     -11.507   3.234 -13.381  1.00  0.00     0.093 C 
ENDBRANCH   4   8
BRANCH   5  11
ATOM     11  O   UNL     1     -15.663   1.982 -13.269  1.00  0.00    -0.507 OA
ATOM     12  H   UNL     1     -15.643   2.995 -13.302  1.00  0.00     0.293 HD
ENDBRANCH   5  11
TORSDOF 2
ENDMDL
