MODEL 1
REMARK VINA RESULT:    -4.764      0.000      0.000
REMARK INTER + INTRA:          -5.779
REMARK INTER:                  -5.600
REMARK INTRA:                  -0.179
REMARK UNBOUND:                -0.179
REMARK SMILES COc1ccc(C=CC(=O)[O-])cc1
REMARK SMILES IDX 6 1 5 2 12 3 4 4 13 5 3 6 7 7 8 8 9 9 10 10 11 11 2 12 1 13
REMARK H PARENT
REMARK Flexibility Score: inf
ROOT
ATOM      1  C   UNL     1      14.685  13.276  37.820  1.00  0.00    -0.025 A 
ATOM      2  C   UNL     1      16.011  12.821  37.893  1.00  0.00     0.012 A 
ATOM      3  C   UNL     1      14.134  13.943  38.932  1.00  0.00     0.012 A 
ATOM      4  C   UNL     1      16.763  13.002  39.057  1.00  0.00     0.047 A 
ATOM      5  C   UNL     1      14.888  14.124  40.095  1.00  0.00     0.047 A 
ATOM      6  C   UNL     1      16.211  13.650  40.166  1.00  0.00     0.118 A 
ENDROOT
BRANCH   1   7
ATOM      7  C   UNL     1      13.931  13.068  36.558  1.00  0.00     0.010 C 
ATOM      8  C   UNL     1      14.127  12.028  35.737  1.00  0.00     0.025 C 
BRANCH   8   9
ATOM      9  C   UNL     1      13.364  11.867  34.489  1.00  0.00     0.064 C 
ATOM     10  O   UNL     1      13.381  10.762  33.888  1.00  0.00    -0.545 OA
ATOM     11  O   UNL     1      12.622  12.917  33.962  1.00  0.00    -0.545 OA
ENDBRANCH   8   9
ENDBRANCH   1   7
BRANCH   6  12
ATOM     12  O   UNL     1      17.007  13.807  41.312  1.00  0.00    -0.497 OA
ATOM     13  C   UNL     1      18.239  13.129  41.533  1.00  0.00     0.278 C 
ENDBRANCH   6  12
TORSDOF 3
ENDMDL
MODEL 2
REMARK VINA RESULT:    -4.620      0.154      1.351
REMARK INTER + INTRA:          -5.609
REMARK INTER:                  -5.445
REMARK INTRA:                  -0.164
REMARK UNBOUND:                -0.179
REMARK SMILES COc1ccc(C=CC(=O)[O-])cc1
REMARK SMILES IDX 6 1 5 2 12 3 4 4 13 5 3 6 7 7 8 8 9 9 10 10 11 11 2 12 1 13
REMARK H PARENT
REMARK Flexibility Score: inf
ROOT
ATOM      1  C   UNL     1      14.747  13.272  37.733  1.00  0.00    -0.025 A 
ATOM      2  C   UNL     1      14.141  13.920  38.822  1.00  0.00     0.012 A 
ATOM      3  C   UNL     1      16.071  12.809  37.870  1.00  0.00     0.012 A 
ATOM      4  C   UNL     1      14.847  14.125  40.011  1.00  0.00     0.047 A 
ATOM      5  C   UNL     1      16.774  13.014  39.060  1.00  0.00     0.047 A 
ATOM      6  C   UNL     1      16.166  13.680  40.141  1.00  0.00     0.118 A 
ENDROOT
BRANCH   1   7
ATOM      7  C   UNL     1      13.953  13.069  36.496  1.00  0.00     0.010 C 
ATOM      8  C   UNL     1      14.100  12.015  35.681  1.00  0.00     0.025 C 
BRANCH   8   9
ATOM      9  C   UNL     1      13.297  11.860  34.457  1.00  0.00     0.064 C 
ATOM     10  O   UNL     1      13.302  10.760  33.847  1.00  0.00    -0.545 OA
ATOM     11  O   UNL     1      12.531  12.909  33.965  1.00  0.00    -0.545 OA
ENDBRANCH   8   9
ENDBRANCH   1   7
BRANCH   6  12
ATOM     12  O   UNL     1      16.832  13.911  41.354  1.00  0.00    -0.497 OA
ATOM     13  C   UNL     1      18.188  13.558  41.607  1.00  0.00     0.278 C 
ENDBRANCH   6  12
TORSDOF 3
ENDMDL
MODEL 3
REMARK VINA RESULT:    -4.089      1.469      6.362
REMARK INTER + INTRA:          -4.984
REMARK INTER:                  -4.806
REMARK INTRA:                  -0.178
REMARK UNBOUND:                -0.179
REMARK SMILES COc1ccc(C=CC(=O)[O-])cc1
REMARK SMILES IDX 6 1 5 2 12 3 4 4 13 5 3 6 7 7 8 8 9 9 10 10 11 11 2 12 1 13
REMARK H PARENT
REMARK Flexibility Score: inf
ROOT
ATOM      1  C   UNL     1      15.849  13.576  39.571  1.00  0.00    -0.025 A 
ATOM      2  C   UNL     1      16.339  12.825  38.490  1.00  0.00     0.012 A 
ATOM      3  C   UNL     1      14.550  14.116  39.489  1.00  0.00     0.012 A 
ATOM      4  C   UNL     1      15.564  12.640  37.342  1.00  0.00     0.047 A 
ATOM      5  C   UNL     1      13.776  13.929  38.340  1.00  0.00     0.047 A 
ATOM      6  C   UNL     1      14.282  13.190  37.254  1.00  0.00     0.118 A 
ENDROOT
BRANCH   1   7
ATOM      7  C   UNL     1      16.707  13.735  40.772  1.00  0.00     0.010 C 
ATOM      8  C   UNL     1      17.872  13.097  40.944  1.00  0.00     0.025 C 
BRANCH   8   9
ATOM      9  C   UNL     1      18.686  13.276  42.158  1.00  0.00     0.064 C 
ATOM     10  O   UNL     1      19.619  14.120  42.160  1.00  0.00    -0.545 OA
ATOM     11  O   UNL     1      18.440  12.528  43.303  1.00  0.00    -0.545 OA
ENDBRANCH   8   9
ENDBRANCH   1   7
BRANCH   6  12
ATOM     12  O   UNL     1      13.543  12.977  36.080  1.00  0.00    -0.497 OA
ATOM     13  C   UNL     1      13.569  11.772  35.322  1.00  0.00     0.278 C 
ENDBRANCH   6  12
TORSDOF 3
ENDMDL
MODEL 4
REMARK VINA RESULT:    -3.825      1.300      6.273
REMARK INTER + INTRA:          -4.675
REMARK INTER:                  -4.514
REMARK INTRA:                  -0.160
REMARK UNBOUND:                -0.179
REMARK SMILES COc1ccc(C=CC(=O)[O-])cc1
REMARK SMILES IDX 6 1 5 2 12 3 4 4 13 5 3 6 7 7 8 8 9 9 10 10 11 11 2 12 1 13
REMARK H PARENT
REMARK Flexibility Score: inf
ROOT
ATOM      1  C   UNL     1      15.207  13.061  37.406  1.00  0.00    -0.025 A 
ATOM      2  C   UNL     1      15.253  14.068  36.428  1.00  0.00     0.012 A 
ATOM      3  C   UNL     1      14.313  11.986  37.231  1.00  0.00     0.012 A 
ATOM      4  C   UNL     1      14.410  14.018  35.314  1.00  0.00     0.047 A 
ATOM      5  C   UNL     1      13.472  11.938  36.115  1.00  0.00     0.047 A 
ATOM      6  C   UNL     1      13.513  12.960  35.148  1.00  0.00     0.118 A 
ENDROOT
BRANCH   1   7
ATOM      7  C   UNL     1      16.129  13.154  38.565  1.00  0.00     0.010 C 
ATOM      8  C   UNL     1      15.755  13.566  39.783  1.00  0.00     0.025 C 
BRANCH   8   9
ATOM      9  C   UNL     1      16.707  13.653  40.903  1.00  0.00     0.064 C 
ATOM     10  O   UNL     1      16.328  14.125  42.005  1.00  0.00    -0.545 OA
ATOM     11  O   UNL     1      18.020  13.221  40.761  1.00  0.00    -0.545 OA
ENDBRANCH   8   9
ENDBRANCH   1   7
BRANCH   6  12
ATOM     12  O   UNL     1      12.687  12.957  34.014  1.00  0.00    -0.497 OA
ATOM     13  C   UNL     1      12.298  14.125  33.299  1.00  0.00     0.278 C 
ENDBRANCH   6  12
TORSDOF 3
ENDMDL
MODEL 5
REMARK VINA RESULT:    -2.996      1.159      6.199
REMARK INTER + INTRA:          -3.700
REMARK INTER:                  -3.525
REMARK INTRA:                  -0.175
REMARK UNBOUND:                -0.179
REMARK SMILES COc1ccc(C=CC(=O)[O-])cc1
REMARK SMILES IDX 6 1 5 2 12 3 4 4 13 5 3 6 7 7 8 8 9 9 10 10 11 11 2 12 1 13
REMARK H PARENT
REMARK Flexibility Score: inf
ROOT
ATOM      1  C   UNL     1      15.281  13.203  37.695  1.00  0.00    -0.025 A 
ATOM      2  C   UNL     1      15.105  11.830  37.459  1.00  0.00     0.012 A 
ATOM      3  C   UNL     1      14.787  14.124  36.750  1.00  0.00     0.012 A 
ATOM      4  C   UNL     1      14.475  11.384  36.294  1.00  0.00     0.047 A 
ATOM      5  C   UNL     1      14.156  13.674  35.586  1.00  0.00     0.047 A 
ATOM      6  C   UNL     1      13.999  12.296  35.349  1.00  0.00     0.118 A 
ENDROOT
BRANCH   1   7
ATOM      7  C   UNL     1      15.948  13.628  38.952  1.00  0.00     0.010 C 
ATOM      8  C   UNL     1      16.489  12.775  39.832  1.00  0.00     0.025 C 
BRANCH   8   9
ATOM      9  C   UNL     1      17.131  13.239  41.072  1.00  0.00     0.064 C 
ATOM     10  O   UNL     1      16.572  14.125  41.768  1.00  0.00    -0.545 OA
ATOM     11  O   UNL     1      18.349  12.713  41.489  1.00  0.00    -0.545 OA
ENDBRANCH   8   9
ENDBRANCH   1   7
BRANCH   6  12
ATOM     12  O   UNL     1      13.374  11.797  34.195  1.00  0.00    -0.497 OA
ATOM     13  C   UNL     1      14.056  11.143  33.131  1.00  0.00     0.278 C 
ENDBRANCH   6  12
TORSDOF 3
ENDMDL
