MODEL 1
REMARK VINA RESULT:    -3.936      0.000      0.000
REMARK INTER + INTRA:          -4.699
REMARK INTER:                  -4.627
REMARK INTRA:                  -0.072
REMARK UNBOUND:                -0.072
REMARK SMILES O=C([O-])CCC(=O)[O-]
REMARK SMILES IDX 4 1 2 2 1 3 3 4 5 5 6 6 7 7 8 8
REMARK H PARENT
REMARK Flexibility Score: inf
ROOT
ATOM      1  C   UNL     1      60.315  -5.854  -2.344  1.00  0.00     0.059 C 
ENDROOT
BRANCH   1   2
ATOM      2  C   UNL     1      61.375  -6.599  -3.093  1.00  0.00     0.042 C 
ATOM      3  O   UNL     1      61.064  -7.569  -3.833  1.00  0.00    -0.550 OA
ATOM      4  O   UNL     1      62.710  -6.254  -2.935  1.00  0.00    -0.550 OA
ENDBRANCH   1   2
BRANCH   1   5
ATOM      5  C   UNL     1      60.917  -4.641  -1.632  1.00  0.00     0.059 C 
BRANCH   5   6
ATOM      6  C   UNL     1      61.055  -4.911  -0.166  1.00  0.00     0.042 C 
ATOM      7  O   UNL     1      60.817  -4.001   0.671  1.00  0.00    -0.550 OA
ATOM      8  O   UNL     1      61.492  -6.153   0.274  1.00  0.00    -0.550 OA
ENDBRANCH   5   6
ENDBRANCH   1   5
TORSDOF 3
ENDMDL
MODEL 2
REMARK VINA RESULT:    -3.932      0.239      3.797
REMARK INTER + INTRA:          -4.694
REMARK INTER:                  -4.596
REMARK INTRA:                  -0.098
REMARK UNBOUND:                -0.072
REMARK SMILES O=C([O-])CCC(=O)[O-]
REMARK SMILES IDX 4 1 2 2 1 3 3 4 5 5 6 6 7 7 8 8
REMARK H PARENT
REMARK Flexibility Score: inf
ROOT
ATOM      1  C   UNL     1      61.076  -4.762  -1.745  1.00  0.00     0.059 C 
ENDROOT
BRANCH   1   2
ATOM      2  C   UNL     1      61.099  -4.972  -0.264  1.00  0.00     0.042 C 
ATOM      3  O   UNL     1      60.797  -4.029   0.514  1.00  0.00    -0.550 OA
ATOM      4  O   UNL     1      61.500  -6.194   0.259  1.00  0.00    -0.550 OA
ENDBRANCH   1   2
BRANCH   1   5
ATOM      5  C   UNL     1      60.352  -5.919  -2.437  1.00  0.00     0.059 C 
BRANCH   5   6
ATOM      6  C   UNL     1      61.333  -6.804  -3.140  1.00  0.00     0.042 C 
ATOM      7  O   UNL     1      62.556  -6.507  -3.156  1.00  0.00    -0.550 OA
ATOM      8  O   UNL     1      60.890  -7.933  -3.818  1.00  0.00    -0.550 OA
ENDBRANCH   5   6
ENDBRANCH   1   5
TORSDOF 3
ENDMDL
MODEL 3
REMARK VINA RESULT:    -3.927      1.127      1.777
REMARK INTER + INTRA:          -4.688
REMARK INTER:                  -4.576
REMARK INTRA:                  -0.112
REMARK UNBOUND:                -0.072
REMARK SMILES O=C([O-])CCC(=O)[O-]
REMARK SMILES IDX 4 1 2 2 1 3 3 4 5 5 6 6 7 7 8 8
REMARK H PARENT
REMARK Flexibility Score: inf
ROOT
ATOM      1  C   UNL     1      60.550  -6.328  -2.470  1.00  0.00     0.059 C 
ENDROOT
BRANCH   1   2
ATOM      2  C   UNL     1      61.526  -7.122  -3.279  1.00  0.00     0.042 C 
ATOM      3  O   UNL     1      62.763  -6.926  -3.150  1.00  0.00    -0.550 OA
ATOM      4  O   UNL     1      61.070  -8.044  -4.211  1.00  0.00    -0.550 OA
ENDBRANCH   1   2
BRANCH   1   5
ATOM      5  C   UNL     1      61.099  -6.076  -1.065  1.00  0.00     0.059 C 
BRANCH   5   6
ATOM      6  C   UNL     1      61.139  -4.608  -0.775  1.00  0.00     0.042 C 
ATOM      7  O   UNL     1      61.465  -3.793  -1.677  1.00  0.00    -0.550 OA
ATOM      8  O   UNL     1      60.863  -4.144   0.505  1.00  0.00    -0.550 OA
ENDBRANCH   5   6
ENDBRANCH   1   5
TORSDOF 3
ENDMDL
MODEL 4
REMARK VINA RESULT:    -3.921      0.296      1.183
REMARK INTER + INTRA:          -4.681
REMARK INTER:                  -4.580
REMARK INTRA:                  -0.101
REMARK UNBOUND:                -0.072
REMARK SMILES O=C([O-])CCC(=O)[O-]
REMARK SMILES IDX 4 1 2 2 1 3 3 4 5 5 6 6 7 7 8 8
REMARK H PARENT
REMARK Flexibility Score: inf
ROOT
ATOM      1  C   UNL     1      60.404  -6.175  -2.452  1.00  0.00     0.059 C 
ENDROOT
BRANCH   1   2
ATOM      2  C   UNL     1      61.448  -6.897  -3.244  1.00  0.00     0.042 C 
ATOM      3  O   UNL     1      61.117  -7.809  -4.045  1.00  0.00    -0.550 OA
ATOM      4  O   UNL     1      62.791  -6.595  -3.060  1.00  0.00    -0.550 OA
ENDBRANCH   1   2
BRANCH   1   5
ATOM      5  C   UNL     1      60.992  -4.915  -1.814  1.00  0.00     0.059 C 
BRANCH   5   6
ATOM      6  C   UNL     1      61.115  -5.088  -0.332  1.00  0.00     0.042 C 
ATOM      7  O   UNL     1      61.471  -6.195   0.149  1.00  0.00    -0.550 OA
ATOM      8  O   UNL     1      60.790  -4.040   0.519  1.00  0.00    -0.550 OA
ENDBRANCH   5   6
ENDBRANCH   1   5
TORSDOF 3
ENDMDL
MODEL 5
REMARK VINA RESULT:    -3.878      1.911      2.648
REMARK INTER + INTRA:          -4.631
REMARK INTER:                  -4.614
REMARK INTRA:                  -0.018
REMARK UNBOUND:                -0.072
REMARK SMILES O=C([O-])CCC(=O)[O-]
REMARK SMILES IDX 4 1 2 2 1 3 3 4 5 5 6 6 7 7 8 8
REMARK H PARENT
REMARK Flexibility Score: inf
ROOT
ATOM      1  C   UNL     1      61.079  -4.543  -1.507  1.00  0.00     0.059 C 
ENDROOT
BRANCH   1   2
ATOM      2  C   UNL     1      59.970  -5.024  -2.389  1.00  0.00     0.042 C 
ATOM      3  O   UNL     1      60.014  -6.178  -2.889  1.00  0.00    -0.550 OA
ATOM      4  O   UNL     1      58.912  -4.179  -2.697  1.00  0.00    -0.550 OA
ENDBRANCH   1   2
BRANCH   1   5
ATOM      5  C   UNL     1      61.133  -5.366  -0.218  1.00  0.00     0.059 C 
BRANCH   5   6
ATOM      6  C   UNL     1      62.043  -6.542  -0.386  1.00  0.00     0.042 C 
ATOM      7  O   UNL     1      61.867  -7.583   0.300  1.00  0.00    -0.550 OA
ATOM      8  O   UNL     1      63.116  -6.471  -1.265  1.00  0.00    -0.550 OA
ENDBRANCH   5   6
ENDBRANCH   1   5
TORSDOF 3
ENDMDL
MODEL 6
REMARK VINA RESULT:    -3.876      1.472      3.931
REMARK INTER + INTRA:          -4.628
REMARK INTER:                  -4.524
REMARK INTRA:                  -0.104
REMARK UNBOUND:                -0.072
REMARK SMILES O=C([O-])CCC(=O)[O-]
REMARK SMILES IDX 4 1 2 2 1 3 3 4 5 5 6 6 7 7 8 8
REMARK H PARENT
REMARK Flexibility Score: inf
ROOT
ATOM      1  C   UNL     1      61.142  -6.061  -1.103  1.00  0.00     0.059 C 
ENDROOT
BRANCH   1   2
ATOM      2  C   UNL     1      60.445  -4.738  -1.115  1.00  0.00     0.042 C 
ATOM      3  O   UNL     1      60.566  -3.950  -0.140  1.00  0.00    -0.550 OA
ATOM      4  O   UNL     1      59.623  -4.394  -2.180  1.00  0.00    -0.550 OA
ENDBRANCH   1   2
BRANCH   1   5
ATOM      5  C   UNL     1      62.046  -6.201  -2.330  1.00  0.00     0.059 C 
BRANCH   5   6
ATOM      6  C   UNL     1      61.439  -7.142  -3.322  1.00  0.00     0.042 C 
ATOM      7  O   UNL     1      61.925  -7.244  -4.479  1.00  0.00    -0.550 OA
ATOM      8  O   UNL     1      60.306  -7.872  -2.986  1.00  0.00    -0.550 OA
ENDBRANCH   5   6
ENDBRANCH   1   5
TORSDOF 3
ENDMDL
MODEL 7
REMARK VINA RESULT:    -3.845      2.141      3.413
REMARK INTER + INTRA:          -4.592
REMARK INTER:                  -4.505
REMARK INTRA:                  -0.087
REMARK UNBOUND:                -0.072
REMARK SMILES O=C([O-])CCC(=O)[O-]
REMARK SMILES IDX 4 1 2 2 1 3 3 4 5 5 6 6 7 7 8 8
REMARK H PARENT
REMARK Flexibility Score: inf
ROOT
ATOM      1  C   UNL     1      62.091  -6.187  -1.010  1.00  0.00     0.059 C 
ENDROOT
BRANCH   1   2
ATOM      2  C   UNL     1      61.838  -7.389  -0.157  1.00  0.00     0.042 C 
ATOM      3  O   UNL     1      61.956  -7.314   1.094  1.00  0.00    -0.550 OA
ATOM      4  O   UNL     1      61.521  -8.606  -0.747  1.00  0.00    -0.550 OA
ENDBRANCH   1   2
BRANCH   1   5
ATOM      5  C   UNL     1      60.896  -5.233  -0.958  1.00  0.00     0.059 C 
BRANCH   5   6
ATOM      6  C   UNL     1      60.089  -5.336  -2.214  1.00  0.00     0.042 C 
ATOM      7  O   UNL     1      60.227  -6.329  -2.976  1.00  0.00    -0.550 OA
ATOM      8  O   UNL     1      59.220  -4.312  -2.569  1.00  0.00    -0.550 OA
ENDBRANCH   5   6
ENDBRANCH   1   5
TORSDOF 3
ENDMDL
MODEL 8
REMARK VINA RESULT:    -3.443      1.378      1.847
REMARK INTER + INTRA:          -4.119
REMARK INTER:                  -4.085
REMARK INTRA:                  -0.035
REMARK UNBOUND:                -0.072
REMARK SMILES O=C([O-])CCC(=O)[O-]
REMARK SMILES IDX 4 1 2 2 1 3 3 4 5 5 6 6 7 7 8 8
REMARK H PARENT
REMARK Flexibility Score: inf
ROOT
ATOM      1  C   UNL     1      61.151  -5.705  -1.479  1.00  0.00     0.059 C 
ENDROOT
BRANCH   1   2
ATOM      2  C   UNL     1      60.413  -6.170  -2.694  1.00  0.00     0.042 C 
ATOM      3  O   UNL     1      59.351  -5.594  -3.048  1.00  0.00    -0.550 OA
ATOM      4  O   UNL     1      60.870  -7.270  -3.407  1.00  0.00    -0.550 OA
ENDBRANCH   1   2
BRANCH   1   5
ATOM      5  C   UNL     1      60.380  -4.584  -0.780  1.00  0.00     0.059 C 
BRANCH   5   6
ATOM      6  C   UNL     1      61.191  -4.010   0.340  1.00  0.00     0.042 C 
ATOM      7  O   UNL     1      60.879  -4.250   1.535  1.00  0.00    -0.550 OA
ATOM      8  O   UNL     1      62.262  -3.171   0.063  1.00  0.00    -0.550 OA
ENDBRANCH   5   6
ENDBRANCH   1   5
TORSDOF 3
ENDMDL
MODEL 9
REMARK VINA RESULT:    -3.274      2.247      3.428
REMARK INTER + INTRA:          -3.921
REMARK INTER:                  -3.768
REMARK INTRA:                  -0.153
REMARK UNBOUND:                -0.072
REMARK SMILES O=C([O-])CCC(=O)[O-]
REMARK SMILES IDX 4 1 2 2 1 3 3 4 5 5 6 6 7 7 8 8
REMARK H PARENT
REMARK Flexibility Score: inf
ROOT
ATOM      1  C   UNL     1      61.767  -6.693  -0.555  1.00  0.00     0.059 C 
ENDROOT
BRANCH   1   2
ATOM      2  C   UNL     1      62.304  -8.089  -0.503  1.00  0.00     0.042 C 
ATOM      3  O   UNL     1      61.528  -9.058  -0.298  1.00  0.00    -0.550 OA
ATOM      4  O   UNL     1      63.668  -8.314  -0.633  1.00  0.00    -0.550 OA
ENDBRANCH   1   2
BRANCH   1   5
ATOM      5  C   UNL     1      62.113  -6.037  -1.894  1.00  0.00     0.059 C 
BRANCH   5   6
ATOM      6  C   UNL     1      61.198  -6.531  -2.970  1.00  0.00     0.042 C 
ATOM      7  O   UNL     1      59.954  -6.365  -2.870  1.00  0.00    -0.550 OA
ATOM      8  O   UNL     1      61.715  -7.218  -4.061  1.00  0.00    -0.550 OA
ENDBRANCH   5   6
ENDBRANCH   1   5
TORSDOF 3
ENDMDL
