MODEL 1
REMARK VINA RESULT:    -2.300      0.000      0.000
REMARK INTER + INTRA:         -12.395
REMARK INTER:                  -6.066
REMARK INTRA:                  -6.329
REMARK UNBOUND:                -6.329
REMARK SMILES CCCCCCCCCCCCCCCCCCCCCCCCCCCCCC(=O)[O-]
REMARK SMILES IDX 16 1 17 2 18 3 19 4 20 5 21 6 22 7 23 8 24 9 25 10 26 11
REMARK SMILES IDX 27 12 28 13 29 14 30 15 31 16 32 17 15 18 14 19 13 20 12 21
REMARK SMILES IDX 11 22 10 23 9 24 8 25 7 26 6 27 5 28 4 29 3 30 2 31 1 32
REMARK H PARENT
REMARK Flexibility Score: inf
ROOT
ATOM      1  C   UNL     1       5.099  21.767   9.007  1.00  0.00     0.000 C 
ENDROOT
BRANCH   1   2
ATOM      2  C   UNL     1       5.819  20.447   8.668  1.00  0.00     0.000 C 
BRANCH   2   3
ATOM      3  C   UNL     1       5.188  19.633   7.518  1.00  0.00     0.000 C 
BRANCH   3   4
ATOM      4  C   UNL     1       3.998  20.317   6.821  1.00  0.00     0.000 C 
BRANCH   4   5
ATOM      5  C   UNL     1       2.930  19.316   6.359  1.00  0.00     0.000 C 
BRANCH   5   6
ATOM      6  C   UNL     1       1.532  19.948   6.393  1.00  0.00     0.000 C 
BRANCH   6   7
ATOM      7  C   UNL     1       1.599  21.445   6.048  1.00  0.00     0.000 C 
BRANCH   7   8
ATOM      8  C   UNL     1       1.147  21.740   4.602  1.00  0.00     0.000 C 
BRANCH   8   9
ATOM      9  C   UNL     1       2.144  22.594   3.797  1.00  0.00     0.000 C 
BRANCH   9  10
ATOM     10  C   UNL     1       3.182  21.800   2.985  1.00  0.00     0.000 C 
BRANCH  10  11
ATOM     11  C   UNL     1       4.626  22.261   3.251  1.00  0.00     0.000 C 
BRANCH  11  12
ATOM     12  C   UNL     1       5.525  21.127   3.766  1.00  0.00     0.000 C 
BRANCH  12  13
ATOM     13  C   UNL     1       5.091  19.745   3.251  1.00  0.00     0.006 C 
BRANCH  13  14
ATOM     14  C   UNL     1       5.886  18.630   3.941  1.00  0.00     0.053 C 
BRANCH  14  15
ATOM     15  C   UNL     1       6.197  17.524   2.982  1.00  0.00     0.041 C 
ATOM     16  O   UNL     1       7.096  16.683   3.254  1.00  0.00    -0.550 OA
ATOM     17  O   UNL     1       5.488  17.413   1.791  1.00  0.00    -0.550 OA
ENDBRANCH  14  15
ENDBRANCH  13  14
ENDBRANCH  12  13
ENDBRANCH  11  12
ENDBRANCH  10  11
ENDBRANCH   9  10
ENDBRANCH   8   9
ENDBRANCH   7   8
ENDBRANCH   6   7
ENDBRANCH   5   6
ENDBRANCH   4   5
ENDBRANCH   3   4
ENDBRANCH   2   3
ENDBRANCH   1   2
BRANCH   1  18
ATOM     18  C   UNL     1       4.129  21.693  10.203  1.00  0.00     0.000 C 
BRANCH  18  19
ATOM     19  C   UNL     1       2.644  21.913   9.848  1.00  0.00     0.000 C 
BRANCH  19  20
ATOM     20  C   UNL     1       1.760  20.653   9.962  1.00  0.00     0.000 C 
BRANCH  20  21
ATOM     21  C   UNL     1       2.525  19.336  10.181  1.00  0.00     0.000 C 
BRANCH  21  22
ATOM     22  C   UNL     1       2.382  18.706  11.581  1.00  0.00     0.000 C 
BRANCH  22  23
ATOM     23  C   UNL     1       3.560  17.800  11.999  1.00  0.00     0.000 C 
BRANCH  23  24
ATOM     24  C   UNL     1       4.872  18.138  11.267  1.00  0.00    -0.000 C 
BRANCH  24  25
ATOM     25  C   UNL     1       5.431  16.935  10.490  1.00  0.00    -0.000 C 
BRANCH  25  26
ATOM     26  C   UNL     1       4.350  15.879  10.205  1.00  0.00    -0.000 C 
BRANCH  26  27
ATOM     27  C   UNL     1       4.587  15.199   8.849  1.00  0.00    -0.000 C 
BRANCH  27  28
ATOM     28  C   UNL     1       4.156  16.075   7.659  1.00  0.00    -0.000 C 
BRANCH  28  29
ATOM     29  C   UNL     1       4.936  15.829   6.352  1.00  0.00    -0.000 C 
BRANCH  29  30
ATOM     30  C   UNL     1       6.443  15.573   6.532  1.00  0.00    -0.000 C 
BRANCH  30  31
ATOM     31  C   UNL     1       7.226  16.848   6.874  1.00  0.00    -0.003 C 
ATOM     32  C   UNL     1       8.222  16.593   8.003  1.00  0.00     0.004 C 
ENDBRANCH  30  31
ENDBRANCH  29  30
ENDBRANCH  28  29
ENDBRANCH  27  28
ENDBRANCH  26  27
ENDBRANCH  25  26
ENDBRANCH  24  25
ENDBRANCH  23  24
ENDBRANCH  22  23
ENDBRANCH  21  22
ENDBRANCH  20  21
ENDBRANCH  19  20
ENDBRANCH  18  19
ENDBRANCH   1  18
TORSDOF 28
ENDMDL
MODEL 2
REMARK VINA RESULT:    -2.276      2.479      4.049
REMARK INTER + INTRA:         -12.332
REMARK INTER:                  -6.210
REMARK INTRA:                  -6.122
REMARK UNBOUND:                -6.329
REMARK SMILES CCCCCCCCCCCCCCCCCCCCCCCCCCCCCC(=O)[O-]
REMARK SMILES IDX 16 1 17 2 18 3 19 4 20 5 21 6 22 7 23 8 24 9 25 10 26 11
REMARK SMILES IDX 27 12 28 13 29 14 30 15 31 16 32 17 15 18 14 19 13 20 12 21
REMARK SMILES IDX 11 22 10 23 9 24 8 25 7 26 6 27 5 28 4 29 3 30 2 31 1 32
REMARK H PARENT
REMARK Flexibility Score: inf
ROOT
ATOM      1  C   UNL     1       5.035  21.138  12.441  1.00  0.00     0.000 C 
ENDROOT
BRANCH   1   2
ATOM      2  C   UNL     1       5.626  21.707  11.135  1.00  0.00     0.000 C 
BRANCH   2   3
ATOM      3  C   UNL     1       5.845  20.674  10.010  1.00  0.00     0.000 C 
BRANCH   3   4
ATOM      4  C   UNL     1       4.746  20.649   8.934  1.00  0.00     0.000 C 
BRANCH   4   5
ATOM      5  C   UNL     1       4.602  21.993   8.205  1.00  0.00     0.000 C 
BRANCH   5   6
ATOM      6  C   UNL     1       3.224  22.615   8.465  1.00  0.00     0.000 C 
BRANCH   6   7
ATOM      7  C   UNL     1       2.345  22.545   7.206  1.00  0.00     0.000 C 
BRANCH   7   8
ATOM      8  C   UNL     1       1.541  21.230   7.117  1.00  0.00     0.000 C 
BRANCH   8   9
ATOM      9  C   UNL     1       2.056  20.252   6.043  1.00  0.00     0.000 C 
BRANCH   9  10
ATOM     10  C   UNL     1       2.857  19.053   6.579  1.00  0.00     0.000 C 
BRANCH  10  11
ATOM     11  C   UNL     1       4.116  18.757   5.744  1.00  0.00     0.000 C 
BRANCH  11  12
ATOM     12  C   UNL     1       4.784  17.429   6.129  1.00  0.00     0.000 C 
BRANCH  12  13
ATOM     13  C   UNL     1       4.693  17.133   7.635  1.00  0.00     0.006 C 
BRANCH  13  14
ATOM     14  C   UNL     1       3.942  15.820   7.890  1.00  0.00     0.053 C 
BRANCH  14  15
ATOM     15  C   UNL     1       4.618  14.676   7.201  1.00  0.00     0.041 C 
ATOM     16  O   UNL     1       5.837  14.438   7.413  1.00  0.00    -0.550 OA
ATOM     17  O   UNL     1       3.900  13.864   6.329  1.00  0.00    -0.550 OA
ENDBRANCH  14  15
ENDBRANCH  13  14
ENDBRANCH  12  13
ENDBRANCH  11  12
ENDBRANCH  10  11
ENDBRANCH   9  10
ENDBRANCH   8   9
ENDBRANCH   7   8
ENDBRANCH   6   7
ENDBRANCH   5   6
ENDBRANCH   4   5
ENDBRANCH   3   4
ENDBRANCH   2   3
ENDBRANCH   1   2
BRANCH   1  18
ATOM     18  C   UNL     1       3.806  21.894  12.985  1.00  0.00     0.000 C 
BRANCH  18  19
ATOM     19  C   UNL     1       3.211  22.941  12.022  1.00  0.00     0.000 C 
BRANCH  19  20
ATOM     20  C   UNL     1       1.676  22.886  11.877  1.00  0.00     0.000 C 
BRANCH  20  21
ATOM     21  C   UNL     1       1.061  21.478  11.967  1.00  0.00     0.000 C 
BRANCH  21  22
ATOM     22  C   UNL     1       1.163  20.623  10.687  1.00  0.00     0.000 C 
BRANCH  22  23
ATOM     23  C   UNL     1       1.995  19.332  10.845  1.00  0.00     0.000 C 
BRANCH  23  24
ATOM     24  C   UNL     1       2.018  18.800  12.290  1.00  0.00    -0.000 C 
BRANCH  24  25
ATOM     25  C   UNL     1       3.084  17.711  12.492  1.00  0.00    -0.000 C 
BRANCH  25  26
ATOM     26  C   UNL     1       4.039  17.608  11.292  1.00  0.00    -0.000 C 
BRANCH  26  27
ATOM     27  C   UNL     1       5.500  17.517  11.755  1.00  0.00    -0.000 C 
BRANCH  27  28
ATOM     28  C   UNL     1       6.341  16.562  10.890  1.00  0.00    -0.000 C 
BRANCH  28  29
ATOM     29  C   UNL     1       6.354  15.094  11.364  1.00  0.00    -0.000 C 
BRANCH  29  30
ATOM     30  C   UNL     1       5.129  14.264  10.941  1.00  0.00    -0.000 C 
BRANCH  30  31
ATOM     31  C   UNL     1       4.488  13.509  12.115  1.00  0.00    -0.003 C 
ATOM     32  C   UNL     1       4.559  14.332  13.400  1.00  0.00     0.004 C 
ENDBRANCH  30  31
ENDBRANCH  29  30
ENDBRANCH  28  29
ENDBRANCH  27  28
ENDBRANCH  26  27
ENDBRANCH  25  26
ENDBRANCH  24  25
ENDBRANCH  23  24
ENDBRANCH  22  23
ENDBRANCH  21  22
ENDBRANCH  20  21
ENDBRANCH  19  20
ENDBRANCH  18  19
ENDBRANCH   1  18
TORSDOF 28
ENDMDL
MODEL 3
REMARK VINA RESULT:    -2.275      2.144      5.739
REMARK INTER + INTRA:         -12.329
REMARK INTER:                  -6.431
REMARK INTRA:                  -5.898
REMARK UNBOUND:                -6.329
REMARK SMILES CCCCCCCCCCCCCCCCCCCCCCCCCCCCCC(=O)[O-]
REMARK SMILES IDX 16 1 17 2 18 3 19 4 20 5 21 6 22 7 23 8 24 9 25 10 26 11
REMARK SMILES IDX 27 12 28 13 29 14 30 15 31 16 32 17 15 18 14 19 13 20 12 21
REMARK SMILES IDX 11 22 10 23 9 24 8 25 7 26 6 27 5 28 4 29 3 30 2 31 1 32
REMARK H PARENT
REMARK Flexibility Score: inf
ROOT
ATOM      1  C   UNL     1       4.216  23.063   7.536  1.00  0.00     0.000 C 
ENDROOT
BRANCH   1   2
ATOM      2  C   UNL     1       4.043  22.083   8.714  1.00  0.00     0.000 C 
BRANCH   2   3
ATOM      3  C   UNL     1       2.928  22.454   9.715  1.00  0.00     0.000 C 
BRANCH   3   4
ATOM      4  C   UNL     1       1.498  22.165   9.224  1.00  0.00     0.000 C 
BRANCH   4   5
ATOM      5  C   UNL     1       0.911  20.885   9.836  1.00  0.00     0.000 C 
BRANCH   5   6
ATOM      6  C   UNL     1       1.580  20.559  11.178  1.00  0.00     0.000 C 
BRANCH   6   7
ATOM      7  C   UNL     1       2.102  19.112  11.194  1.00  0.00     0.000 C 
BRANCH   7   8
ATOM      8  C   UNL     1       3.560  19.003  10.704  1.00  0.00     0.000 C 
BRANCH   8   9
ATOM      9  C   UNL     1       3.830  17.781   9.805  1.00  0.00     0.000 C 
BRANCH   9  10
ATOM     10  C   UNL     1       4.870  16.786  10.348  1.00  0.00     0.000 C 
BRANCH  10  11
ATOM     11  C   UNL     1       4.523  15.323  10.017  1.00  0.00     0.000 C 
BRANCH  11  12
ATOM     12  C   UNL     1       5.735  14.527   9.511  1.00  0.00     0.000 C 
BRANCH  12  13
ATOM     13  C   UNL     1       5.856  14.538   7.979  1.00  0.00     0.006 C 
BRANCH  13  14
ATOM     14  C   UNL     1       4.487  14.319   7.322  1.00  0.00     0.053 C 
BRANCH  14  15
ATOM     15  C   UNL     1       4.466  13.040   6.544  1.00  0.00     0.041 C 
ATOM     16  O   UNL     1       3.410  12.665   5.970  1.00  0.00    -0.550 OA
ATOM     17  O   UNL     1       5.617  12.265   6.446  1.00  0.00    -0.550 OA
ENDBRANCH  14  15
ENDBRANCH  13  14
ENDBRANCH  12  13
ENDBRANCH  11  12
ENDBRANCH  10  11
ENDBRANCH   9  10
ENDBRANCH   8   9
ENDBRANCH   7   8
ENDBRANCH   6   7
ENDBRANCH   5   6
ENDBRANCH   4   5
ENDBRANCH   3   4
ENDBRANCH   2   3
ENDBRANCH   1   2
BRANCH   1  18
ATOM     18  C   UNL     1       4.957  22.487   6.313  1.00  0.00     0.000 C 
BRANCH  18  19
ATOM     19  C   UNL     1       4.229  22.674   4.967  1.00  0.00     0.000 C 
BRANCH  19  20
ATOM     20  C   UNL     1       2.706  22.429   5.017  1.00  0.00     0.000 C 
BRANCH  20  21
ATOM     21  C   UNL     1       2.275  20.960   4.857  1.00  0.00     0.000 C 
BRANCH  21  22
ATOM     22  C   UNL     1       1.563  20.338   6.076  1.00  0.00     0.000 C 
BRANCH  22  23
ATOM     23  C   UNL     1       2.385  19.261   6.816  1.00  0.00     0.000 C 
BRANCH  23  24
ATOM     24  C   UNL     1       3.849  19.187   6.344  1.00  0.00    -0.000 C 
BRANCH  24  25
ATOM     25  C   UNL     1       4.321  17.738   6.138  1.00  0.00    -0.000 C 
BRANCH  25  26
ATOM     26  C   UNL     1       5.485  17.647   5.139  1.00  0.00    -0.000 C 
BRANCH  26  27
ATOM     27  C   UNL     1       5.569  18.910   4.271  1.00  0.00    -0.000 C 
BRANCH  27  28
ATOM     28  C   UNL     1       6.953  19.581   4.328  1.00  0.00    -0.000 C 
BRANCH  28  29
ATOM     29  C   UNL     1       7.994  18.856   5.204  1.00  0.00    -0.000 C 
BRANCH  29  30
ATOM     30  C   UNL     1       8.376  19.589   6.502  1.00  0.00    -0.000 C 
BRANCH  30  31
ATOM     31  C   UNL     1       7.893  18.859   7.763  1.00  0.00    -0.003 C 
ATOM     32  C   UNL     1       6.732  19.605   8.417  1.00  0.00     0.004 C 
ENDBRANCH  30  31
ENDBRANCH  29  30
ENDBRANCH  28  29
ENDBRANCH  27  28
ENDBRANCH  26  27
ENDBRANCH  25  26
ENDBRANCH  24  25
ENDBRANCH  23  24
ENDBRANCH  22  23
ENDBRANCH  21  22
ENDBRANCH  20  21
ENDBRANCH  19  20
ENDBRANCH  18  19
ENDBRANCH   1  18
TORSDOF 28
ENDMDL
MODEL 4
REMARK VINA RESULT:    -2.270      1.884      5.767
REMARK INTER + INTRA:         -12.316
REMARK INTER:                  -6.506
REMARK INTRA:                  -5.809
REMARK UNBOUND:                -6.329
REMARK SMILES CCCCCCCCCCCCCCCCCCCCCCCCCCCCCC(=O)[O-]
REMARK SMILES IDX 16 1 17 2 18 3 19 4 20 5 21 6 22 7 23 8 24 9 25 10 26 11
REMARK SMILES IDX 27 12 28 13 29 14 30 15 31 16 32 17 15 18 14 19 13 20 12 21
REMARK SMILES IDX 11 22 10 23 9 24 8 25 7 26 6 27 5 28 4 29 3 30 2 31 1 32
REMARK H PARENT
REMARK Flexibility Score: inf
ROOT
ATOM      1  C   UNL     1       5.028  22.349   7.970  1.00  0.00     0.000 C 
ENDROOT
BRANCH   1   2
ATOM      2  C   UNL     1       4.923  21.191   8.983  1.00  0.00     0.000 C 
BRANCH   2   3
ATOM      3  C   UNL     1       4.046  21.481  10.220  1.00  0.00     0.000 C 
BRANCH   3   4
ATOM      4  C   UNL     1       2.531  21.365   9.979  1.00  0.00     0.000 C 
BRANCH   4   5
ATOM      5  C   UNL     1       2.018  19.926  10.129  1.00  0.00     0.000 C 
BRANCH   5   6
ATOM      6  C   UNL     1       2.237  19.409  11.557  1.00  0.00     0.000 C 
BRANCH   6   7
ATOM      7  C   UNL     1       3.233  18.238  11.569  1.00  0.00     0.000 C 
BRANCH   7   8
ATOM      8  C   UNL     1       3.631  17.784  10.149  1.00  0.00     0.000 C 
BRANCH   8   9
ATOM      9  C   UNL     1       5.151  17.629   9.944  1.00  0.00     0.000 C 
BRANCH   9  10
ATOM     10  C   UNL     1       5.607  16.243   9.456  1.00  0.00     0.000 C 
BRANCH  10  11
ATOM     11  C   UNL     1       4.429  15.310   9.125  1.00  0.00     0.000 C 
BRANCH  11  12
ATOM     12  C   UNL     1       4.138  15.234   7.619  1.00  0.00     0.000 C 
BRANCH  12  13
ATOM     13  C   UNL     1       4.185  13.797   7.076  1.00  0.00     0.006 C 
BRANCH  13  14
ATOM     14  C   UNL     1       5.406  13.046   7.621  1.00  0.00     0.053 C 
BRANCH  14  15
ATOM     15  C   UNL     1       6.553  13.126   6.663  1.00  0.00     0.041 C 
ATOM     16  O   UNL     1       6.341  13.296   5.433  1.00  0.00    -0.550 OA
ATOM     17  O   UNL     1       7.859  13.022   7.129  1.00  0.00    -0.550 OA
ENDBRANCH  14  15
ENDBRANCH  13  14
ENDBRANCH  12  13
ENDBRANCH  11  12
ENDBRANCH  10  11
ENDBRANCH   9  10
ENDBRANCH   8   9
ENDBRANCH   7   8
ENDBRANCH   6   7
ENDBRANCH   5   6
ENDBRANCH   4   5
ENDBRANCH   3   4
ENDBRANCH   2   3
ENDBRANCH   1   2
BRANCH   1  18
ATOM     18  C   UNL     1       5.552  21.950   6.577  1.00  0.00     0.000 C 
BRANCH  18  19
ATOM     19  C   UNL     1       4.586  22.245   5.411  1.00  0.00     0.000 C 
BRANCH  19  20
ATOM     20  C   UNL     1       3.091  22.064   5.750  1.00  0.00     0.000 C 
BRANCH  20  21
ATOM     21  C   UNL     1       2.478  20.725   5.302  1.00  0.00     0.000 C 
BRANCH  21  22
ATOM     22  C   UNL     1       2.093  19.754   6.437  1.00  0.00     0.000 C 
BRANCH  22  23
ATOM     23  C   UNL     1       3.205  18.758   6.831  1.00  0.00     0.000 C 
BRANCH  23  24
ATOM     24  C   UNL     1       4.234  18.526   5.709  1.00  0.00    -0.000 C 
BRANCH  24  25
ATOM     25  C   UNL     1       5.648  18.278   6.260  1.00  0.00    -0.000 C 
BRANCH  25  26
ATOM     26  C   UNL     1       6.386  17.178   5.480  1.00  0.00    -0.000 C 
BRANCH  26  27
ATOM     27  C   UNL     1       5.467  16.531   4.434  1.00  0.00    -0.000 C 
BRANCH  27  28
ATOM     28  C   UNL     1       6.220  16.104   3.162  1.00  0.00    -0.000 C 
BRANCH  28  29
ATOM     29  C   UNL     1       6.609  17.257   2.215  1.00  0.00    -0.000 C 
BRANCH  29  30
ATOM     30  C   UNL     1       5.461  17.801   1.347  1.00  0.00    -0.000 C 
BRANCH  30  31
ATOM     31  C   UNL     1       5.501  19.329   1.195  1.00  0.00    -0.003 C 
ATOM     32  C   UNL     1       5.272  20.019   2.538  1.00  0.00     0.004 C 
ENDBRANCH  30  31
ENDBRANCH  29  30
ENDBRANCH  28  29
ENDBRANCH  27  28
ENDBRANCH  26  27
ENDBRANCH  25  26
ENDBRANCH  24  25
ENDBRANCH  23  24
ENDBRANCH  22  23
ENDBRANCH  21  22
ENDBRANCH  20  21
ENDBRANCH  19  20
ENDBRANCH  18  19
ENDBRANCH   1  18
TORSDOF 28
ENDMDL
MODEL 5
REMARK VINA RESULT:    -2.264      2.907      6.632
REMARK INTER + INTRA:         -12.300
REMARK INTER:                  -6.917
REMARK INTRA:                  -5.383
REMARK UNBOUND:                -6.329
REMARK SMILES CCCCCCCCCCCCCCCCCCCCCCCCCCCCCC(=O)[O-]
REMARK SMILES IDX 16 1 17 2 18 3 19 4 20 5 21 6 22 7 23 8 24 9 25 10 26 11
REMARK SMILES IDX 27 12 28 13 29 14 30 15 31 16 32 17 15 18 14 19 13 20 12 21
REMARK SMILES IDX 11 22 10 23 9 24 8 25 7 26 6 27 5 28 4 29 3 30 2 31 1 32
REMARK H PARENT
REMARK Flexibility Score: inf
ROOT
ATOM      1  C   UNL     1       3.254  18.676   6.589  1.00  0.00     0.000 C 
ENDROOT
BRANCH   1   2
ATOM      2  C   UNL     1       4.356  19.140   5.616  1.00  0.00     0.000 C 
BRANCH   2   3
ATOM      3  C   UNL     1       5.582  18.206   5.521  1.00  0.00     0.000 C 
BRANCH   3   4
ATOM      4  C   UNL     1       5.337  16.896   4.753  1.00  0.00     0.000 C 
BRANCH   4   5
ATOM      5  C   UNL     1       6.382  15.818   5.075  1.00  0.00     0.000 C 
BRANCH   5   6
ATOM      6  C   UNL     1       6.073  15.133   6.413  1.00  0.00     0.000 C 
BRANCH   6   7
ATOM      7  C   UNL     1       4.609  14.665   6.463  1.00  0.00     0.000 C 
BRANCH   7   8
ATOM      8  C   UNL     1       3.874  15.154   7.728  1.00  0.00     0.000 C 
BRANCH   8   9
ATOM      9  C   UNL     1       4.717  16.083   8.623  1.00  0.00     0.000 C 
BRANCH   9  10
ATOM     10  C   UNL     1       4.560  15.855  10.136  1.00  0.00     0.000 C 
BRANCH  10  11
ATOM     11  C   UNL     1       5.032  14.460  10.580  1.00  0.00     0.000 C 
BRANCH  11  12
ATOM     12  C   UNL     1       6.473  14.155  10.143  1.00  0.00     0.000 C 
BRANCH  12  13
ATOM     13  C   UNL     1       6.585  12.856   9.329  1.00  0.00     0.006 C 
BRANCH  13  14
ATOM     14  C   UNL     1       5.436  11.899   9.667  1.00  0.00     0.053 C 
BRANCH  14  15
ATOM     15  C   UNL     1       5.150  10.981   8.519  1.00  0.00     0.041 C 
ATOM     16  O   UNL     1       5.345  11.366   7.336  1.00  0.00    -0.550 OA
ATOM     17  O   UNL     1       4.677   9.695   8.756  1.00  0.00    -0.550 OA
ENDBRANCH  14  15
ENDBRANCH  13  14
ENDBRANCH  12  13
ENDBRANCH  11  12
ENDBRANCH  10  11
ENDBRANCH   9  10
ENDBRANCH   8   9
ENDBRANCH   7   8
ENDBRANCH   6   7
ENDBRANCH   5   6
ENDBRANCH   4   5
ENDBRANCH   3   4
ENDBRANCH   2   3
ENDBRANCH   1   2
BRANCH   1  18
ATOM     18  C   UNL     1       2.252  19.769   7.010  1.00  0.00     0.000 C 
BRANCH  18  19
ATOM     19  C   UNL     1       2.365  20.220   8.480  1.00  0.00     0.000 C 
BRANCH  19  20
ATOM     20  C   UNL     1       3.222  19.299   9.374  1.00  0.00     0.000 C 
BRANCH  20  21
ATOM     21  C   UNL     1       2.609  18.968  10.747  1.00  0.00     0.000 C 
BRANCH  21  22
ATOM     22  C   UNL     1       1.436  19.868  11.189  1.00  0.00     0.000 C 
BRANCH  22  23
ATOM     23  C   UNL     1       1.726  20.730  12.436  1.00  0.00     0.000 C 
BRANCH  23  24
ATOM     24  C   UNL     1       1.538  19.963  13.758  1.00  0.00    -0.000 C 
BRANCH  24  25
ATOM     25  C   UNL     1       0.439  18.892  13.657  1.00  0.00    -0.000 C 
BRANCH  25  26
ATOM     26  C   UNL     1       0.912  17.529  14.186  1.00  0.00    -0.000 C 
BRANCH  26  27
ATOM     27  C   UNL     1       2.401  17.567  14.557  1.00  0.00    -0.000 C 
BRANCH  27  28
ATOM     28  C   UNL     1       3.277  16.740  13.598  1.00  0.00    -0.000 C 
BRANCH  28  29
ATOM     29  C   UNL     1       4.765  17.142  13.563  1.00  0.00    -0.000 C 
BRANCH  29  30
ATOM     30  C   UNL     1       5.068  18.560  14.079  1.00  0.00    -0.000 C 
BRANCH  30  31
ATOM     31  C   UNL     1       5.352  19.558  12.947  1.00  0.00    -0.003 C 
ATOM     32  C   UNL     1       6.180  18.909  11.840  1.00  0.00     0.004 C 
ENDBRANCH  30  31
ENDBRANCH  29  30
ENDBRANCH  28  29
ENDBRANCH  27  28
ENDBRANCH  26  27
ENDBRANCH  25  26
ENDBRANCH  24  25
ENDBRANCH  23  24
ENDBRANCH  22  23
ENDBRANCH  21  22
ENDBRANCH  20  21
ENDBRANCH  19  20
ENDBRANCH  18  19
ENDBRANCH   1  18
TORSDOF 28
ENDMDL
MODEL 6
REMARK VINA RESULT:    -2.259      2.999      6.817
REMARK INTER + INTRA:         -12.287
REMARK INTER:                  -7.536
REMARK INTRA:                  -4.751
REMARK UNBOUND:                -6.329
REMARK SMILES CCCCCCCCCCCCCCCCCCCCCCCCCCCCCC(=O)[O-]
REMARK SMILES IDX 16 1 17 2 18 3 19 4 20 5 21 6 22 7 23 8 24 9 25 10 26 11
REMARK SMILES IDX 27 12 28 13 29 14 30 15 31 16 32 17 15 18 14 19 13 20 12 21
REMARK SMILES IDX 11 22 10 23 9 24 8 25 7 26 6 27 5 28 4 29 3 30 2 31 1 32
REMARK H PARENT
REMARK Flexibility Score: inf
ROOT
ATOM      1  C   UNL     1       3.734  17.957   7.009  1.00  0.00     0.000 C 
ENDROOT
BRANCH   1   2
ATOM      2  C   UNL     1       5.200  18.403   7.183  1.00  0.00     0.000 C 
BRANCH   2   3
ATOM      3  C   UNL     1       6.166  17.927   6.077  1.00  0.00     0.000 C 
BRANCH   3   4
ATOM      4  C   UNL     1       5.480  17.329   4.836  1.00  0.00     0.000 C 
BRANCH   4   5
ATOM      5  C   UNL     1       5.912  15.881   4.563  1.00  0.00     0.000 C 
BRANCH   5   6
ATOM      6  C   UNL     1       4.732  14.915   4.723  1.00  0.00     0.000 C 
BRANCH   6   7
ATOM      7  C   UNL     1       4.948  13.980   5.925  1.00  0.00     0.000 C 
BRANCH   7   8
ATOM      8  C   UNL     1       4.017  14.313   7.109  1.00  0.00     0.000 C 
BRANCH   8   9
ATOM      9  C   UNL     1       4.746  14.892   8.337  1.00  0.00     0.000 C 
BRANCH   9  10
ATOM     10  C   UNL     1       6.277  14.733   8.324  1.00  0.00     0.000 C 
BRANCH  10  11
ATOM     11  C   UNL     1       6.817  14.071   9.604  1.00  0.00     0.000 C 
BRANCH  11  12
ATOM     12  C   UNL     1       5.867  13.000  10.163  1.00  0.00     0.000 C 
BRANCH  12  13
ATOM     13  C   UNL     1       6.420  11.574  10.004  1.00  0.00     0.006 C 
BRANCH  13  14
ATOM     14  C   UNL     1       6.445  11.159   8.528  1.00  0.00     0.053 C 
BRANCH  14  15
ATOM     15  C   UNL     1       5.147  10.529   8.129  1.00  0.00     0.041 C 
ATOM     16  O   UNL     1       4.400  10.009   9.000  1.00  0.00    -0.550 OA
ATOM     17  O   UNL     1       4.756  10.522   6.794  1.00  0.00    -0.550 OA
ENDBRANCH  14  15
ENDBRANCH  13  14
ENDBRANCH  12  13
ENDBRANCH  11  12
ENDBRANCH  10  11
ENDBRANCH   9  10
ENDBRANCH   8   9
ENDBRANCH   7   8
ENDBRANCH   6   7
ENDBRANCH   5   6
ENDBRANCH   4   5
ENDBRANCH   3   4
ENDBRANCH   2   3
ENDBRANCH   1   2
BRANCH   1  18
ATOM     18  C   UNL     1       2.704  19.102   6.968  1.00  0.00     0.000 C 
BRANCH  18  19
ATOM     19  C   UNL     1       2.779  19.997   5.714  1.00  0.00     0.000 C 
BRANCH  19  20
ATOM     20  C   UNL     1       1.504  20.819   5.430  1.00  0.00     0.000 C 
BRANCH  20  21
ATOM     21  C   UNL     1       0.289  20.463   6.306  1.00  0.00     0.000 C 
BRANCH  21  22
ATOM     22  C   UNL     1      -0.188  21.572   7.267  1.00  0.00     0.000 C 
BRANCH  22  23
ATOM     23  C   UNL     1       0.832  21.953   8.361  1.00  0.00     0.000 C 
BRANCH  23  24
ATOM     24  C   UNL     1       0.704  21.095   9.633  1.00  0.00    -0.000 C 
BRANCH  24  25
ATOM     25  C   UNL     1       2.057  20.522  10.087  1.00  0.00    -0.000 C 
BRANCH  25  26
ATOM     26  C   UNL     1       1.888  19.354  11.071  1.00  0.00    -0.000 C 
BRANCH  26  27
ATOM     27  C   UNL     1       3.251  18.843  11.561  1.00  0.00    -0.000 C 
BRANCH  27  28
ATOM     28  C   UNL     1       3.813  17.709  10.685  1.00  0.00    -0.000 C 
BRANCH  28  29
ATOM     29  C   UNL     1       4.959  16.898  11.324  1.00  0.00    -0.000 C 
BRANCH  29  30
ATOM     30  C   UNL     1       4.511  15.693  12.169  1.00  0.00    -0.000 C 
BRANCH  30  31
ATOM     31  C   UNL     1       4.451  16.008  13.670  1.00  0.00    -0.003 C 
ATOM     32  C   UNL     1       5.853  16.199  14.247  1.00  0.00     0.004 C 
ENDBRANCH  30  31
ENDBRANCH  29  30
ENDBRANCH  28  29
ENDBRANCH  27  28
ENDBRANCH  26  27
ENDBRANCH  25  26
ENDBRANCH  24  25
ENDBRANCH  23  24
ENDBRANCH  22  23
ENDBRANCH  21  22
ENDBRANCH  20  21
ENDBRANCH  19  20
ENDBRANCH  18  19
ENDBRANCH   1  18
TORSDOF 28
ENDMDL
MODEL 7
REMARK VINA RESULT:    -2.246      1.946      6.557
REMARK INTER + INTRA:         -12.251
REMARK INTER:                  -7.093
REMARK INTRA:                  -5.158
REMARK UNBOUND:                -6.329
REMARK SMILES CCCCCCCCCCCCCCCCCCCCCCCCCCCCCC(=O)[O-]
REMARK SMILES IDX 16 1 17 2 18 3 19 4 20 5 21 6 22 7 23 8 24 9 25 10 26 11
REMARK SMILES IDX 27 12 28 13 29 14 30 15 31 16 32 17 15 18 14 19 13 20 12 21
REMARK SMILES IDX 11 22 10 23 9 24 8 25 7 26 6 27 5 28 4 29 3 30 2 31 1 32
REMARK H PARENT
REMARK Flexibility Score: inf
ROOT
ATOM      1  C   UNL     1       3.307  18.957  10.146  1.00  0.00     0.000 C 
ENDROOT
BRANCH   1   2
ATOM      2  C   UNL     1       2.083  19.300  11.018  1.00  0.00     0.000 C 
BRANCH   2   3
ATOM      3  C   UNL     1       2.069  18.645  12.416  1.00  0.00     0.000 C 
BRANCH   3   4
ATOM      4  C   UNL     1       3.437  18.132  12.901  1.00  0.00     0.000 C 
BRANCH   4   5
ATOM      5  C   UNL     1       3.370  16.697  13.442  1.00  0.00     0.000 C 
BRANCH   5   6
ATOM      6  C   UNL     1       4.344  15.779  12.691  1.00  0.00     0.000 C 
BRANCH   6   7
ATOM      7  C   UNL     1       5.479  16.593  12.048  1.00  0.00     0.000 C 
BRANCH   7   8
ATOM      8  C   UNL     1       5.816  16.115  10.621  1.00  0.00     0.000 C 
BRANCH   8   9
ATOM      9  C   UNL     1       4.584  15.715   9.787  1.00  0.00     0.000 C 
BRANCH   9  10
ATOM     10  C   UNL     1       4.690  16.005   8.280  1.00  0.00     0.000 C 
BRANCH  10  11
ATOM     11  C   UNL     1       6.124  15.851   7.743  1.00  0.00     0.000 C 
BRANCH  11  12
ATOM     12  C   UNL     1       6.209  16.031   6.220  1.00  0.00     0.000 C 
BRANCH  12  13
ATOM     13  C   UNL     1       4.904  15.649   5.503  1.00  0.00     0.006 C 
BRANCH  13  14
ATOM     14  C   UNL     1       5.027  14.269   4.845  1.00  0.00     0.053 C 
BRANCH  14  15
ATOM     15  C   UNL     1       4.727  13.180   5.828  1.00  0.00     0.041 C 
ATOM     16  O   UNL     1       3.533  12.906   6.125  1.00  0.00    -0.550 OA
ATOM     17  O   UNL     1       5.764  12.461   6.410  1.00  0.00    -0.550 OA
ENDBRANCH  14  15
ENDBRANCH  13  14
ENDBRANCH  12  13
ENDBRANCH  11  12
ENDBRANCH  10  11
ENDBRANCH   9  10
ENDBRANCH   8   9
ENDBRANCH   7   8
ENDBRANCH   6   7
ENDBRANCH   5   6
ENDBRANCH   4   5
ENDBRANCH   3   4
ENDBRANCH   2   3
ENDBRANCH   1   2
BRANCH   1  18
ATOM     18  C   UNL     1       4.262  20.135   9.869  1.00  0.00     0.000 C 
BRANCH  18  19
ATOM     19  C   UNL     1       5.713  19.729   9.539  1.00  0.00     0.000 C 
BRANCH  19  20
ATOM     20  C   UNL     1       5.988  19.476   8.042  1.00  0.00     0.000 C 
BRANCH  20  21
ATOM     21  C   UNL     1       4.985  20.130   7.074  1.00  0.00     0.000 C 
BRANCH  21  22
ATOM     22  C   UNL     1       4.142  19.155   6.228  1.00  0.00     0.000 C 
BRANCH  22  23
ATOM     23  C   UNL     1       2.655  19.074   6.637  1.00  0.00     0.000 C 
BRANCH  23  24
ATOM     24  C   UNL     1       2.060  20.441   7.025  1.00  0.00    -0.000 C 
BRANCH  24  25
ATOM     25  C   UNL     1       0.612  20.604   6.536  1.00  0.00    -0.000 C 
BRANCH  25  26
ATOM     26  C   UNL     1       0.541  21.248   5.142  1.00  0.00    -0.000 C 
BRANCH  26  27
ATOM     27  C   UNL     1       1.884  21.889   4.762  1.00  0.00    -0.000 C 
BRANCH  27  28
ATOM     28  C   UNL     1       1.948  22.307   3.282  1.00  0.00    -0.000 C 
BRANCH  28  29
ATOM     29  C   UNL     1       3.316  22.095   2.603  1.00  0.00    -0.000 C 
BRANCH  29  30
ATOM     30  C   UNL     1       4.269  21.140   3.344  1.00  0.00    -0.000 C 
BRANCH  30  31
ATOM     31  C   UNL     1       5.038  20.211   2.395  1.00  0.00    -0.003 C 
ATOM     32  C   UNL     1       6.140  19.459   3.138  1.00  0.00     0.004 C 
ENDBRANCH  30  31
ENDBRANCH  29  30
ENDBRANCH  28  29
ENDBRANCH  27  28
ENDBRANCH  26  27
ENDBRANCH  25  26
ENDBRANCH  24  25
ENDBRANCH  23  24
ENDBRANCH  22  23
ENDBRANCH  21  22
ENDBRANCH  20  21
ENDBRANCH  19  20
ENDBRANCH  18  19
ENDBRANCH   1  18
TORSDOF 28
ENDMDL
MODEL 8
REMARK VINA RESULT:    -2.225      2.110      6.327
REMARK INTER + INTRA:         -12.195
REMARK INTER:                  -6.916
REMARK INTRA:                  -5.279
REMARK UNBOUND:                -6.329
REMARK SMILES CCCCCCCCCCCCCCCCCCCCCCCCCCCCCC(=O)[O-]
REMARK SMILES IDX 16 1 17 2 18 3 19 4 20 5 21 6 22 7 23 8 24 9 25 10 26 11
REMARK SMILES IDX 27 12 28 13 29 14 30 15 31 16 32 17 15 18 14 19 13 20 12 21
REMARK SMILES IDX 11 22 10 23 9 24 8 25 7 26 6 27 5 28 4 29 3 30 2 31 1 32
REMARK H PARENT
REMARK Flexibility Score: inf
ROOT
ATOM      1  C   UNL     1       2.693  19.028   6.780  1.00  0.00     0.000 C 
ENDROOT
BRANCH   1   2
ATOM      2  C   UNL     1       3.435  19.093   8.130  1.00  0.00     0.000 C 
BRANCH   2   3
ATOM      3  C   UNL     1       3.594  20.510   8.722  1.00  0.00     0.000 C 
BRANCH   3   4
ATOM      4  C   UNL     1       3.108  20.660  10.174  1.00  0.00     0.000 C 
BRANCH   4   5
ATOM      5  C   UNL     1       1.923  19.739  10.498  1.00  0.00     0.000 C 
BRANCH   5   6
ATOM      6  C   UNL     1       2.142  19.007  11.829  1.00  0.00     0.000 C 
BRANCH   6   7
ATOM      7  C   UNL     1       3.232  17.931  11.689  1.00  0.00     0.000 C 
BRANCH   7   8
ATOM      8  C   UNL     1       4.438  18.186  12.618  1.00  0.00     0.000 C 
BRANCH   8   9
ATOM      9  C   UNL     1       5.793  17.771  12.013  1.00  0.00     0.000 C 
BRANCH   9  10
ATOM     10  C   UNL     1       6.046  18.260  10.576  1.00  0.00     0.000 C 
BRANCH  10  11
ATOM     11  C   UNL     1       6.801  17.227   9.720  1.00  0.00     0.000 C 
BRANCH  11  12
ATOM     12  C   UNL     1       5.939  16.655   8.585  1.00  0.00     0.000 C 
BRANCH  12  13
ATOM     13  C   UNL     1       4.816  15.738   9.096  1.00  0.00     0.006 C 
BRANCH  13  14
ATOM     14  C   UNL     1       5.206  14.263   8.950  1.00  0.00     0.053 C 
BRANCH  14  15
ATOM     15  C   UNL     1       4.871  13.754   7.583  1.00  0.00     0.041 C 
ATOM     16  O   UNL     1       5.699  13.048   6.948  1.00  0.00    -0.550 OA
ATOM     17  O   UNL     1       3.638  14.050   7.012  1.00  0.00    -0.550 OA
ENDBRANCH  14  15
ENDBRANCH  13  14
ENDBRANCH  12  13
ENDBRANCH  11  12
ENDBRANCH  10  11
ENDBRANCH   9  10
ENDBRANCH   8   9
ENDBRANCH   7   8
ENDBRANCH   6   7
ENDBRANCH   5   6
ENDBRANCH   4   5
ENDBRANCH   3   4
ENDBRANCH   2   3
ENDBRANCH   1   2
BRANCH   1  18
ATOM     18  C   UNL     1       1.676  20.161   6.539  1.00  0.00     0.000 C 
BRANCH  18  19
ATOM     19  C   UNL     1       1.879  20.946   5.226  1.00  0.00     0.000 C 
BRANCH  19  20
ATOM     20  C   UNL     1       3.261  20.756   4.567  1.00  0.00     0.000 C 
BRANCH  20  21
ATOM     21  C   UNL     1       4.341  21.756   5.017  1.00  0.00     0.000 C 
BRANCH  21  22
ATOM     22  C   UNL     1       5.582  21.138   5.694  1.00  0.00     0.000 C 
BRANCH  22  23
ATOM     23  C   UNL     1       6.279  20.037   4.867  1.00  0.00     0.000 C 
BRANCH  23  24
ATOM     24  C   UNL     1       6.216  18.650   5.533  1.00  0.00    -0.000 C 
BRANCH  24  25
ATOM     25  C   UNL     1       5.157  17.742   4.887  1.00  0.00    -0.000 C 
BRANCH  25  26
ATOM     26  C   UNL     1       5.529  16.255   4.991  1.00  0.00    -0.000 C 
BRANCH  26  27
ATOM     27  C   UNL     1       5.340  15.542   3.644  1.00  0.00    -0.000 C 
BRANCH  27  28
ATOM     28  C   UNL     1       6.040  16.268   2.482  1.00  0.00    -0.000 C 
BRANCH  28  29
ATOM     29  C   UNL     1       5.324  16.160   1.120  1.00  0.00    -0.000 C 
BRANCH  29  30
ATOM     30  C   UNL     1       5.019  17.505   0.437  1.00  0.00    -0.000 C 
BRANCH  30  31
ATOM     31  C   UNL     1       6.009  18.610   0.830  1.00  0.00    -0.003 C 
ATOM     32  C   UNL     1       5.280  19.809   1.434  1.00  0.00     0.004 C 
ENDBRANCH  30  31
ENDBRANCH  29  30
ENDBRANCH  28  29
ENDBRANCH  27  28
ENDBRANCH  26  27
ENDBRANCH  25  26
ENDBRANCH  24  25
ENDBRANCH  23  24
ENDBRANCH  22  23
ENDBRANCH  21  22
ENDBRANCH  20  21
ENDBRANCH  19  20
ENDBRANCH  18  19
ENDBRANCH   1  18
TORSDOF 28
ENDMDL
MODEL 9
REMARK VINA RESULT:    -2.192      3.490      7.385
REMARK INTER + INTRA:         -12.108
REMARK INTER:                  -6.393
REMARK INTRA:                  -5.715
REMARK UNBOUND:                -6.329
REMARK SMILES CCCCCCCCCCCCCCCCCCCCCCCCCCCCCC(=O)[O-]
REMARK SMILES IDX 16 1 17 2 18 3 19 4 20 5 21 6 22 7 23 8 24 9 25 10 26 11
REMARK SMILES IDX 27 12 28 13 29 14 30 15 31 16 32 17 15 18 14 19 13 20 12 21
REMARK SMILES IDX 11 22 10 23 9 24 8 25 7 26 6 27 5 28 4 29 3 30 2 31 1 32
REMARK H PARENT
REMARK Flexibility Score: inf
ROOT
ATOM      1  C   UNL     1       1.790  19.746  10.861  1.00  0.00     0.000 C 
ENDROOT
BRANCH   1   2
ATOM      2  C   UNL     1       2.862  18.642  10.770  1.00  0.00     0.000 C 
BRANCH   2   3
ATOM      3  C   UNL     1       3.665  18.400  12.066  1.00  0.00     0.000 C 
BRANCH   3   4
ATOM      4  C   UNL     1       3.772  16.925  12.493  1.00  0.00     0.000 C 
BRANCH   4   5
ATOM      5  C   UNL     1       5.202  16.378  12.373  1.00  0.00     0.000 C 
BRANCH   5   6
ATOM      6  C   UNL     1       6.226  17.395  12.894  1.00  0.00     0.000 C 
BRANCH   6   7
ATOM      7  C   UNL     1       7.511  17.359  12.051  1.00  0.00     0.000 C 
BRANCH   7   8
ATOM      8  C   UNL     1       8.154  15.957  12.009  1.00  0.00     0.000 C 
BRANCH   8   9
ATOM      9  C   UNL     1       8.763  15.587  10.643  1.00  0.00     0.000 C 
BRANCH   9  10
ATOM     10  C   UNL     1       8.414  14.181  10.128  1.00  0.00     0.000 C 
BRANCH  10  11
ATOM     11  C   UNL     1       7.183  13.579  10.830  1.00  0.00     0.000 C 
BRANCH  11  12
ATOM     12  C   UNL     1       6.016  13.324   9.864  1.00  0.00     0.000 C 
BRANCH  12  13
ATOM     13  C   UNL     1       5.546  11.860   9.873  1.00  0.00     0.006 C 
BRANCH  13  14
ATOM     14  C   UNL     1       5.553  11.293  11.298  1.00  0.00     0.053 C 
BRANCH  14  15
ATOM     15  C   UNL     1       4.221  11.481  11.954  1.00  0.00     0.041 C 
ATOM     16  O   UNL     1       4.003  12.496  12.668  1.00  0.00    -0.550 OA
ATOM     17  O   UNL     1       3.214  10.539  11.771  1.00  0.00    -0.550 OA
ENDBRANCH  14  15
ENDBRANCH  13  14
ENDBRANCH  12  13
ENDBRANCH  11  12
ENDBRANCH  10  11
ENDBRANCH   9  10
ENDBRANCH   8   9
ENDBRANCH   7   8
ENDBRANCH   6   7
ENDBRANCH   5   6
ENDBRANCH   4   5
ENDBRANCH   3   4
ENDBRANCH   2   3
ENDBRANCH   1   2
BRANCH   1  18
ATOM     18  C   UNL     1       1.968  20.911   9.867  1.00  0.00     0.000 C 
BRANCH  18  19
ATOM     19  C   UNL     1       0.988  20.902   8.676  1.00  0.00     0.000 C 
BRANCH  19  20
ATOM     20  C   UNL     1       1.619  21.269   7.317  1.00  0.00     0.000 C 
BRANCH  20  21
ATOM     21  C   UNL     1       1.692  20.117   6.299  1.00  0.00     0.000 C 
BRANCH  21  22
ATOM     22  C   UNL     1       2.765  19.045   6.580  1.00  0.00     0.000 C 
BRANCH  22  23
ATOM     23  C   UNL     1       4.058  19.201   5.751  1.00  0.00     0.000 C 
BRANCH  23  24
ATOM     24  C   UNL     1       5.309  19.427   6.619  1.00  0.00    -0.000 C 
BRANCH  24  25
ATOM     25  C   UNL     1       5.034  19.177   8.111  1.00  0.00    -0.000 C 
BRANCH  25  26
ATOM     26  C   UNL     1       6.187  18.422   8.793  1.00  0.00    -0.000 C 
BRANCH  26  27
ATOM     27  C   UNL     1       6.030  16.905   8.622  1.00  0.00    -0.000 C 
BRANCH  27  28
ATOM     28  C   UNL     1       4.568  16.439   8.737  1.00  0.00    -0.000 C 
BRANCH  28  29
ATOM     29  C   UNL     1       4.047  15.624   7.536  1.00  0.00    -0.000 C 
BRANCH  29  30
ATOM     30  C   UNL     1       5.139  15.052   6.615  1.00  0.00    -0.000 C 
BRANCH  30  31
ATOM     31  C   UNL     1       5.118  15.671   5.210  1.00  0.00    -0.003 C 
ATOM     32  C   UNL     1       6.450  16.346   4.889  1.00  0.00     0.004 C 
ENDBRANCH  30  31
ENDBRANCH  29  30
ENDBRANCH  28  29
ENDBRANCH  27  28
ENDBRANCH  26  27
ENDBRANCH  25  26
ENDBRANCH  24  25
ENDBRANCH  23  24
ENDBRANCH  22  23
ENDBRANCH  21  22
ENDBRANCH  20  21
ENDBRANCH  19  20
ENDBRANCH  18  19
ENDBRANCH   1  18
TORSDOF 28
ENDMDL
