MODEL 1
REMARK VINA RESULT:    -5.801      0.000      0.000
REMARK INTER + INTRA:         -16.921
REMARK INTER:                 -15.296
REMARK INTRA:                  -1.625
REMARK UNBOUND:                -1.625
REMARK SMILES CCCCCCCCCCCCCCCCCCCCCCCCCCCCCC(=O)[O-]
REMARK SMILES IDX 16 1 17 2 18 3 19 4 20 5 21 6 22 7 23 8 24 9 25 10 26 11
REMARK SMILES IDX 27 12 28 13 29 14 30 15 31 16 32 17 15 18 14 19 13 20 12 21
REMARK SMILES IDX 11 22 10 23 9 24 8 25 7 26 6 27 5 28 4 29 3 30 2 31 1 32
REMARK H PARENT
REMARK Flexibility Score: inf
ROOT
ATOM      1  C   UNL     1      10.535  21.344  39.090  1.00  0.00     0.000 C 
ENDROOT
BRANCH   1   2
ATOM      2  C   UNL     1      11.538  22.484  38.824  1.00  0.00     0.000 C 
BRANCH   2   3
ATOM      3  C   UNL     1      12.352  22.243  37.539  1.00  0.00     0.000 C 
BRANCH   3   4
ATOM      4  C   UNL     1      11.457  22.279  36.286  1.00  0.00     0.000 C 
BRANCH   4   5
ATOM      5  C   UNL     1      12.252  22.018  34.993  1.00  0.00     0.000 C 
BRANCH   5   6
ATOM      6  C   UNL     1      13.090  20.726  35.029  1.00  0.00     0.000 C 
BRANCH   6   7
ATOM      7  C   UNL     1      14.446  20.881  34.319  1.00  0.00     0.000 C 
BRANCH   7   8
ATOM      8  C   UNL     1      15.392  21.785  35.123  1.00  0.00     0.000 C 
BRANCH   8   9
ATOM      9  C   UNL     1      16.414  22.514  34.233  1.00  0.00     0.000 C 
BRANCH   9  10
ATOM     10  C   UNL     1      17.170  21.561  33.289  1.00  0.00     0.000 C 
BRANCH  10  11
ATOM     11  C   UNL     1      18.398  22.221  32.639  1.00  0.00     0.000 C 
BRANCH  11  12
ATOM     12  C   UNL     1      19.729  21.604  33.110  1.00  0.00     0.000 C 
BRANCH  12  13
ATOM     13  C   UNL     1      20.516  22.530  34.057  1.00  0.00     0.006 C 
BRANCH  13  14
ATOM     14  C   UNL     1      21.678  21.835  34.787  1.00  0.00     0.053 C 
BRANCH  14  15
ATOM     15  C   UNL     1      21.470  21.765  36.268  1.00  0.00     0.041 C 
ATOM     16  O   UNL     1      20.598  22.488  36.819  1.00  0.00    -0.550 OA
ATOM     17  O   UNL     1      22.208  20.875  37.039  1.00  0.00    -0.550 OA
ENDBRANCH  14  15
ENDBRANCH  13  14
ENDBRANCH  12  13
ENDBRANCH  11  12
ENDBRANCH  10  11
ENDBRANCH   9  10
ENDBRANCH   8   9
ENDBRANCH   7   8
ENDBRANCH   6   7
ENDBRANCH   5   6
ENDBRANCH   4   5
ENDBRANCH   3   4
ENDBRANCH   2   3
ENDBRANCH   1   2
BRANCH   1  18
ATOM     18  C   UNL     1      10.140  21.220  40.572  1.00  0.00     0.000 C 
BRANCH  18  19
ATOM     19  C   UNL     1       9.417  22.445  41.157  1.00  0.00     0.000 C 
BRANCH  19  20
ATOM     20  C   UNL     1      10.124  23.033  42.388  1.00  0.00     0.000 C 
BRANCH  20  21
ATOM     21  C   UNL     1      11.449  22.303  42.645  1.00  0.00     0.000 C 
BRANCH  21  22
ATOM     22  C   UNL     1      12.517  23.254  43.207  1.00  0.00     0.000 C 
BRANCH  22  23
ATOM     23  C   UNL     1      12.237  23.625  44.680  1.00  0.00     0.000 C 
BRANCH  23  24
ATOM     24  C   UNL     1      12.478  22.469  45.664  1.00  0.00    -0.000 C 
BRANCH  24  25
ATOM     25  C   UNL     1      13.024  22.938  47.026  1.00  0.00    -0.000 C 
BRANCH  25  26
ATOM     26  C   UNL     1      14.327  23.738  46.900  1.00  0.00    -0.000 C 
BRANCH  26  27
ATOM     27  C   UNL     1      15.571  22.840  46.766  1.00  0.00    -0.000 C 
BRANCH  27  28
ATOM     28  C   UNL     1      16.563  23.033  47.933  1.00  0.00    -0.000 C 
BRANCH  28  29
ATOM     29  C   UNL     1      18.047  23.010  47.510  1.00  0.00    -0.000 C 
BRANCH  29  30
ATOM     30  C   UNL     1      19.011  22.372  48.526  1.00  0.00    -0.000 C 
BRANCH  30  31
ATOM     31  C   UNL     1      20.194  23.284  48.883  1.00  0.00    -0.003 C 
ATOM     32  C   UNL     1      21.011  23.629  47.640  1.00  0.00     0.004 C 
ENDBRANCH  30  31
ENDBRANCH  29  30
ENDBRANCH  28  29
ENDBRANCH  27  28
ENDBRANCH  26  27
ENDBRANCH  25  26
ENDBRANCH  24  25
ENDBRANCH  23  24
ENDBRANCH  22  23
ENDBRANCH  21  22
ENDBRANCH  20  21
ENDBRANCH  19  20
ENDBRANCH  18  19
ENDBRANCH   1  18
TORSDOF 28
ENDMDL
MODEL 2
REMARK VINA RESULT:    -5.770      1.479      4.119
REMARK INTER + INTRA:         -16.838
REMARK INTER:                 -15.217
REMARK INTRA:                  -1.621
REMARK UNBOUND:                -1.625
REMARK SMILES CCCCCCCCCCCCCCCCCCCCCCCCCCCCCC(=O)[O-]
REMARK SMILES IDX 16 1 17 2 18 3 19 4 20 5 21 6 22 7 23 8 24 9 25 10 26 11
REMARK SMILES IDX 27 12 28 13 29 14 30 15 31 16 32 17 15 18 14 19 13 20 12 21
REMARK SMILES IDX 11 22 10 23 9 24 8 25 7 26 6 27 5 28 4 29 3 30 2 31 1 32
REMARK H PARENT
REMARK Flexibility Score: inf
ROOT
ATOM      1  C   UNL     1      12.322  21.793  35.143  1.00  0.00     0.000 C 
ENDROOT
BRANCH   1   2
ATOM      2  C   UNL     1      12.919  23.046  34.472  1.00  0.00     0.000 C 
BRANCH   2   3
ATOM      3  C   UNL     1      14.453  22.959  34.360  1.00  0.00     0.000 C 
BRANCH   3   4
ATOM      4  C   UNL     1      15.001  21.690  35.039  1.00  0.00     0.000 C 
BRANCH   4   5
ATOM      5  C   UNL     1      16.527  21.556  34.882  1.00  0.00     0.000 C 
BRANCH   5   6
ATOM      6  C   UNL     1      17.049  21.986  33.498  1.00  0.00     0.000 C 
BRANCH   6   7
ATOM      7  C   UNL     1      18.523  22.425  33.532  1.00  0.00     0.000 C 
BRANCH   7   8
ATOM      8  C   UNL     1      19.388  21.529  32.633  1.00  0.00     0.000 C 
BRANCH   8   9
ATOM      9  C   UNL     1      20.334  20.620  33.436  1.00  0.00     0.000 C 
BRANCH   9  10
ATOM     10  C   UNL     1      20.754  21.237  34.782  1.00  0.00     0.000 C 
BRANCH  10  11
ATOM     11  C   UNL     1      22.132  21.920  34.718  1.00  0.00     0.000 C 
BRANCH  11  12
ATOM     12  C   UNL     1      22.727  22.197  36.111  1.00  0.00     0.000 C 
BRANCH  12  13
ATOM     13  C   UNL     1      24.249  21.961  36.170  1.00  0.00     0.006 C 
BRANCH  13  14
ATOM     14  C   UNL     1      24.711  21.163  37.401  1.00  0.00     0.053 C 
BRANCH  14  15
ATOM     15  C   UNL     1      24.020  21.591  38.658  1.00  0.00     0.041 C 
ATOM     16  O   UNL     1      24.283  22.710  39.174  1.00  0.00    -0.550 OA
ATOM     17  O   UNL     1      23.059  20.776  39.244  1.00  0.00    -0.550 OA
ENDBRANCH  14  15
ENDBRANCH  13  14
ENDBRANCH  12  13
ENDBRANCH  11  12
ENDBRANCH  10  11
ENDBRANCH   9  10
ENDBRANCH   8   9
ENDBRANCH   7   8
ENDBRANCH   6   7
ENDBRANCH   5   6
ENDBRANCH   4   5
ENDBRANCH   3   4
ENDBRANCH   2   3
ENDBRANCH   1   2
BRANCH   1  18
ATOM     18  C   UNL     1      11.595  22.105  36.464  1.00  0.00     0.000 C 
BRANCH  18  19
ATOM     19  C   UNL     1      12.513  22.479  37.639  1.00  0.00     0.000 C 
BRANCH  19  20
ATOM     20  C   UNL     1      11.766  22.584  38.978  1.00  0.00     0.000 C 
BRANCH  20  21
ATOM     21  C   UNL     1      10.729  21.460  39.104  1.00  0.00     0.000 C 
BRANCH  21  22
ATOM     22  C   UNL     1      10.346  21.208  40.571  1.00  0.00     0.000 C 
BRANCH  22  23
ATOM     23  C   UNL     1       9.257  22.190  41.056  1.00  0.00     0.000 C 
BRANCH  23  24
ATOM     24  C   UNL     1       9.630  22.936  42.348  1.00  0.00    -0.000 C 
BRANCH  24  25
ATOM     25  C   UNL     1      11.151  23.022  42.579  1.00  0.00    -0.000 C 
BRANCH  25  26
ATOM     26  C   UNL     1      11.562  22.593  43.994  1.00  0.00    -0.000 C 
BRANCH  26  27
ATOM     27  C   UNL     1      12.804  23.342  44.511  1.00  0.00    -0.000 C 
BRANCH  27  28
ATOM     28  C   UNL     1      13.888  22.383  45.046  1.00  0.00    -0.000 C 
BRANCH  28  29
ATOM     29  C   UNL     1      14.494  22.808  46.400  1.00  0.00    -0.000 C 
BRANCH  29  30
ATOM     30  C   UNL     1      16.024  22.983  46.410  1.00  0.00    -0.000 C 
BRANCH  30  31
ATOM     31  C   UNL     1      16.610  23.040  47.829  1.00  0.00    -0.003 C 
ATOM     32  C   UNL     1      18.120  22.821  47.804  1.00  0.00     0.004 C 
ENDBRANCH  30  31
ENDBRANCH  29  30
ENDBRANCH  28  29
ENDBRANCH  27  28
ENDBRANCH  26  27
ENDBRANCH  25  26
ENDBRANCH  24  25
ENDBRANCH  23  24
ENDBRANCH  22  23
ENDBRANCH  21  22
ENDBRANCH  20  21
ENDBRANCH  19  20
ENDBRANCH  18  19
ENDBRANCH   1  18
TORSDOF 28
ENDMDL
MODEL 3
REMARK VINA RESULT:    -5.764      2.759     10.939
REMARK INTER + INTRA:         -16.823
REMARK INTER:                 -14.646
REMARK INTRA:                  -2.176
REMARK UNBOUND:                -1.625
REMARK SMILES CCCCCCCCCCCCCCCCCCCCCCCCCCCCCC(=O)[O-]
REMARK SMILES IDX 16 1 17 2 18 3 19 4 20 5 21 6 22 7 23 8 24 9 25 10 26 11
REMARK SMILES IDX 27 12 28 13 29 14 30 15 31 16 32 17 15 18 14 19 13 20 12 21
REMARK SMILES IDX 11 22 10 23 9 24 8 25 7 26 6 27 5 28 4 29 3 30 2 31 1 32
REMARK H PARENT
REMARK Flexibility Score: inf
ROOT
ATOM      1  C   UNL     1      11.162  22.545  38.851  1.00  0.00     0.000 C 
ENDROOT
BRANCH   1   2
ATOM      2  C   UNL     1      10.976  21.276  39.706  1.00  0.00     0.000 C 
BRANCH   2   3
ATOM      3  C   UNL     1       9.697  21.344  40.561  1.00  0.00     0.000 C 
BRANCH   3   4
ATOM      4  C   UNL     1       9.437  22.770  41.081  1.00  0.00     0.000 C 
BRANCH   4   5
ATOM      5  C   UNL     1       9.876  22.948  42.545  1.00  0.00     0.000 C 
BRANCH   5   6
ATOM      6  C   UNL     1      11.344  23.385  42.705  1.00  0.00     0.000 C 
BRANCH   6   7
ATOM      7  C   UNL     1      12.226  22.282  43.317  1.00  0.00     0.000 C 
BRANCH   7   8
ATOM      8  C   UNL     1      12.263  22.390  44.849  1.00  0.00     0.000 C 
BRANCH   8   9
ATOM      9  C   UNL     1      12.114  23.838  45.346  1.00  0.00     0.000 C 
BRANCH   9  10
ATOM     10  C   UNL     1      12.850  24.094  46.673  1.00  0.00     0.000 C 
BRANCH  10  11
ATOM     11  C   UNL     1      13.722  22.902  47.107  1.00  0.00     0.000 C 
BRANCH  11  12
ATOM     12  C   UNL     1      15.175  23.306  47.420  1.00  0.00     0.000 C 
BRANCH  12  13
ATOM     13  C   UNL     1      16.042  23.453  46.154  1.00  0.00     0.006 C 
BRANCH  13  14
ATOM     14  C   UNL     1      16.698  22.141  45.692  1.00  0.00     0.053 C 
BRANCH  14  15
ATOM     15  C   UNL     1      15.900  21.436  44.639  1.00  0.00     0.041 C 
ATOM     16  O   UNL     1      15.727  21.971  43.513  1.00  0.00    -0.550 OA
ATOM     17  O   UNL     1      15.378  20.171  44.885  1.00  0.00    -0.550 OA
ENDBRANCH  14  15
ENDBRANCH  13  14
ENDBRANCH  12  13
ENDBRANCH  11  12
ENDBRANCH  10  11
ENDBRANCH   9  10
ENDBRANCH   8   9
ENDBRANCH   7   8
ENDBRANCH   6   7
ENDBRANCH   5   6
ENDBRANCH   4   5
ENDBRANCH   3   4
ENDBRANCH   2   3
ENDBRANCH   1   2
BRANCH   1  18
ATOM     18  C   UNL     1      11.349  22.242  37.353  1.00  0.00     0.000 C 
BRANCH  18  19
ATOM     19  C   UNL     1      12.776  21.843  36.944  1.00  0.00     0.000 C 
BRANCH  19  20
ATOM     20  C   UNL     1      12.866  21.316  35.503  1.00  0.00     0.000 C 
BRANCH  20  21
ATOM     21  C   UNL     1      13.375  22.415  34.561  1.00  0.00     0.000 C 
BRANCH  21  22
ATOM     22  C   UNL     1      14.877  22.675  34.757  1.00  0.00     0.000 C 
BRANCH  22  23
ATOM     23  C   UNL     1      15.739  21.563  34.120  1.00  0.00     0.000 C 
BRANCH  23  24
ATOM     24  C   UNL     1      17.233  21.916  34.028  1.00  0.00    -0.000 C 
BRANCH  24  25
ATOM     25  C   UNL     1      17.752  21.976  32.579  1.00  0.00    -0.000 C 
BRANCH  25  26
ATOM     26  C   UNL     1      19.276  21.823  32.487  1.00  0.00    -0.000 C 
BRANCH  26  27
ATOM     27  C   UNL     1      19.829  20.745  33.437  1.00  0.00    -0.000 C 
BRANCH  27  28
ATOM     28  C   UNL     1      21.157  21.170  34.098  1.00  0.00    -0.000 C 
BRANCH  28  29
ATOM     29  C   UNL     1      20.998  22.232  35.207  1.00  0.00    -0.000 C 
BRANCH  29  30
ATOM     30  C   UNL     1      22.091  22.219  36.291  1.00  0.00    -0.000 C 
BRANCH  30  31
ATOM     31  C   UNL     1      23.485  21.896  35.734  1.00  0.00    -0.003 C 
ATOM     32  C   UNL     1      24.578  22.456  36.639  1.00  0.00     0.004 C 
ENDBRANCH  30  31
ENDBRANCH  29  30
ENDBRANCH  28  29
ENDBRANCH  27  28
ENDBRANCH  26  27
ENDBRANCH  25  26
ENDBRANCH  24  25
ENDBRANCH  23  24
ENDBRANCH  22  23
ENDBRANCH  21  22
ENDBRANCH  20  21
ENDBRANCH  19  20
ENDBRANCH  18  19
ENDBRANCH   1  18
TORSDOF 28
ENDMDL
MODEL 4
REMARK VINA RESULT:    -5.759      3.140     10.936
REMARK INTER + INTRA:         -16.811
REMARK INTER:                 -15.082
REMARK INTRA:                  -1.729
REMARK UNBOUND:                -1.625
REMARK SMILES CCCCCCCCCCCCCCCCCCCCCCCCCCCCCC(=O)[O-]
REMARK SMILES IDX 16 1 17 2 18 3 19 4 20 5 21 6 22 7 23 8 24 9 25 10 26 11
REMARK SMILES IDX 27 12 28 13 29 14 30 15 31 16 32 17 15 18 14 19 13 20 12 21
REMARK SMILES IDX 11 22 10 23 9 24 8 25 7 26 6 27 5 28 4 29 3 30 2 31 1 32
REMARK H PARENT
REMARK Flexibility Score: inf
ROOT
ATOM      1  C   UNL     1      12.831  22.582  34.385  1.00  0.00     0.000 C 
ENDROOT
BRANCH   1   2
ATOM      2  C   UNL     1      11.994  21.766  35.392  1.00  0.00     0.000 C 
BRANCH   2   3
ATOM      3  C   UNL     1      12.205  22.254  36.838  1.00  0.00     0.000 C 
BRANCH   3   4
ATOM      4  C   UNL     1      10.914  22.135  37.670  1.00  0.00     0.000 C 
BRANCH   4   5
ATOM      5  C   UNL     1      11.082  22.702  39.092  1.00  0.00     0.000 C 
BRANCH   5   6
ATOM      6  C   UNL     1      10.526  21.785  40.197  1.00  0.00     0.000 C 
BRANCH   6   7
ATOM      7  C   UNL     1       9.336  22.412  40.944  1.00  0.00     0.000 C 
BRANCH   7   8
ATOM      8  C   UNL     1       9.776  22.992  42.297  1.00  0.00     0.000 C 
BRANCH   8   9
ATOM      9  C   UNL     1      11.154  22.474  42.744  1.00  0.00     0.000 C 
BRANCH   9  10
ATOM     10  C   UNL     1      11.495  22.861  44.194  1.00  0.00     0.000 C 
BRANCH  10  11
ATOM     11  C   UNL     1      12.763  22.160  44.713  1.00  0.00     0.000 C 
BRANCH  11  12
ATOM     12  C   UNL     1      12.714  21.876  46.225  1.00  0.00     0.000 C 
BRANCH  12  13
ATOM     13  C   UNL     1      13.387  22.979  47.064  1.00  0.00     0.006 C 
BRANCH  13  14
ATOM     14  C   UNL     1      14.606  23.625  46.384  1.00  0.00     0.053 C 
BRANCH  14  15
ATOM     15  C   UNL     1      15.898  22.981  46.783  1.00  0.00     0.041 C 
ATOM     16  O   UNL     1      16.524  22.258  45.964  1.00  0.00    -0.550 OA
ATOM     17  O   UNL     1      16.434  23.208  48.045  1.00  0.00    -0.550 OA
ENDBRANCH  14  15
ENDBRANCH  13  14
ENDBRANCH  12  13
ENDBRANCH  11  12
ENDBRANCH  10  11
ENDBRANCH   9  10
ENDBRANCH   8   9
ENDBRANCH   7   8
ENDBRANCH   6   7
ENDBRANCH   5   6
ENDBRANCH   4   5
ENDBRANCH   3   4
ENDBRANCH   2   3
ENDBRANCH   1   2
BRANCH   1  18
ATOM     18  C   UNL     1      13.749  23.616  35.061  1.00  0.00     0.000 C 
BRANCH  18  19
ATOM     19  C   UNL     1      15.186  23.136  35.324  1.00  0.00     0.000 C 
BRANCH  19  20
ATOM     20  C   UNL     1      15.578  21.914  34.477  1.00  0.00     0.000 C 
BRANCH  20  21
ATOM     21  C   UNL     1      17.105  21.799  34.377  1.00  0.00     0.000 C 
BRANCH  21  22
ATOM     22  C   UNL     1      17.607  22.165  32.972  1.00  0.00     0.000 C 
BRANCH  22  23
ATOM     23  C   UNL     1      19.021  21.606  32.704  1.00  0.00     0.000 C 
BRANCH  23  24
ATOM     24  C   UNL     1      19.522  20.646  33.796  1.00  0.00    -0.000 C 
BRANCH  24  25
ATOM     25  C   UNL     1      21.045  20.724  34.017  1.00  0.00    -0.000 C 
BRANCH  25  26
ATOM     26  C   UNL     1      21.452  21.874  34.948  1.00  0.00    -0.000 C 
BRANCH  26  27
ATOM     27  C   UNL     1      20.711  21.844  36.298  1.00  0.00    -0.000 C 
BRANCH  27  28
ATOM     28  C   UNL     1      21.648  21.493  37.473  1.00  0.00    -0.000 C 
BRANCH  28  29
ATOM     29  C   UNL     1      23.056  21.034  37.042  1.00  0.00    -0.000 C 
BRANCH  29  30
ATOM     30  C   UNL     1      24.220  21.623  37.860  1.00  0.00    -0.000 C 
BRANCH  30  31
ATOM     31  C   UNL     1      24.492  23.100  37.536  1.00  0.00    -0.003 C 
ATOM     32  C   UNL     1      25.769  23.252  36.714  1.00  0.00     0.004 C 
ENDBRANCH  30  31
ENDBRANCH  29  30
ENDBRANCH  28  29
ENDBRANCH  27  28
ENDBRANCH  26  27
ENDBRANCH  25  26
ENDBRANCH  24  25
ENDBRANCH  23  24
ENDBRANCH  22  23
ENDBRANCH  21  22
ENDBRANCH  20  21
ENDBRANCH  19  20
ENDBRANCH  18  19
ENDBRANCH   1  18
TORSDOF 28
ENDMDL
MODEL 5
REMARK VINA RESULT:    -5.753      2.491      4.522
REMARK INTER + INTRA:         -16.795
REMARK INTER:                 -12.656
REMARK INTRA:                  -4.138
REMARK UNBOUND:                -1.625
REMARK SMILES CCCCCCCCCCCCCCCCCCCCCCCCCCCCCC(=O)[O-]
REMARK SMILES IDX 16 1 17 2 18 3 19 4 20 5 21 6 22 7 23 8 24 9 25 10 26 11
REMARK SMILES IDX 27 12 28 13 29 14 30 15 31 16 32 17 15 18 14 19 13 20 12 21
REMARK SMILES IDX 11 22 10 23 9 24 8 25 7 26 6 27 5 28 4 29 3 30 2 31 1 32
REMARK H PARENT
REMARK Flexibility Score: inf
ROOT
ATOM      1  C   UNL     1      14.869  20.098  36.693  1.00  0.00     0.000 C 
ENDROOT
BRANCH   1   2
ATOM      2  C   UNL     1      13.473  20.452  36.140  1.00  0.00     0.000 C 
BRANCH   2   3
ATOM      3  C   UNL     1      13.506  20.697  34.620  1.00  0.00     0.000 C 
BRANCH   3   4
ATOM      4  C   UNL     1      13.045  22.123  34.265  1.00  0.00     0.000 C 
BRANCH   4   5
ATOM      5  C   UNL     1      12.991  23.044  35.497  1.00  0.00     0.000 C 
BRANCH   5   6
ATOM      6  C   UNL     1      14.125  24.086  35.543  1.00  0.00     0.000 C 
BRANCH   6   7
ATOM      7  C   UNL     1      15.220  23.724  36.562  1.00  0.00     0.000 C 
BRANCH   7   8
ATOM      8  C   UNL     1      16.618  23.826  35.932  1.00  0.00     0.000 C 
BRANCH   8   9
ATOM      9  C   UNL     1      17.151  22.466  35.449  1.00  0.00     0.000 C 
BRANCH   9  10
ATOM     10  C   UNL     1      16.717  22.131  34.010  1.00  0.00     0.000 C 
BRANCH  10  11
ATOM     11  C   UNL     1      17.911  21.929  33.062  1.00  0.00     0.000 C 
BRANCH  11  12
ATOM     12  C   UNL     1      19.042  22.947  33.298  1.00  0.00     0.000 C 
BRANCH  12  13
ATOM     13  C   UNL     1      20.440  22.298  33.305  1.00  0.00     0.006 C 
BRANCH  13  14
ATOM     14  C   UNL     1      20.611  21.195  34.363  1.00  0.00     0.053 C 
BRANCH  14  15
ATOM     15  C   UNL     1      21.294  21.684  35.602  1.00  0.00     0.041 C 
ATOM     16  O   UNL     1      20.705  21.627  36.713  1.00  0.00    -0.550 OA
ATOM     17  O   UNL     1      22.596  22.168  35.541  1.00  0.00    -0.550 OA
ENDBRANCH  14  15
ENDBRANCH  13  14
ENDBRANCH  12  13
ENDBRANCH  11  12
ENDBRANCH  10  11
ENDBRANCH   9  10
ENDBRANCH   8   9
ENDBRANCH   7   8
ENDBRANCH   6   7
ENDBRANCH   5   6
ENDBRANCH   4   5
ENDBRANCH   3   4
ENDBRANCH   2   3
ENDBRANCH   1   2
BRANCH   1  18
ATOM     18  C   UNL     1      15.027  20.431  38.188  1.00  0.00     0.000 C 
BRANCH  18  19
ATOM     19  C   UNL     1      13.709  20.666  38.945  1.00  0.00     0.000 C 
BRANCH  19  20
ATOM     20  C   UNL     1      13.697  21.979  39.742  1.00  0.00     0.000 C 
BRANCH  20  21
ATOM     21  C   UNL     1      12.640  22.938  39.181  1.00  0.00     0.000 C 
BRANCH  21  22
ATOM     22  C   UNL     1      11.540  22.181  38.420  1.00  0.00     0.000 C 
BRANCH  22  23
ATOM     23  C   UNL     1      10.308  21.910  39.311  1.00  0.00     0.000 C 
BRANCH  23  24
ATOM     24  C   UNL     1       9.891  23.115  40.170  1.00  0.00    -0.000 C 
BRANCH  24  25
ATOM     25  C   UNL     1       9.162  22.710  41.465  1.00  0.00    -0.000 C 
BRANCH  25  26
ATOM     26  C   UNL     1       9.990  22.990  42.726  1.00  0.00    -0.000 C 
BRANCH  26  27
ATOM     27  C   UNL     1      11.391  22.351  42.677  1.00  0.00    -0.000 C 
BRANCH  27  28
ATOM     28  C   UNL     1      12.442  23.183  43.442  1.00  0.00    -0.000 C 
BRANCH  28  29
ATOM     29  C   UNL     1      13.209  22.390  44.522  1.00  0.00    -0.000 C 
BRANCH  29  30
ATOM     30  C   UNL     1      12.476  22.229  45.866  1.00  0.00    -0.000 C 
BRANCH  30  31
ATOM     31  C   UNL     1      12.552  23.488  46.743  1.00  0.00    -0.003 C 
ATOM     32  C   UNL     1      13.467  23.262  47.944  1.00  0.00     0.004 C 
ENDBRANCH  30  31
ENDBRANCH  29  30
ENDBRANCH  28  29
ENDBRANCH  27  28
ENDBRANCH  26  27
ENDBRANCH  25  26
ENDBRANCH  24  25
ENDBRANCH  23  24
ENDBRANCH  22  23
ENDBRANCH  21  22
ENDBRANCH  20  21
ENDBRANCH  19  20
ENDBRANCH  18  19
ENDBRANCH   1  18
TORSDOF 28
ENDMDL
MODEL 6
REMARK VINA RESULT:    -5.677      1.208      2.493
REMARK INTER + INTRA:         -16.594
REMARK INTER:                 -14.803
REMARK INTRA:                  -1.790
REMARK UNBOUND:                -1.625
REMARK SMILES CCCCCCCCCCCCCCCCCCCCCCCCCCCCCC(=O)[O-]
REMARK SMILES IDX 16 1 17 2 18 3 19 4 20 5 21 6 22 7 23 8 24 9 25 10 26 11
REMARK SMILES IDX 27 12 28 13 29 14 30 15 31 16 32 17 15 18 14 19 13 20 12 21
REMARK SMILES IDX 11 22 10 23 9 24 8 25 7 26 6 27 5 28 4 29 3 30 2 31 1 32
REMARK H PARENT
REMARK Flexibility Score: inf
ROOT
ATOM      1  C   UNL     1       9.349  22.391  41.184  1.00  0.00     0.000 C 
ENDROOT
BRANCH   1   2
ATOM      2  C   UNL     1      10.134  21.286  40.448  1.00  0.00     0.000 C 
BRANCH   2   3
ATOM      3  C   UNL     1      10.631  21.758  39.069  1.00  0.00     0.000 C 
BRANCH   3   4
ATOM      4  C   UNL     1      12.169  21.790  39.000  1.00  0.00     0.000 C 
BRANCH   4   5
ATOM      5  C   UNL     1      12.691  21.706  37.555  1.00  0.00     0.000 C 
BRANCH   5   6
ATOM      6  C   UNL     1      11.683  22.202  36.501  1.00  0.00     0.000 C 
BRANCH   6   7
ATOM      7  C   UNL     1      12.084  21.810  35.068  1.00  0.00     0.000 C 
BRANCH   7   8
ATOM      8  C   UNL     1      12.751  22.986  34.338  1.00  0.00     0.000 C 
BRANCH   8   9
ATOM      9  C   UNL     1      14.281  22.991  34.499  1.00  0.00     0.000 C 
BRANCH   9  10
ATOM     10  C   UNL     1      14.890  21.578  34.463  1.00  0.00     0.000 C 
BRANCH  10  11
ATOM     11  C   UNL     1      16.337  21.542  34.985  1.00  0.00     0.000 C 
BRANCH  11  12
ATOM     12  C   UNL     1      17.382  21.578  33.854  1.00  0.00     0.000 C 
BRANCH  12  13
ATOM     13  C   UNL     1      18.462  22.657  34.071  1.00  0.00     0.006 C 
BRANCH  13  14
ATOM     14  C   UNL     1      19.859  22.251  33.571  1.00  0.00     0.053 C 
BRANCH  14  15
ATOM     15  C   UNL     1      20.704  21.646  34.649  1.00  0.00     0.041 C 
ATOM     16  O   UNL     1      20.197  20.839  35.472  1.00  0.00    -0.550 OA
ATOM     17  O   UNL     1      22.060  21.941  34.726  1.00  0.00    -0.550 OA
ENDBRANCH  14  15
ENDBRANCH  13  14
ENDBRANCH  12  13
ENDBRANCH  11  12
ENDBRANCH  10  11
ENDBRANCH   9  10
ENDBRANCH   8   9
ENDBRANCH   7   8
ENDBRANCH   6   7
ENDBRANCH   5   6
ENDBRANCH   4   5
ENDBRANCH   3   4
ENDBRANCH   2   3
ENDBRANCH   1   2
BRANCH   1  18
ATOM     18  C   UNL     1      10.132  23.009  42.356  1.00  0.00     0.000 C 
BRANCH  18  19
ATOM     19  C   UNL     1      11.475  22.329  42.670  1.00  0.00     0.000 C 
BRANCH  19  20
ATOM     20  C   UNL     1      12.358  23.149  43.625  1.00  0.00     0.000 C 
BRANCH  20  21
ATOM     21  C   UNL     1      12.293  22.571  45.045  1.00  0.00     0.000 C 
BRANCH  21  22
ATOM     22  C   UNL     1      12.367  23.678  46.108  1.00  0.00     0.000 C 
BRANCH  22  23
ATOM     23  C   UNL     1      13.312  23.297  47.268  1.00  0.00     0.000 C 
BRANCH  23  24
ATOM     24  C   UNL     1      14.803  23.455  46.928  1.00  0.00    -0.000 C 
BRANCH  24  25
ATOM     25  C   UNL     1      15.389  22.234  46.195  1.00  0.00    -0.000 C 
BRANCH  25  26
ATOM     26  C   UNL     1      16.597  22.591  45.319  1.00  0.00    -0.000 C 
BRANCH  26  27
ATOM     27  C   UNL     1      17.835  22.997  46.140  1.00  0.00    -0.000 C 
BRANCH  27  28
ATOM     28  C   UNL     1      18.247  24.464  45.893  1.00  0.00    -0.000 C 
BRANCH  28  29
ATOM     29  C   UNL     1      19.163  25.054  46.986  1.00  0.00    -0.000 C 
BRANCH  29  30
ATOM     30  C   UNL     1      18.936  24.502  48.405  1.00  0.00    -0.000 C 
BRANCH  30  31
ATOM     31  C   UNL     1      20.221  23.963  49.050  1.00  0.00    -0.003 C 
ATOM     32  C   UNL     1      21.203  23.478  47.987  1.00  0.00     0.004 C 
ENDBRANCH  30  31
ENDBRANCH  29  30
ENDBRANCH  28  29
ENDBRANCH  27  28
ENDBRANCH  26  27
ENDBRANCH  25  26
ENDBRANCH  24  25
ENDBRANCH  23  24
ENDBRANCH  22  23
ENDBRANCH  21  22
ENDBRANCH  20  21
ENDBRANCH  19  20
ENDBRANCH  18  19
ENDBRANCH   1  18
TORSDOF 28
ENDMDL
MODEL 7
REMARK VINA RESULT:    -5.676      3.107     10.940
REMARK INTER + INTRA:         -16.590
REMARK INTER:                 -14.847
REMARK INTRA:                  -1.744
REMARK UNBOUND:                -1.625
REMARK SMILES CCCCCCCCCCCCCCCCCCCCCCCCCCCCCC(=O)[O-]
REMARK SMILES IDX 16 1 17 2 18 3 19 4 20 5 21 6 22 7 23 8 24 9 25 10 26 11
REMARK SMILES IDX 27 12 28 13 29 14 30 15 31 16 32 17 15 18 14 19 13 20 12 21
REMARK SMILES IDX 11 22 10 23 9 24 8 25 7 26 6 27 5 28 4 29 3 30 2 31 1 32
REMARK H PARENT
REMARK Flexibility Score: inf
ROOT
ATOM      1  C   UNL     1      12.307  22.352  37.836  1.00  0.00     0.000 C 
ENDROOT
BRANCH   1   2
ATOM      2  C   UNL     1      11.230  22.532  38.924  1.00  0.00     0.000 C 
BRANCH   2   3
ATOM      3  C   UNL     1      10.422  21.240  39.149  1.00  0.00     0.000 C 
BRANCH   3   4
ATOM      4  C   UNL     1       9.793  21.200  40.554  1.00  0.00     0.000 C 
BRANCH   4   5
ATOM      5  C   UNL     1       9.348  22.594  41.035  1.00  0.00     0.000 C 
BRANCH   5   6
ATOM      6  C   UNL     1       9.916  22.985  42.413  1.00  0.00     0.000 C 
BRANCH   6   7
ATOM      7  C   UNL     1      11.351  22.476  42.628  1.00  0.00     0.000 C 
BRANCH   7   8
ATOM      8  C   UNL     1      12.118  23.380  43.606  1.00  0.00     0.000 C 
BRANCH   8   9
ATOM      9  C   UNL     1      13.000  22.582  44.582  1.00  0.00     0.000 C 
BRANCH   9  10
ATOM     10  C   UNL     1      12.190  21.914  45.708  1.00  0.00     0.000 C 
BRANCH  10  11
ATOM     11  C   UNL     1      12.982  21.803  47.023  1.00  0.00     0.000 C 
BRANCH  11  12
ATOM     12  C   UNL     1      13.301  23.174  47.646  1.00  0.00     0.000 C 
BRANCH  12  13
ATOM     13  C   UNL     1      14.794  23.341  47.993  1.00  0.00     0.006 C 
BRANCH  13  14
ATOM     14  C   UNL     1      15.748  22.925  46.861  1.00  0.00     0.053 C 
BRANCH  14  15
ATOM     15  C   UNL     1      17.190  23.076  47.236  1.00  0.00     0.041 C 
ATOM     16  O   UNL     1      17.962  23.761  46.515  1.00  0.00    -0.550 OA
ATOM     17  O   UNL     1      17.676  22.494  48.401  1.00  0.00    -0.550 OA
ENDBRANCH  14  15
ENDBRANCH  13  14
ENDBRANCH  12  13
ENDBRANCH  11  12
ENDBRANCH  10  11
ENDBRANCH   9  10
ENDBRANCH   8   9
ENDBRANCH   7   8
ENDBRANCH   6   7
ENDBRANCH   5   6
ENDBRANCH   4   5
ENDBRANCH   3   4
ENDBRANCH   2   3
ENDBRANCH   1   2
BRANCH   1  18
ATOM     18  C   UNL     1      11.716  22.087  36.440  1.00  0.00     0.000 C 
BRANCH  18  19
ATOM     19  C   UNL     1      12.712  22.222  35.276  1.00  0.00     0.000 C 
BRANCH  19  20
ATOM     20  C   UNL     1      13.515  20.938  35.016  1.00  0.00     0.000 C 
BRANCH  20  21
ATOM     21  C   UNL     1      14.961  21.102  35.501  1.00  0.00     0.000 C 
BRANCH  21  22
ATOM     22  C   UNL     1      15.781  21.978  34.541  1.00  0.00     0.000 C 
BRANCH  22  23
ATOM     23  C   UNL     1      17.287  21.949  34.883  1.00  0.00     0.000 C 
BRANCH  23  24
ATOM     24  C   UNL     1      17.773  20.592  35.419  1.00  0.00    -0.000 C 
BRANCH  24  25
ATOM     25  C   UNL     1      19.308  20.464  35.439  1.00  0.00    -0.000 C 
BRANCH  25  26
ATOM     26  C   UNL     1      19.936  20.627  34.048  1.00  0.00    -0.000 C 
BRANCH  26  27
ATOM     27  C   UNL     1      21.142  21.584  34.043  1.00  0.00    -0.000 C 
BRANCH  27  28
ATOM     28  C   UNL     1      21.506  22.077  35.459  1.00  0.00    -0.000 C 
BRANCH  28  29
ATOM     29  C   UNL     1      22.927  21.685  35.917  1.00  0.00    -0.000 C 
BRANCH  29  30
ATOM     30  C   UNL     1      23.724  22.801  36.616  1.00  0.00    -0.000 C 
BRANCH  30  31
ATOM     31  C   UNL     1      25.042  22.302  37.227  1.00  0.00    -0.003 C 
ATOM     32  C   UNL     1      24.943  20.827  37.609  1.00  0.00     0.004 C 
ENDBRANCH  30  31
ENDBRANCH  29  30
ENDBRANCH  28  29
ENDBRANCH  27  28
ENDBRANCH  26  27
ENDBRANCH  25  26
ENDBRANCH  24  25
ENDBRANCH  23  24
ENDBRANCH  22  23
ENDBRANCH  21  22
ENDBRANCH  20  21
ENDBRANCH  19  20
ENDBRANCH  18  19
ENDBRANCH   1  18
TORSDOF 28
ENDMDL
MODEL 8
REMARK VINA RESULT:    -5.663      3.248     10.644
REMARK INTER + INTRA:         -16.558
REMARK INTER:                 -13.438
REMARK INTRA:                  -3.120
REMARK UNBOUND:                -1.625
REMARK SMILES CCCCCCCCCCCCCCCCCCCCCCCCCCCCCC(=O)[O-]
REMARK SMILES IDX 16 1 17 2 18 3 19 4 20 5 21 6 22 7 23 8 24 9 25 10 26 11
REMARK SMILES IDX 27 12 28 13 29 14 30 15 31 16 32 17 15 18 14 19 13 20 12 21
REMARK SMILES IDX 11 22 10 23 9 24 8 25 7 26 6 27 5 28 4 29 3 30 2 31 1 32
REMARK H PARENT
REMARK Flexibility Score: inf
ROOT
ATOM      1  C   UNL     1      12.221  22.736  42.409  1.00  0.00     0.000 C 
ENDROOT
BRANCH   1   2
ATOM      2  C   UNL     1      13.082  22.986  43.664  1.00  0.00     0.000 C 
BRANCH   2   3
ATOM      3  C   UNL     1      13.482  24.467  43.799  1.00  0.00     0.000 C 
BRANCH   3   4
ATOM      4  C   UNL     1      13.527  24.911  45.273  1.00  0.00     0.000 C 
BRANCH   4   5
ATOM      5  C   UNL     1      12.602  24.065  46.167  1.00  0.00     0.000 C 
BRANCH   5   6
ATOM      6  C   UNL     1      13.332  23.363  47.327  1.00  0.00     0.000 C 
BRANCH   6   7
ATOM      7  C   UNL     1      14.606  22.631  46.868  1.00  0.00     0.000 C 
BRANCH   7   8
ATOM      8  C   UNL     1      15.845  23.163  47.604  1.00  0.00     0.000 C 
BRANCH   8   9
ATOM      9  C   UNL     1      17.097  23.194  46.711  1.00  0.00     0.000 C 
BRANCH   9  10
ATOM     10  C   UNL     1      18.248  22.335  47.267  1.00  0.00     0.000 C 
BRANCH  10  11
ATOM     11  C   UNL     1      18.787  22.862  48.608  1.00  0.00     0.000 C 
BRANCH  11  12
ATOM     12  C   UNL     1      20.316  23.052  48.605  1.00  0.00     0.000 C 
BRANCH  12  13
ATOM     13  C   UNL     1      20.813  23.885  47.407  1.00  0.00     0.006 C 
BRANCH  13  14
ATOM     14  C   UNL     1      21.769  23.125  46.472  1.00  0.00     0.053 C 
BRANCH  14  15
ATOM     15  C   UNL     1      21.235  22.997  45.080  1.00  0.00     0.041 C 
ATOM     16  O   UNL     1      21.437  21.944  44.419  1.00  0.00    -0.550 OA
ATOM     17  O   UNL     1      20.480  24.022  44.521  1.00  0.00    -0.550 OA
ENDBRANCH  14  15
ENDBRANCH  13  14
ENDBRANCH  12  13
ENDBRANCH  11  12
ENDBRANCH  10  11
ENDBRANCH   9  10
ENDBRANCH   8   9
ENDBRANCH   7   8
ENDBRANCH   6   7
ENDBRANCH   5   6
ENDBRANCH   4   5
ENDBRANCH   3   4
ENDBRANCH   2   3
ENDBRANCH   1   2
BRANCH   1  18
ATOM     18  C   UNL     1      10.721  22.986  42.647  1.00  0.00     0.000 C 
BRANCH  18  19
ATOM     19  C   UNL     1       9.787  22.421  41.564  1.00  0.00     0.000 C 
BRANCH  19  20
ATOM     20  C   UNL     1      10.331  21.143  40.905  1.00  0.00     0.000 C 
BRANCH  20  21
ATOM     21  C   UNL     1      10.184  21.221  39.380  1.00  0.00     0.000 C 
BRANCH  21  22
ATOM     22  C   UNL     1      11.083  22.315  38.783  1.00  0.00     0.000 C 
BRANCH  22  23
ATOM     23  C   UNL     1      12.519  21.805  38.535  1.00  0.00     0.000 C 
BRANCH  23  24
ATOM     24  C   UNL     1      13.599  22.885  38.721  1.00  0.00    -0.000 C 
BRANCH  24  25
ATOM     25  C   UNL     1      15.026  22.361  38.473  1.00  0.00    -0.000 C 
BRANCH  25  26
ATOM     26  C   UNL     1      15.595  22.806  37.119  1.00  0.00    -0.000 C 
BRANCH  26  27
ATOM     27  C   UNL     1      15.405  24.311  36.854  1.00  0.00    -0.000 C 
BRANCH  27  28
ATOM     28  C   UNL     1      14.257  24.592  35.863  1.00  0.00    -0.000 C 
BRANCH  28  29
ATOM     29  C   UNL     1      13.939  23.416  34.915  1.00  0.00    -0.000 C 
BRANCH  29  30
ATOM     30  C   UNL     1      12.528  22.819  35.058  1.00  0.00    -0.000 C 
BRANCH  30  31
ATOM     31  C   UNL     1      12.420  21.396  34.488  1.00  0.00    -0.003 C 
ATOM     32  C   UNL     1      13.348  20.439  35.232  1.00  0.00     0.004 C 
ENDBRANCH  30  31
ENDBRANCH  29  30
ENDBRANCH  28  29
ENDBRANCH  27  28
ENDBRANCH  26  27
ENDBRANCH  25  26
ENDBRANCH  24  25
ENDBRANCH  23  24
ENDBRANCH  22  23
ENDBRANCH  21  22
ENDBRANCH  20  21
ENDBRANCH  19  20
ENDBRANCH  18  19
ENDBRANCH   1  18
TORSDOF 28
ENDMDL
MODEL 9
REMARK VINA RESULT:    -5.546      3.784     10.558
REMARK INTER + INTRA:         -16.249
REMARK INTER:                 -13.076
REMARK INTRA:                  -3.173
REMARK UNBOUND:                -1.625
REMARK SMILES CCCCCCCCCCCCCCCCCCCCCCCCCCCCCC(=O)[O-]
REMARK SMILES IDX 16 1 17 2 18 3 19 4 20 5 21 6 22 7 23 8 24 9 25 10 26 11
REMARK SMILES IDX 27 12 28 13 29 14 30 15 31 16 32 17 15 18 14 19 13 20 12 21
REMARK SMILES IDX 11 22 10 23 9 24 8 25 7 26 6 27 5 28 4 29 3 30 2 31 1 32
REMARK H PARENT
REMARK Flexibility Score: inf
ROOT
ATOM      1  C   UNL     1      11.354  22.372  42.760  1.00  0.00     0.000 C 
ENDROOT
BRANCH   1   2
ATOM      2  C   UNL     1      12.340  23.381  43.382  1.00  0.00     0.000 C 
BRANCH   2   3
ATOM      3  C   UNL     1      12.208  23.441  44.915  1.00  0.00     0.000 C 
BRANCH   3   4
ATOM      4  C   UNL     1      12.345  22.045  45.552  1.00  0.00     0.000 C 
BRANCH   4   5
ATOM      5  C   UNL     1      12.723  22.117  47.042  1.00  0.00     0.000 C 
BRANCH   5   6
ATOM      6  C   UNL     1      13.537  23.370  47.417  1.00  0.00     0.000 C 
BRANCH   6   7
ATOM      7  C   UNL     1      15.050  23.097  47.471  1.00  0.00     0.000 C 
BRANCH   7   8
ATOM      8  C   UNL     1      15.700  23.304  46.094  1.00  0.00     0.000 C 
BRANCH   8   9
ATOM      9  C   UNL     1      16.437  22.051  45.592  1.00  0.00     0.000 C 
BRANCH   9  10
ATOM     10  C   UNL     1      17.965  22.235  45.547  1.00  0.00     0.000 C 
BRANCH  10  11
ATOM     11  C   UNL     1      18.393  23.438  44.689  1.00  0.00     0.000 C 
BRANCH  11  12
ATOM     12  C   UNL     1      18.265  24.780  45.435  1.00  0.00     0.000 C 
BRANCH  12  13
ATOM     13  C   UNL     1      19.505  25.112  46.287  1.00  0.00     0.006 C 
BRANCH  13  14
ATOM     14  C   UNL     1      19.360  24.738  47.772  1.00  0.00     0.053 C 
BRANCH  14  15
ATOM     15  C   UNL     1      20.259  23.610  48.173  1.00  0.00     0.041 C 
ATOM     16  O   UNL     1      20.020  22.953  49.221  1.00  0.00    -0.550 OA
ATOM     17  O   UNL     1      21.339  23.255  47.374  1.00  0.00    -0.550 OA
ENDBRANCH  14  15
ENDBRANCH  13  14
ENDBRANCH  12  13
ENDBRANCH  11  12
ENDBRANCH  10  11
ENDBRANCH   9  10
ENDBRANCH   8   9
ENDBRANCH   7   8
ENDBRANCH   6   7
ENDBRANCH   5   6
ENDBRANCH   4   5
ENDBRANCH   3   4
ENDBRANCH   2   3
ENDBRANCH   1   2
BRANCH   1  18
ATOM     18  C   UNL     1       9.969  22.980  42.476  1.00  0.00     0.000 C 
BRANCH  18  19
ATOM     19  C   UNL     1       9.401  22.680  41.079  1.00  0.00     0.000 C 
BRANCH  19  20
ATOM     20  C   UNL     1       9.801  21.294  40.549  1.00  0.00     0.000 C 
BRANCH  20  21
ATOM     21  C   UNL     1      10.465  21.417  39.172  1.00  0.00     0.000 C 
BRANCH  21  22
ATOM     22  C   UNL     1      11.122  22.794  38.984  1.00  0.00     0.000 C 
BRANCH  22  23
ATOM     23  C   UNL     1      12.617  22.774  39.372  1.00  0.00     0.000 C 
BRANCH  23  24
ATOM     24  C   UNL     1      13.304  21.423  39.112  1.00  0.00    -0.000 C 
BRANCH  24  25
ATOM     25  C   UNL     1      14.659  21.562  38.392  1.00  0.00    -0.000 C 
BRANCH  25  26
ATOM     26  C   UNL     1      15.010  23.019  38.064  1.00  0.00    -0.000 C 
BRANCH  26  27
ATOM     27  C   UNL     1      15.209  23.263  36.556  1.00  0.00    -0.000 C 
BRANCH  27  28
ATOM     28  C   UNL     1      14.148  24.218  35.971  1.00  0.00    -0.000 C 
BRANCH  28  29
ATOM     29  C   UNL     1      13.241  23.574  34.901  1.00  0.00    -0.000 C 
BRANCH  29  30
ATOM     30  C   UNL     1      12.277  22.491  35.420  1.00  0.00    -0.000 C 
BRANCH  30  31
ATOM     31  C   UNL     1      12.354  21.186  34.614  1.00  0.00    -0.003 C 
ATOM     32  C   UNL     1      13.781  20.646  34.584  1.00  0.00     0.004 C 
ENDBRANCH  30  31
ENDBRANCH  29  30
ENDBRANCH  28  29
ENDBRANCH  27  28
ENDBRANCH  26  27
ENDBRANCH  25  26
ENDBRANCH  24  25
ENDBRANCH  23  24
ENDBRANCH  22  23
ENDBRANCH  21  22
ENDBRANCH  20  21
ENDBRANCH  19  20
ENDBRANCH  18  19
ENDBRANCH   1  18
TORSDOF 28
ENDMDL
