MODEL 1
REMARK VINA RESULT:    -6.421      0.000      0.000
REMARK INTER + INTRA:          -7.887
REMARK INTER:                  -7.922
REMARK INTRA:                   0.035
REMARK UNBOUND:                 0.035
REMARK SMILES O=c1c(O)c(-c2cc(O)c(O)c(O)c2)oc2cc(O)cc(O)c12
REMARK SMILES IDX 5 1 3 2 2 3 1 4 23 5 21 6 20 7 18 8 17 9 16 10 15 11 6 12
REMARK SMILES IDX 7 13 8 14 14 15 10 16 12 17 9 18 11 20 13 22 4 24 22 26
REMARK SMILES IDX 19 28
REMARK H PARENT 9 19 11 21 13 23 4 25 22 27 19 29
REMARK Flexibility Score: inf
ROOT
ATOM      1  C   UNL     1      12.022 -12.053 -44.671  1.00  0.00     0.180 A 
ATOM      2  C   UNL     1      11.493 -10.753 -44.589  1.00  0.00     0.208 A 
ATOM      3  C   UNL     1      10.132 -10.554 -44.871  1.00  0.00     0.238 A 
ATOM      4  O   UNL     1       9.651  -9.397 -44.743  1.00  0.00    -0.285 OA
ATOM      5  C   UNL     1       9.322 -11.651 -45.247  1.00  0.00     0.111 A 
ATOM      6  C   UNL     1       7.940 -11.559 -45.593  1.00  0.00     0.134 A 
ATOM      7  C   UNL     1       7.205 -12.728 -45.822  1.00  0.00     0.093 A 
ATOM      8  C   UNL     1       7.815 -13.982 -45.782  1.00  0.00     0.123 A 
ATOM      9  C   UNL     1       9.179 -14.080 -45.503  1.00  0.00     0.094 A 
ATOM     10  C   UNL     1       9.931 -12.934 -45.235  1.00  0.00     0.146 A 
ATOM     11  O   UNL     1      11.223 -13.072 -44.963  1.00  0.00    -0.452 OA
ENDROOT
BRANCH   1  12
ATOM     12  C   UNL     1      13.453 -12.338 -44.414  1.00  0.00     0.029 A 
ATOM     13  C   UNL     1      14.182 -13.102 -45.336  1.00  0.00     0.062 A 
ATOM     14  C   UNL     1      15.540 -13.373 -45.135  1.00  0.00     0.162 A 
ATOM     15  C   UNL     1      14.113 -11.810 -43.293  1.00  0.00     0.062 A 
ATOM     16  C   UNL     1      16.192 -12.856 -43.990  1.00  0.00     0.200 A 
ATOM     17  C   UNL     1      15.471 -12.072 -43.078  1.00  0.00     0.162 A 
BRANCH  14  18
ATOM     18  O   UNL     1      16.197 -14.151 -46.091  1.00  0.00    -0.504 OA
ATOM     19  H   UNL     1      16.814 -14.918 -45.869  1.00  0.00     0.293 HD
ENDBRANCH  14  18
BRANCH  16  20
ATOM     20  O   UNL     1      17.544 -13.094 -43.725  1.00  0.00    -0.502 OA
ATOM     21  H   UNL     1      17.903 -13.371 -42.823  1.00  0.00     0.293 HD
ENDBRANCH  16  20
BRANCH  17  22
ATOM     22  O   UNL     1      16.117 -11.551 -41.958  1.00  0.00    -0.504 OA
ATOM     23  H   UNL     1      15.615 -11.026 -41.252  1.00  0.00     0.293 HD
ENDBRANCH  17  22
ENDBRANCH   1  12
BRANCH   2  24
ATOM     24  O   UNL     1      12.306  -9.686 -44.196  1.00  0.00    -0.502 OA
ATOM     25  H   UNL     1      13.279  -9.616 -44.467  1.00  0.00     0.293 HD
ENDBRANCH   2  24
BRANCH   6  26
ATOM     26  O   UNL     1       7.255 -10.350 -45.751  1.00  0.00    -0.507 OA
ATOM     27  H   UNL     1       6.261 -10.233 -45.627  1.00  0.00     0.293 HD
ENDBRANCH   6  26
BRANCH   8  28
ATOM     28  O   UNL     1       7.056 -15.124 -46.031  1.00  0.00    -0.508 OA
ATOM     29  H   UNL     1       7.243 -15.997 -45.554  1.00  0.00     0.293 HD
ENDBRANCH   8  28
TORSDOF 7
ENDMDL
MODEL 2
REMARK VINA RESULT:    -6.380     10.836     12.218
REMARK INTER + INTRA:          -7.836
REMARK INTER:                  -7.473
REMARK INTRA:                  -0.364
REMARK UNBOUND:                 0.035
REMARK SMILES O=c1c(O)c(-c2cc(O)c(O)c(O)c2)oc2cc(O)cc(O)c12
REMARK SMILES IDX 5 1 3 2 2 3 1 4 23 5 21 6 20 7 18 8 17 9 16 10 15 11 6 12
REMARK SMILES IDX 7 13 8 14 14 15 10 16 12 17 9 18 11 20 13 22 4 24 22 26
REMARK SMILES IDX 19 28
REMARK H PARENT 9 19 11 21 13 23 4 25 22 27 19 29
REMARK Flexibility Score: inf
ROOT
ATOM      1  C   UNL     1      14.041 -22.432 -39.757  1.00  0.00     0.180 A 
ATOM      2  C   UNL     1      13.670 -23.778 -39.922  1.00  0.00     0.208 A 
ATOM      3  C   UNL     1      12.653 -24.308 -39.112  1.00  0.00     0.238 A 
ATOM      4  O   UNL     1      12.288 -25.497 -39.302  1.00  0.00    -0.285 OA
ATOM      5  C   UNL     1      12.031 -23.492 -38.138  1.00  0.00     0.111 A 
ATOM      6  C   UNL     1      11.017 -23.935 -37.236  1.00  0.00     0.134 A 
ATOM      7  C   UNL     1      10.380 -23.008 -36.402  1.00  0.00     0.093 A 
ATOM      8  C   UNL     1      10.764 -21.667 -36.390  1.00  0.00     0.123 A 
ATOM      9  C   UNL     1      11.796 -21.234 -37.224  1.00  0.00     0.094 A 
ATOM     10  C   UNL     1      12.425 -22.129 -38.094  1.00  0.00     0.146 A 
ATOM     11  O   UNL     1      13.394 -21.674 -38.879  1.00  0.00    -0.452 OA
ENDROOT
BRANCH   1  12
ATOM     12  C   UNL     1      15.121 -21.809 -40.555  1.00  0.00     0.029 A 
ATOM     13  C   UNL     1      14.806 -21.160 -41.758  1.00  0.00     0.062 A 
ATOM     14  C   UNL     1      15.798 -20.543 -42.527  1.00  0.00     0.162 A 
ATOM     15  C   UNL     1      16.451 -21.800 -40.105  1.00  0.00     0.062 A 
ATOM     16  C   UNL     1      17.140 -20.560 -42.078  1.00  0.00     0.200 A 
ATOM     17  C   UNL     1      17.455 -21.187 -40.864  1.00  0.00     0.162 A 
BRANCH  14  18
ATOM     18  O   UNL     1      15.410 -19.928 -43.719  1.00  0.00    -0.504 OA
ATOM     19  H   UNL     1      14.450 -19.757 -43.981  1.00  0.00     0.293 HD
ENDBRANCH  14  18
BRANCH  16  20
ATOM     20  O   UNL     1      18.181 -19.968 -42.800  1.00  0.00    -0.502 OA
ATOM     21  H   UNL     1      18.726 -19.186 -42.467  1.00  0.00     0.293 HD
ENDBRANCH  16  20
BRANCH  17  22
ATOM     22  O   UNL     1      18.775 -21.190 -40.414  1.00  0.00    -0.504 OA
ATOM     23  H   UNL     1      19.229 -20.343 -40.093  1.00  0.00     0.293 HD
ENDBRANCH  17  22
ENDBRANCH   1  12
BRANCH   2  24
ATOM     24  O   UNL     1      14.283 -24.559 -40.905  1.00  0.00    -0.502 OA
ATOM     25  H   UNL     1      15.246 -24.866 -40.834  1.00  0.00     0.293 HD
ENDBRANCH   2  24
BRANCH   6  26
ATOM     26  O   UNL     1      10.621 -25.270 -37.103  1.00  0.00    -0.507 OA
ATOM     27  H   UNL     1      11.242 -26.062 -37.171  1.00  0.00     0.293 HD
ENDBRANCH   6  26
BRANCH   8  28
ATOM     28  O   UNL     1      10.120 -20.776 -35.535  1.00  0.00    -0.508 OA
ATOM     29  H   UNL     1       9.661 -19.944 -35.886  1.00  0.00     0.293 HD
ENDBRANCH   8  28
TORSDOF 7
ENDMDL
MODEL 3
REMARK VINA RESULT:    -6.274     10.158     11.339
REMARK INTER + INTRA:          -7.705
REMARK INTER:                  -7.343
REMARK INTRA:                  -0.362
REMARK UNBOUND:                 0.035
REMARK SMILES O=c1c(O)c(-c2cc(O)c(O)c(O)c2)oc2cc(O)cc(O)c12
REMARK SMILES IDX 5 1 3 2 2 3 1 4 23 5 21 6 20 7 18 8 17 9 16 10 15 11 6 12
REMARK SMILES IDX 7 13 8 14 14 15 10 16 12 17 9 18 11 20 13 22 4 24 22 26
REMARK SMILES IDX 19 28
REMARK H PARENT 9 19 11 21 13 23 4 25 22 27 19 29
REMARK Flexibility Score: inf
ROOT
ATOM      1  C   UNL     1      14.322 -21.134 -39.649  1.00  0.00     0.180 A 
ATOM      2  C   UNL     1      13.738 -20.073 -38.934  1.00  0.00     0.208 A 
ATOM      3  C   UNL     1      12.670 -20.347 -38.065  1.00  0.00     0.238 A 
ATOM      4  O   UNL     1      12.187 -19.403 -37.386  1.00  0.00    -0.285 OA
ATOM      5  C   UNL     1      12.189 -21.671 -37.933  1.00  0.00     0.111 A 
ATOM      6  C   UNL     1      11.087 -22.055 -37.111  1.00  0.00     0.134 A 
ATOM      7  C   UNL     1      10.780 -23.413 -36.957  1.00  0.00     0.093 A 
ATOM      8  C   UNL     1      11.494 -24.395 -37.644  1.00  0.00     0.123 A 
ATOM      9  C   UNL     1      12.535 -24.026 -38.497  1.00  0.00     0.094 A 
ATOM     10  C   UNL     1      12.887 -22.682 -38.643  1.00  0.00     0.146 A 
ATOM     11  O   UNL     1      13.891 -22.375 -39.456  1.00  0.00    -0.452 OA
ENDROOT
BRANCH   1  12
ATOM     12  C   UNL     1      15.434 -20.921 -40.604  1.00  0.00     0.029 A 
ATOM     13  C   UNL     1      16.759 -21.001 -40.149  1.00  0.00     0.062 A 
ATOM     14  C   UNL     1      17.834 -20.827 -41.027  1.00  0.00     0.162 A 
ATOM     15  C   UNL     1      15.194 -20.700 -41.968  1.00  0.00     0.062 A 
ATOM     16  C   UNL     1      17.584 -20.580 -42.398  1.00  0.00     0.200 A 
ATOM     17  C   UNL     1      16.260 -20.524 -42.859  1.00  0.00     0.162 A 
BRANCH  14  18
ATOM     18  O   UNL     1      19.125 -20.908 -40.499  1.00  0.00    -0.504 OA
ATOM     19  H   UNL     1      19.539 -21.756 -40.145  1.00  0.00     0.293 HD
ENDBRANCH  14  18
BRANCH  16  20
ATOM     20  O   UNL     1      18.610 -20.391 -43.327  1.00  0.00    -0.502 OA
ATOM     21  H   UNL     1      19.315 -21.082 -43.540  1.00  0.00     0.293 HD
ENDBRANCH  16  20
BRANCH  17  22
ATOM     22  O   UNL     1      16.013 -20.296 -44.212  1.00  0.00    -0.504 OA
ATOM     23  H   UNL     1      15.170 -19.829 -44.527  1.00  0.00     0.293 HD
ENDBRANCH  17  22
ENDBRANCH   1  12
BRANCH   2  24
ATOM     24  O   UNL     1      14.243 -18.777 -39.063  1.00  0.00    -0.502 OA
ATOM     25  H   UNL     1      14.653 -18.436 -39.924  1.00  0.00     0.293 HD
ENDBRANCH   2  24
BRANCH   6  26
ATOM     26  O   UNL     1      10.250 -21.148 -36.453  1.00  0.00    -0.507 OA
ATOM     27  H   UNL     1      10.481 -20.675 -35.593  1.00  0.00     0.293 HD
ENDBRANCH   6  26
BRANCH   8  28
ATOM     28  O   UNL     1      11.151 -25.735 -37.479  1.00  0.00    -0.508 OA
ATOM     29  H   UNL     1      10.824 -26.092 -36.589  1.00  0.00     0.293 HD
ENDBRANCH   8  28
TORSDOF 7
ENDMDL
MODEL 4
REMARK VINA RESULT:    -6.237      9.559     10.836
REMARK INTER + INTRA:          -7.660
REMARK INTER:                  -7.405
REMARK INTRA:                  -0.255
REMARK UNBOUND:                 0.035
REMARK SMILES O=c1c(O)c(-c2cc(O)c(O)c(O)c2)oc2cc(O)cc(O)c12
REMARK SMILES IDX 5 1 3 2 2 3 1 4 23 5 21 6 20 7 18 8 17 9 16 10 15 11 6 12
REMARK SMILES IDX 7 13 8 14 14 15 10 16 12 17 9 18 11 20 13 22 4 24 22 26
REMARK SMILES IDX 19 28
REMARK H PARENT 9 19 11 21 13 23 4 25 22 27 19 29
REMARK Flexibility Score: inf
ROOT
ATOM      1  C   UNL     1      14.246 -20.999 -39.719  1.00  0.00     0.180 A 
ATOM      2  C   UNL     1      13.948 -22.162 -38.988  1.00  0.00     0.208 A 
ATOM      3  C   UNL     1      12.836 -22.160 -38.130  1.00  0.00     0.238 A 
ATOM      4  O   UNL     1      12.542 -23.221 -37.520  1.00  0.00    -0.285 OA
ATOM      5  C   UNL     1      12.046 -20.993 -38.003  1.00  0.00     0.111 A 
ATOM      6  C   UNL     1      10.921 -20.866 -37.134  1.00  0.00     0.134 A 
ATOM      7  C   UNL     1      10.135 -19.708 -37.185  1.00  0.00     0.093 A 
ATOM      8  C   UNL     1      10.470 -18.647 -38.025  1.00  0.00     0.123 A 
ATOM      9  C   UNL     1      11.603 -18.736 -38.836  1.00  0.00     0.094 A 
ATOM     10  C   UNL     1      12.386 -19.892 -38.833  1.00  0.00     0.146 A 
ATOM     11  O   UNL     1      13.448 -19.941 -39.627  1.00  0.00    -0.452 OA
ENDROOT
BRANCH   1  12
ATOM     12  C   UNL     1      15.415 -20.915 -40.624  1.00  0.00     0.029 A 
ATOM     13  C   UNL     1      15.213 -20.754 -42.002  1.00  0.00     0.062 A 
ATOM     14  C   UNL     1      16.295 -20.650 -42.883  1.00  0.00     0.162 A 
ATOM     15  C   UNL     1      16.727 -20.934 -40.125  1.00  0.00     0.062 A 
ATOM     16  C   UNL     1      17.615 -20.695 -42.375  1.00  0.00     0.200 A 
ATOM     17  C   UNL     1      17.820 -20.832 -40.995  1.00  0.00     0.162 A 
BRANCH  14  18
ATOM     18  O   UNL     1      16.015 -20.504 -44.243  1.00  0.00    -0.504 OA
ATOM     19  H   UNL     1      15.760 -21.265 -44.854  1.00  0.00     0.293 HD
ENDBRANCH  14  18
BRANCH  16  20
ATOM     20  O   UNL     1      18.741 -20.603 -43.199  1.00  0.00    -0.502 OA
ATOM     21  H   UNL     1      19.530 -21.230 -43.149  1.00  0.00     0.293 HD
ENDBRANCH  16  20
BRANCH  17  22
ATOM     22  O   UNL     1      19.121 -20.861 -40.492  1.00  0.00    -0.504 OA
ATOM     23  H   UNL     1      19.356 -21.383 -39.656  1.00  0.00     0.293 HD
ENDBRANCH  17  22
ENDBRANCH   1  12
BRANCH   2  24
ATOM     24  O   UNL     1      14.728 -23.310 -39.145  1.00  0.00    -0.502 OA
ATOM     25  H   UNL     1      15.569 -23.323 -39.710  1.00  0.00     0.293 HD
ENDBRANCH   2  24
BRANCH   6  26
ATOM     26  O   UNL     1      10.552 -21.829 -36.189  1.00  0.00    -0.507 OA
ATOM     27  H   UNL     1       9.628 -21.926 -35.798  1.00  0.00     0.293 HD
ENDBRANCH   6  26
BRANCH   8  28
ATOM     28  O   UNL     1       9.674 -17.503 -38.039  1.00  0.00    -0.508 OA
ATOM     29  H   UNL     1       9.857 -16.739 -38.678  1.00  0.00     0.293 HD
ENDBRANCH   8  28
TORSDOF 7
ENDMDL
MODEL 5
REMARK VINA RESULT:    -6.172      2.583      7.391
REMARK INTER + INTRA:          -7.581
REMARK INTER:                  -7.232
REMARK INTRA:                  -0.349
REMARK UNBOUND:                 0.035
REMARK SMILES O=c1c(O)c(-c2cc(O)c(O)c(O)c2)oc2cc(O)cc(O)c12
REMARK SMILES IDX 5 1 3 2 2 3 1 4 23 5 21 6 20 7 18 8 17 9 16 10 15 11 6 12
REMARK SMILES IDX 7 13 8 14 14 15 10 16 12 17 9 18 11 20 13 22 4 24 22 26
REMARK SMILES IDX 19 28
REMARK H PARENT 9 19 11 21 13 23 4 25 22 27 19 29
REMARK Flexibility Score: inf
ROOT
ATOM      1  C   UNL     1       9.216 -13.199 -45.281  1.00  0.00     0.180 A 
ATOM      2  C   UNL     1      10.516 -13.704 -45.100  1.00  0.00     0.208 A 
ATOM      3  C   UNL     1      11.553 -12.814 -44.777  1.00  0.00     0.238 A 
ATOM      4  O   UNL     1      12.703 -13.279 -44.563  1.00  0.00    -0.285 OA
ATOM      5  C   UNL     1      11.282 -11.431 -44.656  1.00  0.00     0.111 A 
ATOM      6  C   UNL     1      12.264 -10.434 -44.373  1.00  0.00     0.134 A 
ATOM      7  C   UNL     1      11.861  -9.112 -44.146  1.00  0.00     0.093 A 
ATOM      8  C   UNL     1      10.522  -8.738 -44.257  1.00  0.00     0.123 A 
ATOM      9  C   UNL     1       9.562  -9.693 -44.593  1.00  0.00     0.094 A 
ATOM     10  C   UNL     1       9.928 -11.026 -44.789  1.00  0.00     0.146 A 
ATOM     11  O   UNL     1       8.981 -11.905 -45.097  1.00  0.00    -0.452 OA
ENDROOT
BRANCH   1  12
ATOM     12  C   UNL     1       8.077 -14.071 -45.647  1.00  0.00     0.029 A 
ATOM     13  C   UNL     1       7.158 -14.458 -44.660  1.00  0.00     0.062 A 
ATOM     14  C   UNL     1       6.058 -15.263 -44.975  1.00  0.00     0.162 A 
ATOM     15  C   UNL     1       7.860 -14.472 -46.974  1.00  0.00     0.062 A 
ATOM     16  C   UNL     1       5.860 -15.683 -46.311  1.00  0.00     0.200 A 
ATOM     17  C   UNL     1       6.764 -15.278 -47.304  1.00  0.00     0.162 A 
BRANCH  14  18
ATOM     18  O   UNL     1       5.193 -15.618 -43.937  1.00  0.00    -0.504 OA
ATOM     19  H   UNL     1       5.004 -16.569 -43.658  1.00  0.00     0.293 HD
ENDBRANCH  14  18
BRANCH  16  20
ATOM     20  O   UNL     1       4.786 -16.493 -46.693  1.00  0.00    -0.502 OA
ATOM     21  H   UNL     1       4.886 -17.432 -47.050  1.00  0.00     0.293 HD
ENDBRANCH  16  20
BRANCH  17  22
ATOM     22  O   UNL     1       6.560 -15.679 -48.624  1.00  0.00    -0.504 OA
ATOM     23  H   UNL     1       5.686 -16.093 -48.925  1.00  0.00     0.293 HD
ENDBRANCH  17  22
ENDBRANCH   1  12
BRANCH   2  24
ATOM     24  O   UNL     1      10.757 -15.077 -45.203  1.00  0.00    -0.502 OA
ATOM     25  H   UNL     1      11.189 -15.611 -44.459  1.00  0.00     0.293 HD
ENDBRANCH   2  24
BRANCH   6  26
ATOM     26  O   UNL     1      13.639 -10.684 -44.330  1.00  0.00    -0.507 OA
ATOM     27  H   UNL     1      14.351 -10.025 -44.605  1.00  0.00     0.293 HD
ENDBRANCH   6  26
BRANCH   8  28
ATOM     28  O   UNL     1      10.160  -7.410 -44.041  1.00  0.00    -0.508 OA
ATOM     29  H   UNL     1       9.245  -7.062 -44.303  1.00  0.00     0.293 HD
ENDBRANCH   8  28
TORSDOF 7
ENDMDL
MODEL 6
REMARK VINA RESULT:    -6.139      1.783      7.085
REMARK INTER + INTRA:          -7.540
REMARK INTER:                  -7.195
REMARK INTRA:                  -0.344
REMARK UNBOUND:                 0.035
REMARK SMILES O=c1c(O)c(-c2cc(O)c(O)c(O)c2)oc2cc(O)cc(O)c12
REMARK SMILES IDX 5 1 3 2 2 3 1 4 23 5 21 6 20 7 18 8 17 9 16 10 15 11 6 12
REMARK SMILES IDX 7 13 8 14 14 15 10 16 12 17 9 18 11 20 13 22 4 24 22 26
REMARK SMILES IDX 19 28
REMARK H PARENT 9 19 11 21 13 23 4 25 22 27 19 29
REMARK Flexibility Score: inf
ROOT
ATOM      1  C   UNL     1       8.716 -12.812 -45.510  1.00  0.00     0.180 A 
ATOM      2  C   UNL     1       8.407 -11.445 -45.406  1.00  0.00     0.208 A 
ATOM      3  C   UNL     1       9.409 -10.551 -44.993  1.00  0.00     0.238 A 
ATOM      4  O   UNL     1       9.142  -9.321 -44.954  1.00  0.00    -0.285 OA
ATOM      5  C   UNL     1      10.699 -11.036 -44.676  1.00  0.00     0.111 A 
ATOM      6  C   UNL     1      11.778 -10.226 -44.210  1.00  0.00     0.134 A 
ATOM      7  C   UNL     1      13.049 -10.793 -44.052  1.00  0.00     0.093 A 
ATOM      8  C   UNL     1      13.266 -12.152 -44.279  1.00  0.00     0.123 A 
ATOM      9  C   UNL     1      12.204 -12.965 -44.677  1.00  0.00     0.094 A 
ATOM     10  C   UNL     1      10.933 -12.422 -44.878  1.00  0.00     0.146 A 
ATOM     11  O   UNL     1       9.953 -13.229 -45.268  1.00  0.00    -0.452 OA
ENDROOT
BRANCH   1  12
ATOM     12  C   UNL     1       7.707 -13.818 -45.913  1.00  0.00     0.029 A 
ATOM     13  C   UNL     1       7.725 -14.330 -47.219  1.00  0.00     0.062 A 
ATOM     14  C   UNL     1       6.800 -15.298 -47.628  1.00  0.00     0.162 A 
ATOM     15  C   UNL     1       6.766 -14.317 -44.999  1.00  0.00     0.062 A 
ATOM     16  C   UNL     1       5.839 -15.778 -46.706  1.00  0.00     0.200 A 
ATOM     17  C   UNL     1       5.834 -15.285 -45.393  1.00  0.00     0.162 A 
BRANCH  14  18
ATOM     18  O   UNL     1       6.872 -15.751 -48.947  1.00  0.00    -0.504 OA
ATOM     19  H   UNL     1       6.838 -16.723 -49.214  1.00  0.00     0.293 HD
ENDBRANCH  14  18
BRANCH  16  20
ATOM     20  O   UNL     1       4.883 -16.738 -47.050  1.00  0.00    -0.502 OA
ATOM     21  H   UNL     1       5.103 -17.693 -47.294  1.00  0.00     0.293 HD
ENDBRANCH  16  20
BRANCH  17  22
ATOM     22  O   UNL     1       4.897 -15.769 -44.481  1.00  0.00    -0.504 OA
ATOM     23  H   UNL     1       4.211 -16.467 -44.744  1.00  0.00     0.293 HD
ENDBRANCH  17  22
ENDBRANCH   1  12
BRANCH   2  24
ATOM     24  O   UNL     1       7.132 -10.984 -45.745  1.00  0.00    -0.502 OA
ATOM     25  H   UNL     1       6.333 -11.097 -45.133  1.00  0.00     0.293 HD
ENDBRANCH   2  24
BRANCH   6  26
ATOM     26  O   UNL     1      11.649  -8.877 -43.865  1.00  0.00    -0.507 OA
ATOM     27  H   UNL     1      10.857  -8.298 -44.099  1.00  0.00     0.293 HD
ENDBRANCH   6  26
BRANCH   8  28
ATOM     28  O   UNL     1      14.540 -12.685 -44.095  1.00  0.00    -0.508 OA
ATOM     29  H   UNL     1      14.754 -13.642 -44.349  1.00  0.00     0.293 HD
ENDBRANCH   8  28
TORSDOF 7
ENDMDL
MODEL 7
REMARK VINA RESULT:    -6.132      1.546      7.375
REMARK INTER + INTRA:          -7.531
REMARK INTER:                  -7.176
REMARK INTRA:                  -0.354
REMARK UNBOUND:                 0.035
REMARK SMILES O=c1c(O)c(-c2cc(O)c(O)c(O)c2)oc2cc(O)cc(O)c12
REMARK SMILES IDX 5 1 3 2 2 3 1 4 23 5 21 6 20 7 18 8 17 9 16 10 15 11 6 12
REMARK SMILES IDX 7 13 8 14 14 15 10 16 12 17 9 18 11 20 13 22 4 24 22 26
REMARK SMILES IDX 19 28
REMARK H PARENT 9 19 11 21 13 23 4 25 22 27 19 29
REMARK Flexibility Score: inf
ROOT
ATOM      1  C   UNL     1      11.727 -13.317 -45.496  1.00  0.00     0.180 A 
ATOM      2  C   UNL     1      12.424 -14.148 -46.390  1.00  0.00     0.208 A 
ATOM      3  C   UNL     1      13.819 -14.255 -46.273  1.00  0.00     0.238 A 
ATOM      4  O   UNL     1      14.432 -15.042 -47.040  1.00  0.00    -0.285 OA
ATOM      5  C   UNL     1      14.500 -13.518 -45.275  1.00  0.00     0.111 A 
ATOM      6  C   UNL     1      15.916 -13.519 -45.091  1.00  0.00     0.134 A 
ATOM      7  C   UNL     1      16.470 -12.855 -43.990  1.00  0.00     0.093 A 
ATOM      8  C   UNL     1      15.668 -12.136 -43.104  1.00  0.00     0.123 A 
ATOM      9  C   UNL     1      14.289 -12.078 -43.309  1.00  0.00     0.094 A 
ATOM     10  C   UNL     1      13.703 -12.760 -44.377  1.00  0.00     0.146 A 
ATOM     11  O   UNL     1      12.386 -12.689 -44.530  1.00  0.00    -0.452 OA
ENDROOT
BRANCH   1  12
ATOM     12  C   UNL     1      10.259 -13.134 -45.574  1.00  0.00     0.029 A 
ATOM     13  C   UNL     1       9.732 -12.102 -46.363  1.00  0.00     0.062 A 
ATOM     14  C   UNL     1       8.350 -11.913 -46.476  1.00  0.00     0.162 A 
ATOM     15  C   UNL     1       9.378 -14.009 -44.920  1.00  0.00     0.062 A 
ATOM     16  C   UNL     1       7.469 -12.786 -45.794  1.00  0.00     0.200 A 
ATOM     17  C   UNL     1       7.993 -13.833 -45.023  1.00  0.00     0.162 A 
BRANCH  14  18
ATOM     18  O   UNL     1       7.900 -10.857 -47.271  1.00  0.00    -0.504 OA
ATOM     19  H   UNL     1       7.351 -10.084 -46.927  1.00  0.00     0.293 HD
ENDBRANCH  14  18
BRANCH  16  20
ATOM     20  O   UNL     1       6.079 -12.650 -45.858  1.00  0.00    -0.502 OA
ATOM     21  H   UNL     1       5.430 -13.254 -45.376  1.00  0.00     0.293 HD
ENDBRANCH  16  20
BRANCH  17  22
ATOM     22  O   UNL     1       7.125 -14.702 -44.363  1.00  0.00    -0.504 OA
ATOM     23  H   UNL     1       7.118 -14.781 -43.353  1.00  0.00     0.293 HD
ENDBRANCH  17  22
ENDBRANCH   1  12
BRANCH   2  24
ATOM     24  O   UNL     1      11.729 -14.884 -47.354  1.00  0.00    -0.502 OA
ATOM     25  H   UNL     1      11.192 -15.711 -47.123  1.00  0.00     0.293 HD
ENDBRANCH   2  24
BRANCH   6  26
ATOM     26  O   UNL     1      16.817 -14.129 -45.970  1.00  0.00    -0.507 OA
ATOM     27  H   UNL     1      17.811 -14.198 -45.816  1.00  0.00     0.293 HD
ENDBRANCH   6  26
BRANCH   8  28
ATOM     28  O   UNL     1      16.255 -11.473 -42.028  1.00  0.00    -0.508 OA
ATOM     29  H   UNL     1      17.144 -10.996 -42.122  1.00  0.00     0.293 HD
ENDBRANCH   8  28
TORSDOF 7
ENDMDL
MODEL 8
REMARK VINA RESULT:    -6.070     10.791     13.172
REMARK INTER + INTRA:          -7.454
REMARK INTER:                  -7.094
REMARK INTRA:                  -0.360
REMARK UNBOUND:                 0.035
REMARK SMILES O=c1c(O)c(-c2cc(O)c(O)c(O)c2)oc2cc(O)cc(O)c12
REMARK SMILES IDX 5 1 3 2 2 3 1 4 23 5 21 6 20 7 18 8 17 9 16 10 15 11 6 12
REMARK SMILES IDX 7 13 8 14 14 15 10 16 12 17 9 18 11 20 13 22 4 24 22 26
REMARK SMILES IDX 19 28
REMARK H PARENT 9 19 11 21 13 23 4 25 22 27 19 29
REMARK Flexibility Score: inf
ROOT
ATOM      1  C   UNL     1       7.017 -18.701 -36.962  1.00  0.00     0.180 A 
ATOM      2  C   UNL     1       7.614 -18.817 -38.230  1.00  0.00     0.208 A 
ATOM      3  C   UNL     1       8.597 -19.799 -38.432  1.00  0.00     0.238 A 
ATOM      4  O   UNL     1       9.088 -19.934 -39.583  1.00  0.00    -0.285 OA
ATOM      5  C   UNL     1       8.981 -20.642 -37.362  1.00  0.00     0.111 A 
ATOM      6  C   UNL     1       9.994 -21.645 -37.444  1.00  0.00     0.134 A 
ATOM      7  C   UNL     1      10.200 -22.508 -36.361  1.00  0.00     0.093 A 
ATOM      8  C   UNL     1       9.477 -22.364 -35.176  1.00  0.00     0.123 A 
ATOM      9  C   UNL     1       8.526 -21.349 -35.064  1.00  0.00     0.094 A 
ATOM     10  C   UNL     1       8.273 -20.495 -36.141  1.00  0.00     0.146 A 
ATOM     11  O   UNL     1       7.352 -19.549 -35.997  1.00  0.00    -0.452 OA
ENDROOT
BRANCH   1  12
ATOM     12  C   UNL     1       5.993 -17.674 -36.665  1.00  0.00     0.029 A 
ATOM     13  C   UNL     1       4.635 -18.025 -36.686  1.00  0.00     0.062 A 
ATOM     14  C   UNL     1       3.642 -17.086 -36.389  1.00  0.00     0.162 A 
ATOM     15  C   UNL     1       6.352 -16.367 -36.304  1.00  0.00     0.062 A 
ATOM     16  C   UNL     1       4.012 -15.763 -36.049  1.00  0.00     0.200 A 
ATOM     17  C   UNL     1       5.370 -15.415 -36.005  1.00  0.00     0.162 A 
BRANCH  14  18
ATOM     18  O   UNL     1       2.311 -17.507 -36.442  1.00  0.00    -0.504 OA
ATOM     19  H   UNL     1       1.661 -17.425 -35.676  1.00  0.00     0.293 HD
ENDBRANCH  14  18
BRANCH  16  20
ATOM     20  O   UNL     1       3.071 -14.773 -35.749  1.00  0.00    -0.502 OA
ATOM     21  H   UNL     1       3.102 -14.198 -34.920  1.00  0.00     0.293 HD
ENDBRANCH  16  20
BRANCH  17  22
ATOM     22  O   UNL     1       5.735 -14.116 -35.655  1.00  0.00    -0.504 OA
ATOM     23  H   UNL     1       6.121 -13.471 -36.335  1.00  0.00     0.293 HD
ENDBRANCH  17  22
ENDBRANCH   1  12
BRANCH   2  24
ATOM     24  O   UNL     1       7.204 -17.988 -39.278  1.00  0.00    -0.502 OA
ATOM     25  H   UNL     1       6.232 -17.890 -39.545  1.00  0.00     0.293 HD
ENDBRANCH   2  24
BRANCH   6  26
ATOM     26  O   UNL     1      10.836 -21.815 -38.547  1.00  0.00    -0.507 OA
ATOM     27  H   UNL     1      11.116 -21.078 -39.175  1.00  0.00     0.293 HD
ENDBRANCH   6  26
BRANCH   8  28
ATOM     28  O   UNL     1       9.720 -23.231 -34.113  1.00  0.00    -0.508 OA
ATOM     29  H   UNL     1      10.067 -22.892 -33.223  1.00  0.00     0.293 HD
ENDBRANCH   8  28
TORSDOF 7
ENDMDL
MODEL 9
REMARK VINA RESULT:    -4.834     10.231     11.325
REMARK INTER + INTRA:          -5.929
REMARK INTER:                  -5.575
REMARK INTRA:                  -0.355
REMARK UNBOUND:                 0.035
REMARK SMILES O=c1c(O)c(-c2cc(O)c(O)c(O)c2)oc2cc(O)cc(O)c12
REMARK SMILES IDX 5 1 3 2 2 3 1 4 23 5 21 6 20 7 18 8 17 9 16 10 15 11 6 12
REMARK SMILES IDX 7 13 8 14 14 15 10 16 12 17 9 18 11 20 13 22 4 24 22 26
REMARK SMILES IDX 19 28
REMARK H PARENT 9 19 11 21 13 23 4 25 22 27 19 29
REMARK Flexibility Score: inf
ROOT
ATOM      1  C   UNL     1      14.288 -21.238 -39.565  1.00  0.00     0.180 A 
ATOM      2  C   UNL     1      13.703 -20.162 -38.874  1.00  0.00     0.208 A 
ATOM      3  C   UNL     1      12.614 -20.412 -38.023  1.00  0.00     0.238 A 
ATOM      4  O   UNL     1      12.130 -19.455 -37.365  1.00  0.00    -0.285 OA
ATOM      5  C   UNL     1      12.115 -21.729 -37.886  1.00  0.00     0.111 A 
ATOM      6  C   UNL     1      10.992 -22.091 -37.082  1.00  0.00     0.134 A 
ATOM      7  C   UNL     1      10.666 -23.442 -36.918  1.00  0.00     0.093 A 
ATOM      8  C   UNL     1      11.381 -24.441 -37.579  1.00  0.00     0.123 A 
ATOM      9  C   UNL     1      12.443 -24.095 -38.415  1.00  0.00     0.094 A 
ATOM     10  C   UNL     1      12.815 -22.757 -38.570  1.00  0.00     0.146 A 
ATOM     11  O   UNL     1      13.838 -22.471 -39.366  1.00  0.00    -0.452 OA
ENDROOT
BRANCH   1  12
ATOM     12  C   UNL     1      15.422 -21.050 -40.499  1.00  0.00     0.029 A 
ATOM     13  C   UNL     1      15.166 -20.803 -41.856  1.00  0.00     0.062 A 
ATOM     14  C   UNL     1      16.212 -20.600 -42.762  1.00  0.00     0.162 A 
ATOM     15  C   UNL     1      16.750 -21.054 -40.046  1.00  0.00     0.062 A 
ATOM     16  C   UNL     1      17.550 -20.629 -42.301  1.00  0.00     0.200 A 
ATOM     17  C   UNL     1      17.808 -20.852 -40.941  1.00  0.00     0.162 A 
BRANCH  14  18
ATOM     18  O   UNL     1      15.880 -20.372 -44.099  1.00  0.00    -0.504 OA
ATOM     19  H   UNL     1      15.598 -19.476 -44.468  1.00  0.00     0.293 HD
ENDBRANCH  14  18
BRANCH  16  20
ATOM     20  O   UNL     1      18.642 -20.441 -43.153  1.00  0.00    -0.502 OA
ATOM     21  H   UNL     1      18.929 -21.103 -43.859  1.00  0.00     0.293 HD
ENDBRANCH  16  20
BRANCH  17  22
ATOM     22  O   UNL     1      19.125 -20.866 -40.484  1.00  0.00    -0.504 OA
ATOM     23  H   UNL     1      19.440 -20.241 -39.751  1.00  0.00     0.293 HD
ENDBRANCH  17  22
ENDBRANCH   1  12
BRANCH   2  24
ATOM     24  O   UNL     1      14.226 -18.874 -39.008  1.00  0.00    -0.502 OA
ATOM     25  H   UNL     1      14.952 -18.648 -39.677  1.00  0.00     0.293 HD
ENDBRANCH   2  24
BRANCH   6  26
ATOM     26  O   UNL     1      10.154 -21.166 -36.451  1.00  0.00    -0.507 OA
ATOM     27  H   UNL     1       9.792 -20.330 -36.884  1.00  0.00     0.293 HD
ENDBRANCH   6  26
BRANCH   8  28
ATOM     28  O   UNL     1      11.019 -25.775 -37.405  1.00  0.00    -0.508 OA
ATOM     29  H   UNL     1      10.362 -26.056 -36.687  1.00  0.00     0.293 HD
ENDBRANCH   8  28
TORSDOF 7
ENDMDL
