MODEL 1
REMARK VINA RESULT:    -3.767      0.000      0.000
REMARK INTER + INTRA:          -5.443
REMARK INTER:                  -5.088
REMARK INTRA:                  -0.355
REMARK UNBOUND:                -0.355
REMARK SMILES CCCCCCCC(=O)[O-]
REMARK SMILES IDX 5 1 6 2 7 3 8 4 9 5 10 6 4 7 3 8 2 9 1 10
REMARK H PARENT
REMARK Flexibility Score: inf
ROOT
ATOM      1  C   UNL     1     -51.151  27.344 -17.082  1.00  0.00     0.000 C 
ENDROOT
BRANCH   1   2
ATOM      2  C   UNL     1     -49.654  27.321 -16.730  1.00  0.00     0.006 C 
BRANCH   2   3
ATOM      3  C   UNL     1     -48.793  26.807 -17.892  1.00  0.00     0.053 C 
BRANCH   3   4
ATOM      4  C   UNL     1     -48.068  25.547 -17.530  1.00  0.00     0.041 C 
ATOM      5  O   UNL     1     -48.490  24.821 -16.592  1.00  0.00    -0.550 OA
ATOM      6  O   UNL     1     -46.906  25.195 -18.204  1.00  0.00    -0.550 OA
ENDBRANCH   3   4
ENDBRANCH   2   3
ENDBRANCH   1   2
BRANCH   1   7
ATOM      7  C   UNL     1     -52.047  26.917 -15.905  1.00  0.00     0.000 C 
BRANCH   7   8
ATOM      8  C   UNL     1     -51.414  25.892 -14.942  1.00  0.00    -0.000 C 
BRANCH   8   9
ATOM      9  C   UNL     1     -52.205  24.582 -14.774  1.00  0.00    -0.003 C 
ATOM     10  C   UNL     1     -51.317  23.341 -14.835  1.00  0.00     0.004 C 
ENDBRANCH   8   9
ENDBRANCH   7   8
ENDBRANCH   1   7
TORSDOF 6
ENDMDL
MODEL 2
REMARK VINA RESULT:    -3.738      3.110      4.186
REMARK INTER + INTRA:          -5.404
REMARK INTER:                  -4.981
REMARK INTRA:                  -0.423
REMARK UNBOUND:                -0.355
REMARK SMILES CCCCCCCC(=O)[O-]
REMARK SMILES IDX 5 1 6 2 7 3 8 4 9 5 10 6 4 7 3 8 2 9 1 10
REMARK H PARENT
REMARK Flexibility Score: inf
ROOT
ATOM      1  C   UNL     1     -45.072  26.496 -14.766  1.00  0.00     0.000 C 
ENDROOT
BRANCH   1   2
ATOM      2  C   UNL     1     -45.382  27.349 -16.008  1.00  0.00     0.006 C 
BRANCH   2   3
ATOM      3  C   UNL     1     -44.788  26.744 -17.288  1.00  0.00     0.053 C 
BRANCH   3   4
ATOM      4  C   UNL     1     -45.836  26.082 -18.128  1.00  0.00     0.041 C 
ATOM      5  O   UNL     1     -47.033  26.470 -18.069  1.00  0.00    -0.550 OA
ATOM      6  O   UNL     1     -45.499  25.013 -18.947  1.00  0.00    -0.550 OA
ENDBRANCH   3   4
ENDBRANCH   2   3
ENDBRANCH   1   2
BRANCH   1   7
ATOM      7  C   UNL     1     -46.238  26.461 -13.760  1.00  0.00     0.000 C 
BRANCH   7   8
ATOM      8  C   UNL     1     -47.209  25.275 -13.928  1.00  0.00    -0.000 C 
BRANCH   8   9
ATOM      9  C   UNL     1     -48.390  25.531 -14.880  1.00  0.00    -0.003 C 
ATOM     10  C   UNL     1     -48.710  24.331 -15.769  1.00  0.00     0.004 C 
ENDBRANCH   8   9
ENDBRANCH   7   8
ENDBRANCH   1   7
TORSDOF 6
ENDMDL
MODEL 3
REMARK VINA RESULT:    -3.735      4.010      6.928
REMARK INTER + INTRA:          -5.400
REMARK INTER:                  -4.979
REMARK INTRA:                  -0.420
REMARK UNBOUND:                -0.355
REMARK SMILES CCCCCCCC(=O)[O-]
REMARK SMILES IDX 5 1 6 2 7 3 8 4 9 5 10 6 4 7 3 8 2 9 1 10
REMARK H PARENT
REMARK Flexibility Score: inf
ROOT
ATOM      1  C   UNL     1     -44.622  26.482 -17.672  1.00  0.00     0.000 C 
ENDROOT
BRANCH   1   2
ATOM      2  C   UNL     1     -45.893  27.060 -17.025  1.00  0.00     0.006 C 
BRANCH   2   3
ATOM      3  C   UNL     1     -46.990  27.347 -18.059  1.00  0.00     0.053 C 
BRANCH   3   4
ATOM      4  C   UNL     1     -48.194  26.481 -17.846  1.00  0.00     0.041 C 
ATOM      5  O   UNL     1     -48.056  25.248 -17.630  1.00  0.00    -0.550 OA
ATOM      6  O   UNL     1     -49.468  27.029 -17.924  1.00  0.00    -0.550 OA
ENDBRANCH   3   4
ENDBRANCH   2   3
ENDBRANCH   1   2
BRANCH   1   7
ATOM      7  C   UNL     1     -44.743  26.341 -19.201  1.00  0.00     0.000 C 
BRANCH   7   8
ATOM      8  C   UNL     1     -43.550  26.898 -20.003  1.00  0.00    -0.000 C 
BRANCH   8   9
ATOM      9  C   UNL     1     -43.389  28.427 -19.954  1.00  0.00    -0.003 C 
ATOM     10  C   UNL     1     -42.149  28.871 -19.180  1.00  0.00     0.004 C 
ENDBRANCH   8   9
ENDBRANCH   7   8
ENDBRANCH   1   7
TORSDOF 6
ENDMDL
MODEL 4
REMARK VINA RESULT:    -3.716      3.359      5.423
REMARK INTER + INTRA:          -5.374
REMARK INTER:                  -4.901
REMARK INTRA:                  -0.474
REMARK UNBOUND:                -0.355
REMARK SMILES CCCCCCCC(=O)[O-]
REMARK SMILES IDX 5 1 6 2 7 3 8 4 9 5 10 6 4 7 3 8 2 9 1 10
REMARK H PARENT
REMARK Flexibility Score: inf
ROOT
ATOM      1  C   UNL     1     -45.857  26.202 -13.762  1.00  0.00     0.000 C 
ENDROOT
BRANCH   1   2
ATOM      2  C   UNL     1     -47.164  25.412 -13.953  1.00  0.00     0.006 C 
BRANCH   2   3
ATOM      3  C   UNL     1     -47.990  25.937 -15.136  1.00  0.00     0.053 C 
BRANCH   3   4
ATOM      4  C   UNL     1     -48.515  24.821 -15.985  1.00  0.00     0.041 C 
ATOM      5  O   UNL     1     -49.301  23.968 -15.495  1.00  0.00    -0.550 OA
ATOM      6  O   UNL     1     -48.106  24.700 -17.307  1.00  0.00    -0.550 OA
ENDBRANCH   3   4
ENDBRANCH   2   3
ENDBRANCH   1   2
BRANCH   1   7
ATOM      7  C   UNL     1     -45.854  27.542 -14.520  1.00  0.00     0.000 C 
BRANCH   7   8
ATOM      8  C   UNL     1     -44.581  27.823 -15.344  1.00  0.00    -0.000 C 
BRANCH   8   9
ATOM      9  C   UNL     1     -44.778  27.812 -16.870  1.00  0.00    -0.003 C 
ATOM     10  C   UNL     1     -44.871  26.401 -17.448  1.00  0.00     0.004 C 
ENDBRANCH   8   9
ENDBRANCH   7   8
ENDBRANCH   1   7
TORSDOF 6
ENDMDL
MODEL 5
REMARK VINA RESULT:    -3.708      3.530      6.467
REMARK INTER + INTRA:          -5.364
REMARK INTER:                  -5.023
REMARK INTRA:                  -0.341
REMARK UNBOUND:                -0.355
REMARK SMILES CCCCCCCC(=O)[O-]
REMARK SMILES IDX 5 1 6 2 7 3 8 4 9 5 10 6 4 7 3 8 2 9 1 10
REMARK H PARENT
REMARK Flexibility Score: inf
ROOT
ATOM      1  C   UNL     1     -45.917  26.079 -18.430  1.00  0.00     0.000 C 
ENDROOT
BRANCH   1   2
ATOM      2  C   UNL     1     -46.929  27.198 -18.128  1.00  0.00     0.006 C 
BRANCH   2   3
ATOM      3  C   UNL     1     -48.284  26.644 -17.669  1.00  0.00     0.053 C 
BRANCH   3   4
ATOM      4  C   UNL     1     -48.137  25.708 -16.509  1.00  0.00     0.041 C 
ATOM      5  O   UNL     1     -47.751  26.141 -15.391  1.00  0.00    -0.550 OA
ATOM      6  O   UNL     1     -48.390  24.352 -16.671  1.00  0.00    -0.550 OA
ENDBRANCH   3   4
ENDBRANCH   2   3
ENDBRANCH   1   2
BRANCH   1   7
ATOM      7  C   UNL     1     -44.461  26.507 -18.171  1.00  0.00     0.000 C 
BRANCH   7   8
ATOM      8  C   UNL     1     -44.180  28.012 -18.356  1.00  0.00    -0.000 C 
BRANCH   8   9
ATOM      9  C   UNL     1     -43.080  28.347 -19.378  1.00  0.00    -0.003 C 
ATOM     10  C   UNL     1     -43.255  27.611 -20.704  1.00  0.00     0.004 C 
ENDBRANCH   8   9
ENDBRANCH   7   8
ENDBRANCH   1   7
TORSDOF 6
ENDMDL
MODEL 6
REMARK VINA RESULT:    -3.702      2.655      5.094
REMARK INTER + INTRA:          -5.355
REMARK INTER:                  -4.798
REMARK INTRA:                  -0.558
REMARK UNBOUND:                -0.355
REMARK SMILES CCCCCCCC(=O)[O-]
REMARK SMILES IDX 5 1 6 2 7 3 8 4 9 5 10 6 4 7 3 8 2 9 1 10
REMARK H PARENT
REMARK Flexibility Score: inf
ROOT
ATOM      1  C   UNL     1     -47.181  27.183 -18.140  1.00  0.00     0.000 C 
ENDROOT
BRANCH   1   2
ATOM      2  C   UNL     1     -48.495  26.549 -17.652  1.00  0.00     0.006 C 
BRANCH   2   3
ATOM      3  C   UNL     1     -48.613  26.568 -16.121  1.00  0.00     0.053 C 
BRANCH   3   4
ATOM      4  C   UNL     1     -48.347  25.219 -15.527  1.00  0.00     0.041 C 
ATOM      5  O   UNL     1     -48.633  24.176 -16.172  1.00  0.00    -0.550 OA
ATOM      6  O   UNL     1     -47.818  25.114 -14.247  1.00  0.00    -0.550 OA
ENDBRANCH   3   4
ENDBRANCH   2   3
ENDBRANCH   1   2
BRANCH   1   7
ATOM      7  C   UNL     1     -46.062  26.148 -18.353  1.00  0.00     0.000 C 
BRANCH   7   8
ATOM      8  C   UNL     1     -44.711  26.504 -17.699  1.00  0.00    -0.000 C 
BRANCH   8   9
ATOM      9  C   UNL     1     -44.793  27.528 -16.553  1.00  0.00    -0.003 C 
ATOM     10  C   UNL     1     -44.950  26.874 -15.182  1.00  0.00     0.004 C 
ENDBRANCH   8   9
ENDBRANCH   7   8
ENDBRANCH   1   7
TORSDOF 6
ENDMDL
MODEL 7
REMARK VINA RESULT:    -3.690      3.120      4.691
REMARK INTER + INTRA:          -5.339
REMARK INTER:                  -4.855
REMARK INTRA:                  -0.484
REMARK UNBOUND:                -0.355
REMARK SMILES CCCCCCCC(=O)[O-]
REMARK SMILES IDX 5 1 6 2 7 3 8 4 9 5 10 6 4 7 3 8 2 9 1 10
REMARK H PARENT
REMARK Flexibility Score: inf
ROOT
ATOM      1  C   UNL     1     -44.855  26.512 -17.472  1.00  0.00     0.000 C 
ENDROOT
BRANCH   1   2
ATOM      2  C   UNL     1     -46.082  26.470 -18.399  1.00  0.00     0.006 C 
BRANCH   2   3
ATOM      3  C   UNL     1     -47.327  27.078 -17.738  1.00  0.00     0.053 C 
BRANCH   3   4
ATOM      4  C   UNL     1     -48.206  26.026 -17.135  1.00  0.00     0.041 C 
ATOM      5  O   UNL     1     -49.079  26.343 -16.284  1.00  0.00    -0.550 OA
ATOM      6  O   UNL     1     -48.035  24.693 -17.482  1.00  0.00    -0.550 OA
ENDBRANCH   3   4
ENDBRANCH   2   3
ENDBRANCH   1   2
BRANCH   1   7
ATOM      7  C   UNL     1     -45.093  27.353 -16.205  1.00  0.00     0.000 C 
BRANCH   7   8
ATOM      8  C   UNL     1     -45.008  26.571 -14.878  1.00  0.00    -0.000 C 
BRANCH   8   9
ATOM      9  C   UNL     1     -46.238  26.708 -13.963  1.00  0.00    -0.003 C 
ATOM     10  C   UNL     1     -46.909  25.370 -13.663  1.00  0.00     0.004 C 
ENDBRANCH   8   9
ENDBRANCH   7   8
ENDBRANCH   1   7
TORSDOF 6
ENDMDL
MODEL 8
REMARK VINA RESULT:    -3.674      5.231      7.130
REMARK INTER + INTRA:          -5.317
REMARK INTER:                  -5.003
REMARK INTRA:                  -0.315
REMARK UNBOUND:                -0.355
REMARK SMILES CCCCCCCC(=O)[O-]
REMARK SMILES IDX 5 1 6 2 7 3 8 4 9 5 10 6 4 7 3 8 2 9 1 10
REMARK H PARENT
REMARK Flexibility Score: inf
ROOT
ATOM      1  C   UNL     1     -44.639  28.203 -17.009  1.00  0.00     0.000 C 
ENDROOT
BRANCH   1   2
ATOM      2  C   UNL     1     -44.532  27.991 -15.488  1.00  0.00     0.006 C 
BRANCH   2   3
ATOM      3  C   UNL     1     -45.023  26.601 -15.062  1.00  0.00     0.053 C 
BRANCH   3   4
ATOM      4  C   UNL     1     -45.934  26.674 -13.875  1.00  0.00     0.041 C 
ATOM      5  O   UNL     1     -45.957  27.708 -13.157  1.00  0.00    -0.550 OA
ATOM      6  O   UNL     1     -46.729  25.585 -13.540  1.00  0.00    -0.550 OA
ENDBRANCH   3   4
ENDBRANCH   2   3
ENDBRANCH   1   2
BRANCH   1   7
ATOM      7  C   UNL     1     -45.212  26.977 -17.743  1.00  0.00     0.000 C 
BRANCH   7   8
ATOM      8  C   UNL     1     -44.298  26.385 -18.835  1.00  0.00    -0.000 C 
BRANCH   8   9
ATOM      9  C   UNL     1     -43.101  27.267 -19.230  1.00  0.00    -0.003 C 
ATOM     10  C   UNL     1     -43.043  27.554 -20.729  1.00  0.00     0.004 C 
ENDBRANCH   8   9
ENDBRANCH   7   8
ENDBRANCH   1   7
TORSDOF 6
ENDMDL
MODEL 9
REMARK VINA RESULT:    -3.651      3.477      5.556
REMARK INTER + INTRA:          -5.287
REMARK INTER:                  -4.734
REMARK INTRA:                  -0.553
REMARK UNBOUND:                -0.355
REMARK SMILES CCCCCCCC(=O)[O-]
REMARK SMILES IDX 5 1 6 2 7 3 8 4 9 5 10 6 4 7 3 8 2 9 1 10
REMARK H PARENT
REMARK Flexibility Score: inf
ROOT
ATOM      1  C   UNL     1     -45.000  26.703 -15.219  1.00  0.00     0.000 C 
ENDROOT
BRANCH   1   2
ATOM      2  C   UNL     1     -45.924  26.913 -14.006  1.00  0.00     0.006 C 
BRANCH   2   3
ATOM      3  C   UNL     1     -46.814  25.692 -13.738  1.00  0.00     0.053 C 
BRANCH   3   4
ATOM      4  C   UNL     1     -47.975  25.633 -14.683  1.00  0.00     0.041 C 
ATOM      5  O   UNL     1     -48.320  24.535 -15.194  1.00  0.00    -0.550 OA
ATOM      6  O   UNL     1     -48.652  26.796 -15.028  1.00  0.00    -0.550 OA
ENDBRANCH   3   4
ENDBRANCH   2   3
ENDBRANCH   1   2
BRANCH   1   7
ATOM      7  C   UNL     1     -45.098  27.842 -16.249  1.00  0.00     0.000 C 
BRANCH   7   8
ATOM      8  C   UNL     1     -46.075  27.586 -17.414  1.00  0.00    -0.000 C 
BRANCH   8   9
ATOM      9  C   UNL     1     -46.148  26.125 -17.893  1.00  0.00    -0.003 C 
ATOM     10  C   UNL     1     -45.037  25.766 -18.878  1.00  0.00     0.004 C 
ENDBRANCH   8   9
ENDBRANCH   7   8
ENDBRANCH   1   7
TORSDOF 6
ENDMDL
