MODEL 1
REMARK VINA RESULT:    12.828      0.000      0.000
REMARK INTER + INTRA:          24.246
REMARK INTER:                  24.826
REMARK INTRA:                  -0.580
REMARK UNBOUND:                -0.580
REMARK SMILES CCCCCCCCCCCCCCCCCC(=O)[O-]
REMARK SMILES IDX 10 1 11 2 12 3 13 4 14 5 15 6 16 7 17 8 18 9 19 10 20 11
REMARK SMILES IDX 9 12 8 13 7 14 6 15 5 16 4 17 3 18 2 19 1 20
REMARK H PARENT
REMARK Flexibility Score: inf
ROOT
ATOM      1  C   UNL     1       6.206  18.281  26.073  1.00  0.00     0.000 C 
ENDROOT
BRANCH   1   2
ATOM      2  C   UNL     1       5.891  18.490  24.577  1.00  0.00     0.000 C 
BRANCH   2   3
ATOM      3  C   UNL     1       4.701  19.436  24.331  1.00  0.00     0.000 C 
BRANCH   3   4
ATOM      4  C   UNL     1       4.558  19.848  22.855  1.00  0.00     0.000 C 
BRANCH   4   5
ATOM      5  C   UNL     1       3.520  20.964  22.653  1.00  0.00     0.000 C 
BRANCH   5   6
ATOM      6  C   UNL     1       2.109  20.417  22.397  1.00  0.00     0.000 C 
BRANCH   6   7
ATOM      7  C   UNL     1       1.414  20.051  23.715  1.00  0.00     0.006 C 
BRANCH   7   8
ATOM      8  C   UNL     1       0.331  18.994  23.489  1.00  0.00     0.053 C 
BRANCH   8   9
ATOM      9  C   UNL     1       0.565  17.797  24.356  1.00  0.00     0.041 C 
ATOM     10  O   UNL     1       0.038  16.691  24.066  1.00  0.00    -0.550 OA
ATOM     11  O   UNL     1       1.346  17.908  25.501  1.00  0.00    -0.550 OA
ENDBRANCH   8   9
ENDBRANCH   7   8
ENDBRANCH   6   7
ENDBRANCH   5   6
ENDBRANCH   4   5
ENDBRANCH   3   4
ENDBRANCH   2   3
ENDBRANCH   1   2
BRANCH   1  12
ATOM     12  C   UNL     1       7.569  17.600  26.289  1.00  0.00     0.000 C 
BRANCH  12  13
ATOM     13  C   UNL     1       7.820  17.232  27.760  1.00  0.00    -0.000 C 
BRANCH  13  14
ATOM     14  C   UNL     1       9.281  17.467  28.174  1.00  0.00    -0.000 C 
BRANCH  14  15
ATOM     15  C   UNL     1       9.379  17.966  29.621  1.00  0.00    -0.000 C 
BRANCH  15  16
ATOM     16  C   UNL     1       8.398  17.246  30.564  1.00  0.00    -0.000 C 
BRANCH  16  17
ATOM     17  C   UNL     1       8.733  17.431  32.061  1.00  0.00    -0.000 C 
BRANCH  17  18
ATOM     18  C   UNL     1       7.624  18.159  32.844  1.00  0.00    -0.000 C 
BRANCH  18  19
ATOM     19  C   UNL     1       7.840  19.679  32.867  1.00  0.00    -0.003 C 
ATOM     20  C   UNL     1       6.512  20.423  32.968  1.00  0.00     0.004 C 
ENDBRANCH  18  19
ENDBRANCH  17  18
ENDBRANCH  16  17
ENDBRANCH  15  16
ENDBRANCH  14  15
ENDBRANCH  13  14
ENDBRANCH  12  13
ENDBRANCH   1  12
TORSDOF 16
ENDMDL
MODEL 2
REMARK VINA RESULT:    12.902      3.645      9.185
REMARK INTER + INTRA:          24.389
REMARK INTER:                  25.373
REMARK INTRA:                  -0.984
REMARK UNBOUND:                -0.580
REMARK SMILES CCCCCCCCCCCCCCCCCC(=O)[O-]
REMARK SMILES IDX 10 1 11 2 12 3 13 4 14 5 15 6 16 7 17 8 18 9 19 10 20 11
REMARK SMILES IDX 9 12 8 13 7 14 6 15 5 16 4 17 3 18 2 19 1 20
REMARK H PARENT
REMARK Flexibility Score: inf
ROOT
ATOM      1  C   UNL     1       4.919  17.748  27.480  1.00  0.00     0.000 C 
ENDROOT
BRANCH   1   2
ATOM      2  C   UNL     1       5.653  18.223  26.208  1.00  0.00     0.000 C 
BRANCH   2   3
ATOM      3  C   UNL     1       7.175  17.996  26.260  1.00  0.00     0.000 C 
BRANCH   3   4
ATOM      4  C   UNL     1       7.632  17.291  27.549  1.00  0.00     0.000 C 
BRANCH   4   5
ATOM      5  C   UNL     1       9.160  17.300  27.716  1.00  0.00     0.000 C 
BRANCH   5   6
ATOM      6  C   UNL     1       9.600  17.835  29.085  1.00  0.00     0.000 C 
BRANCH   6   7
ATOM      7  C   UNL     1       8.558  17.511  30.162  1.00  0.00     0.006 C 
BRANCH   7   8
ATOM      8  C   UNL     1       9.184  17.540  31.559  1.00  0.00     0.053 C 
BRANCH   8   9
ATOM      9  C   UNL     1       8.130  17.455  32.617  1.00  0.00     0.041 C 
ATOM     10  O   UNL     1       7.820  16.339  33.114  1.00  0.00    -0.550 OA
ATOM     11  O   UNL     1       7.470  18.603  33.039  1.00  0.00    -0.550 OA
ENDBRANCH   8   9
ENDBRANCH   7   8
ENDBRANCH   6   7
ENDBRANCH   5   6
ENDBRANCH   4   5
ENDBRANCH   3   4
ENDBRANCH   2   3
ENDBRANCH   1   2
BRANCH   1  12
ATOM     12  C   UNL     1       3.411  18.047  27.425  1.00  0.00     0.000 C 
BRANCH  12  13
ATOM     13  C   UNL     1       2.827  17.886  26.012  1.00  0.00    -0.000 C 
BRANCH  13  14
ATOM     14  C   UNL     1       1.404  17.308  26.036  1.00  0.00    -0.000 C 
BRANCH  14  15
ATOM     15  C   UNL     1       0.637  17.658  24.755  1.00  0.00    -0.000 C 
BRANCH  15  16
ATOM     16  C   UNL     1       0.499  19.176  24.542  1.00  0.00    -0.000 C 
BRANCH  16  17
ATOM     17  C   UNL     1       1.051  19.662  23.182  1.00  0.00    -0.000 C 
BRANCH  17  18
ATOM     18  C   UNL     1       1.851  20.973  23.287  1.00  0.00    -0.000 C 
BRANCH  18  19
ATOM     19  C   UNL     1       2.886  21.107  22.160  1.00  0.00    -0.003 C 
ATOM     20  C   UNL     1       4.281  20.725  22.645  1.00  0.00     0.004 C 
ENDBRANCH  18  19
ENDBRANCH  17  18
ENDBRANCH  16  17
ENDBRANCH  15  16
ENDBRANCH  14  15
ENDBRANCH  13  14
ENDBRANCH  12  13
ENDBRANCH   1  12
TORSDOF 16
ENDMDL
MODEL 3
REMARK VINA RESULT:    13.004      1.119      1.742
REMARK INTER + INTRA:          24.587
REMARK INTER:                  25.585
REMARK INTRA:                  -0.998
REMARK UNBOUND:                -0.580
REMARK SMILES CCCCCCCCCCCCCCCCCC(=O)[O-]
REMARK SMILES IDX 10 1 11 2 12 3 13 4 14 5 15 6 16 7 17 8 18 9 19 10 20 11
REMARK SMILES IDX 9 12 8 13 7 14 6 15 5 16 4 17 3 18 2 19 1 20
REMARK H PARENT
REMARK Flexibility Score: inf
ROOT
ATOM      1  C   UNL     1       5.346  18.342  26.566  1.00  0.00     0.000 C 
ENDROOT
BRANCH   1   2
ATOM      2  C   UNL     1       5.987  18.920  25.287  1.00  0.00     0.000 C 
BRANCH   2   3
ATOM      3  C   UNL     1       5.031  18.942  24.081  1.00  0.00     0.000 C 
BRANCH   3   4
ATOM      4  C   UNL     1       4.651  20.367  23.642  1.00  0.00     0.000 C 
BRANCH   4   5
ATOM      5  C   UNL     1       3.767  20.381  22.385  1.00  0.00     0.000 C 
BRANCH   5   6
ATOM      6  C   UNL     1       2.371  20.962  22.653  1.00  0.00     0.000 C 
BRANCH   6   7
ATOM      7  C   UNL     1       1.319  19.849  22.732  1.00  0.00     0.006 C 
BRANCH   7   8
ATOM      8  C   UNL     1       0.837  19.650  24.172  1.00  0.00     0.053 C 
BRANCH   8   9
ATOM      9  C   UNL     1       0.663  18.196  24.479  1.00  0.00     0.041 C 
ATOM     10  O   UNL     1       1.118  17.716  25.551  1.00  0.00    -0.550 OA
ATOM     11  O   UNL     1       0.018  17.364  23.571  1.00  0.00    -0.550 OA
ENDBRANCH   8   9
ENDBRANCH   7   8
ENDBRANCH   6   7
ENDBRANCH   5   6
ENDBRANCH   4   5
ENDBRANCH   3   4
ENDBRANCH   2   3
ENDBRANCH   1   2
BRANCH   1  12
ATOM     12  C   UNL     1       6.331  17.471  27.366  1.00  0.00     0.000 C 
BRANCH  12  13
ATOM     13  C   UNL     1       7.506  16.971  26.511  1.00  0.00    -0.000 C 
BRANCH  13  14
ATOM     14  C   UNL     1       8.784  16.776  27.342  1.00  0.00    -0.000 C 
BRANCH  14  15
ATOM     15  C   UNL     1       9.281  18.107  27.921  1.00  0.00    -0.000 C 
BRANCH  15  16
ATOM     16  C   UNL     1       9.802  17.968  29.363  1.00  0.00    -0.000 C 
BRANCH  16  17
ATOM     17  C   UNL     1       8.734  17.467  30.361  1.00  0.00    -0.000 C 
BRANCH  17  18
ATOM     18  C   UNL     1       9.062  17.815  31.824  1.00  0.00    -0.000 C 
BRANCH  18  19
ATOM     19  C   UNL     1       7.878  17.534  32.762  1.00  0.00    -0.003 C 
ATOM     20  C   UNL     1       7.801  16.055  33.124  1.00  0.00     0.004 C 
ENDBRANCH  18  19
ENDBRANCH  17  18
ENDBRANCH  16  17
ENDBRANCH  15  16
ENDBRANCH  14  15
ENDBRANCH  13  14
ENDBRANCH  12  13
ENDBRANCH   1  12
TORSDOF 16
ENDMDL
MODEL 4
REMARK VINA RESULT:    13.183      3.643      9.194
REMARK INTER + INTRA:          24.934
REMARK INTER:                  25.592
REMARK INTRA:                  -0.658
REMARK UNBOUND:                -0.580
REMARK SMILES CCCCCCCCCCCCCCCCCC(=O)[O-]
REMARK SMILES IDX 10 1 11 2 12 3 13 4 14 5 15 6 16 7 17 8 18 9 19 10 20 11
REMARK SMILES IDX 9 12 8 13 7 14 6 15 5 16 4 17 3 18 2 19 1 20
REMARK H PARENT
REMARK Flexibility Score: inf
ROOT
ATOM      1  C   UNL     1       5.742  18.942  25.644  1.00  0.00     0.000 C 
ENDROOT
BRANCH   1   2
ATOM      2  C   UNL     1       7.048  18.129  25.755  1.00  0.00     0.000 C 
BRANCH   2   3
ATOM      3  C   UNL     1       7.252  17.487  27.140  1.00  0.00     0.000 C 
BRANCH   3   4
ATOM      4  C   UNL     1       8.404  16.467  27.164  1.00  0.00     0.000 C 
BRANCH   4   5
ATOM      5  C   UNL     1       9.617  16.969  27.964  1.00  0.00     0.000 C 
BRANCH   5   6
ATOM      6  C   UNL     1       9.241  18.044  28.993  1.00  0.00     0.000 C 
BRANCH   6   7
ATOM      7  C   UNL     1       8.397  17.447  30.126  1.00  0.00     0.006 C 
BRANCH   7   8
ATOM      8  C   UNL     1       9.114  17.578  31.472  1.00  0.00     0.053 C 
BRANCH   8   9
ATOM      9  C   UNL     1       8.167  17.337  32.606  1.00  0.00     0.041 C 
ATOM     10  O   UNL     1       7.524  18.296  33.109  1.00  0.00    -0.550 OA
ATOM     11  O   UNL     1       8.012  16.057  33.125  1.00  0.00    -0.550 OA
ENDBRANCH   8   9
ENDBRANCH   7   8
ENDBRANCH   6   7
ENDBRANCH   5   6
ENDBRANCH   4   5
ENDBRANCH   3   4
ENDBRANCH   2   3
ENDBRANCH   1   2
BRANCH   1  12
ATOM     12  C   UNL     1       5.141  18.884  24.228  1.00  0.00     0.000 C 
BRANCH  12  13
ATOM     13  C   UNL     1       4.653  20.256  23.737  1.00  0.00    -0.000 C 
BRANCH  13  14
ATOM     14  C   UNL     1       3.954  20.166  22.371  1.00  0.00    -0.000 C 
BRANCH  14  15
ATOM     15  C   UNL     1       2.795  21.166  22.270  1.00  0.00    -0.000 C 
BRANCH  15  16
ATOM     16  C   UNL     1       1.807  21.051  23.444  1.00  0.00    -0.000 C 
BRANCH  16  17
ATOM     17  C   UNL     1       1.049  19.705  23.484  1.00  0.00    -0.000 C 
BRANCH  17  18
ATOM     18  C   UNL     1       0.716  19.240  24.913  1.00  0.00    -0.000 C 
BRANCH  18  19
ATOM     19  C   UNL     1       0.826  17.715  25.062  1.00  0.00    -0.003 C 
ATOM     20  C   UNL     1       0.172  16.998  23.886  1.00  0.00     0.004 C 
ENDBRANCH  18  19
ENDBRANCH  17  18
ENDBRANCH  16  17
ENDBRANCH  15  16
ENDBRANCH  14  15
ENDBRANCH  13  14
ENDBRANCH  12  13
ENDBRANCH   1  12
TORSDOF 16
ENDMDL
MODEL 5
REMARK VINA RESULT:    13.375      1.920      2.780
REMARK INTER + INTRA:          25.306
REMARK INTER:                  25.766
REMARK INTRA:                  -0.460
REMARK UNBOUND:                -0.580
REMARK SMILES CCCCCCCCCCCCCCCCCC(=O)[O-]
REMARK SMILES IDX 10 1 11 2 12 3 13 4 14 5 15 6 16 7 17 8 18 9 19 10 20 11
REMARK SMILES IDX 9 12 8 13 7 14 6 15 5 16 4 17 3 18 2 19 1 20
REMARK H PARENT
REMARK Flexibility Score: inf
ROOT
ATOM      1  C   UNL     1       7.799  17.157  26.987  1.00  0.00     0.000 C 
ENDROOT
BRANCH   1   2
ATOM      2  C   UNL     1       7.059  17.873  25.838  1.00  0.00     0.000 C 
BRANCH   2   3
ATOM      3  C   UNL     1       5.763  18.571  26.287  1.00  0.00     0.000 C 
BRANCH   3   4
ATOM      4  C   UNL     1       5.014  17.794  27.385  1.00  0.00     0.000 C 
BRANCH   4   5
ATOM      5  C   UNL     1       3.499  18.060  27.365  1.00  0.00     0.000 C 
BRANCH   5   6
ATOM      6  C   UNL     1       2.861  17.729  26.009  1.00  0.00     0.000 C 
BRANCH   6   7
ATOM      7  C   UNL     1       1.330  17.734  26.107  1.00  0.00     0.006 C 
BRANCH   7   8
ATOM      8  C   UNL     1       0.700  17.062  24.885  1.00  0.00     0.053 C 
BRANCH   8   9
ATOM      9  C   UNL     1       0.256  18.083  23.885  1.00  0.00     0.041 C 
ATOM     10  O   UNL     1       0.224  19.303  24.197  1.00  0.00    -0.550 OA
ATOM     11  O   UNL     1      -0.147  17.687  22.615  1.00  0.00    -0.550 OA
ENDBRANCH   8   9
ENDBRANCH   7   8
ENDBRANCH   6   7
ENDBRANCH   5   6
ENDBRANCH   4   5
ENDBRANCH   3   4
ENDBRANCH   2   3
ENDBRANCH   1   2
BRANCH   1  12
ATOM     12  C   UNL     1       8.938  18.013  27.567  1.00  0.00     0.000 C 
BRANCH  12  13
ATOM     13  C   UNL     1       9.490  17.448  28.885  1.00  0.00    -0.000 C 
BRANCH  13  14
ATOM     14  C   UNL     1       8.660  17.894  30.099  1.00  0.00    -0.000 C 
BRANCH  14  15
ATOM     15  C   UNL     1       8.514  16.761  31.122  1.00  0.00    -0.000 C 
BRANCH  15  16
ATOM     16  C   UNL     1       8.770  17.228  32.566  1.00  0.00    -0.000 C 
BRANCH  16  17
ATOM     17  C   UNL     1       7.662  18.151  33.122  1.00  0.00    -0.000 C 
BRANCH  17  18
ATOM     18  C   UNL     1       7.648  19.544  32.466  1.00  0.00    -0.000 C 
BRANCH  18  19
ATOM     19  C   UNL     1       6.623  20.479  33.125  1.00  0.00    -0.003 C 
ATOM     20  C   UNL     1       6.058  21.475  32.117  1.00  0.00     0.004 C 
ENDBRANCH  18  19
ENDBRANCH  17  18
ENDBRANCH  16  17
ENDBRANCH  15  16
ENDBRANCH  14  15
ENDBRANCH  13  14
ENDBRANCH  12  13
ENDBRANCH   1  12
TORSDOF 16
ENDMDL
MODEL 6
REMARK VINA RESULT:    13.580      1.632      2.282
REMARK INTER + INTRA:          25.703
REMARK INTER:                  25.530
REMARK INTRA:                   0.173
REMARK UNBOUND:                -0.580
REMARK SMILES CCCCCCCCCCCCCCCCCC(=O)[O-]
REMARK SMILES IDX 10 1 11 2 12 3 13 4 14 5 15 6 16 7 17 8 18 9 19 10 20 11
REMARK SMILES IDX 9 12 8 13 7 14 6 15 5 16 4 17 3 18 2 19 1 20
REMARK H PARENT
REMARK Flexibility Score: inf
ROOT
ATOM      1  C   UNL     1       7.319  18.011  25.731  1.00  0.00     0.000 C 
ENDROOT
BRANCH   1   2
ATOM      2  C   UNL     1       6.085  18.933  25.633  1.00  0.00     0.000 C 
BRANCH   2   3
ATOM      3  C   UNL     1       4.748  18.174  25.722  1.00  0.00     0.000 C 
BRANCH   3   4
ATOM      4  C   UNL     1       4.286  17.942  27.172  1.00  0.00     0.000 C 
BRANCH   4   5
ATOM      5  C   UNL     1       2.755  17.913  27.304  1.00  0.00     0.000 C 
BRANCH   5   6
ATOM      6  C   UNL     1       2.052  17.666  25.962  1.00  0.00     0.000 C 
BRANCH   6   7
ATOM      7  C   UNL     1       0.874  18.630  25.774  1.00  0.00     0.006 C 
BRANCH   7   8
ATOM      8  C   UNL     1       0.617  18.899  24.289  1.00  0.00     0.053 C 
BRANCH   8   9
ATOM      9  C   UNL     1       0.115  17.667  23.604  1.00  0.00     0.041 C 
ATOM     10  O   UNL     1      -0.319  17.731  22.424  1.00  0.00    -0.550 OA
ATOM     11  O   UNL     1       0.103  16.451  24.276  1.00  0.00    -0.550 OA
ENDBRANCH   8   9
ENDBRANCH   7   8
ENDBRANCH   6   7
ENDBRANCH   5   6
ENDBRANCH   4   5
ENDBRANCH   3   4
ENDBRANCH   2   3
ENDBRANCH   1   2
BRANCH   1  12
ATOM     12  C   UNL     1       7.502  17.435  27.146  1.00  0.00     0.000 C 
BRANCH  12  13
ATOM     13  C   UNL     1       8.978  17.191  27.498  1.00  0.00    -0.000 C 
BRANCH  13  14
ATOM     14  C   UNL     1       9.376  17.865  28.820  1.00  0.00    -0.000 C 
BRANCH  14  15
ATOM     15  C   UNL     1       8.395  17.513  29.945  1.00  0.00    -0.000 C 
BRANCH  15  16
ATOM     16  C   UNL     1       9.104  17.210  31.277  1.00  0.00    -0.000 C 
BRANCH  16  17
ATOM     17  C   UNL     1       8.131  16.899  32.438  1.00  0.00    -0.000 C 
BRANCH  17  18
ATOM     18  C   UNL     1       7.583  18.164  33.123  1.00  0.00    -0.000 C 
BRANCH  18  19
ATOM     19  C   UNL     1       7.825  19.426  32.281  1.00  0.00    -0.003 C 
ATOM     20  C   UNL     1       6.726  20.458  32.507  1.00  0.00     0.004 C 
ENDBRANCH  18  19
ENDBRANCH  17  18
ENDBRANCH  16  17
ENDBRANCH  15  16
ENDBRANCH  14  15
ENDBRANCH  13  14
ENDBRANCH  12  13
ENDBRANCH   1  12
TORSDOF 16
ENDMDL
MODEL 7
REMARK VINA RESULT:    13.609      1.957      2.829
REMARK INTER + INTRA:          25.758
REMARK INTER:                  26.700
REMARK INTRA:                  -0.942
REMARK UNBOUND:                -0.580
REMARK SMILES CCCCCCCCCCCCCCCCCC(=O)[O-]
REMARK SMILES IDX 10 1 11 2 12 3 13 4 14 5 15 6 16 7 17 8 18 9 19 10 20 11
REMARK SMILES IDX 9 12 8 13 7 14 6 15 5 16 4 17 3 18 2 19 1 20
REMARK H PARENT
REMARK Flexibility Score: inf
ROOT
ATOM      1  C   UNL     1       5.662  18.237  26.115  1.00  0.00     0.000 C 
ENDROOT
BRANCH   1   2
ATOM      2  C   UNL     1       5.004  17.840  27.453  1.00  0.00     0.000 C 
BRANCH   2   3
ATOM      3  C   UNL     1       3.466  17.889  27.415  1.00  0.00     0.000 C 
BRANCH   3   4
ATOM      4  C   UNL     1       2.901  17.880  25.984  1.00  0.00     0.000 C 
BRANCH   4   5
ATOM      5  C   UNL     1       1.369  17.755  25.956  1.00  0.00     0.000 C 
BRANCH   5   6
ATOM      6  C   UNL     1       0.778  18.059  24.572  1.00  0.00     0.000 C 
BRANCH   6   7
ATOM      7  C   UNL     1       0.951  19.541  24.215  1.00  0.00     0.006 C 
BRANCH   7   8
ATOM      8  C   UNL     1       1.433  19.705  22.771  1.00  0.00     0.053 C 
BRANCH   8   9
ATOM      9  C   UNL     1       2.428  20.817  22.665  1.00  0.00     0.041 C 
ATOM     10  O   UNL     1       2.046  22.016  22.717  1.00  0.00    -0.550 OA
ATOM     11  O   UNL     1       3.776  20.532  22.483  1.00  0.00    -0.550 OA
ENDBRANCH   8   9
ENDBRANCH   7   8
ENDBRANCH   6   7
ENDBRANCH   5   6
ENDBRANCH   4   5
ENDBRANCH   3   4
ENDBRANCH   2   3
ENDBRANCH   1   2
BRANCH   1  12
ATOM     12  C   UNL     1       7.170  17.929  26.096  1.00  0.00     0.000 C 
BRANCH  12  13
ATOM     13  C   UNL     1       7.643  17.215  27.372  1.00  0.00    -0.000 C 
BRANCH  13  14
ATOM     14  C   UNL     1       9.119  17.506  27.684  1.00  0.00    -0.000 C 
BRANCH  14  15
ATOM     15  C   UNL     1       9.285  18.120  29.080  1.00  0.00    -0.000 C 
BRANCH  15  16
ATOM     16  C   UNL     1       8.697  17.232  30.192  1.00  0.00    -0.000 C 
BRANCH  16  17
ATOM     17  C   UNL     1       9.284  17.524  31.591  1.00  0.00    -0.000 C 
BRANCH  17  18
ATOM     18  C   UNL     1       8.319  17.172  32.738  1.00  0.00    -0.000 C 
BRANCH  18  19
ATOM     19  C   UNL     1       7.220  18.231  32.911  1.00  0.00    -0.003 C 
ATOM     20  C   UNL     1       7.799  19.641  32.849  1.00  0.00     0.004 C 
ENDBRANCH  18  19
ENDBRANCH  17  18
ENDBRANCH  16  17
ENDBRANCH  15  16
ENDBRANCH  14  15
ENDBRANCH  13  14
ENDBRANCH  12  13
ENDBRANCH   1  12
TORSDOF 16
ENDMDL
MODEL 8
REMARK VINA RESULT:    13.795      3.699      9.094
REMARK INTER + INTRA:          26.119
REMARK INTER:                  26.066
REMARK INTRA:                   0.053
REMARK UNBOUND:                -0.580
REMARK SMILES CCCCCCCCCCCCCCCCCC(=O)[O-]
REMARK SMILES IDX 10 1 11 2 12 3 13 4 14 5 15 6 16 7 17 8 18 9 19 10 20 11
REMARK SMILES IDX 9 12 8 13 7 14 6 15 5 16 4 17 3 18 2 19 1 20
REMARK H PARENT
REMARK Flexibility Score: inf
ROOT
ATOM      1  C   UNL     1       7.002  17.245  26.895  1.00  0.00     0.000 C 
ENDROOT
BRANCH   1   2
ATOM      2  C   UNL     1       8.507  16.994  26.664  1.00  0.00     0.000 C 
BRANCH   2   3
ATOM      3  C   UNL     1       9.299  16.792  27.968  1.00  0.00     0.000 C 
BRANCH   3   4
ATOM      4  C   UNL     1       9.547  18.108  28.728  1.00  0.00     0.000 C 
BRANCH   4   5
ATOM      5  C   UNL     1       9.657  17.899  30.247  1.00  0.00     0.000 C 
BRANCH   5   6
ATOM      6  C   UNL     1       8.379  17.303  30.853  1.00  0.00     0.000 C 
BRANCH   6   7
ATOM      7  C   UNL     1       8.524  17.120  32.369  1.00  0.00     0.006 C 
BRANCH   7   8
ATOM      8  C   UNL     1       7.452  17.912  33.123  1.00  0.00     0.053 C 
BRANCH   8   9
ATOM      9  C   UNL     1       7.547  19.371  32.806  1.00  0.00     0.041 C 
ATOM     10  O   UNL     1       6.557  20.126  32.996  1.00  0.00    -0.550 OA
ATOM     11  O   UNL     1       8.720  19.895  32.276  1.00  0.00    -0.550 OA
ENDBRANCH   8   9
ENDBRANCH   7   8
ENDBRANCH   6   7
ENDBRANCH   5   6
ENDBRANCH   4   5
ENDBRANCH   3   4
ENDBRANCH   2   3
ENDBRANCH   1   2
BRANCH   1  12
ATOM     12  C   UNL     1       6.463  18.388  26.016  1.00  0.00     0.000 C 
BRANCH  12  13
ATOM     13  C   UNL     1       4.928  18.464  26.021  1.00  0.00    -0.000 C 
BRANCH  13  14
ATOM     14  C   UNL     1       4.323  17.868  27.301  1.00  0.00    -0.000 C 
BRANCH  14  15
ATOM     15  C   UNL     1       2.791  17.838  27.233  1.00  0.00    -0.000 C 
BRANCH  15  16
ATOM     16  C   UNL     1       2.259  17.887  25.790  1.00  0.00    -0.000 C 
BRANCH  16  17
ATOM     17  C   UNL     1       0.874  18.561  25.664  1.00  0.00    -0.000 C 
BRANCH  17  18
ATOM     18  C   UNL     1       0.549  19.011  24.228  1.00  0.00    -0.000 C 
BRANCH  18  19
ATOM     19  C   UNL     1      -0.043  17.869  23.388  1.00  0.00    -0.003 C 
ATOM     20  C   UNL     1       0.031  16.541  24.133  1.00  0.00     0.004 C 
ENDBRANCH  18  19
ENDBRANCH  17  18
ENDBRANCH  16  17
ENDBRANCH  15  16
ENDBRANCH  14  15
ENDBRANCH  13  14
ENDBRANCH  12  13
ENDBRANCH   1  12
TORSDOF 16
ENDMDL
MODEL 9
REMARK VINA RESULT:    14.076      5.554      7.897
REMARK INTER + INTRA:          26.663
REMARK INTER:                  27.401
REMARK INTRA:                  -0.739
REMARK UNBOUND:                -0.580
REMARK SMILES CCCCCCCCCCCCCCCCCC(=O)[O-]
REMARK SMILES IDX 10 1 11 2 12 3 13 4 14 5 15 6 16 7 17 8 18 9 19 10 20 11
REMARK SMILES IDX 9 12 8 13 7 14 6 15 5 16 4 17 3 18 2 19 1 20
REMARK H PARENT
REMARK Flexibility Score: inf
ROOT
ATOM      1  C   UNL     1      10.221  14.179  26.346  1.00  0.00     0.000 C 
ENDROOT
BRANCH   1   2
ATOM      2  C   UNL     1      11.454  13.370  26.801  1.00  0.00     0.000 C 
BRANCH   2   3
ATOM      3  C   UNL     1      11.094  12.024  27.456  1.00  0.00     0.000 C 
BRANCH   3   4
ATOM      4  C   UNL     1       9.969  11.279  26.716  1.00  0.00     0.000 C 
BRANCH   4   5
ATOM      5  C   UNL     1      10.028   9.758  26.934  1.00  0.00     0.000 C 
BRANCH   5   6
ATOM      6  C   UNL     1       8.796   9.222  27.677  1.00  0.00     0.000 C 
BRANCH   6   7
ATOM      7  C   UNL     1       7.547   9.292  26.791  1.00  0.00     0.006 C 
BRANCH   7   8
ATOM      8  C   UNL     1       6.277   9.407  27.639  1.00  0.00     0.053 C 
BRANCH   8   9
ATOM      9  C   UNL     1       5.474  10.602  27.235  1.00  0.00     0.041 C 
ATOM     10  O   UNL     1       4.600  11.070  28.012  1.00  0.00    -0.550 OA
ATOM     11  O   UNL     1       5.670  11.187  25.989  1.00  0.00    -0.550 OA
ENDBRANCH   8   9
ENDBRANCH   7   8
ENDBRANCH   6   7
ENDBRANCH   5   6
ENDBRANCH   4   5
ENDBRANCH   3   4
ENDBRANCH   2   3
ENDBRANCH   1   2
BRANCH   1  12
ATOM     12  C   UNL     1      10.134  15.546  27.047  1.00  0.00     0.000 C 
BRANCH  12  13
ATOM     13  C   UNL     1       8.713  16.132  27.024  1.00  0.00    -0.000 C 
BRANCH  13  14
ATOM     14  C   UNL     1       8.666  17.557  27.595  1.00  0.00    -0.000 C 
BRANCH  14  15
ATOM     15  C   UNL     1       9.333  17.629  28.975  1.00  0.00    -0.000 C 
BRANCH  15  16
ATOM     16  C   UNL     1       8.317  17.584  30.129  1.00  0.00    -0.000 C 
BRANCH  16  17
ATOM     17  C   UNL     1       8.827  16.823  31.373  1.00  0.00    -0.000 C 
BRANCH  17  18
ATOM     18  C   UNL     1       8.756  17.657  32.665  1.00  0.00    -0.000 C 
BRANCH  18  19
ATOM     19  C   UNL     1       7.383  18.321  32.846  1.00  0.00    -0.003 C 
ATOM     20  C   UNL     1       7.465  19.827  32.620  1.00  0.00     0.004 C 
ENDBRANCH  18  19
ENDBRANCH  17  18
ENDBRANCH  16  17
ENDBRANCH  15  16
ENDBRANCH  14  15
ENDBRANCH  13  14
ENDBRANCH  12  13
ENDBRANCH   1  12
TORSDOF 16
ENDMDL
