MODEL 1
REMARK VINA RESULT:    -3.279      0.000      0.000
REMARK INTER + INTRA:          -4.389
REMARK INTER:                  -4.813
REMARK INTRA:                   0.424
REMARK UNBOUND:                 0.424
REMARK SMILES C=C1CC=CC(C)(C)CC=C(C)CCC1
REMARK SMILES IDX 2 1 1 2 15 3 14 4 13 5 11 6 12 7 10 8 3 10 4 11 5 12 6 13
REMARK SMILES IDX 7 14 8 15 9 16
REMARK H PARENT
REMARK Flexibility Score: 60.00
ROOT
ATOM      1  C   UNL     1       8.459  19.376  22.596  1.00  0.00    -0.074 C 
ATOM      2  C   UNL     1       8.346  18.063  22.334  1.00  0.00     0.008 C 
ENDROOT
BRANCH   1   3
ATOM      3  C   UNL     1       7.211  20.171  22.932  1.00  0.00     0.031 C 
BRANCH   3   4
ATOM      4  C   UNL     1       6.699  19.904  24.366  1.00  0.00     0.009 C 
BRANCH   4   5
ATOM      5  C   UNL     1       7.539  20.636  25.434  1.00  0.00     0.030 C 
BRANCH   5   6
ATOM      6  C   UNL     1       8.375  19.724  26.314  1.00  0.00    -0.077 C 
ATOM      7  C   UNL     1       7.685  18.591  27.032  1.00  0.00     0.039 C 
ATOM      8  C   UNL     1       9.724  19.808  26.434  1.00  0.00    -0.027 CG0
ATOM      9  G   UNL     1      10.624  20.914  25.919  1.00  0.00     0.000 G0
ENDBRANCH   5   6
ENDBRANCH   4   5
ENDBRANCH   3   4
ENDBRANCH   1   3
BRANCH   1  10
ATOM     10  C   UNL     1       9.839  19.987  22.737  1.00  0.00     0.057 C 
BRANCH  10  11
ATOM     11  C   UNL     1      10.877  19.039  23.288  1.00  0.00    -0.026 C 
ATOM     12  C   UNL     1      11.754  19.234  24.304  1.00  0.00    -0.024 C 
BRANCH  12  13
ATOM     13  C   UNL     1      11.949  20.453  25.211  1.00  0.00    -0.014 C 
ATOM     14  C   UNL     1      12.531  21.646  24.417  1.00  0.00     0.016 C 
ATOM     15  C   UNL     1      12.991  20.079  26.296  1.00  0.00     0.016 C 
BRANCH  13  16
ATOM     16  C   UNL     1      10.628  20.898  25.907  1.00  0.00     0.038 CG0
ATOM     17  G   UNL     1       9.732  19.794  26.435  1.00  0.00     0.000 G0
ENDBRANCH  13  16
ENDBRANCH  12  13
ENDBRANCH  10  11
ENDBRANCH   1  10
TORSDOF 0
ENDMDL
MODEL 2
REMARK VINA RESULT:    -3.212      1.258      3.094
REMARK INTER + INTRA:          -4.290
REMARK INTER:                  -4.776
REMARK INTRA:                   0.486
REMARK UNBOUND:                 0.424
REMARK SMILES C=C1CC=CC(C)(C)CC=C(C)CCC1
REMARK SMILES IDX 2 1 1 2 15 3 14 4 13 5 11 6 12 7 10 8 3 10 4 11 5 12 6 13
REMARK SMILES IDX 7 14 8 15 9 16
REMARK H PARENT
REMARK Flexibility Score: 60.00
ROOT
ATOM      1  C   UNL     1       8.142  19.974  26.586  1.00  0.00    -0.074 C 
ATOM      2  C   UNL     1       7.707  18.773  27.006  1.00  0.00     0.008 C 
ENDROOT
BRANCH   1   3
ATOM      3  C   UNL     1       7.151  20.942  25.966  1.00  0.00     0.031 C 
BRANCH   3   4
ATOM      4  C   UNL     1       6.417  20.344  24.743  1.00  0.00     0.009 C 
BRANCH   4   5
ATOM      5  C   UNL     1       7.158  20.624  23.419  1.00  0.00     0.030 C 
BRANCH   5   6
ATOM      6  C   UNL     1       8.083  19.509  22.966  1.00  0.00    -0.077 C 
ATOM      7  C   UNL     1       7.478  18.312  22.273  1.00  0.00     0.039 C 
ATOM      8  C   UNL     1       9.436  19.552  23.066  1.00  0.00    -0.027 CG0
ATOM      9  G   UNL     1      10.267  20.572  23.819  1.00  0.00     0.000 G0
ENDBRANCH   5   6
ENDBRANCH   4   5
ENDBRANCH   3   4
ENDBRANCH   1   3
BRANCH   1  10
ATOM     10  C   UNL     1       9.558  20.404  26.911  1.00  0.00     0.057 C 
BRANCH  10  11
ATOM     11  C   UNL     1      10.595  19.330  26.681  1.00  0.00    -0.026 C 
ATOM     12  C   UNL     1      11.449  19.182  25.639  1.00  0.00    -0.024 C 
BRANCH  12  13
ATOM     13  C   UNL     1      11.641  20.056  24.395  1.00  0.00    -0.014 C 
ATOM     14  C   UNL     1      12.413  19.291  23.295  1.00  0.00     0.016 C 
ATOM     15  C   UNL     1      12.514  21.272  24.798  1.00  0.00     0.016 C 
BRANCH  13  16
ATOM     16  C   UNL     1      10.292  20.570  23.811  1.00  0.00     0.038 CG0
ATOM     17  G   UNL     1       9.443  19.557  23.067  1.00  0.00     0.000 G0
ENDBRANCH  13  16
ENDBRANCH  12  13
ENDBRANCH  10  11
ENDBRANCH   1  10
TORSDOF 0
ENDMDL
MODEL 3
REMARK VINA RESULT:    -3.158     12.398     14.463
REMARK INTER + INTRA:          -4.210
REMARK INTER:                  -4.648
REMARK INTRA:                   0.438
REMARK UNBOUND:                 0.424
REMARK SMILES C=C1CC=CC(C)(C)CC=C(C)CCC1
REMARK SMILES IDX 2 1 1 2 15 3 14 4 13 5 11 6 12 7 10 8 3 10 4 11 5 12 6 13
REMARK SMILES IDX 7 14 8 15 9 16
REMARK H PARENT
REMARK Flexibility Score: 60.00
ROOT
ATOM      1  C   UNL     1      14.513  14.248  36.752  1.00  0.00    -0.074 C 
ATOM      2  C   UNL     1      15.435  13.338  36.392  1.00  0.00     0.008 C 
ENDROOT
BRANCH   1   3
ATOM      3  C   UNL     1      14.541  15.622  36.108  1.00  0.00     0.031 C 
BRANCH   3   4
ATOM      4  C   UNL     1      15.365  16.646  36.921  1.00  0.00     0.009 C 
BRANCH   4   5
ATOM      5  C   UNL     1      14.497  17.432  37.926  1.00  0.00     0.030 C 
BRANCH   5   6
ATOM      6  C   UNL     1      13.151  17.880  37.383  1.00  0.00    -0.077 C 
ATOM      7  C   UNL     1      13.132  18.848  36.225  1.00  0.00     0.039 C 
ATOM      8  C   UNL     1      11.957  17.401  37.814  1.00  0.00    -0.027 CG0
ATOM      9  G   UNL     1      11.704  16.526  39.027  1.00  0.00     0.000 G0
ENDBRANCH   5   6
ENDBRANCH   4   5
ENDBRANCH   3   4
ENDBRANCH   1   3
BRANCH   1  10
ATOM     10  C   UNL     1      13.362  13.822  37.642  1.00  0.00     0.057 C 
BRANCH  10  11
ATOM     11  C   UNL     1      12.001  13.995  37.011  1.00  0.00    -0.026 C 
ATOM     12  C   UNL     1      10.902  14.613  37.512  1.00  0.00    -0.024 C 
BRANCH  12  13
ATOM     13  C   UNL     1      10.708  15.336  38.849  1.00  0.00    -0.014 C 
ATOM     14  C   UNL     1      10.862  14.356  40.036  1.00  0.00     0.016 C 
ATOM     15  C   UNL     1       9.256  15.876  38.892  1.00  0.00     0.016 C 
BRANCH  13  16
ATOM     16  C   UNL     1      11.698  16.524  39.035  1.00  0.00     0.038 CG0
ATOM     17  G   UNL     1      11.949  17.397  37.821  1.00  0.00     0.000 G0
ENDBRANCH  13  16
ENDBRANCH  12  13
ENDBRANCH  10  11
ENDBRANCH   1  10
TORSDOF 0
ENDMDL
MODEL 4
REMARK VINA RESULT:    -3.154      2.308      4.323
REMARK INTER + INTRA:          -4.205
REMARK INTER:                  -4.552
REMARK INTRA:                   0.346
REMARK UNBOUND:                 0.424
REMARK SMILES C=C1CC=CC(C)(C)CC=C(C)CCC1
REMARK SMILES IDX 2 1 1 2 15 3 14 4 13 5 11 6 12 7 10 8 3 10 4 11 5 12 6 13
REMARK SMILES IDX 7 14 8 15 9 16
REMARK H PARENT
REMARK Flexibility Score: 60.00
ROOT
ATOM      1  C   UNL     1       9.983  19.328  26.454  1.00  0.00    -0.074 C 
ATOM      2  C   UNL     1       8.749  19.254  26.981  1.00  0.00     0.008 C 
ENDROOT
BRANCH   1   3
ATOM      3  C   UNL     1      11.097  18.497  27.062  1.00  0.00     0.031 C 
BRANCH   3   4
ATOM      4  C   UNL     1      11.891  19.262  28.146  1.00  0.00     0.009 C 
BRANCH   4   5
ATOM      5  C   UNL     1      13.275  19.722  27.644  1.00  0.00     0.030 C 
BRANCH   5   6
ATOM      6  C   UNL     1      13.297  21.116  27.042  1.00  0.00    -0.077 C 
ATOM      7  C   UNL     1      13.019  22.292  27.946  1.00  0.00     0.039 C 
ATOM      8  C   UNL     1      13.635  21.385  25.755  1.00  0.00    -0.027 CG0
ATOM      9  G   UNL     1      13.836  20.387  24.632  1.00  0.00     0.000 G0
ENDBRANCH   5   6
ENDBRANCH   4   5
ENDBRANCH   3   4
ENDBRANCH   1   3
BRANCH   1  10
ATOM     10  C   UNL     1      10.190  20.087  25.158  1.00  0.00     0.057 C 
BRANCH  10  11
ATOM     11  C   UNL     1      10.726  19.240  24.028  1.00  0.00    -0.026 C 
ATOM     12  C   UNL     1      11.844  19.423  23.284  1.00  0.00    -0.024 C 
BRANCH  12  13
ATOM     13  C   UNL     1      12.909  20.521  23.368  1.00  0.00    -0.014 C 
ATOM     14  C   UNL     1      12.258  21.924  23.368  1.00  0.00     0.016 C 
ATOM     15  C   UNL     1      13.790  20.430  22.096  1.00  0.00     0.016 C 
BRANCH  13  16
ATOM     16  C   UNL     1      13.817  20.378  24.625  1.00  0.00     0.038 CG0
ATOM     17  G   UNL     1      13.615  21.397  25.730  1.00  0.00     0.000 G0
ENDBRANCH  13  16
ENDBRANCH  12  13
ENDBRANCH  10  11
ENDBRANCH   1  10
TORSDOF 0
ENDMDL
MODEL 5
REMARK VINA RESULT:    -3.147      1.564      4.744
REMARK INTER + INTRA:          -4.194
REMARK INTER:                  -4.585
REMARK INTRA:                   0.391
REMARK UNBOUND:                 0.424
REMARK SMILES C=C1CC=CC(C)(C)CC=C(C)CCC1
REMARK SMILES IDX 2 1 1 2 15 3 14 4 13 5 11 6 12 7 10 8 3 10 4 11 5 12 6 13
REMARK SMILES IDX 7 14 8 15 9 16
REMARK H PARENT
REMARK Flexibility Score: 60.00
ROOT
ATOM      1  C   UNL     1      10.616  19.748  26.960  1.00  0.00    -0.074 C 
ATOM      2  C   UNL     1      10.934  18.499  27.343  1.00  0.00     0.008 C 
ENDROOT
BRANCH   1   3
ATOM      3  C   UNL     1      11.683  20.618  26.323  1.00  0.00     0.031 C 
BRANCH   3   4
ATOM      4  C   UNL     1      11.116  21.557  25.233  1.00  0.00     0.009 C 
BRANCH   4   5
ATOM      5  C   UNL     1      11.465  21.079  23.808  1.00  0.00     0.030 C 
BRANCH   5   6
ATOM      6  C   UNL     1      10.764  19.800  23.382  1.00  0.00    -0.077 C 
ATOM      7  C   UNL     1      11.602  18.567  23.148  1.00  0.00     0.039 C 
ATOM      8  C   UNL     1       9.418  19.667  23.280  1.00  0.00    -0.027 CG0
ATOM      9  G   UNL     1       8.379  20.770  23.345  1.00  0.00     0.000 G0
ENDBRANCH   5   6
ENDBRANCH   4   5
ENDBRANCH   3   4
ENDBRANCH   1   3
BRANCH   1  10
ATOM     10  C   UNL     1       9.166  20.186  26.997  1.00  0.00     0.057 C 
BRANCH  10  11
ATOM     11  C   UNL     1       8.212  19.210  26.350  1.00  0.00    -0.026 C 
ATOM     12  C   UNL     1       7.406  19.394  25.274  1.00  0.00    -0.024 C 
BRANCH  12  13
ATOM     13  C   UNL     1       7.229  20.626  24.381  1.00  0.00    -0.014 C 
ATOM     14  C   UNL     1       7.149  21.917  25.229  1.00  0.00     0.016 C 
ATOM     15  C   UNL     1       5.876  20.486  23.639  1.00  0.00     0.016 C 
BRANCH  13  16
ATOM     16  C   UNL     1       8.371  20.772  23.331  1.00  0.00     0.038 CG0
ATOM     17  G   UNL     1       9.412  19.670  23.301  1.00  0.00     0.000 G0
ENDBRANCH  13  16
ENDBRANCH  12  13
ENDBRANCH  10  11
ENDBRANCH   1  10
TORSDOF 0
ENDMDL
MODEL 6
REMARK VINA RESULT:    -3.035      1.475      3.759
REMARK INTER + INTRA:          -4.030
REMARK INTER:                  -4.421
REMARK INTRA:                   0.391
REMARK UNBOUND:                 0.424
REMARK SMILES C=C1CC=CC(C)(C)CC=C(C)CCC1
REMARK SMILES IDX 2 1 1 2 15 3 14 4 13 5 11 6 12 7 10 8 3 10 4 11 5 12 6 13
REMARK SMILES IDX 7 14 8 15 9 16
REMARK H PARENT
REMARK Flexibility Score: 60.00
ROOT
ATOM      1  C   UNL     1       8.582  19.240  22.956  1.00  0.00    -0.074 C 
ATOM      2  C   UNL     1       8.152  18.248  22.159  1.00  0.00     0.008 C 
ENDROOT
BRANCH   1   3
ATOM      3  C   UNL     1      10.047  19.633  22.921  1.00  0.00     0.031 C 
BRANCH   3   4
ATOM      4  C   UNL     1      10.814  19.200  24.191  1.00  0.00     0.009 C 
BRANCH   4   5
ATOM      5  C   UNL     1      11.254  20.403  25.050  1.00  0.00     0.030 C 
BRANCH   5   6
ATOM      6  C   UNL     1      10.900  20.291  26.523  1.00  0.00    -0.077 C 
ATOM      7  C   UNL     1      11.703  19.347  27.383  1.00  0.00     0.039 C 
ATOM      8  C   UNL     1       9.960  21.050  27.141  1.00  0.00    -0.027 CG0
ATOM      9  G   UNL     1       8.950  21.972  26.486  1.00  0.00     0.000 G0
ENDBRANCH   5   6
ENDBRANCH   4   5
ENDBRANCH   3   4
ENDBRANCH   1   3
BRANCH   1  10
ATOM     10  C   UNL     1       7.568  20.064  23.725  1.00  0.00     0.057 C 
BRANCH  10  11
ATOM     11  C   UNL     1       7.217  19.498  25.081  1.00  0.00    -0.026 C 
ATOM     12  C   UNL     1       7.171  20.129  26.280  1.00  0.00    -0.024 C 
BRANCH  12  13
ATOM     13  C   UNL     1       7.437  21.598  26.627  1.00  0.00    -0.014 C 
ATOM     14  C   UNL     1       6.952  21.924  28.060  1.00  0.00     0.016 C 
ATOM     15  C   UNL     1       6.605  22.475  25.657  1.00  0.00     0.016 C 
BRANCH  13  16
ATOM     16  C   UNL     1       8.941  21.980  26.496  1.00  0.00     0.038 CG0
ATOM     17  G   UNL     1       9.940  21.042  27.144  1.00  0.00     0.000 G0
ENDBRANCH  13  16
ENDBRANCH  12  13
ENDBRANCH  10  11
ENDBRANCH   1  10
TORSDOF 0
ENDMDL
MODEL 7
REMARK VINA RESULT:    -3.021      1.239      3.481
REMARK INTER + INTRA:          -4.010
REMARK INTER:                  -4.474
REMARK INTRA:                   0.464
REMARK UNBOUND:                 0.424
REMARK SMILES C=C1CC=CC(C)(C)CC=C(C)CCC1
REMARK SMILES IDX 2 1 1 2 15 3 14 4 13 5 11 6 12 7 10 8 3 10 4 11 5 12 6 13
REMARK SMILES IDX 7 14 8 15 9 16
REMARK H PARENT
REMARK Flexibility Score: 60.00
ROOT
ATOM      1  C   UNL     1       7.158  19.644  23.905  1.00  0.00    -0.074 C 
ATOM      2  C   UNL     1       6.431  20.774  23.951  1.00  0.00     0.008 C 
ENDROOT
BRANCH   1   3
ATOM      3  C   UNL     1       7.675  19.152  22.566  1.00  0.00     0.031 C 
BRANCH   3   4
ATOM      4  C   UNL     1       9.182  18.811  22.595  1.00  0.00     0.009 C 
BRANCH   4   5
ATOM      5  C   UNL     1      10.071  20.070  22.519  1.00  0.00     0.030 C 
BRANCH   5   6
ATOM      6  C   UNL     1      11.275  20.050  23.445  1.00  0.00    -0.077 C 
ATOM      7  C   UNL     1      12.541  19.387  22.960  1.00  0.00     0.039 C 
ATOM      8  C   UNL     1      11.317  20.664  24.654  1.00  0.00    -0.027 CG0
ATOM      9  G   UNL     1      10.157  21.284  25.409  1.00  0.00     0.000 G0
ENDBRANCH   5   6
ENDBRANCH   4   5
ENDBRANCH   3   4
ENDBRANCH   1   3
BRANCH   1  10
ATOM     10  C   UNL     1       7.601  18.997  25.202  1.00  0.00     0.057 C 
BRANCH  10  11
ATOM     11  C   UNL     1       7.424  19.874  26.419  1.00  0.00    -0.026 C 
ATOM     12  C   UNL     1       8.357  20.587  27.097  1.00  0.00    -0.024 C 
BRANCH  12  13
ATOM     13  C   UNL     1       9.858  20.741  26.832  1.00  0.00    -0.014 C 
ATOM     14  C   UNL     1      10.593  19.393  27.023  1.00  0.00     0.016 C 
ATOM     15  C   UNL     1      10.430  21.722  27.886  1.00  0.00     0.016 C 
BRANCH  13  16
ATOM     16  C   UNL     1      10.161  21.291  25.407  1.00  0.00     0.038 CG0
ATOM     17  G   UNL     1      11.313  20.647  24.660  1.00  0.00     0.000 G0
ENDBRANCH  13  16
ENDBRANCH  12  13
ENDBRANCH  10  11
ENDBRANCH   1  10
TORSDOF 0
ENDMDL
MODEL 8
REMARK VINA RESULT:    -2.989      1.394      4.078
REMARK INTER + INTRA:          -3.963
REMARK INTER:                  -4.355
REMARK INTRA:                   0.392
REMARK UNBOUND:                 0.424
REMARK SMILES C=C1CC=CC(C)(C)CC=C(C)CCC1
REMARK SMILES IDX 2 1 1 2 15 3 14 4 13 5 11 6 12 7 10 8 3 10 4 11 5 12 6 13
REMARK SMILES IDX 7 14 8 15 9 16
REMARK H PARENT
REMARK Flexibility Score: 60.00
ROOT
ATOM      1  C   UNL     1      11.352  19.597  23.670  1.00  0.00    -0.074 C 
ATOM      2  C   UNL     1      12.457  19.055  23.128  1.00  0.00     0.008 C 
ENDROOT
BRANCH   1   3
ATOM      3  C   UNL     1      11.474  20.389  24.958  1.00  0.00     0.031 C 
BRANCH   3   4
ATOM      4  C   UNL     1      11.669  19.487  26.199  1.00  0.00     0.009 C 
BRANCH   4   5
ATOM      5  C   UNL     1      10.336  19.171  26.909  1.00  0.00     0.030 C 
BRANCH   5   6
ATOM      6  C   UNL     1       9.419  20.368  27.091  1.00  0.00    -0.077 C 
ATOM      7  C   UNL     1       9.809  21.424  28.095  1.00  0.00     0.039 C 
ATOM      8  C   UNL     1       8.307  20.596  26.347  1.00  0.00    -0.027 CG0
ATOM      9  G   UNL     1       7.643  19.642  25.373  1.00  0.00     0.000 G0
ENDBRANCH   5   6
ENDBRANCH   4   5
ENDBRANCH   3   4
ENDBRANCH   1   3
BRANCH   1  10
ATOM     10  C   UNL     1      10.054  19.566  22.888  1.00  0.00     0.057 C 
BRANCH  10  11
ATOM     11  C   UNL     1       9.316  20.883  22.870  1.00  0.00    -0.026 C 
ATOM     12  C   UNL     1       8.078  21.172  23.345  1.00  0.00    -0.024 C 
BRANCH  12  13
ATOM     13  C   UNL     1       7.065  20.269  24.055  1.00  0.00    -0.014 C 
ATOM     14  C   UNL     1       6.583  19.135  23.119  1.00  0.00     0.016 C 
ATOM     15  C   UNL     1       5.823  21.127  24.403  1.00  0.00     0.016 C 
BRANCH  13  16
ATOM     16  C   UNL     1       7.634  19.644  25.364  1.00  0.00     0.038 CG0
ATOM     17  G   UNL     1       8.292  20.598  26.343  1.00  0.00     0.000 G0
ENDBRANCH  13  16
ENDBRANCH  12  13
ENDBRANCH  10  11
ENDBRANCH   1  10
TORSDOF 0
ENDMDL
MODEL 9
REMARK VINA RESULT:    -2.989      2.848      5.408
REMARK INTER + INTRA:          -3.963
REMARK INTER:                  -4.250
REMARK INTRA:                   0.288
REMARK UNBOUND:                 0.424
REMARK SMILES C=C1CC=CC(C)(C)CC=C(C)CCC1
REMARK SMILES IDX 2 1 1 2 15 3 14 4 13 5 11 6 12 7 10 8 3 10 4 11 5 12 6 13
REMARK SMILES IDX 7 14 8 15 9 16
REMARK H PARENT
REMARK Flexibility Score: 60.00
ROOT
ATOM      1  C   UNL     1       7.000  18.737  22.428  1.00  0.00    -0.074 C 
ATOM      2  C   UNL     1       6.787  17.482  22.858  1.00  0.00     0.008 C 
ENDROOT
BRANCH   1   3
ATOM      3  C   UNL     1       8.414  19.289  22.434  1.00  0.00     0.031 C 
BRANCH   3   4
ATOM      4  C   UNL     1       8.940  19.568  23.861  1.00  0.00     0.009 C 
BRANCH   4   5
ATOM      5  C   UNL     1       8.455  20.926  24.410  1.00  0.00     0.030 C 
BRANCH   5   6
ATOM      6  C   UNL     1       7.215  20.848  25.284  1.00  0.00    -0.077 C 
ATOM      7  C   UNL     1       7.285  20.037  26.555  1.00  0.00     0.039 C 
ATOM      8  C   UNL     1       6.067  21.529  25.042  1.00  0.00    -0.027 CG0
ATOM      9  G   UNL     1       5.707  22.304  23.789  1.00  0.00     0.000 G0
ENDBRANCH   5   6
ENDBRANCH   4   5
ENDBRANCH   3   4
ENDBRANCH   1   3
BRANCH   1  10
ATOM     10  C   UNL     1       5.865  19.498  21.773  1.00  0.00     0.057 C 
BRANCH  10  11
ATOM     11  C   UNL     1       4.584  19.500  22.574  1.00  0.00    -0.026 C 
ATOM     12  C   UNL     1       3.943  20.547  23.151  1.00  0.00    -0.024 C 
BRANCH  12  13
ATOM     13  C   UNL     1       4.303  22.037  23.154  1.00  0.00    -0.014 C 
ATOM     14  C   UNL     1       3.227  22.863  23.898  1.00  0.00     0.016 C 
ATOM     15  C   UNL     1       4.314  22.527  21.684  1.00  0.00     0.016 C 
BRANCH  13  16
ATOM     16  C   UNL     1       5.695  22.315  23.793  1.00  0.00     0.038 CG0
ATOM     17  G   UNL     1       6.044  21.519  25.036  1.00  0.00     0.000 G0
ENDBRANCH  13  16
ENDBRANCH  12  13
ENDBRANCH  10  11
ENDBRANCH   1  10
TORSDOF 0
ENDMDL
