MODEL 1
REMARK VINA RESULT:    -1.093      0.000      0.000
REMARK INTER + INTRA:          -2.212
REMARK INTER:                  -2.372
REMARK INTRA:                   0.160
REMARK UNBOUND:                 0.160
REMARK SMILES CCCCCCCCCCCCCCCCCCCCCC(=O)[O-]
REMARK SMILES IDX 12 1 11 2 10 3 9 4 8 5 7 6 6 7 5 8 4 9 3 10 2 11 1 12 13 13
REMARK SMILES IDX 14 14 15 15 16 16 17 17 18 18 19 19 20 20 21 21 22 22 23 23
REMARK SMILES IDX 24 24
REMARK H PARENT
REMARK Flexibility Score: inf
ROOT
ATOM      1  C   UNL     1      55.230  82.442  29.809  1.00  0.00     0.000 C 
ENDROOT
BRANCH   1   2
ATOM      2  C   UNL     1      56.302  83.365  29.195  1.00  0.00     0.000 C 
BRANCH   2   3
ATOM      3  C   UNL     1      56.290  84.817  29.706  1.00  0.00     0.000 C 
BRANCH   3   4
ATOM      4  C   UNL     1      56.609  84.926  31.207  1.00  0.00    -0.000 C 
BRANCH   4   5
ATOM      5  C   UNL     1      56.702  83.555  31.901  1.00  0.00    -0.000 C 
BRANCH   5   6
ATOM      6  C   UNL     1      55.508  83.200  32.806  1.00  0.00    -0.000 C 
BRANCH   6   7
ATOM      7  C   UNL     1      55.140  81.707  32.753  1.00  0.00    -0.000 C 
BRANCH   7   8
ATOM      8  C   UNL     1      53.666  81.452  33.111  1.00  0.00    -0.000 C 
BRANCH   8   9
ATOM      9  C   UNL     1      52.700  81.985  32.040  1.00  0.00    -0.000 C 
BRANCH   9  10
ATOM     10  C   UNL     1      51.759  80.895  31.501  1.00  0.00    -0.000 C 
BRANCH  10  11
ATOM     11  C   UNL     1      52.240  80.307  30.167  1.00  0.00    -0.003 C 
ATOM     12  C   UNL     1      52.035  78.795  30.126  1.00  0.00     0.004 C 
ENDBRANCH  10  11
ENDBRANCH   9  10
ENDBRANCH   8   9
ENDBRANCH   7   8
ENDBRANCH   6   7
ENDBRANCH   5   6
ENDBRANCH   4   5
ENDBRANCH   3   4
ENDBRANCH   2   3
ENDBRANCH   1   2
BRANCH   1  13
ATOM     13  C   UNL     1      54.004  82.177  28.912  1.00  0.00     0.000 C 
BRANCH  13  14
ATOM     14  C   UNL     1      52.966  83.317  28.875  1.00  0.00     0.000 C 
BRANCH  14  15
ATOM     15  C   UNL     1      52.952  84.223  30.120  1.00  0.00     0.000 C 
BRANCH  15  16
ATOM     16  C   UNL     1      51.680  85.078  30.223  1.00  0.00     0.000 C 
BRANCH  16  17
ATOM     17  C   UNL     1      50.559  84.503  29.344  1.00  0.00     0.000 C 
BRANCH  17  18
ATOM     18  C   UNL     1      49.184  85.114  29.660  1.00  0.00     0.000 C 
BRANCH  18  19
ATOM     19  C   UNL     1      48.126  84.047  29.989  1.00  0.00     0.000 C 
BRANCH  19  20
ATOM     20  C   UNL     1      48.468  83.240  31.255  1.00  0.00     0.006 C 
BRANCH  20  21
ATOM     21  C   UNL     1      48.023  83.902  32.569  1.00  0.00     0.053 C 
BRANCH  21  22
ATOM     22  C   UNL     1      49.185  84.408  33.367  1.00  0.00     0.041 C 
ATOM     23  O   UNL     1      50.362  84.190  32.977  1.00  0.00    -0.550 OA
ATOM     24  O   UNL     1      48.968  85.083  34.561  1.00  0.00    -0.550 OA
ENDBRANCH  21  22
ENDBRANCH  20  21
ENDBRANCH  19  20
ENDBRANCH  18  19
ENDBRANCH  17  18
ENDBRANCH  16  17
ENDBRANCH  15  16
ENDBRANCH  14  15
ENDBRANCH  13  14
ENDBRANCH   1  13
TORSDOF 20
ENDMDL
MODEL 2
REMARK VINA RESULT:    -0.270      4.799      7.331
REMARK INTER + INTRA:          -0.425
REMARK INTER:                   1.628
REMARK INTRA:                  -2.054
REMARK UNBOUND:                 0.160
REMARK SMILES CCCCCCCCCCCCCCCCCCCCCC(=O)[O-]
REMARK SMILES IDX 12 1 11 2 10 3 9 4 8 5 7 6 6 7 5 8 4 9 3 10 2 11 1 12 13 13
REMARK SMILES IDX 14 14 15 15 16 16 17 17 18 18 19 19 20 20 21 21 22 22 23 23
REMARK SMILES IDX 24 24
REMARK H PARENT
REMARK Flexibility Score: inf
ROOT
ATOM      1  C   UNL     1      55.393  82.253  32.199  1.00  0.00     0.000 C 
ENDROOT
BRANCH   1   2
ATOM      2  C   UNL     1      56.112  83.615  32.276  1.00  0.00     0.000 C 
BRANCH   2   3
ATOM      3  C   UNL     1      56.694  84.127  30.945  1.00  0.00     0.000 C 
BRANCH   3   4
ATOM      4  C   UNL     1      56.346  83.221  29.753  1.00  0.00    -0.000 C 
BRANCH   4   5
ATOM      5  C   UNL     1      55.125  83.717  28.957  1.00  0.00    -0.000 C 
BRANCH   5   6
ATOM      6  C   UNL     1      54.383  84.913  29.580  1.00  0.00    -0.000 C 
BRANCH   6   7
ATOM      7  C   UNL     1      52.912  84.603  29.904  1.00  0.00    -0.000 C 
BRANCH   7   8
ATOM      8  C   UNL     1      52.440  83.277  29.285  1.00  0.00    -0.000 C 
BRANCH   8   9
ATOM      9  C   UNL     1      51.282  82.639  30.073  1.00  0.00    -0.000 C 
BRANCH   9  10
ATOM     10  C   UNL     1      50.816  83.515  31.246  1.00  0.00    -0.000 C 
BRANCH  10  11
ATOM     11  C   UNL     1      49.353  83.256  31.631  1.00  0.00    -0.003 C 
ATOM     12  C   UNL     1      48.405  83.692  30.518  1.00  0.00     0.004 C 
ENDBRANCH  10  11
ENDBRANCH   9  10
ENDBRANCH   8   9
ENDBRANCH   7   8
ENDBRANCH   6   7
ENDBRANCH   5   6
ENDBRANCH   4   5
ENDBRANCH   3   4
ENDBRANCH   2   3
ENDBRANCH   1   2
BRANCH   1  13
ATOM     13  C   UNL     1      53.903  82.276  32.596  1.00  0.00     0.000 C 
BRANCH  13  14
ATOM     14  C   UNL     1      53.346  80.934  33.111  1.00  0.00     0.000 C 
BRANCH  14  15
ATOM     15  C   UNL     1      53.809  80.538  34.524  1.00  0.00     0.000 C 
BRANCH  15  16
ATOM     16  C   UNL     1      53.422  79.099  34.900  1.00  0.00     0.000 C 
BRANCH  16  17
ATOM     17  C   UNL     1      53.477  78.895  36.422  1.00  0.00     0.000 C 
BRANCH  17  18
ATOM     18  C   UNL     1      53.236  80.196  37.205  1.00  0.00     0.000 C 
BRANCH  18  19
ATOM     19  C   UNL     1      54.332  80.468  38.248  1.00  0.00     0.000 C 
BRANCH  19  20
ATOM     20  C   UNL     1      55.108  79.198  38.641  1.00  0.00     0.006 C 
BRANCH  20  21
ATOM     21  C   UNL     1      54.987  78.812  40.124  1.00  0.00     0.053 C 
BRANCH  21  22
ATOM     22  C   UNL     1      55.995  77.778  40.521  1.00  0.00     0.041 C 
ATOM     23  O   UNL     1      56.549  77.837  41.650  1.00  0.00    -0.550 OA
ATOM     24  O   UNL     1      56.352  76.775  39.630  1.00  0.00    -0.550 OA
ENDBRANCH  21  22
ENDBRANCH  20  21
ENDBRANCH  19  20
ENDBRANCH  18  19
ENDBRANCH  17  18
ENDBRANCH  16  17
ENDBRANCH  15  16
ENDBRANCH  14  15
ENDBRANCH  13  14
ENDBRANCH   1  13
TORSDOF 20
ENDMDL
MODEL 3
REMARK VINA RESULT:    -0.076      3.757      5.233
REMARK INTER + INTRA:          -0.005
REMARK INTER:                   1.530
REMARK INTRA:                  -1.535
REMARK UNBOUND:                 0.160
REMARK SMILES CCCCCCCCCCCCCCCCCCCCCC(=O)[O-]
REMARK SMILES IDX 12 1 11 2 10 3 9 4 8 5 7 6 6 7 5 8 4 9 3 10 2 11 1 12 13 13
REMARK SMILES IDX 14 14 15 15 16 16 17 17 18 18 19 19 20 20 21 21 22 22 23 23
REMARK SMILES IDX 24 24
REMARK H PARENT
REMARK Flexibility Score: inf
ROOT
ATOM      1  C   UNL     1      55.513  82.497  31.857  1.00  0.00     0.000 C 
ENDROOT
BRANCH   1   2
ATOM      2  C   UNL     1      54.109  81.863  31.789  1.00  0.00     0.000 C 
BRANCH   2   3
ATOM      3  C   UNL     1      53.444  81.593  33.151  1.00  0.00     0.000 C 
BRANCH   3   4
ATOM      4  C   UNL     1      54.172  80.513  33.969  1.00  0.00    -0.000 C 
BRANCH   4   5
ATOM      5  C   UNL     1      53.209  79.505  34.623  1.00  0.00    -0.000 C 
BRANCH   5   6
ATOM      6  C   UNL     1      53.460  79.238  36.119  1.00  0.00    -0.000 C 
BRANCH   6   7
ATOM      7  C   UNL     1      53.131  80.451  37.006  1.00  0.00    -0.000 C 
BRANCH   7   8
ATOM      8  C   UNL     1      54.086  80.579  38.205  1.00  0.00    -0.000 C 
BRANCH   8   9
ATOM      9  C   UNL     1      54.898  79.296  38.450  1.00  0.00    -0.000 C 
BRANCH   9  10
ATOM     10  C   UNL     1      55.049  78.972  39.945  1.00  0.00    -0.000 C 
BRANCH  10  11
ATOM     11  C   UNL     1      56.044  77.832  40.204  1.00  0.00    -0.003 C 
ATOM     12  C   UNL     1      56.350  77.695  41.693  1.00  0.00     0.004 C 
ENDBRANCH  10  11
ENDBRANCH   9  10
ENDBRANCH   8   9
ENDBRANCH   7   8
ENDBRANCH   6   7
ENDBRANCH   5   6
ENDBRANCH   4   5
ENDBRANCH   3   4
ENDBRANCH   2   3
ENDBRANCH   1   2
BRANCH   1  13
ATOM     13  C   UNL     1      55.537  84.039  31.844  1.00  0.00     0.000 C 
BRANCH  13  14
ATOM     14  C   UNL     1      54.305  84.702  31.194  1.00  0.00     0.000 C 
BRANCH  14  15
ATOM     15  C   UNL     1      54.195  84.514  29.670  1.00  0.00     0.000 C 
BRANCH  15  16
ATOM     16  C   UNL     1      52.876  83.854  29.243  1.00  0.00     0.000 C 
BRANCH  16  17
ATOM     17  C   UNL     1      51.819  84.914  28.894  1.00  0.00     0.000 C 
BRANCH  17  18
ATOM     18  C   UNL     1      50.447  84.612  29.518  1.00  0.00     0.000 C 
BRANCH  18  19
ATOM     19  C   UNL     1      50.397  83.231  30.192  1.00  0.00     0.000 C 
BRANCH  19  20
ATOM     20  C   UNL     1      49.534  83.223  31.468  1.00  0.00     0.006 C 
BRANCH  20  21
ATOM     21  C   UNL     1      49.208  84.618  32.023  1.00  0.00     0.053 C 
BRANCH  21  22
ATOM     22  C   UNL     1      49.888  84.876  33.332  1.00  0.00     0.041 C 
ATOM     23  O   UNL     1      51.145  84.860  33.405  1.00  0.00    -0.550 OA
ATOM     24  O   UNL     1      49.134  85.094  34.478  1.00  0.00    -0.550 OA
ENDBRANCH  21  22
ENDBRANCH  20  21
ENDBRANCH  19  20
ENDBRANCH  18  19
ENDBRANCH  17  18
ENDBRANCH  16  17
ENDBRANCH  15  16
ENDBRANCH  14  15
ENDBRANCH  13  14
ENDBRANCH   1  13
TORSDOF 20
ENDMDL
MODEL 4
REMARK VINA RESULT:     0.110      4.345      7.176
REMARK INTER + INTRA:           0.399
REMARK INTER:                   1.912
REMARK INTRA:                  -1.513
REMARK UNBOUND:                 0.160
REMARK SMILES CCCCCCCCCCCCCCCCCCCCCC(=O)[O-]
REMARK SMILES IDX 12 1 11 2 10 3 9 4 8 5 7 6 6 7 5 8 4 9 3 10 2 11 1 12 13 13
REMARK SMILES IDX 14 14 15 15 16 16 17 17 18 18 19 19 20 20 21 21 22 22 23 23
REMARK SMILES IDX 24 24
REMARK H PARENT
REMARK Flexibility Score: inf
ROOT
ATOM      1  C   UNL     1      54.591  83.823  31.293  1.00  0.00     0.000 C 
ENDROOT
BRANCH   1   2
ATOM      2  C   UNL     1      55.196  84.183  29.920  1.00  0.00     0.000 C 
BRANCH   2   3
ATOM      3  C   UNL     1      55.174  83.053  28.875  1.00  0.00     0.000 C 
BRANCH   3   4
ATOM      4  C   UNL     1      54.919  81.669  29.496  1.00  0.00    -0.000 C 
BRANCH   4   5
ATOM      5  C   UNL     1      53.602  81.031  29.019  1.00  0.00    -0.000 C 
BRANCH   5   6
ATOM      6  C   UNL     1      52.353  81.431  29.825  1.00  0.00    -0.000 C 
BRANCH   6   7
ATOM      7  C   UNL     1      51.633  82.660  29.243  1.00  0.00    -0.000 C 
BRANCH   7   8
ATOM      8  C   UNL     1      50.130  82.671  29.569  1.00  0.00    -0.000 C 
BRANCH   8   9
ATOM      9  C   UNL     1      49.630  84.063  29.991  1.00  0.00    -0.000 C 
BRANCH   9  10
ATOM     10  C   UNL     1      50.641  84.807  30.879  1.00  0.00    -0.000 C 
BRANCH  10  11
ATOM     11  C   UNL     1      50.369  84.608  32.377  1.00  0.00    -0.003 C 
ATOM     12  C   UNL     1      49.326  83.517  32.607  1.00  0.00     0.004 C 
ENDBRANCH  10  11
ENDBRANCH   9  10
ENDBRANCH   8   9
ENDBRANCH   7   8
ENDBRANCH   6   7
ENDBRANCH   5   6
ENDBRANCH   4   5
ENDBRANCH   3   4
ENDBRANCH   2   3
ENDBRANCH   1   2
BRANCH   1  13
ATOM     13  C   UNL     1      55.588  83.237  32.313  1.00  0.00     0.000 C 
BRANCH  13  14
ATOM     14  C   UNL     1      55.290  81.791  32.758  1.00  0.00     0.000 C 
BRANCH  14  15
ATOM     15  C   UNL     1      53.852  81.546  33.249  1.00  0.00     0.000 C 
BRANCH  15  16
ATOM     16  C   UNL     1      53.773  80.502  34.373  1.00  0.00     0.000 C 
BRANCH  16  17
ATOM     17  C   UNL     1      52.871  79.326  33.969  1.00  0.00     0.000 C 
BRANCH  17  18
ATOM     18  C   UNL     1      52.808  78.228  35.042  1.00  0.00     0.000 C 
BRANCH  18  19
ATOM     19  C   UNL     1      53.915  78.374  36.100  1.00  0.00     0.000 C 
BRANCH  19  20
ATOM     20  C   UNL     1      54.661  77.054  36.368  1.00  0.00     0.006 C 
BRANCH  20  21
ATOM     21  C   UNL     1      55.898  76.832  35.483  1.00  0.00     0.053 C 
BRANCH  21  22
ATOM     22  C   UNL     1      56.629  75.576  35.842  1.00  0.00     0.041 C 
ATOM     23  O   UNL     1      56.425  74.518  35.190  1.00  0.00    -0.550 OA
ATOM     24  O   UNL     1      57.503  75.562  36.921  1.00  0.00    -0.550 OA
ENDBRANCH  21  22
ENDBRANCH  20  21
ENDBRANCH  19  20
ENDBRANCH  18  19
ENDBRANCH  17  18
ENDBRANCH  16  17
ENDBRANCH  15  16
ENDBRANCH  14  15
ENDBRANCH  13  14
ENDBRANCH   1  13
TORSDOF 20
ENDMDL
MODEL 5
REMARK VINA RESULT:     0.124      3.190      5.758
REMARK INTER + INTRA:           0.429
REMARK INTER:                   3.322
REMARK INTRA:                  -2.894
REMARK UNBOUND:                 0.160
REMARK SMILES CCCCCCCCCCCCCCCCCCCCCC(=O)[O-]
REMARK SMILES IDX 12 1 11 2 10 3 9 4 8 5 7 6 6 7 5 8 4 9 3 10 2 11 1 12 13 13
REMARK SMILES IDX 14 14 15 15 16 16 17 17 18 18 19 19 20 20 21 21 22 22 23 23
REMARK SMILES IDX 24 24
REMARK H PARENT
REMARK Flexibility Score: inf
ROOT
ATOM      1  C   UNL     1      55.067  83.957  30.783  1.00  0.00     0.000 C 
ENDROOT
BRANCH   1   2
ATOM      2  C   UNL     1      53.909  84.658  30.043  1.00  0.00     0.000 C 
BRANCH   2   3
ATOM      3  C   UNL     1      52.744  85.122  30.937  1.00  0.00     0.000 C 
BRANCH   3   4
ATOM      4  C   UNL     1      52.825  84.561  32.366  1.00  0.00    -0.000 C 
BRANCH   4   5
ATOM      5  C   UNL     1      51.471  84.043  32.885  1.00  0.00    -0.000 C 
BRANCH   5   6
ATOM      6  C   UNL     1      50.276  84.982  32.642  1.00  0.00    -0.000 C 
BRANCH   6   7
ATOM      7  C   UNL     1      49.602  84.753  31.279  1.00  0.00    -0.000 C 
BRANCH   7   8
ATOM      8  C   UNL     1      48.714  83.497  31.265  1.00  0.00    -0.000 C 
BRANCH   8   9
ATOM      9  C   UNL     1      49.233  82.420  30.298  1.00  0.00    -0.000 C 
BRANCH   9  10
ATOM     10  C   UNL     1      50.302  82.960  29.335  1.00  0.00    -0.000 C 
BRANCH  10  11
ATOM     11  C   UNL     1      51.553  82.072  29.286  1.00  0.00    -0.003 C 
ATOM     12  C   UNL     1      51.710  81.268  30.574  1.00  0.00     0.004 C 
ENDBRANCH  10  11
ENDBRANCH   9  10
ENDBRANCH   8   9
ENDBRANCH   7   8
ENDBRANCH   6   7
ENDBRANCH   5   6
ENDBRANCH   4   5
ENDBRANCH   3   4
ENDBRANCH   2   3
ENDBRANCH   1   2
BRANCH   1  13
ATOM     13  C   UNL     1      55.379  82.526  30.302  1.00  0.00     0.000 C 
BRANCH  13  14
ATOM     14  C   UNL     1      55.210  81.428  31.372  1.00  0.00     0.000 C 
BRANCH  14  15
ATOM     15  C   UNL     1      55.235  81.930  32.827  1.00  0.00     0.000 C 
BRANCH  15  16
ATOM     16  C   UNL     1      53.978  81.537  33.617  1.00  0.00     0.000 C 
BRANCH  16  17
ATOM     17  C   UNL     1      53.468  80.154  33.185  1.00  0.00     0.000 C 
BRANCH  17  18
ATOM     18  C   UNL     1      52.583  79.488  34.250  1.00  0.00     0.000 C 
BRANCH  18  19
ATOM     19  C   UNL     1      53.266  78.280  34.914  1.00  0.00     0.000 C 
BRANCH  19  20
ATOM     20  C   UNL     1      53.691  78.562  36.367  1.00  0.00     0.006 C 
BRANCH  20  21
ATOM     21  C   UNL     1      53.246  79.931  36.905  1.00  0.00     0.053 C 
BRANCH  21  22
ATOM     22  C   UNL     1      53.964  80.301  38.167  1.00  0.00     0.041 C 
ATOM     23  O   UNL     1      54.604  79.428  38.809  1.00  0.00    -0.550 OA
ATOM     24  O   UNL     1      53.891  81.599  38.654  1.00  0.00    -0.550 OA
ENDBRANCH  21  22
ENDBRANCH  20  21
ENDBRANCH  19  20
ENDBRANCH  18  19
ENDBRANCH  17  18
ENDBRANCH  16  17
ENDBRANCH  15  16
ENDBRANCH  14  15
ENDBRANCH  13  14
ENDBRANCH   1  13
TORSDOF 20
ENDMDL
MODEL 6
REMARK VINA RESULT:     0.138      3.283      4.776
REMARK INTER + INTRA:           0.459
REMARK INTER:                   1.351
REMARK INTRA:                  -0.892
REMARK UNBOUND:                 0.160
REMARK SMILES CCCCCCCCCCCCCCCCCCCCCC(=O)[O-]
REMARK SMILES IDX 12 1 11 2 10 3 9 4 8 5 7 6 6 7 5 8 4 9 3 10 2 11 1 12 13 13
REMARK SMILES IDX 14 14 15 15 16 16 17 17 18 18 19 19 20 20 21 21 22 22 23 23
REMARK SMILES IDX 24 24
REMARK H PARENT
REMARK Flexibility Score: inf
ROOT
ATOM      1  C   UNL     1      55.516  83.118  32.545  1.00  0.00     0.000 C 
ENDROOT
BRANCH   1   2
ATOM      2  C   UNL     1      54.920  81.964  31.713  1.00  0.00     0.000 C 
BRANCH   2   3
ATOM      3  C   UNL     1      53.394  82.012  31.519  1.00  0.00     0.000 C 
BRANCH   3   4
ATOM      4  C   UNL     1      52.626  81.276  32.631  1.00  0.00    -0.000 C 
BRANCH   4   5
ATOM      5  C   UNL     1      53.554  80.538  33.613  1.00  0.00    -0.000 C 
BRANCH   5   6
ATOM      6  C   UNL     1      52.940  79.295  34.283  1.00  0.00    -0.000 C 
BRANCH   6   7
ATOM      7  C   UNL     1      53.633  78.924  35.606  1.00  0.00    -0.000 C 
BRANCH   7   8
ATOM      8  C   UNL     1      54.331  77.555  35.541  1.00  0.00    -0.000 C 
BRANCH   8   9
ATOM      9  C   UNL     1      54.955  77.149  36.886  1.00  0.00    -0.000 C 
BRANCH   9  10
ATOM     10  C   UNL     1      56.264  76.362  36.714  1.00  0.00    -0.000 C 
BRANCH  10  11
ATOM     11  C   UNL     1      56.386  75.716  35.327  1.00  0.00    -0.003 C 
ATOM     12  C   UNL     1      57.056  74.348  35.413  1.00  0.00     0.004 C 
ENDBRANCH  10  11
ENDBRANCH   9  10
ENDBRANCH   8   9
ENDBRANCH   7   8
ENDBRANCH   6   7
ENDBRANCH   5   6
ENDBRANCH   4   5
ENDBRANCH   3   4
ENDBRANCH   2   3
ENDBRANCH   1   2
BRANCH   1  13
ATOM     13  C   UNL     1      56.515  84.019  31.793  1.00  0.00     0.000 C 
BRANCH  13  14
ATOM     14  C   UNL     1      56.858  83.557  30.362  1.00  0.00     0.000 C 
BRANCH  14  15
ATOM     15  C   UNL     1      55.653  83.437  29.412  1.00  0.00     0.000 C 
BRANCH  15  16
ATOM     16  C   UNL     1      55.031  84.796  29.060  1.00  0.00     0.000 C 
BRANCH  16  17
ATOM     17  C   UNL     1      53.497  84.724  29.094  1.00  0.00     0.000 C 
BRANCH  17  18
ATOM     18  C   UNL     1      52.921  85.003  30.492  1.00  0.00     0.000 C 
BRANCH  18  19
ATOM     19  C   UNL     1      51.387  85.125  30.484  1.00  0.00     0.000 C 
BRANCH  19  20
ATOM     20  C   UNL     1      50.709  84.043  29.624  1.00  0.00     0.006 C 
BRANCH  20  21
ATOM     21  C   UNL     1      50.097  82.884  30.426  1.00  0.00     0.053 C 
BRANCH  21  22
ATOM     22  C   UNL     1      48.987  83.343  31.320  1.00  0.00     0.041 C 
ATOM     23  O   UNL     1      48.908  82.915  32.502  1.00  0.00    -0.550 OA
ATOM     24  O   UNL     1      48.016  84.211  30.837  1.00  0.00    -0.550 OA
ENDBRANCH  21  22
ENDBRANCH  20  21
ENDBRANCH  19  20
ENDBRANCH  18  19
ENDBRANCH  17  18
ENDBRANCH  16  17
ENDBRANCH  15  16
ENDBRANCH  14  15
ENDBRANCH  13  14
ENDBRANCH   1  13
TORSDOF 20
ENDMDL
MODEL 7
REMARK VINA RESULT:     0.360      5.742      8.594
REMARK INTER + INTRA:           0.940
REMARK INTER:                   2.248
REMARK INTRA:                  -1.308
REMARK UNBOUND:                 0.160
REMARK SMILES CCCCCCCCCCCCCCCCCCCCCC(=O)[O-]
REMARK SMILES IDX 12 1 11 2 10 3 9 4 8 5 7 6 6 7 5 8 4 9 3 10 2 11 1 12 13 13
REMARK SMILES IDX 14 14 15 15 16 16 17 17 18 18 19 19 20 20 21 21 22 22 23 23
REMARK SMILES IDX 24 24
REMARK H PARENT
REMARK Flexibility Score: inf
ROOT
ATOM      1  C   UNL     1      53.287  79.115  36.354  1.00  0.00     0.000 C 
ENDROOT
BRANCH   1   2
ATOM      2  C   UNL     1      53.848  80.238  37.250  1.00  0.00     0.000 C 
BRANCH   2   3
ATOM      3  C   UNL     1      52.829  80.890  38.202  1.00  0.00     0.000 C 
BRANCH   3   4
ATOM      4  C   UNL     1      51.516  80.095  38.308  1.00  0.00    -0.000 C 
BRANCH   4   5
ATOM      5  C   UNL     1      50.493  80.750  39.254  1.00  0.00    -0.000 C 
BRANCH   5   6
ATOM      6  C   UNL     1      49.302  79.857  39.647  1.00  0.00    -0.000 C 
BRANCH   6   7
ATOM      7  C   UNL     1      48.376  80.515  40.683  1.00  0.00    -0.000 C 
BRANCH   7   8
ATOM      8  C   UNL     1      48.610  82.030  40.804  1.00  0.00    -0.000 C 
BRANCH   8   9
ATOM      9  C   UNL     1      48.278  82.566  42.207  1.00  0.00    -0.000 C 
BRANCH   9  10
ATOM     10  C   UNL     1      49.313  83.586  42.707  1.00  0.00    -0.000 C 
BRANCH  10  11
ATOM     11  C   UNL     1      49.300  83.738  44.235  1.00  0.00    -0.003 C 
ATOM     12  C   UNL     1      50.686  84.094  44.765  1.00  0.00     0.004 C 
ENDBRANCH  10  11
ENDBRANCH   9  10
ENDBRANCH   8   9
ENDBRANCH   7   8
ENDBRANCH   6   7
ENDBRANCH   5   6
ENDBRANCH   4   5
ENDBRANCH   3   4
ENDBRANCH   2   3
ENDBRANCH   1   2
BRANCH   1  13
ATOM     13  C   UNL     1      53.212  79.452  34.851  1.00  0.00     0.000 C 
BRANCH  13  14
ATOM     14  C   UNL     1      53.929  80.754  34.440  1.00  0.00     0.000 C 
BRANCH  14  15
ATOM     15  C   UNL     1      53.764  81.147  32.961  1.00  0.00     0.000 C 
BRANCH  15  16
ATOM     16  C   UNL     1      55.058  81.692  32.339  1.00  0.00     0.000 C 
BRANCH  16  17
ATOM     17  C   UNL     1      54.972  81.693  30.804  1.00  0.00     0.000 C 
BRANCH  17  18
ATOM     18  C   UNL     1      55.240  83.078  30.195  1.00  0.00     0.000 C 
BRANCH  18  19
ATOM     19  C   UNL     1      53.961  83.746  29.663  1.00  0.00     0.000 C 
BRANCH  19  20
ATOM     20  C   UNL     1      53.024  84.219  30.790  1.00  0.00     0.006 C 
BRANCH  20  21
ATOM     21  C   UNL     1      51.528  84.041  30.489  1.00  0.00     0.053 C 
BRANCH  21  22
ATOM     22  C   UNL     1      50.976  82.786  31.094  1.00  0.00     0.041 C 
ATOM     23  O   UNL     1      50.362  82.832  32.192  1.00  0.00    -0.550 OA
ATOM     24  O   UNL     1      51.177  81.564  30.467  1.00  0.00    -0.550 OA
ENDBRANCH  21  22
ENDBRANCH  20  21
ENDBRANCH  19  20
ENDBRANCH  18  19
ENDBRANCH  17  18
ENDBRANCH  16  17
ENDBRANCH  15  16
ENDBRANCH  14  15
ENDBRANCH  13  14
ENDBRANCH   1  13
TORSDOF 20
ENDMDL
MODEL 8
REMARK VINA RESULT:     0.390      6.225      9.233
REMARK INTER + INTRA:           1.005
REMARK INTER:                   2.284
REMARK INTRA:                  -1.280
REMARK UNBOUND:                 0.160
REMARK SMILES CCCCCCCCCCCCCCCCCCCCCC(=O)[O-]
REMARK SMILES IDX 12 1 11 2 10 3 9 4 8 5 7 6 6 7 5 8 4 9 3 10 2 11 1 12 13 13
REMARK SMILES IDX 14 14 15 15 16 16 17 17 18 18 19 19 20 20 21 21 22 22 23 23
REMARK SMILES IDX 24 24
REMARK H PARENT
REMARK Flexibility Score: inf
ROOT
ATOM      1  C   UNL     1      53.843  80.232  37.273  1.00  0.00     0.000 C 
ENDROOT
BRANCH   1   2
ATOM      2  C   UNL     1      52.838  80.855  38.264  1.00  0.00     0.000 C 
BRANCH   2   3
ATOM      3  C   UNL     1      51.459  80.172  38.318  1.00  0.00     0.000 C 
BRANCH   3   4
ATOM      4  C   UNL     1      50.528  80.788  39.376  1.00  0.00    -0.000 C 
BRANCH   4   5
ATOM      5  C   UNL     1      49.303  79.907  39.683  1.00  0.00    -0.000 C 
BRANCH   5   6
ATOM      6  C   UNL     1      48.096  80.652  40.281  1.00  0.00    -0.000 C 
BRANCH   6   7
ATOM      7  C   UNL     1      48.428  81.364  41.604  1.00  0.00    -0.000 C 
BRANCH   7   8
ATOM      8  C   UNL     1      48.512  82.891  41.446  1.00  0.00    -0.000 C 
BRANCH   8   9
ATOM      9  C   UNL     1      49.064  83.583  42.703  1.00  0.00    -0.000 C 
BRANCH   9  10
ATOM     10  C   UNL     1      48.537  82.951  44.002  1.00  0.00    -0.000 C 
BRANCH  10  11
ATOM     11  C   UNL     1      49.442  83.242  45.208  1.00  0.00    -0.003 C 
ATOM     12  C   UNL     1      50.667  84.053  44.795  1.00  0.00     0.004 C 
ENDBRANCH  10  11
ENDBRANCH   9  10
ENDBRANCH   8   9
ENDBRANCH   7   8
ENDBRANCH   6   7
ENDBRANCH   5   6
ENDBRANCH   4   5
ENDBRANCH   3   4
ENDBRANCH   2   3
ENDBRANCH   1   2
BRANCH   1  13
ATOM     13  C   UNL     1      53.267  79.128  36.364  1.00  0.00     0.000 C 
BRANCH  13  14
ATOM     14  C   UNL     1      53.442  79.374  34.851  1.00  0.00     0.000 C 
BRANCH  14  15
ATOM     15  C   UNL     1      53.856  80.807  34.471  1.00  0.00     0.000 C 
BRANCH  15  16
ATOM     16  C   UNL     1      53.699  81.096  32.970  1.00  0.00     0.000 C 
BRANCH  16  17
ATOM     17  C   UNL     1      54.982  81.714  32.393  1.00  0.00     0.000 C 
BRANCH  17  18
ATOM     18  C   UNL     1      55.050  81.618  30.860  1.00  0.00     0.000 C 
BRANCH  18  19
ATOM     19  C   UNL     1      53.658  81.550  30.211  1.00  0.00     0.000 C 
BRANCH  19  20
ATOM     20  C   UNL     1      53.238  82.883  29.564  1.00  0.00     0.006 C 
BRANCH  20  21
ATOM     21  C   UNL     1      52.214  83.689  30.378  1.00  0.00     0.053 C 
BRANCH  21  22
ATOM     22  C   UNL     1      50.966  82.906  30.647  1.00  0.00     0.041 C 
ATOM     23  O   UNL     1      50.183  82.619  29.703  1.00  0.00    -0.550 OA
ATOM     24  O   UNL     1      50.647  82.528  31.945  1.00  0.00    -0.550 OA
ENDBRANCH  21  22
ENDBRANCH  20  21
ENDBRANCH  19  20
ENDBRANCH  18  19
ENDBRANCH  17  18
ENDBRANCH  16  17
ENDBRANCH  15  16
ENDBRANCH  14  15
ENDBRANCH  13  14
ENDBRANCH   1  13
TORSDOF 20
ENDMDL
