MODEL 1
REMARK VINA RESULT:    -7.132      0.000      0.000
REMARK INTER + INTRA:         -10.129
REMARK INTER:                  -8.800
REMARK INTRA:                  -1.329
REMARK UNBOUND:                -1.329
REMARK SMILES C=C(CCC=C(C)C)[C@@H]1CC=C(C)CC1
REMARK SMILES IDX 3 1 2 2 1 3 9 4 13 5 12 6 11 7 14 8 10 9 15 10 4 11 5 12
REMARK SMILES IDX 6 13 7 14 8 15
REMARK H PARENT
REMARK Flexibility Score: inf
ROOT
ATOM      1  C   UNL     1      -2.371 -14.056  10.716  1.00  0.00     0.035 C 
ENDROOT
BRANCH   1   2
ATOM      2  C   UNL     1      -1.714 -14.435   9.402  1.00  0.00    -0.074 C 
ATOM      3  C   UNL     1      -0.407 -14.738   9.408  1.00  0.00     0.008 C 
BRANCH   2   4
ATOM      4  C   UNL     1      -2.474 -14.302   8.086  1.00  0.00     0.018 C 
ATOM      5  C   UNL     1      -5.532 -15.187   5.167  1.00  0.00     0.039 C 
ATOM      6  C   UNL     1      -4.761 -15.055   6.451  1.00  0.00    -0.077 C 
ATOM      7  C   UNL     1      -4.754 -13.894   7.125  1.00  0.00    -0.027 C 
ATOM      8  C   UNL     1      -3.864 -16.171   6.929  1.00  0.00     0.031 C 
ATOM      9  C   UNL     1      -3.901 -13.764   8.356  1.00  0.00     0.035 C 
ATOM     10  C   UNL     1      -2.458 -15.627   7.251  1.00  0.00     0.013 C 
ENDBRANCH   2   4
ENDBRANCH   1   2
BRANCH   1  11
ATOM     11  C   UNL     1      -2.664 -15.281  11.600  1.00  0.00     0.032 C 
BRANCH  11  12
ATOM     12  C   UNL     1      -2.716 -16.566  10.807  1.00  0.00    -0.028 C 
ATOM     13  C   UNL     1      -3.870 -17.144  10.414  1.00  0.00    -0.080 C 
ATOM     14  C   UNL     1      -3.806 -18.433   9.636  1.00  0.00     0.039 C 
ATOM     15  C   UNL     1      -5.213 -16.538  10.750  1.00  0.00     0.039 C 
ENDBRANCH  11  12
ENDBRANCH   1  11
TORSDOF 4
ENDMDL
MODEL 2
REMARK VINA RESULT:    -6.944      3.344      4.586
REMARK INTER + INTRA:          -9.897
REMARK INTER:                  -9.327
REMARK INTRA:                  -0.570
REMARK UNBOUND:                -1.329
REMARK SMILES C=C(CCC=C(C)C)[C@@H]1CC=C(C)CC1
REMARK SMILES IDX 3 1 2 2 1 3 9 4 13 5 12 6 11 7 14 8 10 9 15 10 4 11 5 12
REMARK SMILES IDX 6 13 7 14 8 15
REMARK H PARENT
REMARK Flexibility Score: inf
ROOT
ATOM      1  C   UNL     1      -1.975 -17.634  12.529  1.00  0.00     0.035 C 
ENDROOT
BRANCH   1   2
ATOM      2  C   UNL     1      -2.362 -16.171  12.412  1.00  0.00    -0.074 C 
ATOM      3  C   UNL     1      -2.370 -15.424  13.526  1.00  0.00     0.008 C 
BRANCH   2   4
ATOM      4  C   UNL     1      -2.897 -15.612  11.098  1.00  0.00     0.018 C 
ATOM      5  C   UNL     1      -3.689 -15.533   6.852  1.00  0.00     0.039 C 
ATOM      6  C   UNL     1      -3.384 -15.987   8.253  1.00  0.00    -0.077 C 
ATOM      7  C   UNL     1      -4.374 -16.155   9.145  1.00  0.00    -0.027 C 
ATOM      8  C   UNL     1      -1.957 -16.120   8.727  1.00  0.00     0.031 C 
ATOM      9  C   UNL     1      -4.031 -16.520  10.563  1.00  0.00     0.035 C 
ATOM     10  C   UNL     1      -1.759 -15.357  10.052  1.00  0.00     0.013 C 
ENDBRANCH   2   4
ENDBRANCH   1   2
BRANCH   1  11
ATOM     11  C   UNL     1      -1.263 -17.949  13.856  1.00  0.00     0.032 C 
BRANCH  11  12
ATOM     12  C   UNL     1       0.182 -18.344  13.656  1.00  0.00    -0.028 C 
ATOM     13  C   UNL     1       1.100 -18.307  14.645  1.00  0.00    -0.080 C 
ATOM     14  C   UNL     1       2.517 -18.713  14.331  1.00  0.00     0.039 C 
ATOM     15  C   UNL     1       0.741 -17.856  16.041  1.00  0.00     0.039 C 
ENDBRANCH  11  12
ENDBRANCH   1  11
TORSDOF 4
ENDMDL
MODEL 3
REMARK VINA RESULT:    -6.921      2.264      3.423
REMARK INTER + INTRA:          -9.868
REMARK INTER:                  -9.174
REMARK INTRA:                  -0.695
REMARK UNBOUND:                -1.329
REMARK SMILES C=C(CCC=C(C)C)[C@@H]1CC=C(C)CC1
REMARK SMILES IDX 3 1 2 2 1 3 9 4 13 5 12 6 11 7 14 8 10 9 15 10 4 11 5 12
REMARK SMILES IDX 6 13 7 14 8 15
REMARK H PARENT
REMARK Flexibility Score: inf
ROOT
ATOM      1  C   UNL     1      -3.448 -15.713  11.931  1.00  0.00     0.035 C 
ENDROOT
BRANCH   1   2
ATOM      2  C   UNL     1      -3.677 -16.516  10.663  1.00  0.00    -0.074 C 
ATOM      3  C   UNL     1      -3.097 -17.721  10.560  1.00  0.00     0.008 C 
BRANCH   2   4
ATOM      4  C   UNL     1      -4.398 -15.895   9.470  1.00  0.00     0.018 C 
ATOM      5  C   UNL     1      -5.161 -15.036   5.307  1.00  0.00     0.039 C 
ATOM      6  C   UNL     1      -4.692 -15.678   6.583  1.00  0.00    -0.077 C 
ATOM      7  C   UNL     1      -5.521 -16.455   7.299  1.00  0.00    -0.027 C 
ATOM      8  C   UNL     1      -3.337 -15.346   7.161  1.00  0.00     0.031 C 
ATOM      9  C   UNL     1      -5.054 -17.008   8.616  1.00  0.00     0.035 C 
ATOM     10  C   UNL     1      -3.471 -14.943   8.643  1.00  0.00     0.013 C 
ENDBRANCH   2   4
ENDBRANCH   1   2
BRANCH   1  11
ATOM     11  C   UNL     1      -2.009 -15.844  12.457  1.00  0.00     0.032 C 
BRANCH  11  12
ATOM     12  C   UNL     1      -1.960 -16.125  13.941  1.00  0.00    -0.028 C 
ATOM     13  C   UNL     1      -1.444 -17.259  14.461  1.00  0.00    -0.080 C 
ATOM     14  C   UNL     1      -1.456 -17.441  15.956  1.00  0.00     0.039 C 
ATOM     15  C   UNL     1      -0.874 -18.345  13.578  1.00  0.00     0.039 C 
ENDBRANCH  11  12
ENDBRANCH   1  11
TORSDOF 4
ENDMDL
MODEL 4
REMARK VINA RESULT:    -6.914      1.256      5.045
REMARK INTER + INTRA:          -9.860
REMARK INTER:                  -8.347
REMARK INTRA:                  -1.513
REMARK UNBOUND:                -1.329
REMARK SMILES C=C(CCC=C(C)C)[C@@H]1CC=C(C)CC1
REMARK SMILES IDX 3 1 2 2 1 3 9 4 13 5 12 6 11 7 14 8 10 9 15 10 4 11 5 12
REMARK SMILES IDX 6 13 7 14 8 15
REMARK H PARENT
REMARK Flexibility Score: inf
ROOT
ATOM      1  C   UNL     1      -4.780 -16.995   7.633  1.00  0.00     0.035 C 
ENDROOT
BRANCH   1   2
ATOM      2  C   UNL     1      -3.865 -17.812   8.527  1.00  0.00    -0.074 C 
ATOM      3  C   UNL     1      -3.179 -18.826   7.979  1.00  0.00     0.008 C 
BRANCH   2   4
ATOM      4  C   UNL     1      -3.860 -17.597  10.038  1.00  0.00     0.018 C 
ATOM      5  C   UNL     1      -3.267 -15.444  13.735  1.00  0.00     0.039 C 
ATOM      6  C   UNL     1      -3.495 -15.789  12.289  1.00  0.00    -0.077 C 
ATOM      7  C   UNL     1      -4.726 -16.092  11.847  1.00  0.00    -0.027 C 
ATOM      8  C   UNL     1      -2.330 -15.947  11.341  1.00  0.00     0.031 C 
ATOM      9  C   UNL     1      -4.909 -16.523  10.419  1.00  0.00     0.035 C 
ATOM     10  C   UNL     1      -2.428 -17.291  10.592  1.00  0.00     0.013 C 
ENDBRANCH   2   4
ENDBRANCH   1   2
BRANCH   1  11
ATOM     11  C   UNL     1      -4.029 -15.878   6.888  1.00  0.00     0.032 C 
BRANCH  11  12
ATOM     12  C   UNL     1      -3.787 -14.666   7.757  1.00  0.00    -0.028 C 
ATOM     13  C   UNL     1      -2.574 -14.345   8.254  1.00  0.00    -0.080 C 
ATOM     14  C   UNL     1      -2.448 -13.119   9.120  1.00  0.00     0.039 C 
ATOM     15  C   UNL     1      -1.355 -15.194   7.974  1.00  0.00     0.039 C 
ENDBRANCH  11  12
ENDBRANCH   1  11
TORSDOF 4
ENDMDL
MODEL 5
REMARK VINA RESULT:    -6.884      2.282      3.101
REMARK INTER + INTRA:          -9.824
REMARK INTER:                  -9.313
REMARK INTRA:                  -0.510
REMARK UNBOUND:                -1.329
REMARK SMILES C=C(CCC=C(C)C)[C@@H]1CC=C(C)CC1
REMARK SMILES IDX 3 1 2 2 1 3 9 4 13 5 12 6 11 7 14 8 10 9 15 10 4 11 5 12
REMARK SMILES IDX 6 13 7 14 8 15
REMARK H PARENT
REMARK Flexibility Score: inf
ROOT
ATOM      1  C   UNL     1      -3.168 -15.745  11.656  1.00  0.00     0.035 C 
ENDROOT
BRANCH   1   2
ATOM      2  C   UNL     1      -2.642 -14.854  10.545  1.00  0.00    -0.074 C 
ATOM      3  C   UNL     1      -2.015 -13.718  10.884  1.00  0.00     0.008 C 
BRANCH   2   4
ATOM      4  C   UNL     1      -2.971 -15.154   9.086  1.00  0.00     0.018 C 
ATOM      5  C   UNL     1      -5.494 -15.732   5.629  1.00  0.00     0.039 C 
ATOM      6  C   UNL     1      -4.962 -15.306   6.969  1.00  0.00    -0.077 C 
ATOM      7  C   UNL     1      -4.152 -14.240   7.072  1.00  0.00    -0.027 C 
ATOM      8  C   UNL     1      -5.204 -16.149   8.198  1.00  0.00     0.031 C 
ATOM      9  C   UNL     1      -3.561 -13.893   8.410  1.00  0.00     0.035 C 
ATOM     10  C   UNL     1      -3.874 -16.424   8.928  1.00  0.00     0.013 C 
ENDBRANCH   2   4
ENDBRANCH   1   2
BRANCH   1  11
ATOM     11  C   UNL     1      -2.105 -16.731  12.172  1.00  0.00     0.032 C 
BRANCH  11  12
ATOM     12  C   UNL     1      -1.979 -16.707  13.677  1.00  0.00    -0.028 C 
ATOM     13  C   UNL     1      -1.107 -17.483  14.356  1.00  0.00    -0.080 C 
ATOM     14  C   UNL     1      -1.073 -17.387  15.859  1.00  0.00     0.039 C 
ATOM     15  C   UNL     1      -0.186 -18.446  13.644  1.00  0.00     0.039 C 
ENDBRANCH  11  12
ENDBRANCH   1  11
TORSDOF 4
ENDMDL
MODEL 6
REMARK VINA RESULT:    -6.813      1.244      4.619
REMARK INTER + INTRA:          -9.735
REMARK INTER:                  -8.573
REMARK INTRA:                  -1.163
REMARK UNBOUND:                -1.329
REMARK SMILES C=C(CCC=C(C)C)[C@@H]1CC=C(C)CC1
REMARK SMILES IDX 3 1 2 2 1 3 9 4 13 5 12 6 11 7 14 8 10 9 15 10 4 11 5 12
REMARK SMILES IDX 6 13 7 14 8 15
REMARK H PARENT
REMARK Flexibility Score: inf
ROOT
ATOM      1  C   UNL     1      -3.686 -17.810   8.008  1.00  0.00     0.035 C 
ENDROOT
BRANCH   1   2
ATOM      2  C   UNL     1      -3.316 -17.689   9.475  1.00  0.00    -0.074 C 
ATOM      3  C   UNL     1      -3.924 -18.499  10.354  1.00  0.00     0.008 C 
BRANCH   2   4
ATOM      4  C   UNL     1      -2.409 -16.561   9.957  1.00  0.00     0.018 C 
ATOM      5  C   UNL     1      -0.999 -12.496  10.337  1.00  0.00     0.039 C 
ATOM      6  C   UNL     1      -1.860 -13.706  10.105  1.00  0.00    -0.077 C 
ATOM      7  C   UNL     1      -2.422 -14.350  11.141  1.00  0.00    -0.027 C 
ATOM      8  C   UNL     1      -1.990 -14.308   8.726  1.00  0.00     0.031 C 
ATOM      9  C   UNL     1      -3.202 -15.610  10.887  1.00  0.00     0.035 C 
ATOM     10  C   UNL     1      -1.698 -15.821   8.773  1.00  0.00     0.013 C 
ENDBRANCH   2   4
ENDBRANCH   1   2
BRANCH   1  11
ATOM     11  C   UNL     1      -5.073 -17.219   7.702  1.00  0.00     0.032 C 
BRANCH  11  12
ATOM     12  C   UNL     1      -5.101 -15.714   7.838  1.00  0.00    -0.028 C 
ATOM     13  C   UNL     1      -5.157 -14.879   6.778  1.00  0.00    -0.080 C 
ATOM     14  C   UNL     1      -5.170 -13.394   7.028  1.00  0.00     0.039 C 
ATOM     15  C   UNL     1      -5.192 -15.402   5.361  1.00  0.00     0.039 C 
ENDBRANCH  11  12
ENDBRANCH   1  11
TORSDOF 4
ENDMDL
MODEL 7
REMARK VINA RESULT:    -6.723      5.208      8.246
REMARK INTER + INTRA:          -9.625
REMARK INTER:                  -9.133
REMARK INTRA:                  -0.492
REMARK UNBOUND:                -1.329
REMARK SMILES C=C(CCC=C(C)C)[C@@H]1CC=C(C)CC1
REMARK SMILES IDX 3 1 2 2 1 3 9 4 13 5 12 6 11 7 14 8 10 9 15 10 4 11 5 12
REMARK SMILES IDX 6 13 7 14 8 15
REMARK H PARENT
REMARK Flexibility Score: inf
ROOT
ATOM      1  C   UNL     1      -1.233 -17.769  13.252  1.00  0.00     0.035 C 
ENDROOT
BRANCH   1   2
ATOM      2  C   UNL     1      -0.734 -17.780  14.685  1.00  0.00    -0.074 C 
ATOM      3  C   UNL     1      -1.378 -17.028  15.589  1.00  0.00     0.008 C 
BRANCH   2   4
ATOM      4  C   UNL     1       0.568 -18.487  15.048  1.00  0.00     0.018 C 
ATOM      5  C   UNL     1       4.845 -19.031  15.312  1.00  0.00     0.039 C 
ATOM      6  C   UNL     1       3.475 -18.425  15.186  1.00  0.00    -0.077 C 
ATOM      7  C   UNL     1       2.733 -18.187  16.279  1.00  0.00    -0.027 C 
ATOM      8  C   UNL     1       2.849 -18.210  13.829  1.00  0.00     0.031 C 
ATOM      9  C   UNL     1       1.331 -17.666  16.117  1.00  0.00     0.035 C 
ATOM     10  C   UNL     1       1.435 -18.825  13.788  1.00  0.00     0.013 C 
ENDBRANCH   2   4
ENDBRANCH   1   2
BRANCH   1  11
ATOM     11  C   UNL     1      -1.941 -16.452  12.887  1.00  0.00     0.032 C 
BRANCH  11  12
ATOM     12  C   UNL     1      -2.624 -16.518  11.541  1.00  0.00    -0.028 C 
ATOM     13  C   UNL     1      -2.719 -15.459  10.709  1.00  0.00    -0.080 C 
ATOM     14  C   UNL     1      -3.433 -15.633   9.394  1.00  0.00     0.039 C 
ATOM     15  C   UNL     1      -2.143 -14.111  11.077  1.00  0.00     0.039 C 
ENDBRANCH  11  12
ENDBRANCH   1  11
TORSDOF 4
ENDMDL
MODEL 8
REMARK VINA RESULT:    -6.519      2.401      6.101
REMARK INTER + INTRA:          -9.373
REMARK INTER:                  -8.691
REMARK INTRA:                  -0.682
REMARK UNBOUND:                -1.329
REMARK SMILES C=C(CCC=C(C)C)[C@@H]1CC=C(C)CC1
REMARK SMILES IDX 3 1 2 2 1 3 9 4 13 5 12 6 11 7 14 8 10 9 15 10 4 11 5 12
REMARK SMILES IDX 6 13 7 14 8 15
REMARK H PARENT
REMARK Flexibility Score: inf
ROOT
ATOM      1  C   UNL     1      -2.712 -14.980   9.861  1.00  0.00     0.035 C 
ENDROOT
BRANCH   1   2
ATOM      2  C   UNL     1      -3.054 -15.824  11.076  1.00  0.00    -0.074 C 
ATOM      3  C   UNL     1      -4.340 -16.139  11.289  1.00  0.00     0.008 C 
BRANCH   2   4
ATOM      4  C   UNL     1      -1.990 -16.155  12.117  1.00  0.00     0.018 C 
ATOM      5  C   UNL     1      -0.434 -17.630  15.867  1.00  0.00     0.039 C 
ATOM      6  C   UNL     1      -1.303 -17.383  14.665  1.00  0.00    -0.077 C 
ATOM      7  C   UNL     1      -1.066 -18.025  13.509  1.00  0.00    -0.027 C 
ATOM      8  C   UNL     1      -2.361 -16.306  14.686  1.00  0.00     0.031 C 
ATOM      9  C   UNL     1      -1.893 -17.690  12.299  1.00  0.00     0.035 C 
ATOM     10  C   UNL     1      -2.210 -15.383  13.461  1.00  0.00     0.013 C 
ENDBRANCH   2   4
ENDBRANCH   1   2
BRANCH   1  11
ATOM     11  C   UNL     1      -2.430 -15.834   8.613  1.00  0.00     0.032 C 
BRANCH  11  12
ATOM     12  C   UNL     1      -3.189 -15.350   7.400  1.00  0.00    -0.028 C 
ATOM     13  C   UNL     1      -4.414 -15.809   7.064  1.00  0.00    -0.080 C 
ATOM     14  C   UNL     1      -5.076 -15.265   5.825  1.00  0.00     0.039 C 
ATOM     15  C   UNL     1      -5.118 -16.860   7.892  1.00  0.00     0.039 C 
ENDBRANCH  11  12
ENDBRANCH   1  11
TORSDOF 4
ENDMDL
MODEL 9
REMARK VINA RESULT:    -6.488      1.869      5.593
REMARK INTER + INTRA:          -9.335
REMARK INTER:                  -8.683
REMARK INTRA:                  -0.652
REMARK UNBOUND:                -1.329
REMARK SMILES C=C(CCC=C(C)C)[C@@H]1CC=C(C)CC1
REMARK SMILES IDX 3 1 2 2 1 3 9 4 13 5 12 6 11 7 14 8 10 9 15 10 4 11 5 12
REMARK SMILES IDX 6 13 7 14 8 15
REMARK H PARENT
REMARK Flexibility Score: inf
ROOT
ATOM      1  C   UNL     1      -3.265 -16.342   8.856  1.00  0.00     0.035 C 
ENDROOT
BRANCH   1   2
ATOM      2  C   UNL     1      -2.948 -15.423  10.021  1.00  0.00    -0.074 C 
ATOM      3  C   UNL     1      -2.392 -14.231   9.758  1.00  0.00     0.008 C 
BRANCH   2   4
ATOM      4  C   UNL     1      -3.094 -15.911  11.459  1.00  0.00     0.018 C 
ATOM      5  C   UNL     1      -1.770 -17.298  15.329  1.00  0.00     0.039 C 
ATOM      6  C   UNL     1      -1.827 -16.655  13.971  1.00  0.00    -0.077 C 
ATOM      7  C   UNL     1      -2.377 -15.440  13.815  1.00  0.00    -0.027 C 
ATOM      8  C   UNL     1      -1.404 -17.419  12.738  1.00  0.00     0.031 C 
ATOM      9  C   UNL     1      -2.503 -14.863  12.433  1.00  0.00     0.035 C 
ATOM     10  C   UNL     1      -2.506 -17.349  11.662  1.00  0.00     0.013 C 
ENDBRANCH   2   4
ENDBRANCH   1   2
BRANCH   1  11
ATOM     11  C   UNL     1      -4.772 -16.412   8.556  1.00  0.00     0.032 C 
BRANCH  11  12
ATOM     12  C   UNL     1      -5.071 -16.320   7.078  1.00  0.00    -0.028 C 
ATOM     13  C   UNL     1      -5.148 -15.148   6.412  1.00  0.00    -0.080 C 
ATOM     14  C   UNL     1      -5.463 -15.172   4.939  1.00  0.00     0.039 C 
ATOM     15  C   UNL     1      -4.941 -13.826   7.113  1.00  0.00     0.039 C 
ENDBRANCH  11  12
ENDBRANCH   1  11
TORSDOF 4
ENDMDL
