MODEL 1
REMARK VINA RESULT:    -3.057      0.000      0.000
REMARK INTER + INTRA:          -5.153
REMARK INTER:                  -4.666
REMARK INTRA:                  -0.487
REMARK UNBOUND:                -0.487
REMARK SMILES CC1=CCC[C@H](C)C(=O)C[C@H](C(C)C)C(=O)C1
REMARK SMILES IDX 8 1 9 2 6 3 7 4 5 5 4 6 3 7 2 8 1 9 10 11 11 12 15 13 16 14
REMARK SMILES IDX 17 15 12 17 13 18 14 19
REMARK H PARENT
REMARK Flexibility Score: 70.00
ROOT
ATOM      1  C   UNL     1     -33.994  16.113  26.238  1.00  0.00     0.136 C 
ATOM      2  O   UNL     1     -35.147  15.984  26.627  1.00  0.00    -0.299 OA
ENDROOT
BRANCH   1   3
ATOM      3  C   UNL     1     -32.894  15.395  27.006  1.00  0.00     0.053 C 
ATOM      4  C   UNL     1     -32.896  15.877  28.462  1.00  0.00     0.016 C 
BRANCH   3   5
ATOM      5  C   UNL     1     -33.078  13.864  26.950  1.00  0.00     0.015 C 
BRANCH   5   6
ATOM      6  C   UNL     1     -33.076  13.294  25.523  1.00  0.00     0.028 C 
BRANCH   6   7
ATOM      7  C   UNL     1     -31.706  13.346  24.889  1.00  0.00    -0.028 C 
ATOM      8  C   UNL     1     -31.360  14.031  23.772  1.00  0.00    -0.070 CG0
ATOM      9  C   UNL     1     -29.935  13.905  23.291  1.00  0.00     0.039 C 
ATOM     10  G   UNL     1     -32.304  14.935  22.996  1.00  0.00     0.000 G0
ENDBRANCH   6   7
ENDBRANCH   5   6
ENDBRANCH   3   5
ENDBRANCH   1   3
BRANCH   1  11
ATOM     11  C   UNL     1     -33.771  17.006  25.031  1.00  0.00     0.087 C 
BRANCH  11  12
ATOM     12  C   UNL     1     -32.309  17.163  24.525  1.00  0.00     0.066 C 
BRANCH  12  13
ATOM     13  C   UNL     1     -31.976  16.415  23.235  1.00  0.00     0.140 C 
ATOM     14  O   UNL     1     -31.450  17.053  22.334  1.00  0.00    -0.299 OA
BRANCH  13  15
ATOM     15  C   UNL     1     -32.295  14.956  22.976  1.00  0.00     0.106 CG0
ATOM     16  G   UNL     1     -31.366  14.045  23.762  1.00  0.00     0.000 G0
ENDBRANCH  13  15
ENDBRANCH  12  13
BRANCH  12  17
ATOM     17  C   UNL     1     -31.879  18.659  24.376  1.00  0.00    -0.006 C 
ATOM     18  C   UNL     1     -30.604  18.992  25.168  1.00  0.00     0.008 C 
ATOM     19  C   UNL     1     -33.003  19.647  24.728  1.00  0.00     0.008 C 
ENDBRANCH  12  17
ENDBRANCH  11  12
ENDBRANCH   1  11
TORSDOF 1
ENDMDL
MODEL 2
REMARK VINA RESULT:    -3.025      1.882      4.562
REMARK INTER + INTRA:          -5.104
REMARK INTER:                  -4.725
REMARK INTRA:                  -0.379
REMARK UNBOUND:                -0.487
REMARK SMILES CC1=CCC[C@H](C)C(=O)C[C@H](C(C)C)C(=O)C1
REMARK SMILES IDX 8 1 9 2 6 3 7 4 5 5 4 6 3 7 2 8 1 9 10 11 11 12 15 13 16 14
REMARK SMILES IDX 17 15 12 17 13 18 14 19
REMARK H PARENT
REMARK Flexibility Score: 70.00
ROOT
ATOM      1  C   UNL     1     -31.811  13.669  25.056  1.00  0.00     0.136 C 
ATOM      2  O   UNL     1     -30.943  13.064  25.670  1.00  0.00    -0.299 OA
ENDROOT
BRANCH   1   3
ATOM      3  C   UNL     1     -31.583  13.942  23.576  1.00  0.00     0.053 C 
ATOM      4  C   UNL     1     -32.938  14.113  22.878  1.00  0.00     0.016 C 
BRANCH   3   5
ATOM      5  C   UNL     1     -30.712  15.198  23.364  1.00  0.00     0.015 C 
BRANCH   5   6
ATOM      6  C   UNL     1     -31.457  16.359  22.686  1.00  0.00     0.028 C 
BRANCH   6   7
ATOM      7  C   UNL     1     -31.528  17.584  23.566  1.00  0.00    -0.028 C 
ATOM      8  C   UNL     1     -32.568  17.952  24.353  1.00  0.00    -0.070 CG0
ATOM      9  C   UNL     1     -32.439  19.245  25.120  1.00  0.00     0.039 C 
ATOM     10  G   UNL     1     -33.837  17.134  24.532  1.00  0.00     0.000 G0
ENDBRANCH   6   7
ENDBRANCH   5   6
ENDBRANCH   3   5
ENDBRANCH   1   3
BRANCH   1  11
ATOM     11  C   UNL     1     -33.029  14.114  25.844  1.00  0.00     0.087 C 
BRANCH  11  12
ATOM     12  C   UNL     1     -32.966  15.516  26.516  1.00  0.00     0.066 C 
BRANCH  12  13
ATOM     13  C   UNL     1     -33.930  16.558  25.953  1.00  0.00     0.140 C 
ATOM     14  O   UNL     1     -34.853  16.917  26.670  1.00  0.00    -0.299 OA
BRANCH  13  15
ATOM     15  C   UNL     1     -33.852  17.141  24.556  1.00  0.00     0.106 CG0
ATOM     16  G   UNL     1     -32.565  17.926  24.361  1.00  0.00     0.000 G0
ENDBRANCH  13  15
ENDBRANCH  12  13
BRANCH  12  17
ATOM     17  C   UNL     1     -33.134  15.448  28.069  1.00  0.00    -0.006 C 
ATOM     18  C   UNL     1     -31.827  15.752  28.821  1.00  0.00     0.008 C 
ATOM     19  C   UNL     1     -33.733  14.118  28.553  1.00  0.00     0.008 C 
ENDBRANCH  12  17
ENDBRANCH  11  12
ENDBRANCH   1  11
TORSDOF 1
ENDMDL
MODEL 3
REMARK VINA RESULT:    -2.979      3.905      6.100
REMARK INTER + INTRA:          -5.033
REMARK INTER:                  -4.613
REMARK INTRA:                  -0.420
REMARK UNBOUND:                -0.487
REMARK SMILES CC1=CCC[C@H](C)C(=O)C[C@H](C(C)C)C(=O)C1
REMARK SMILES IDX 8 1 9 2 6 3 7 4 5 5 4 6 3 7 2 8 1 9 10 11 11 12 15 13 16 14
REMARK SMILES IDX 17 15 12 17 13 18 14 19
REMARK H PARENT
REMARK Flexibility Score: 70.00
ROOT
ATOM      1  C   UNL     1     -28.835  22.327  26.517  1.00  0.00     0.136 C 
ATOM      2  O   UNL     1     -27.860  23.028  26.287  1.00  0.00    -0.299 OA
ENDROOT
BRANCH   1   3
ATOM      3  C   UNL     1     -29.192  22.050  27.971  1.00  0.00     0.053 C 
ATOM      4  C   UNL     1     -30.715  22.102  28.137  1.00  0.00     0.016 C 
BRANCH   3   5
ATOM      5  C   UNL     1     -28.651  20.680  28.430  1.00  0.00     0.015 C 
BRANCH   5   6
ATOM      6  C   UNL     1     -29.753  19.680  28.819  1.00  0.00     0.028 C 
BRANCH   6   7
ATOM      7  C   UNL     1     -29.580  18.346  28.133  1.00  0.00    -0.028 C 
ATOM      8  C   UNL     1     -30.149  17.959  26.966  1.00  0.00    -0.070 CG0
ATOM      9  C   UNL     1     -29.870  16.556  26.485  1.00  0.00     0.039 C 
ATOM     10  G   UNL     1     -31.022  18.855  26.102  1.00  0.00     0.000 G0
ENDBRANCH   6   7
ENDBRANCH   5   6
ENDBRANCH   3   5
ENDBRANCH   1   3
BRANCH   1  11
ATOM     11  C   UNL     1     -29.586  21.776  25.319  1.00  0.00     0.087 C 
BRANCH  11  12
ATOM     12  C   UNL     1     -29.183  20.358  24.820  1.00  0.00     0.066 C 
BRANCH  12  13
ATOM     13  C   UNL     1     -30.299  19.315  24.838  1.00  0.00     0.140 C 
ATOM     14  O   UNL     1     -30.646  18.844  23.763  1.00  0.00    -0.299 OA
BRANCH  13  15
ATOM     15  C   UNL     1     -31.036  18.859  26.081  1.00  0.00     0.106 CG0
ATOM     16  G   UNL     1     -30.148  17.988  26.955  1.00  0.00     0.000 G0
ENDBRANCH  13  15
ENDBRANCH  12  13
BRANCH  12  17
ATOM     17  C   UNL     1     -28.525  20.382  23.402  1.00  0.00    -0.006 C 
ATOM     18  C   UNL     1     -27.233  19.552  23.333  1.00  0.00     0.008 C 
ATOM     19  C   UNL     1     -28.278  21.805  22.876  1.00  0.00     0.008 C 
ENDBRANCH  12  17
ENDBRANCH  11  12
ENDBRANCH   1  11
TORSDOF 1
ENDMDL
MODEL 4
REMARK VINA RESULT:    -2.976      3.702      5.763
REMARK INTER + INTRA:          -5.029
REMARK INTER:                  -4.917
REMARK INTRA:                  -0.113
REMARK UNBOUND:                -0.487
REMARK SMILES CC1=CCC[C@H](C)C(=O)C[C@H](C(C)C)C(=O)C1
REMARK SMILES IDX 8 1 9 2 6 3 7 4 5 5 4 6 3 7 2 8 1 9 10 11 11 12 15 13 16 14
REMARK SMILES IDX 17 15 12 17 13 18 14 19
REMARK H PARENT
REMARK Flexibility Score: 70.00
ROOT
ATOM      1  C   UNL     1     -30.488  20.927  26.750  1.00  0.00     0.136 C 
ATOM      2  O   UNL     1     -30.948  21.227  27.843  1.00  0.00    -0.299 OA
ENDROOT
BRANCH   1   3
ATOM      3  C   UNL     1     -29.629  21.955  26.028  1.00  0.00     0.053 C 
ATOM      4  C   UNL     1     -29.349  23.132  26.970  1.00  0.00     0.016 C 
BRANCH   3   5
ATOM      5  C   UNL     1     -28.303  21.335  25.540  1.00  0.00     0.015 C 
BRANCH   5   6
ATOM      6  C   UNL     1     -28.160  21.309  24.009  1.00  0.00     0.028 C 
BRANCH   6   7
ATOM      7  C   UNL     1     -27.495  20.045  23.520  1.00  0.00    -0.028 C 
ATOM      8  C   UNL     1     -28.108  18.979  22.952  1.00  0.00    -0.070 CG0
ATOM      9  C   UNL     1     -27.247  17.798  22.575  1.00  0.00     0.039 C 
ATOM     10  G   UNL     1     -29.596  18.910  22.647  1.00  0.00     0.000 G0
ENDBRANCH   6   7
ENDBRANCH   5   6
ENDBRANCH   3   5
ENDBRANCH   1   3
BRANCH   1  11
ATOM     11  C   UNL     1     -30.844  19.555  26.206  1.00  0.00     0.087 C 
BRANCH  11  12
ATOM     12  C   UNL     1     -31.249  19.471  24.707  1.00  0.00     0.066 C 
BRANCH  12  13
ATOM     13  C   UNL     1     -30.426  18.504  23.858  1.00  0.00     0.140 C 
ATOM     14  O   UNL     1     -30.388  17.334  24.214  1.00  0.00    -0.299 OA
BRANCH  13  15
ATOM     15  C   UNL     1     -29.617  18.898  22.638  1.00  0.00     0.106 CG0
ATOM     16  G   UNL     1     -28.136  18.983  22.969  1.00  0.00     0.000 G0
ENDBRANCH  13  15
ENDBRANCH  12  13
BRANCH  12  17
ATOM     17  C   UNL     1     -32.769  19.161  24.510  1.00  0.00    -0.006 C 
ATOM     18  C   UNL     1     -33.632  20.432  24.456  1.00  0.00     0.008 C 
ATOM     19  C   UNL     1     -33.325  18.179  25.555  1.00  0.00     0.008 C 
ENDBRANCH  12  17
ENDBRANCH  11  12
ENDBRANCH   1  11
TORSDOF 1
ENDMDL
MODEL 5
REMARK VINA RESULT:    -2.965      2.775      4.049
REMARK INTER + INTRA:          -5.012
REMARK INTER:                  -4.829
REMARK INTRA:                  -0.183
REMARK UNBOUND:                -0.487
REMARK SMILES CC1=CCC[C@H](C)C(=O)C[C@H](C(C)C)C(=O)C1
REMARK SMILES IDX 8 1 9 2 6 3 7 4 5 5 4 6 3 7 2 8 1 9 10 11 11 12 15 13 16 14
REMARK SMILES IDX 17 15 12 17 13 18 14 19
REMARK H PARENT
REMARK Flexibility Score: 70.00
ROOT
ATOM      1  C   UNL     1     -31.601  19.579  25.446  1.00  0.00     0.136 C 
ATOM      2  O   UNL     1     -31.002  19.569  26.512  1.00  0.00    -0.299 OA
ENDROOT
BRANCH   1   3
ATOM      3  C   UNL     1     -33.017  19.021  25.415  1.00  0.00     0.053 C 
ATOM      4  C   UNL     1     -33.833  19.771  24.356  1.00  0.00     0.016 C 
BRANCH   3   5
ATOM      5  C   UNL     1     -33.018  17.507  25.117  1.00  0.00     0.015 C 
BRANCH   5   6
ATOM      6  C   UNL     1     -32.794  17.171  23.633  1.00  0.00     0.028 C 
BRANCH   6   7
ATOM      7  C   UNL     1     -31.583  16.293  23.424  1.00  0.00    -0.028 C 
ATOM      8  C   UNL     1     -30.460  16.620  22.739  1.00  0.00    -0.070 CG0
ATOM      9  C   UNL     1     -29.386  15.566  22.619  1.00  0.00     0.039 C 
ATOM     10  G   UNL     1     -30.205  17.981  22.112  1.00  0.00     0.000 G0
ENDBRANCH   6   7
ENDBRANCH   5   6
ENDBRANCH   3   5
ENDBRANCH   1   3
BRANCH   1  11
ATOM     11  C   UNL     1     -30.857  20.127  24.243  1.00  0.00     0.087 C 
BRANCH  11  12
ATOM     12  C   UNL     1     -29.377  19.682  24.060  1.00  0.00     0.066 C 
BRANCH  12  13
ATOM     13  C   UNL     1     -29.116  18.731  22.894  1.00  0.00     0.140 C 
ATOM     14  O   UNL     1     -27.956  18.589  22.532  1.00  0.00    -0.299 OA
BRANCH  13  15
ATOM     15  C   UNL     1     -30.192  17.992  22.124  1.00  0.00     0.106 CG0
ATOM     16  G   UNL     1     -30.467  16.629  22.740  1.00  0.00     0.000 G0
ENDBRANCH  13  15
ENDBRANCH  12  13
BRANCH  12  17
ATOM     17  C   UNL     1     -28.391  20.892  23.967  1.00  0.00    -0.006 C 
ATOM     18  C   UNL     1     -28.240  21.639  25.302  1.00  0.00     0.008 C 
ATOM     19  C   UNL     1     -28.747  21.875  22.840  1.00  0.00     0.008 C 
ENDBRANCH  12  17
ENDBRANCH  11  12
ENDBRANCH   1  11
TORSDOF 1
ENDMDL
MODEL 6
REMARK VINA RESULT:    -2.900      3.508      6.086
REMARK INTER + INTRA:          -4.912
REMARK INTER:                  -4.469
REMARK INTRA:                  -0.443
REMARK UNBOUND:                -0.487
REMARK SMILES CC1=CCC[C@H](C)C(=O)C[C@H](C(C)C)C(=O)C1
REMARK SMILES IDX 8 1 9 2 6 3 7 4 5 5 4 6 3 7 2 8 1 9 10 11 11 12 15 13 16 14
REMARK SMILES IDX 17 15 12 17 13 18 14 19
REMARK H PARENT
REMARK Flexibility Score: 70.00
ROOT
ATOM      1  C   UNL     1     -28.117  20.076  24.561  1.00  0.00     0.136 C 
ATOM      2  O   UNL     1     -27.114  19.772  23.931  1.00  0.00    -0.299 OA
ENDROOT
BRANCH   1   3
ATOM      3  C   UNL     1     -29.268  20.724  23.805  1.00  0.00     0.053 C 
ATOM      4  C   UNL     1     -28.727  21.871  22.944  1.00  0.00     0.016 C 
BRANCH   3   5
ATOM      5  C   UNL     1     -30.008  19.698  22.922  1.00  0.00     0.015 C 
BRANCH   5   6
ATOM      6  C   UNL     1     -31.229  19.061  23.606  1.00  0.00     0.028 C 
BRANCH   6   7
ATOM      7  C   UNL     1     -30.913  17.707  24.193  1.00  0.00    -0.028 C 
ATOM      8  C   UNL     1     -30.946  17.370  25.505  1.00  0.00    -0.070 CG0
ATOM      9  C   UNL     1     -30.547  15.961  25.873  1.00  0.00     0.039 C 
ATOM     10  G   UNL     1     -31.385  18.306  26.619  1.00  0.00     0.000 G0
ENDBRANCH   6   7
ENDBRANCH   5   6
ENDBRANCH   3   5
ENDBRANCH   1   3
BRANCH   1  11
ATOM     11  C   UNL     1     -28.105  19.799  26.053  1.00  0.00     0.087 C 
BRANCH  11  12
ATOM     12  C   UNL     1     -29.401  20.127  26.847  1.00  0.00     0.066 C 
BRANCH  12  13
ATOM     13  C   UNL     1     -30.189  18.917  27.346  1.00  0.00     0.140 C 
ATOM     14  O   UNL     1     -29.796  18.371  28.367  1.00  0.00    -0.299 OA
BRANCH  13  15
ATOM     15  C   UNL     1     -31.390  18.317  26.641  1.00  0.00     0.106 CG0
ATOM     16  G   UNL     1     -30.958  17.394  25.514  1.00  0.00     0.000 G0
ENDBRANCH  13  15
ENDBRANCH  12  13
BRANCH  12  17
ATOM     17  C   UNL     1     -29.146  21.101  28.042  1.00  0.00    -0.006 C 
ATOM     18  C   UNL     1     -30.376  21.961  28.380  1.00  0.00     0.008 C 
ATOM     19  C   UNL     1     -27.909  21.991  27.842  1.00  0.00     0.008 C 
ENDBRANCH  12  17
ENDBRANCH  11  12
ENDBRANCH   1  11
TORSDOF 1
ENDMDL
MODEL 7
REMARK VINA RESULT:    -2.855      3.768      5.576
REMARK INTER + INTRA:          -4.844
REMARK INTER:                  -4.501
REMARK INTRA:                  -0.343
REMARK UNBOUND:                -0.487
REMARK SMILES CC1=CCC[C@H](C)C(=O)C[C@H](C(C)C)C(=O)C1
REMARK SMILES IDX 8 1 9 2 6 3 7 4 5 5 4 6 3 7 2 8 1 9 10 11 11 12 15 13 16 14
REMARK SMILES IDX 17 15 12 17 13 18 14 19
REMARK H PARENT
REMARK Flexibility Score: 70.00
ROOT
ATOM      1  C   UNL     1     -31.429  18.384  26.300  1.00  0.00     0.136 C 
ATOM      2  O   UNL     1     -31.230  17.679  27.279  1.00  0.00    -0.299 OA
ENDROOT
BRANCH   1   3
ATOM      3  C   UNL     1     -31.864  17.709  25.007  1.00  0.00     0.053 C 
ATOM      4  C   UNL     1     -32.810  18.642  24.242  1.00  0.00     0.016 C 
BRANCH   3   5
ATOM      5  C   UNL     1     -30.649  17.344  24.129  1.00  0.00     0.015 C 
BRANCH   5   6
ATOM      6  C   UNL     1     -30.456  18.278  22.923  1.00  0.00     0.028 C 
BRANCH   6   7
ATOM      7  C   UNL     1     -29.056  18.841  22.857  1.00  0.00    -0.028 C 
ATOM      8  C   UNL     1     -28.655  20.058  23.298  1.00  0.00    -0.070 CG0
ATOM      9  C   UNL     1     -27.208  20.433  23.089  1.00  0.00     0.039 C 
ATOM     10  G   UNL     1     -29.558  21.050  24.011  1.00  0.00     0.000 G0
ENDBRANCH   6   7
ENDBRANCH   5   6
ENDBRANCH   3   5
ENDBRANCH   1   3
BRANCH   1  11
ATOM     11  C   UNL     1     -31.197  19.875  26.467  1.00  0.00     0.087 C 
BRANCH  11  12
ATOM     12  C   UNL     1     -29.723  20.351  26.614  1.00  0.00     0.066 C 
BRANCH  12  13
ATOM     13  C   UNL     1     -29.198  21.223  25.476  1.00  0.00     0.140 C 
ATOM     14  O   UNL     1     -28.448  22.143  25.771  1.00  0.00    -0.299 OA
BRANCH  13  15
ATOM     15  C   UNL     1     -29.577  21.060  24.017  1.00  0.00     0.106 CG0
ATOM     16  G   UNL     1     -28.654  20.075  23.319  1.00  0.00     0.000 G0
ENDBRANCH  13  15
ENDBRANCH  12  13
BRANCH  12  17
ATOM     17  C   UNL     1     -29.455  21.069  27.977  1.00  0.00    -0.006 C 
ATOM     18  C   UNL     1     -29.066  20.091  29.097  1.00  0.00     0.008 C 
ATOM     19  C   UNL     1     -30.621  21.964  28.427  1.00  0.00     0.008 C 
ENDBRANCH  12  17
ENDBRANCH  11  12
ENDBRANCH   1  11
TORSDOF 1
ENDMDL
MODEL 8
REMARK VINA RESULT:    -2.837      4.016      6.096
REMARK INTER + INTRA:          -4.817
REMARK INTER:                  -4.474
REMARK INTRA:                  -0.343
REMARK UNBOUND:                -0.487
REMARK SMILES CC1=CCC[C@H](C)C(=O)C[C@H](C(C)C)C(=O)C1
REMARK SMILES IDX 8 1 9 2 6 3 7 4 5 5 4 6 3 7 2 8 1 9 10 11 11 12 15 13 16 14
REMARK SMILES IDX 17 15 12 17 13 18 14 19
REMARK H PARENT
REMARK Flexibility Score: 70.00
ROOT
ATOM      1  C   UNL     1     -29.743  21.527  26.453  1.00  0.00     0.136 C 
ATOM      2  O   UNL     1     -29.119  21.758  25.427  1.00  0.00    -0.299 OA
ENDROOT
BRANCH   1   3
ATOM      3  C   UNL     1     -29.327  22.254  27.724  1.00  0.00     0.053 C 
ATOM      4  C   UNL     1     -30.560  22.473  28.608  1.00  0.00     0.016 C 
BRANCH   3   5
ATOM      5  C   UNL     1     -28.250  21.463  28.496  1.00  0.00     0.015 C 
BRANCH   5   6
ATOM      6  C   UNL     1     -28.810  20.268  29.286  1.00  0.00     0.028 C 
BRANCH   6   7
ATOM      7  C   UNL     1     -28.205  18.958  28.843  1.00  0.00    -0.028 C 
ATOM      8  C   UNL     1     -28.866  17.907  28.299  1.00  0.00    -0.070 CG0
ATOM      9  C   UNL     1     -28.062  16.673  27.969  1.00  0.00     0.039 C 
ATOM     10  G   UNL     1     -30.351  17.905  27.976  1.00  0.00     0.000 G0
ENDBRANCH   6   7
ENDBRANCH   5   6
ENDBRANCH   3   5
ENDBRANCH   1   3
BRANCH   1  11
ATOM     11  C   UNL     1     -30.866  20.510  26.362  1.00  0.00     0.087 C 
BRANCH  11  12
ATOM     12  C   UNL     1     -30.559  19.181  25.614  1.00  0.00     0.066 C 
BRANCH  12  13
ATOM     13  C   UNL     1     -30.611  17.918  26.471  1.00  0.00     0.140 C 
ATOM     14  O   UNL     1     -30.911  16.871  25.914  1.00  0.00    -0.299 OA
BRANCH  13  15
ATOM     15  C   UNL     1     -30.365  17.878  27.966  1.00  0.00     0.106 CG0
ATOM     16  G   UNL     1     -28.877  17.909  28.277  1.00  0.00     0.000 G0
ENDBRANCH  13  15
ENDBRANCH  12  13
BRANCH  12  17
ATOM     17  C   UNL     1     -31.457  18.980  24.350  1.00  0.00    -0.006 C 
ATOM     18  C   UNL     1     -30.725  19.320  23.041  1.00  0.00     0.008 C 
ATOM     19  C   UNL     1     -32.791  19.739  24.430  1.00  0.00     0.008 C 
ENDBRANCH  12  17
ENDBRANCH  11  12
ENDBRANCH   1  11
TORSDOF 1
ENDMDL
MODEL 9
REMARK VINA RESULT:    -2.766      7.263      8.781
REMARK INTER + INTRA:          -4.708
REMARK INTER:                  -4.883
REMARK INTRA:                   0.175
REMARK UNBOUND:                -0.487
REMARK SMILES CC1=CCC[C@H](C)C(=O)C[C@H](C(C)C)C(=O)C1
REMARK SMILES IDX 8 1 9 2 6 3 7 4 5 5 4 6 3 7 2 8 1 9 10 11 11 12 15 13 16 14
REMARK SMILES IDX 17 15 12 17 13 18 14 19
REMARK H PARENT
REMARK Flexibility Score: 70.00
ROOT
ATOM      1  C   UNL     1     -30.194  21.601  27.517  1.00  0.00     0.136 C 
ATOM      2  O   UNL     1     -30.897  20.601  27.550  1.00  0.00    -0.299 OA
ENDROOT
BRANCH   1   3
ATOM      3  C   UNL     1     -29.105  21.677  26.457  1.00  0.00     0.053 C 
ATOM      4  C   UNL     1     -28.662  23.135  26.290  1.00  0.00     0.016 C 
BRANCH   3   5
ATOM      5  C   UNL     1     -27.898  20.791  26.827  1.00  0.00     0.015 C 
BRANCH   5   6
ATOM      6  C   UNL     1     -27.225  21.187  28.152  1.00  0.00     0.028 C 
BRANCH   6   7
ATOM      7  C   UNL     1     -27.342  20.103  29.197  1.00  0.00    -0.028 C 
ATOM      8  C   UNL     1     -27.945  20.210  30.405  1.00  0.00    -0.070 CG0
ATOM      9  C   UNL     1     -27.905  19.005  31.314  1.00  0.00     0.039 C 
ATOM     10  G   UNL     1     -28.681  21.449  30.888  1.00  0.00     0.000 G0
ENDBRANCH   6   7
ENDBRANCH   5   6
ENDBRANCH   3   5
ENDBRANCH   1   3
BRANCH   1  11
ATOM     11  C   UNL     1     -30.462  22.666  28.565  1.00  0.00     0.087 C 
BRANCH  11  12
ATOM     12  C   UNL     1     -31.084  22.197  29.911  1.00  0.00     0.066 C 
BRANCH  12  13
ATOM     13  C   UNL     1     -30.192  21.303  30.770  1.00  0.00     0.140 C 
ATOM     14  O   UNL     1     -30.738  20.424  31.424  1.00  0.00    -0.299 OA
BRANCH  13  15
ATOM     15  C   UNL     1     -28.691  21.457  30.908  1.00  0.00     0.106 CG0
ATOM     16  G   UNL     1     -27.965  20.224  30.398  1.00  0.00     0.000 G0
ENDBRANCH  13  15
ENDBRANCH  12  13
BRANCH  12  17
ATOM     17  C   UNL     1     -31.609  23.386  30.780  1.00  0.00    -0.006 C 
ATOM     18  C   UNL     1     -32.797  22.989  31.673  1.00  0.00     0.008 C 
ATOM     19  C   UNL     1     -31.955  24.633  29.950  1.00  0.00     0.008 C 
ENDBRANCH  12  17
ENDBRANCH  11  12
ENDBRANCH   1  11
TORSDOF 1
ENDMDL
