MODEL 1
REMARK VINA RESULT:    -4.671      0.000      0.000
REMARK INTER + INTRA:          -6.547
REMARK INTER:                  -6.310
REMARK INTRA:                  -0.237
REMARK UNBOUND:                -0.237
REMARK SMILES CCCCCCCC(=O)[O-]
REMARK SMILES IDX 5 1 6 2 7 3 8 4 9 5 10 6 4 7 3 8 2 9 1 10
REMARK H PARENT
REMARK Flexibility Score: inf
ROOT
ATOM      1  C   UNL     1       9.663 -17.456 -27.201  1.00  0.00     0.000 C 
ENDROOT
BRANCH   1   2
ATOM      2  C   UNL     1       8.418 -17.118 -28.036  1.00  0.00     0.006 C 
BRANCH   2   3
ATOM      3  C   UNL     1       8.728 -17.045 -29.538  1.00  0.00     0.053 C 
BRANCH   3   4
ATOM      4  C   UNL     1       7.881 -16.022 -30.231  1.00  0.00     0.041 C 
ATOM      5  O   UNL     1       7.611 -16.147 -31.455  1.00  0.00    -0.550 OA
ATOM      6  O   UNL     1       7.364 -14.948 -29.519  1.00  0.00    -0.550 OA
ENDBRANCH   3   4
ENDBRANCH   2   3
ENDBRANCH   1   2
BRANCH   1   7
ATOM      7  C   UNL     1      10.682 -18.248 -28.032  1.00  0.00     0.000 C 
BRANCH   7   8
ATOM      8  C   UNL     1      12.108 -18.178 -27.456  1.00  0.00    -0.000 C 
BRANCH   8   9
ATOM      9  C   UNL     1      12.399 -19.183 -26.327  1.00  0.00    -0.003 C 
ATOM     10  C   UNL     1      12.537 -18.521 -24.958  1.00  0.00     0.004 C 
ENDBRANCH   8   9
ENDBRANCH   7   8
ENDBRANCH   1   7
TORSDOF 6
ENDMDL
MODEL 2
REMARK VINA RESULT:    -4.668      1.233      2.013
REMARK INTER + INTRA:          -6.543
REMARK INTER:                  -6.191
REMARK INTRA:                  -0.351
REMARK UNBOUND:                -0.237
REMARK SMILES CCCCCCCC(=O)[O-]
REMARK SMILES IDX 5 1 6 2 7 3 8 4 9 5 10 6 4 7 3 8 2 9 1 10
REMARK H PARENT
REMARK Flexibility Score: inf
ROOT
ATOM      1  C   UNL     1      12.103 -18.161 -27.850  1.00  0.00     0.000 C 
ENDROOT
BRANCH   1   2
ATOM      2  C   UNL     1      11.002 -17.943 -28.899  1.00  0.00     0.006 C 
BRANCH   2   3
ATOM      3  C   UNL     1       9.603 -17.883 -28.270  1.00  0.00     0.053 C 
BRANCH   3   4
ATOM      4  C   UNL     1       8.612 -17.224 -29.180  1.00  0.00     0.041 C 
ATOM      5  O   UNL     1       8.424 -17.670 -30.342  1.00  0.00    -0.550 OA
ATOM      6  O   UNL     1       7.873 -16.136 -28.733  1.00  0.00    -0.550 OA
ENDBRANCH   3   4
ENDBRANCH   2   3
ENDBRANCH   1   2
BRANCH   1   7
ATOM      7  C   UNL     1      12.153 -19.630 -27.405  1.00  0.00     0.000 C 
BRANCH   7   8
ATOM      8  C   UNL     1      11.826 -19.815 -25.912  1.00  0.00    -0.000 C 
BRANCH   8   9
ATOM      9  C   UNL     1      11.679 -18.506 -25.115  1.00  0.00    -0.003 C 
ATOM     10  C   UNL     1      12.825 -18.273 -24.132  1.00  0.00     0.004 C 
ENDBRANCH   8   9
ENDBRANCH   7   8
ENDBRANCH   1   7
TORSDOF 6
ENDMDL
MODEL 3
REMARK VINA RESULT:    -4.562      2.645      3.473
REMARK INTER + INTRA:          -6.399
REMARK INTER:                  -6.081
REMARK INTRA:                  -0.318
REMARK UNBOUND:                -0.237
REMARK SMILES CCCCCCCC(=O)[O-]
REMARK SMILES IDX 5 1 6 2 7 3 8 4 9 5 10 6 4 7 3 8 2 9 1 10
REMARK H PARENT
REMARK Flexibility Score: inf
ROOT
ATOM      1  C   UNL     1      11.210 -19.252 -25.975  1.00  0.00     0.000 C 
ENDROOT
BRANCH   1   2
ATOM      2  C   UNL     1      10.979 -17.797 -26.412  1.00  0.00     0.006 C 
BRANCH   2   3
ATOM      3  C   UNL     1       9.582 -17.586 -27.014  1.00  0.00     0.053 C 
BRANCH   3   4
ATOM      4  C   UNL     1       9.542 -17.954 -28.466  1.00  0.00     0.041 C 
ATOM      5  O   UNL     1       8.452 -18.279 -29.007  1.00  0.00    -0.550 OA
ATOM      6  O   UNL     1      10.701 -17.908 -29.229  1.00  0.00    -0.550 OA
ENDBRANCH   3   4
ENDBRANCH   2   3
ENDBRANCH   1   2
BRANCH   1   7
ATOM      7  C   UNL     1      12.466 -19.831 -26.641  1.00  0.00     0.000 C 
BRANCH   7   8
ATOM      8  C   UNL     1      12.165 -21.049 -27.533  1.00  0.00    -0.000 C 
BRANCH   8   9
ATOM      9  C   UNL     1      12.579 -22.406 -26.936  1.00  0.00    -0.003 C 
ATOM     10  C   UNL     1      11.435 -23.417 -26.898  1.00  0.00     0.004 C 
ENDBRANCH   8   9
ENDBRANCH   7   8
ENDBRANCH   1   7
TORSDOF 6
ENDMDL
MODEL 4
REMARK VINA RESULT:    -4.553      1.895      2.705
REMARK INTER + INTRA:          -6.387
REMARK INTER:                  -5.993
REMARK INTRA:                  -0.393
REMARK UNBOUND:                -0.237
REMARK SMILES CCCCCCCC(=O)[O-]
REMARK SMILES IDX 5 1 6 2 7 3 8 4 9 5 10 6 4 7 3 8 2 9 1 10
REMARK H PARENT
REMARK Flexibility Score: inf
ROOT
ATOM      1  C   UNL     1      12.053 -18.484 -28.171  1.00  0.00     0.000 C 
ENDROOT
BRANCH   1   2
ATOM      2  C   UNL     1      10.714 -17.871 -28.608  1.00  0.00     0.006 C 
BRANCH   2   3
ATOM      3  C   UNL     1       9.781 -17.605 -27.418  1.00  0.00     0.053 C 
BRANCH   3   4
ATOM      4  C   UNL     1       8.340 -17.771 -27.793  1.00  0.00     0.041 C 
ATOM      5  O   UNL     1       7.437 -17.585 -26.936  1.00  0.00    -0.550 OA
ATOM      6  O   UNL     1       7.994 -18.099 -29.097  1.00  0.00    -0.550 OA
ENDBRANCH   3   4
ENDBRANCH   2   3
ENDBRANCH   1   2
BRANCH   1   7
ATOM      7  C   UNL     1      11.850 -19.895 -27.601  1.00  0.00     0.000 C 
BRANCH   7   8
ATOM      8  C   UNL     1      12.122 -19.975 -26.088  1.00  0.00    -0.000 C 
BRANCH   8   9
ATOM      9  C   UNL     1      12.927 -18.795 -25.513  1.00  0.00    -0.003 C 
ATOM     10  C   UNL     1      12.346 -18.255 -24.207  1.00  0.00     0.004 C 
ENDBRANCH   8   9
ENDBRANCH   7   8
ENDBRANCH   1   7
TORSDOF 6
ENDMDL
MODEL 5
REMARK VINA RESULT:    -4.549      4.858      5.881
REMARK INTER + INTRA:          -6.382
REMARK INTER:                  -6.146
REMARK INTRA:                  -0.236
REMARK UNBOUND:                -0.237
REMARK SMILES CCCCCCCC(=O)[O-]
REMARK SMILES IDX 5 1 6 2 7 3 8 4 9 5 10 6 4 7 3 8 2 9 1 10
REMARK H PARENT
REMARK Flexibility Score: inf
ROOT
ATOM      1  C   UNL     1      12.191 -21.434 -26.940  1.00  0.00     0.000 C 
ENDROOT
BRANCH   1   2
ATOM      2  C   UNL     1      13.186 -22.228 -27.801  1.00  0.00     0.006 C 
BRANCH   2   3
ATOM      3  C   UNL     1      12.561 -23.502 -28.386  1.00  0.00     0.053 C 
BRANCH   3   4
ATOM      4  C   UNL     1      11.210 -23.237 -28.977  1.00  0.00     0.041 C 
ATOM      5  O   UNL     1      11.104 -22.585 -30.048  1.00  0.00    -0.550 OA
ATOM      6  O   UNL     1      10.070 -23.738 -28.361  1.00  0.00    -0.550 OA
ENDBRANCH   3   4
ENDBRANCH   2   3
ENDBRANCH   1   2
BRANCH   1   7
ATOM      7  C   UNL     1      12.130 -19.965 -27.386  1.00  0.00     0.000 C 
BRANCH   7   8
ATOM      8  C   UNL     1      12.871 -19.017 -26.426  1.00  0.00    -0.000 C 
BRANCH   8   9
ATOM      9  C   UNL     1      12.034 -18.526 -25.230  1.00  0.00    -0.003 C 
ATOM     10  C   UNL     1      12.874 -18.264 -23.981  1.00  0.00     0.004 C 
ENDBRANCH   8   9
ENDBRANCH   7   8
ENDBRANCH   1   7
TORSDOF 6
ENDMDL
MODEL 6
REMARK VINA RESULT:    -4.527      3.318      4.609
REMARK INTER + INTRA:          -6.352
REMARK INTER:                  -6.043
REMARK INTRA:                  -0.309
REMARK UNBOUND:                -0.237
REMARK SMILES CCCCCCCC(=O)[O-]
REMARK SMILES IDX 5 1 6 2 7 3 8 4 9 5 10 6 4 7 3 8 2 9 1 10
REMARK H PARENT
REMARK Flexibility Score: inf
ROOT
ATOM      1  C   UNL     1      11.824 -20.487 -26.363  1.00  0.00     0.000 C 
ENDROOT
BRANCH   1   2
ATOM      2  C   UNL     1      12.558 -19.185 -26.720  1.00  0.00     0.006 C 
BRANCH   2   3
ATOM      3  C   UNL     1      12.085 -18.600 -28.058  1.00  0.00     0.053 C 
BRANCH   3   4
ATOM      4  C   UNL     1      10.649 -18.177 -28.004  1.00  0.00     0.041 C 
ATOM      5  O   UNL     1       9.863 -18.484 -28.938  1.00  0.00    -0.550 OA
ATOM      6  O   UNL     1      10.172 -17.473 -26.906  1.00  0.00    -0.550 OA
ENDBRANCH   3   4
ENDBRANCH   2   3
ENDBRANCH   1   2
BRANCH   1   7
ATOM      7  C   UNL     1      12.528 -21.702 -26.984  1.00  0.00     0.000 C 
BRANCH   7   8
ATOM      8  C   UNL     1      11.730 -23.007 -26.818  1.00  0.00    -0.000 C 
BRANCH   8   9
ATOM      9  C   UNL     1      11.349 -23.705 -28.136  1.00  0.00    -0.003 C 
ATOM     10  C   UNL     1      11.341 -22.756 -29.334  1.00  0.00     0.004 C 
ENDBRANCH   8   9
ENDBRANCH   7   8
ENDBRANCH   1   7
TORSDOF 6
ENDMDL
MODEL 7
REMARK VINA RESULT:    -4.488      4.374      5.915
REMARK INTER + INTRA:          -6.299
REMARK INTER:                  -6.038
REMARK INTRA:                  -0.262
REMARK UNBOUND:                -0.237
REMARK SMILES CCCCCCCC(=O)[O-]
REMARK SMILES IDX 5 1 6 2 7 3 8 4 9 5 10 6 4 7 3 8 2 9 1 10
REMARK H PARENT
REMARK Flexibility Score: inf
ROOT
ATOM      1  C   UNL     1      11.871 -20.462 -28.078  1.00  0.00     0.000 C 
ENDROOT
BRANCH   1   2
ATOM      2  C   UNL     1      11.965 -19.077 -27.421  1.00  0.00     0.006 C 
BRANCH   2   3
ATOM      3  C   UNL     1      12.941 -19.062 -26.236  1.00  0.00     0.053 C 
BRANCH   3   4
ATOM      4  C   UNL     1      12.339 -18.409 -25.029  1.00  0.00     0.041 C 
ATOM      5  O   UNL     1      13.060 -18.126 -24.036  1.00  0.00    -0.550 OA
ATOM      6  O   UNL     1      10.989 -18.085 -25.013  1.00  0.00    -0.550 OA
ENDBRANCH   3   4
ENDBRANCH   2   3
ENDBRANCH   1   2
BRANCH   1   7
ATOM      7  C   UNL     1      12.764 -21.477 -27.351  1.00  0.00     0.000 C 
BRANCH   7   8
ATOM      8  C   UNL     1      11.961 -22.504 -26.531  1.00  0.00    -0.000 C 
BRANCH   8   9
ATOM      9  C   UNL     1      11.237 -23.574 -27.368  1.00  0.00    -0.003 C 
ATOM     10  C   UNL     1      12.134 -24.215 -28.425  1.00  0.00     0.004 C 
ENDBRANCH   8   9
ENDBRANCH   7   8
ENDBRANCH   1   7
TORSDOF 6
ENDMDL
MODEL 8
REMARK VINA RESULT:    -4.356      2.873      3.863
REMARK INTER + INTRA:          -6.122
REMARK INTER:                  -5.895
REMARK INTRA:                  -0.226
REMARK UNBOUND:                -0.237
REMARK SMILES CCCCCCCC(=O)[O-]
REMARK SMILES IDX 5 1 6 2 7 3 8 4 9 5 10 6 4 7 3 8 2 9 1 10
REMARK H PARENT
REMARK Flexibility Score: inf
ROOT
ATOM      1  C   UNL     1      11.796 -19.749 -26.156  1.00  0.00     0.000 C 
ENDROOT
BRANCH   1   2
ATOM      2  C   UNL     1      11.738 -18.333 -26.751  1.00  0.00     0.006 C 
BRANCH   2   3
ATOM      3  C   UNL     1      10.298 -17.880 -27.033  1.00  0.00     0.053 C 
BRANCH   3   4
ATOM      4  C   UNL     1       9.971 -17.946 -28.494  1.00  0.00     0.041 C 
ATOM      5  O   UNL     1      10.880 -17.805 -29.353  1.00  0.00    -0.550 OA
ATOM      6  O   UNL     1       8.668 -18.194 -28.904  1.00  0.00    -0.550 OA
ENDBRANCH   3   4
ENDBRANCH   2   3
ENDBRANCH   1   2
BRANCH   1   7
ATOM      7  C   UNL     1      12.200 -20.776 -27.224  1.00  0.00     0.000 C 
BRANCH   7   8
ATOM      8  C   UNL     1      12.178 -22.224 -26.701  1.00  0.00    -0.000 C 
BRANCH   8   9
ATOM      9  C   UNL     1      13.063 -23.208 -27.487  1.00  0.00    -0.003 C 
ATOM     10  C   UNL     1      14.548 -22.854 -27.431  1.00  0.00     0.004 C 
ENDBRANCH   8   9
ENDBRANCH   7   8
ENDBRANCH   1   7
TORSDOF 6
ENDMDL
MODEL 9
REMARK VINA RESULT:    -4.323      4.649      5.944
REMARK INTER + INTRA:          -6.076
REMARK INTER:                  -5.796
REMARK INTRA:                  -0.280
REMARK UNBOUND:                -0.237
REMARK SMILES CCCCCCCC(=O)[O-]
REMARK SMILES IDX 5 1 6 2 7 3 8 4 9 5 10 6 4 7 3 8 2 9 1 10
REMARK H PARENT
REMARK Flexibility Score: inf
ROOT
ATOM      1  C   UNL     1      12.094 -20.703 -28.165  1.00  0.00     0.000 C 
ENDROOT
BRANCH   1   2
ATOM      2  C   UNL     1      12.165 -20.448 -26.651  1.00  0.00     0.006 C 
BRANCH   2   3
ATOM      3  C   UNL     1      12.833 -19.106 -26.319  1.00  0.00     0.053 C 
BRANCH   3   4
ATOM      4  C   UNL     1      12.186 -18.440 -25.143  1.00  0.00     0.041 C 
ATOM      5  O   UNL     1      10.941 -18.255 -25.125  1.00  0.00    -0.550 OA
ATOM      6  O   UNL     1      12.955 -18.053 -24.053  1.00  0.00    -0.550 OA
ENDBRANCH   3   4
ENDBRANCH   2   3
ENDBRANCH   1   2
BRANCH   1   7
ATOM      7  C   UNL     1      12.735 -22.051 -28.525  1.00  0.00     0.000 C 
BRANCH   7   8
ATOM      8  C   UNL     1      13.670 -22.583 -27.423  1.00  0.00    -0.000 C 
BRANCH   8   9
ATOM      9  C   UNL     1      15.033 -23.095 -27.924  1.00  0.00    -0.003 C 
ATOM     10  C   UNL     1      16.188 -22.728 -26.995  1.00  0.00     0.004 C 
ENDBRANCH   8   9
ENDBRANCH   7   8
ENDBRANCH   1   7
TORSDOF 6
ENDMDL
