MODEL 1
REMARK VINA RESULT:    -2.146      0.000      0.000
REMARK INTER + INTRA:          -2.146
REMARK INTER:                  -2.146
REMARK INTRA:                   0.000
REMARK UNBOUND:                 0.000
REMARK SMILES CC(=O)[O-]
REMARK SMILES IDX 1 1 2 2 3 3 4 4
REMARK H PARENT
REMARK Flexibility Score: inf
ROOT
ATOM      1  C   UNL     1    -110.074  18.951  26.532  1.00  0.00     0.063 C 
ATOM      2  C   UNL     1    -108.619  19.269  26.578  1.00  0.00     0.038 C 
ATOM      3  O   UNL     1    -107.898  19.081  25.562  1.00  0.00    -0.550 OA
ATOM      4  O   UNL     1    -108.062  19.824  27.723  1.00  0.00    -0.550 OA
ENDROOT
TORSDOF 0
ENDMDL
MODEL 2
REMARK VINA RESULT:    -2.060      9.033      9.515
REMARK INTER + INTRA:          -2.060
REMARK INTER:                  -2.060
REMARK INTRA:                   0.000
REMARK UNBOUND:                 0.000
REMARK SMILES CC(=O)[O-]
REMARK SMILES IDX 1 1 2 2 3 3 4 4
REMARK H PARENT
REMARK Flexibility Score: inf
ROOT
ATOM      1  C   UNL     1    -112.678  12.237  24.909  1.00  0.00     0.063 C 
ATOM      2  C   UNL     1    -114.129  11.910  24.993  1.00  0.00     0.038 C 
ATOM      3  O   UNL     1    -114.509  10.872  25.599  1.00  0.00    -0.550 OA
ATOM      4  O   UNL     1    -115.071  12.775  24.452  1.00  0.00    -0.550 OA
ENDROOT
TORSDOF 0
ENDMDL
MODEL 3
REMARK VINA RESULT:    -1.986      8.516      8.979
REMARK INTER + INTRA:          -1.986
REMARK INTER:                  -1.986
REMARK INTRA:                   0.000
REMARK UNBOUND:                 0.000
REMARK SMILES CC(=O)[O-]
REMARK SMILES IDX 1 1 2 2 3 3 4 4
REMARK H PARENT
REMARK Flexibility Score: inf
ROOT
ATOM      1  C   UNL     1    -114.532  11.966  24.849  1.00  0.00     0.063 C 
ATOM      2  C   UNL     1    -113.065  11.752  24.997  1.00  0.00     0.038 C 
ATOM      3  O   UNL     1    -112.261  12.687  24.740  1.00  0.00    -0.550 OA
ATOM      4  O   UNL     1    -112.582  10.540  25.473  1.00  0.00    -0.550 OA
ENDROOT
TORSDOF 0
ENDMDL
MODEL 4
REMARK VINA RESULT:    -1.980      8.786      9.251
REMARK INTER + INTRA:          -1.980
REMARK INTER:                  -1.980
REMARK INTRA:                   0.000
REMARK UNBOUND:                 0.000
REMARK SMILES CC(=O)[O-]
REMARK SMILES IDX 1 1 2 2 3 3 4 4
REMARK H PARENT
REMARK Flexibility Score: inf
ROOT
ATOM      1  C   UNL     1    -114.970  12.333  24.496  1.00  0.00     0.063 C 
ATOM      2  C   UNL     1    -113.745  11.800  25.157  1.00  0.00     0.038 C 
ATOM      3  O   UNL     1    -113.798  10.728  25.815  1.00  0.00    -0.550 OA
ATOM      4  O   UNL     1    -112.530  12.455  25.003  1.00  0.00    -0.550 OA
ENDROOT
TORSDOF 0
ENDMDL
MODEL 5
REMARK VINA RESULT:    -1.914      9.288      9.665
REMARK INTER + INTRA:          -1.914
REMARK INTER:                  -1.914
REMARK INTRA:                   0.000
REMARK UNBOUND:                 0.000
REMARK SMILES CC(=O)[O-]
REMARK SMILES IDX 1 1 2 2 3 3 4 4
REMARK H PARENT
REMARK Flexibility Score: inf
ROOT
ATOM      1  C   UNL     1    -102.955  12.268  24.830  1.00  0.00     0.063 C 
ATOM      2  C   UNL     1    -103.500  11.372  25.888  1.00  0.00     0.038 C 
ATOM      3  O   UNL     1    -104.744  11.211  26.002  1.00  0.00    -0.550 OA
ATOM      4  O   UNL     1    -102.636  10.667  26.717  1.00  0.00    -0.550 OA
ENDROOT
TORSDOF 0
ENDMDL
MODEL 6
REMARK VINA RESULT:    -1.906      9.259      9.686
REMARK INTER + INTRA:          -1.906
REMARK INTER:                  -1.906
REMARK INTRA:                   0.000
REMARK UNBOUND:                 0.000
REMARK SMILES CC(=O)[O-]
REMARK SMILES IDX 1 1 2 2 3 3 4 4
REMARK H PARENT
REMARK Flexibility Score: inf
ROOT
ATOM      1  C   UNL     1    -102.115  10.889  26.218  1.00  0.00     0.063 C 
ATOM      2  C   UNL     1    -103.196  11.672  25.555  1.00  0.00     0.038 C 
ATOM      3  O   UNL     1    -104.386  11.572  25.955  1.00  0.00    -0.550 OA
ATOM      4  O   UNL     1    -102.887  12.555  24.528  1.00  0.00    -0.550 OA
ENDROOT
TORSDOF 0
ENDMDL
MODEL 7
REMARK VINA RESULT:    -1.892      1.927      2.204
REMARK INTER + INTRA:          -1.892
REMARK INTER:                  -1.892
REMARK INTRA:                   0.000
REMARK UNBOUND:                 0.000
REMARK SMILES CC(=O)[O-]
REMARK SMILES IDX 1 1 2 2 3 3 4 4
REMARK H PARENT
REMARK Flexibility Score: inf
ROOT
ATOM      1  C   UNL     1    -108.232  19.006  26.749  1.00  0.00     0.063 C 
ATOM      2  C   UNL     1    -109.625  19.003  26.218  1.00  0.00     0.038 C 
ATOM      3  O   UNL     1    -109.935  19.750  25.254  1.00  0.00    -0.550 OA
ATOM      4  O   UNL     1    -110.571  18.135  26.750  1.00  0.00    -0.550 OA
ENDROOT
TORSDOF 0
ENDMDL
MODEL 8
REMARK VINA RESULT:    -1.857     10.088     10.404
REMARK INTER + INTRA:          -1.857
REMARK INTER:                  -1.857
REMARK INTRA:                   0.000
REMARK UNBOUND:                 0.000
REMARK SMILES CC(=O)[O-]
REMARK SMILES IDX 1 1 2 2 3 3 4 4
REMARK H PARENT
REMARK Flexibility Score: inf
ROOT
ATOM      1  C   UNL     1    -102.915  12.277  24.777  1.00  0.00     0.063 C 
ATOM      2  C   UNL     1    -102.484  11.614  23.514  1.00  0.00     0.038 C 
ATOM      3  O   UNL     1    -103.064  10.568  23.119  1.00  0.00    -0.550 OA
ATOM      4  O   UNL     1    -101.478  12.177  22.739  1.00  0.00    -0.550 OA
ENDROOT
TORSDOF 0
ENDMDL
MODEL 9
REMARK VINA RESULT:    -1.757      9.597     10.122
REMARK INTER + INTRA:          -1.757
REMARK INTER:                  -1.757
REMARK INTRA:                   0.000
REMARK UNBOUND:                 0.000
REMARK SMILES CC(=O)[O-]
REMARK SMILES IDX 1 1 2 2 3 3 4 4
REMARK H PARENT
REMARK Flexibility Score: inf
ROOT
ATOM      1  C   UNL     1    -101.332  22.788  31.156  1.00  0.00     0.063 C 
ATOM      2  C   UNL     1    -100.704  21.799  32.077  1.00  0.00     0.038 C 
ATOM      3  O   UNL     1    -100.491  22.101  33.281  1.00  0.00    -0.550 OA
ATOM      4  O   UNL     1    -100.400  20.521  31.624  1.00  0.00    -0.550 OA
ENDROOT
TORSDOF 0
ENDMDL
