MODEL 1
REMARK VINA RESULT:     9.449      0.000      0.000
REMARK INTER + INTRA:          24.613
REMARK INTER:                  24.917
REMARK INTRA:                  -0.304
REMARK UNBOUND:                -0.304
REMARK SMILES CCCCCCCCCCCCCCCCCCCCCCCCCCCCCC(=O)[O-]
REMARK SMILES IDX 16 1 17 2 18 3 19 4 20 5 21 6 22 7 23 8 24 9 25 10 26 11
REMARK SMILES IDX 27 12 28 13 29 14 30 15 31 16 32 17 15 18 14 19 13 20 12 21
REMARK SMILES IDX 11 22 10 23 9 24 8 25 7 26 6 27 5 28 4 29 3 30 2 31 1 32
REMARK H PARENT
REMARK Flexibility Score: inf
ROOT
ATOM      1  C   UNL     1      13.344  17.127  -7.058  1.00  0.00     0.000 C 
ENDROOT
BRANCH   1   2
ATOM      2  C   UNL     1      13.167  17.589  -5.605  1.00  0.00     0.000 C 
BRANCH   2   3
ATOM      3  C   UNL     1      12.063  16.820  -4.862  1.00  0.00     0.000 C 
BRANCH   3   4
ATOM      4  C   UNL     1      11.146  15.972  -5.764  1.00  0.00     0.000 C 
BRANCH   4   5
ATOM      5  C   UNL     1      10.297  14.964  -4.972  1.00  0.00     0.000 C 
BRANCH   5   6
ATOM      6  C   UNL     1      11.152  13.787  -4.469  1.00  0.00     0.000 C 
BRANCH   6   7
ATOM      7  C   UNL     1      10.650  13.206  -3.129  1.00  0.00     0.000 C 
BRANCH   7   8
ATOM      8  C   UNL     1      10.118  14.258  -2.133  1.00  0.00     0.000 C 
BRANCH   8   9
ATOM      9  C   UNL     1      10.266  13.904  -0.639  1.00  0.00     0.000 C 
BRANCH   9  10
ATOM     10  C   UNL     1      11.713  13.671  -0.171  1.00  0.00     0.000 C 
BRANCH  10  11
ATOM     11  C   UNL     1      11.824  13.460   1.353  1.00  0.00     0.000 C 
BRANCH  11  12
ATOM     12  C   UNL     1      11.769  14.790   2.125  1.00  0.00     0.000 C 
BRANCH  12  13
ATOM     13  C   UNL     1      11.794  16.005   1.178  1.00  0.00     0.006 C 
BRANCH  13  14
ATOM     14  C   UNL     1      10.947  17.172   1.704  1.00  0.00     0.053 C 
BRANCH  14  15
ATOM     15  C   UNL     1       9.486  16.834   1.742  1.00  0.00     0.041 C 
ATOM     16  O   UNL     1       8.624  17.713   1.472  1.00  0.00    -0.550 OA
ATOM     17  O   UNL     1       9.076  15.547   2.075  1.00  0.00    -0.550 OA
ENDBRANCH  14  15
ENDBRANCH  13  14
ENDBRANCH  12  13
ENDBRANCH  11  12
ENDBRANCH  10  11
ENDBRANCH   9  10
ENDBRANCH   8   9
ENDBRANCH   7   8
ENDBRANCH   6   7
ENDBRANCH   5   6
ENDBRANCH   4   5
ENDBRANCH   3   4
ENDBRANCH   2   3
ENDBRANCH   1   2
BRANCH   1  18
ATOM     18  C   UNL     1      14.758  16.567  -7.284  1.00  0.00     0.000 C 
BRANCH  18  19
ATOM     19  C   UNL     1      14.802  15.486  -8.379  1.00  0.00     0.000 C 
BRANCH  19  20
ATOM     20  C   UNL     1      15.167  16.063  -9.759  1.00  0.00     0.000 C 
BRANCH  20  21
ATOM     21  C   UNL     1      14.757  15.140 -10.918  1.00  0.00     0.000 C 
BRANCH  21  22
ATOM     22  C   UNL     1      15.150  15.701 -12.297  1.00  0.00     0.000 C 
BRANCH  22  23
ATOM     23  C   UNL     1      15.561  14.605 -13.291  1.00  0.00     0.000 C 
BRANCH  23  24
ATOM     24  C   UNL     1      16.956  14.021 -12.993  1.00  0.00    -0.000 C 
BRANCH  24  25
ATOM     25  C   UNL     1      18.098  14.916 -13.503  1.00  0.00    -0.000 C 
BRANCH  25  26
ATOM     26  C   UNL     1      17.825  16.412 -13.283  1.00  0.00    -0.000 C 
BRANCH  26  27
ATOM     27  C   UNL     1      18.603  16.992 -12.091  1.00  0.00    -0.000 C 
BRANCH  27  28
ATOM     28  C   UNL     1      18.815  18.519 -12.171  1.00  0.00    -0.000 C 
BRANCH  28  29
ATOM     29  C   UNL     1      18.097  19.141 -13.381  1.00  0.00    -0.000 C 
BRANCH  29  30
ATOM     30  C   UNL     1      17.822  20.646 -13.202  1.00  0.00    -0.000 C 
BRANCH  30  31
ATOM     31  C   UNL     1      18.761  21.349 -12.206  1.00  0.00    -0.003 C 
ATOM     32  C   UNL     1      20.241  21.168 -12.552  1.00  0.00     0.004 C 
ENDBRANCH  30  31
ENDBRANCH  29  30
ENDBRANCH  28  29
ENDBRANCH  27  28
ENDBRANCH  26  27
ENDBRANCH  25  26
ENDBRANCH  24  25
ENDBRANCH  23  24
ENDBRANCH  22  23
ENDBRANCH  21  22
ENDBRANCH  20  21
ENDBRANCH  19  20
ENDBRANCH  18  19
ENDBRANCH   1  18
TORSDOF 28
ENDMDL
MODEL 2
REMARK VINA RESULT:     9.491      4.581     13.783
REMARK INTER + INTRA:          24.723
REMARK INTER:                  25.539
REMARK INTRA:                  -0.816
REMARK UNBOUND:                -0.304
REMARK SMILES CCCCCCCCCCCCCCCCCCCCCCCCCCCCCC(=O)[O-]
REMARK SMILES IDX 16 1 17 2 18 3 19 4 20 5 21 6 22 7 23 8 24 9 25 10 26 11
REMARK SMILES IDX 27 12 28 13 29 14 30 15 31 16 32 17 15 18 14 19 13 20 12 21
REMARK SMILES IDX 11 22 10 23 9 24 8 25 7 26 6 27 5 28 4 29 3 30 2 31 1 32
REMARK H PARENT
REMARK Flexibility Score: inf
ROOT
ATOM      1  C   UNL     1      11.372  16.575  -5.749  1.00  0.00     0.000 C 
ENDROOT
BRANCH   1   2
ATOM      2  C   UNL     1      12.488  17.595  -6.016  1.00  0.00     0.000 C 
BRANCH   2   3
ATOM      3  C   UNL     1      13.416  17.178  -7.169  1.00  0.00     0.000 C 
BRANCH   3   4
ATOM      4  C   UNL     1      14.043  15.779  -7.022  1.00  0.00     0.000 C 
BRANCH   4   5
ATOM      5  C   UNL     1      14.909  15.384  -8.228  1.00  0.00     0.000 C 
BRANCH   5   6
ATOM      6  C   UNL     1      14.502  16.168  -9.489  1.00  0.00     0.000 C 
BRANCH   6   7
ATOM      7  C   UNL     1      15.518  16.023 -10.644  1.00  0.00     0.000 C 
BRANCH   7   8
ATOM      8  C   UNL     1      15.110  15.006 -11.732  1.00  0.00     0.000 C 
BRANCH   8   9
ATOM      9  C   UNL     1      15.875  15.108 -13.067  1.00  0.00     0.000 C 
BRANCH   9  10
ATOM     10  C   UNL     1      17.305  14.540 -13.036  1.00  0.00     0.000 C 
BRANCH  10  11
ATOM     11  C   UNL     1      18.380  15.607 -13.328  1.00  0.00     0.000 C 
BRANCH  11  12
ATOM     12  C   UNL     1      17.759  16.962 -13.710  1.00  0.00     0.000 C 
BRANCH  12  13
ATOM     13  C   UNL     1      18.131  18.068 -12.705  1.00  0.00     0.006 C 
BRANCH  13  14
ATOM     14  C   UNL     1      18.381  19.419 -13.390  1.00  0.00     0.053 C 
BRANCH  14  15
ATOM     15  C   UNL     1      19.153  20.360 -12.511  1.00  0.00     0.041 C 
ATOM     16  O   UNL     1      20.267  20.012 -12.034  1.00  0.00    -0.550 OA
ATOM     17  O   UNL     1      18.642  21.621 -12.220  1.00  0.00    -0.550 OA
ENDBRANCH  14  15
ENDBRANCH  13  14
ENDBRANCH  12  13
ENDBRANCH  11  12
ENDBRANCH  10  11
ENDBRANCH   9  10
ENDBRANCH   8   9
ENDBRANCH   7   8
ENDBRANCH   6   7
ENDBRANCH   5   6
ENDBRANCH   4   5
ENDBRANCH   3   4
ENDBRANCH   2   3
ENDBRANCH   1   2
BRANCH   1  18
ATOM     18  C   UNL     1      11.858  15.473  -4.793  1.00  0.00     0.000 C 
BRANCH  18  19
ATOM     19  C   UNL     1      10.699  14.705  -4.132  1.00  0.00     0.000 C 
BRANCH  19  20
ATOM     20  C   UNL     1      11.195  13.599  -3.182  1.00  0.00     0.000 C 
BRANCH  20  21
ATOM     21  C   UNL     1      11.916  14.156  -1.944  1.00  0.00     0.000 C 
BRANCH  21  22
ATOM     22  C   UNL     1      11.131  13.922  -0.639  1.00  0.00     0.000 C 
BRANCH  22  23
ATOM     23  C   UNL     1      11.816  12.911   0.294  1.00  0.00     0.000 C 
BRANCH  23  24
ATOM     24  C   UNL     1      11.404  13.085   1.768  1.00  0.00    -0.000 C 
BRANCH  24  25
ATOM     25  C   UNL     1      10.790  14.465   2.056  1.00  0.00    -0.000 C 
BRANCH  25  26
ATOM     26  C   UNL     1      11.797  15.613   1.880  1.00  0.00    -0.000 C 
BRANCH  26  27
ATOM     27  C   UNL     1      11.171  16.861   1.237  1.00  0.00    -0.000 C 
BRANCH  27  28
ATOM     28  C   UNL     1      10.037  17.490   2.074  1.00  0.00    -0.000 C 
BRANCH  28  29
ATOM     29  C   UNL     1       8.674  17.390   1.369  1.00  0.00    -0.000 C 
BRANCH  29  30
ATOM     30  C   UNL     1       7.676  16.490   2.123  1.00  0.00    -0.000 C 
BRANCH  30  31
ATOM     31  C   UNL     1       7.954  14.982   1.988  1.00  0.00    -0.003 C 
ATOM     32  C   UNL     1       6.702  14.175   1.637  1.00  0.00     0.004 C 
ENDBRANCH  30  31
ENDBRANCH  29  30
ENDBRANCH  28  29
ENDBRANCH  27  28
ENDBRANCH  26  27
ENDBRANCH  25  26
ENDBRANCH  24  25
ENDBRANCH  23  24
ENDBRANCH  22  23
ENDBRANCH  21  22
ENDBRANCH  20  21
ENDBRANCH  19  20
ENDBRANCH  18  19
ENDBRANCH   1  18
TORSDOF 28
ENDMDL
MODEL 3
REMARK VINA RESULT:     9.883      1.240      2.013
REMARK INTER + INTRA:          25.757
REMARK INTER:                  26.154
REMARK INTRA:                  -0.397
REMARK UNBOUND:                -0.304
REMARK SMILES CCCCCCCCCCCCCCCCCCCCCCCCCCCCCC(=O)[O-]
REMARK SMILES IDX 16 1 17 2 18 3 19 4 20 5 21 6 22 7 23 8 24 9 25 10 26 11
REMARK SMILES IDX 27 12 28 13 29 14 30 15 31 16 32 17 15 18 14 19 13 20 12 21
REMARK SMILES IDX 11 22 10 23 9 24 8 25 7 26 6 27 5 28 4 29 3 30 2 31 1 32
REMARK H PARENT
REMARK Flexibility Score: inf
ROOT
ATOM      1  C   UNL     1      13.295  16.702  -7.200  1.00  0.00     0.000 C 
ENDROOT
BRANCH   1   2
ATOM      2  C   UNL     1      13.101  17.526  -5.918  1.00  0.00     0.000 C 
BRANCH   2   3
ATOM      3  C   UNL     1      12.206  16.824  -4.886  1.00  0.00     0.000 C 
BRANCH   3   4
ATOM      4  C   UNL     1      11.634  15.467  -5.340  1.00  0.00     0.000 C 
BRANCH   4   5
ATOM      5  C   UNL     1      10.602  14.895  -4.355  1.00  0.00     0.000 C 
BRANCH   5   6
ATOM      6  C   UNL     1      11.232  14.635  -2.974  1.00  0.00     0.000 C 
BRANCH   6   7
ATOM      7  C   UNL     1      10.186  14.312  -1.885  1.00  0.00     0.000 C 
BRANCH   7   8
ATOM      8  C   UNL     1      10.773  13.707  -0.592  1.00  0.00     0.000 C 
BRANCH   8   9
ATOM      9  C   UNL     1      10.441  14.460   0.712  1.00  0.00     0.000 C 
BRANCH   9  10
ATOM     10  C   UNL     1      11.379  15.637   1.034  1.00  0.00     0.000 C 
BRANCH  10  11
ATOM     11  C   UNL     1      10.901  16.969   0.418  1.00  0.00     0.000 C 
BRANCH  11  12
ATOM     12  C   UNL     1       9.520  17.388   0.951  1.00  0.00     0.000 C 
BRANCH  12  13
ATOM     13  C   UNL     1       9.064  16.501   2.125  1.00  0.00     0.006 C 
BRANCH  13  14
ATOM     14  C   UNL     1       7.548  16.259   2.118  1.00  0.00     0.053 C 
BRANCH  14  15
ATOM     15  C   UNL     1       7.212  14.797   2.049  1.00  0.00     0.041 C 
ATOM     16  O   UNL     1       8.132  13.935   2.070  1.00  0.00    -0.550 OA
ATOM     17  O   UNL     1       5.886  14.389   1.963  1.00  0.00    -0.550 OA
ENDBRANCH  14  15
ENDBRANCH  13  14
ENDBRANCH  12  13
ENDBRANCH  11  12
ENDBRANCH  10  11
ENDBRANCH   9  10
ENDBRANCH   8   9
ENDBRANCH   7   8
ENDBRANCH   6   7
ENDBRANCH   5   6
ENDBRANCH   4   5
ENDBRANCH   3   4
ENDBRANCH   2   3
ENDBRANCH   1   2
BRANCH   1  18
ATOM     18  C   UNL     1      14.741  16.192  -7.306  1.00  0.00     0.000 C 
BRANCH  18  19
ATOM     19  C   UNL     1      15.295  16.265  -8.741  1.00  0.00     0.000 C 
BRANCH  19  20
ATOM     20  C   UNL     1      14.851  15.069  -9.603  1.00  0.00     0.000 C 
BRANCH  20  21
ATOM     21  C   UNL     1      14.494  15.472 -11.043  1.00  0.00     0.000 C 
BRANCH  21  22
ATOM     22  C   UNL     1      15.259  14.653 -12.099  1.00  0.00     0.000 C 
BRANCH  22  23
ATOM     23  C   UNL     1      15.887  15.530 -13.193  1.00  0.00     0.000 C 
BRANCH  23  24
ATOM     24  C   UNL     1      17.389  15.250 -13.394  1.00  0.00    -0.000 C 
BRANCH  24  25
ATOM     25  C   UNL     1      18.273  15.981 -12.370  1.00  0.00    -0.000 C 
BRANCH  25  26
ATOM     26  C   UNL     1      17.967  17.484 -12.284  1.00  0.00    -0.000 C 
BRANCH  26  27
ATOM     27  C   UNL     1      18.258  18.229 -13.597  1.00  0.00    -0.000 C 
BRANCH  27  28
ATOM     28  C   UNL     1      17.255  19.362 -13.904  1.00  0.00    -0.000 C 
BRANCH  28  29
ATOM     29  C   UNL     1      17.681  20.699 -13.273  1.00  0.00    -0.000 C 
BRANCH  29  30
ATOM     30  C   UNL     1      18.586  20.515 -12.040  1.00  0.00    -0.000 C 
BRANCH  30  31
ATOM     31  C   UNL     1      19.776  21.489 -11.975  1.00  0.00    -0.003 C 
ATOM     32  C   UNL     1      20.982  21.013 -12.789  1.00  0.00     0.004 C 
ENDBRANCH  30  31
ENDBRANCH  29  30
ENDBRANCH  28  29
ENDBRANCH  27  28
ENDBRANCH  26  27
ENDBRANCH  25  26
ENDBRANCH  24  25
ENDBRANCH  23  24
ENDBRANCH  22  23
ENDBRANCH  21  22
ENDBRANCH  20  21
ENDBRANCH  19  20
ENDBRANCH  18  19
ENDBRANCH   1  18
TORSDOF 28
ENDMDL
MODEL 4
REMARK VINA RESULT:     9.957      4.622     13.565
REMARK INTER + INTRA:          25.952
REMARK INTER:                  26.923
REMARK INTRA:                  -0.972
REMARK UNBOUND:                -0.304
REMARK SMILES CCCCCCCCCCCCCCCCCCCCCCCCCCCCCC(=O)[O-]
REMARK SMILES IDX 16 1 17 2 18 3 19 4 20 5 21 6 22 7 23 8 24 9 25 10 26 11
REMARK SMILES IDX 27 12 28 13 29 14 30 15 31 16 32 17 15 18 14 19 13 20 12 21
REMARK SMILES IDX 11 22 10 23 9 24 8 25 7 26 6 27 5 28 4 29 3 30 2 31 1 32
REMARK H PARENT
REMARK Flexibility Score: inf
ROOT
ATOM      1  C   UNL     1      13.313  17.995  -6.118  1.00  0.00     0.000 C 
ENDROOT
BRANCH   1   2
ATOM      2  C   UNL     1      14.419  17.391  -6.994  1.00  0.00     0.000 C 
BRANCH   2   3
ATOM      3  C   UNL     1      13.887  16.369  -8.011  1.00  0.00     0.000 C 
BRANCH   3   4
ATOM      4  C   UNL     1      14.923  15.339  -8.498  1.00  0.00     0.000 C 
BRANCH   4   5
ATOM      5  C   UNL     1      14.537  14.691  -9.837  1.00  0.00     0.000 C 
BRANCH   5   6
ATOM      6  C   UNL     1      15.256  15.373 -11.016  1.00  0.00     0.000 C 
BRANCH   6   7
ATOM      7  C   UNL     1      14.911  14.738 -12.381  1.00  0.00     0.000 C 
BRANCH   7   8
ATOM      8  C   UNL     1      15.816  15.193 -13.546  1.00  0.00     0.000 C 
BRANCH   8   9
ATOM      9  C   UNL     1      17.320  14.897 -13.383  1.00  0.00     0.000 C 
BRANCH   9  10
ATOM     10  C   UNL     1      18.169  16.099 -12.930  1.00  0.00     0.000 C 
BRANCH  10  11
ATOM     11  C   UNL     1      17.491  16.926 -11.818  1.00  0.00     0.000 C 
BRANCH  11  12
ATOM     12  C   UNL     1      18.346  18.133 -11.395  1.00  0.00     0.000 C 
BRANCH  12  13
ATOM     13  C   UNL     1      19.059  18.782 -12.597  1.00  0.00     0.006 C 
BRANCH  13  14
ATOM     14  C   UNL     1      19.465  20.236 -12.319  1.00  0.00     0.053 C 
BRANCH  14  15
ATOM     15  C   UNL     1      18.476  21.214 -12.883  1.00  0.00     0.041 C 
ATOM     16  O   UNL     1      17.493  20.803 -13.556  1.00  0.00    -0.550 OA
ATOM     17  O   UNL     1      18.640  22.578 -12.665  1.00  0.00    -0.550 OA
ENDBRANCH  14  15
ENDBRANCH  13  14
ENDBRANCH  12  13
ENDBRANCH  11  12
ENDBRANCH  10  11
ENDBRANCH   9  10
ENDBRANCH   8   9
ENDBRANCH   7   8
ENDBRANCH   6   7
ENDBRANCH   5   6
ENDBRANCH   4   5
ENDBRANCH   3   4
ENDBRANCH   2   3
ENDBRANCH   1   2
BRANCH   1  18
ATOM     18  C   UNL     1      12.730  16.935  -5.168  1.00  0.00     0.000 C 
BRANCH  18  19
ATOM     19  C   UNL     1      11.440  16.294  -5.711  1.00  0.00     0.000 C 
BRANCH  19  20
ATOM     20  C   UNL     1      11.192  14.892  -5.128  1.00  0.00     0.000 C 
BRANCH  20  21
ATOM     21  C   UNL     1      10.527  14.931  -3.742  1.00  0.00     0.000 C 
BRANCH  21  22
ATOM     22  C   UNL     1      10.813  13.671  -2.905  1.00  0.00     0.000 C 
BRANCH  22  23
ATOM     23  C   UNL     1      11.226  13.995  -1.462  1.00  0.00     0.000 C 
BRANCH  23  24
ATOM     24  C   UNL     1      10.047  13.924  -0.472  1.00  0.00    -0.000 C 
BRANCH  24  25
ATOM     25  C   UNL     1      10.497  13.992   0.996  1.00  0.00    -0.000 C 
BRANCH  25  26
ATOM     26  C   UNL     1      11.661  14.972   1.217  1.00  0.00    -0.000 C 
BRANCH  26  27
ATOM     27  C   UNL     1      11.235  16.443   1.086  1.00  0.00    -0.000 C 
BRANCH  27  28
ATOM     28  C   UNL     1      10.138  16.865   2.087  1.00  0.00    -0.000 C 
BRANCH  28  29
ATOM     29  C   UNL     1       8.825  17.244   1.381  1.00  0.00    -0.000 C 
BRANCH  29  30
ATOM     30  C   UNL     1       7.588  16.604   2.040  1.00  0.00    -0.000 C 
BRANCH  30  31
ATOM     31  C   UNL     1       7.637  15.068   2.125  1.00  0.00    -0.003 C 
ATOM     32  C   UNL     1       6.785  14.384   1.053  1.00  0.00     0.004 C 
ENDBRANCH  30  31
ENDBRANCH  29  30
ENDBRANCH  28  29
ENDBRANCH  27  28
ENDBRANCH  26  27
ENDBRANCH  25  26
ENDBRANCH  24  25
ENDBRANCH  23  24
ENDBRANCH  22  23
ENDBRANCH  21  22
ENDBRANCH  20  21
ENDBRANCH  19  20
ENDBRANCH  18  19
ENDBRANCH   1  18
TORSDOF 28
ENDMDL
MODEL 5
REMARK VINA RESULT:    10.218      4.882     13.532
REMARK INTER + INTRA:          26.639
REMARK INTER:                  27.937
REMARK INTRA:                  -1.298
REMARK UNBOUND:                -0.304
REMARK SMILES CCCCCCCCCCCCCCCCCCCCCCCCCCCCCC(=O)[O-]
REMARK SMILES IDX 16 1 17 2 18 3 19 4 20 5 21 6 22 7 23 8 24 9 25 10 26 11
REMARK SMILES IDX 27 12 28 13 29 14 30 15 31 16 32 17 15 18 14 19 13 20 12 21
REMARK SMILES IDX 11 22 10 23 9 24 8 25 7 26 6 27 5 28 4 29 3 30 2 31 1 32
REMARK H PARENT
REMARK Flexibility Score: inf
ROOT
ATOM      1  C   UNL     1      13.202  17.855  -5.360  1.00  0.00     0.000 C 
ENDROOT
BRANCH   1   2
ATOM      2  C   UNL     1      14.014  17.765  -6.660  1.00  0.00     0.000 C 
BRANCH   2   3
ATOM      3  C   UNL     1      13.682  16.514  -7.488  1.00  0.00     0.000 C 
BRANCH   3   4
ATOM      4  C   UNL     1      14.859  15.945  -8.303  1.00  0.00     0.000 C 
BRANCH   4   5
ATOM      5  C   UNL     1      14.406  15.240  -9.592  1.00  0.00     0.000 C 
BRANCH   5   6
ATOM      6  C   UNL     1      15.417  15.457 -10.733  1.00  0.00     0.000 C 
BRANCH   6   7
ATOM      7  C   UNL     1      15.014  14.742 -12.040  1.00  0.00     0.000 C 
BRANCH   7   8
ATOM      8  C   UNL     1      15.707  15.285 -13.308  1.00  0.00     0.000 C 
BRANCH   8   9
ATOM      9  C   UNL     1      17.224  15.029 -13.407  1.00  0.00     0.000 C 
BRANCH   9  10
ATOM     10  C   UNL     1      18.106  16.129 -12.791  1.00  0.00     0.000 C 
BRANCH  10  11
ATOM     11  C   UNL     1      17.543  17.547 -13.021  1.00  0.00     0.000 C 
BRANCH  11  12
ATOM     12  C   UNL     1      18.586  18.638 -12.722  1.00  0.00     0.000 C 
BRANCH  12  13
ATOM     13  C   UNL     1      17.949  20.039 -12.655  1.00  0.00     0.006 C 
BRANCH  13  14
ATOM     14  C   UNL     1      18.836  21.048 -11.911  1.00  0.00     0.053 C 
BRANCH  14  15
ATOM     15  C   UNL     1      20.192  21.176 -12.541  1.00  0.00     0.041 C 
ATOM     16  O   UNL     1      20.398  22.043 -13.433  1.00  0.00    -0.550 OA
ATOM     17  O   UNL     1      21.229  20.338 -12.143  1.00  0.00    -0.550 OA
ENDBRANCH  14  15
ENDBRANCH  13  14
ENDBRANCH  12  13
ENDBRANCH  11  12
ENDBRANCH  10  11
ENDBRANCH   9  10
ENDBRANCH   8   9
ENDBRANCH   7   8
ENDBRANCH   6   7
ENDBRANCH   5   6
ENDBRANCH   4   5
ENDBRANCH   3   4
ENDBRANCH   2   3
ENDBRANCH   1   2
BRANCH   1  18
ATOM     18  C   UNL     1      11.852  17.135  -5.510  1.00  0.00     0.000 C 
BRANCH  18  19
ATOM     19  C   UNL     1      11.641  16.039  -4.450  1.00  0.00     0.000 C 
BRANCH  19  20
ATOM     20  C   UNL     1      10.891  14.818  -5.011  1.00  0.00     0.000 C 
BRANCH  20  21
ATOM     21  C   UNL     1      10.866  13.632  -4.032  1.00  0.00     0.000 C 
BRANCH  21  22
ATOM     22  C   UNL     1      10.443  14.041  -2.609  1.00  0.00     0.000 C 
BRANCH  22  23
ATOM     23  C   UNL     1      11.640  14.316  -1.687  1.00  0.00     0.000 C 
BRANCH  23  24
ATOM     24  C   UNL     1      11.734  13.320  -0.515  1.00  0.00    -0.000 C 
BRANCH  24  25
ATOM     25  C   UNL     1      12.326  13.950   0.756  1.00  0.00    -0.000 C 
BRANCH  25  26
ATOM     26  C   UNL     1      11.525  13.604   2.021  1.00  0.00    -0.000 C 
BRANCH  26  27
ATOM     27  C   UNL     1      10.014  13.500   1.762  1.00  0.00    -0.000 C 
BRANCH  27  28
ATOM     28  C   UNL     1       9.297  14.866   1.712  1.00  0.00    -0.000 C 
BRANCH  28  29
ATOM     29  C   UNL     1      10.229  16.024   2.108  1.00  0.00    -0.000 C 
BRANCH  29  30
ATOM     30  C   UNL     1      10.232  17.167   1.075  1.00  0.00    -0.000 C 
BRANCH  30  31
ATOM     31  C   UNL     1       8.841  17.533   0.528  1.00  0.00    -0.003 C 
ATOM     32  C   UNL     1       7.900  18.075   1.607  1.00  0.00     0.004 C 
ENDBRANCH  30  31
ENDBRANCH  29  30
ENDBRANCH  28  29
ENDBRANCH  27  28
ENDBRANCH  26  27
ENDBRANCH  25  26
ENDBRANCH  24  25
ENDBRANCH  23  24
ENDBRANCH  22  23
ENDBRANCH  21  22
ENDBRANCH  20  21
ENDBRANCH  19  20
ENDBRANCH  18  19
ENDBRANCH   1  18
TORSDOF 28
ENDMDL
MODEL 6
REMARK VINA RESULT:    10.413      1.146      2.081
REMARK INTER + INTRA:          27.153
REMARK INTER:                  29.182
REMARK INTRA:                  -2.029
REMARK UNBOUND:                -0.304
REMARK SMILES CCCCCCCCCCCCCCCCCCCCCCCCCCCCCC(=O)[O-]
REMARK SMILES IDX 16 1 17 2 18 3 19 4 20 5 21 6 22 7 23 8 24 9 25 10 26 11
REMARK SMILES IDX 27 12 28 13 29 14 30 15 31 16 32 17 15 18 14 19 13 20 12 21
REMARK SMILES IDX 11 22 10 23 9 24 8 25 7 26 6 27 5 28 4 29 3 30 2 31 1 32
REMARK H PARENT
REMARK Flexibility Score: inf
ROOT
ATOM      1  C   UNL     1      15.065  16.302  -8.542  1.00  0.00     0.000 C 
ENDROOT
BRANCH   1   2
ATOM      2  C   UNL     1      14.122  16.111  -7.346  1.00  0.00     0.000 C 
BRANCH   2   3
ATOM      3  C   UNL     1      13.792  17.429  -6.628  1.00  0.00     0.000 C 
BRANCH   3   4
ATOM      4  C   UNL     1      12.488  17.410  -5.808  1.00  0.00     0.000 C 
BRANCH   4   5
ATOM      5  C   UNL     1      11.694  16.105  -5.979  1.00  0.00     0.000 C 
BRANCH   5   6
ATOM      6  C   UNL     1      11.120  15.619  -4.635  1.00  0.00     0.000 C 
BRANCH   6   7
ATOM      7  C   UNL     1      10.898  14.092  -4.591  1.00  0.00     0.000 C 
BRANCH   7   8
ATOM      8  C   UNL     1      10.618  13.525  -3.183  1.00  0.00     0.000 C 
BRANCH   8   9
ATOM      9  C   UNL     1      10.321  14.567  -2.086  1.00  0.00     0.000 C 
BRANCH   9  10
ATOM     10  C   UNL     1       9.515  14.032  -0.889  1.00  0.00     0.000 C 
BRANCH  10  11
ATOM     11  C   UNL     1      10.395  13.306   0.149  1.00  0.00     0.000 C 
BRANCH  11  12
ATOM     12  C   UNL     1      11.845  13.818   0.134  1.00  0.00     0.000 C 
BRANCH  12  13
ATOM     13  C   UNL     1      12.215  14.534   1.447  1.00  0.00     0.006 C 
BRANCH  13  14
ATOM     14  C   UNL     1      10.996  15.181   2.122  1.00  0.00     0.053 C 
BRANCH  14  15
ATOM     15  C   UNL     1      10.690  16.534   1.548  1.00  0.00     0.041 C 
ATOM     16  O   UNL     1      11.624  17.340   1.292  1.00  0.00    -0.550 OA
ATOM     17  O   UNL     1       9.373  16.903   1.296  1.00  0.00    -0.550 OA
ENDBRANCH  14  15
ENDBRANCH  13  14
ENDBRANCH  12  13
ENDBRANCH  11  12
ENDBRANCH  10  11
ENDBRANCH   9  10
ENDBRANCH   8   9
ENDBRANCH   7   8
ENDBRANCH   6   7
ENDBRANCH   5   6
ENDBRANCH   4   5
ENDBRANCH   3   4
ENDBRANCH   2   3
ENDBRANCH   1   2
BRANCH   1  18
ATOM     18  C   UNL     1      14.323  16.059  -9.866  1.00  0.00     0.000 C 
BRANCH  18  19
ATOM     19  C   UNL     1      15.132  15.198 -10.853  1.00  0.00     0.000 C 
BRANCH  19  20
ATOM     20  C   UNL     1      14.787  15.507 -12.321  1.00  0.00     0.000 C 
BRANCH  20  21
ATOM     21  C   UNL     1      15.640  14.704 -13.316  1.00  0.00     0.000 C 
BRANCH  21  22
ATOM     22  C   UNL     1      17.151  14.944 -13.138  1.00  0.00     0.000 C 
BRANCH  22  23
ATOM     23  C   UNL     1      18.008  13.818 -13.735  1.00  0.00     0.000 C 
BRANCH  23  24
ATOM     24  C   UNL     1      19.325  13.597 -12.966  1.00  0.00    -0.000 C 
BRANCH  24  25
ATOM     25  C   UNL     1      20.264  14.812 -13.032  1.00  0.00    -0.000 C 
BRANCH  25  26
ATOM     26  C   UNL     1      20.412  15.525 -11.679  1.00  0.00    -0.000 C 
BRANCH  26  27
ATOM     27  C   UNL     1      20.265  17.051 -11.789  1.00  0.00    -0.000 C 
BRANCH  27  28
ATOM     28  C   UNL     1      18.821  17.554 -11.573  1.00  0.00    -0.000 C 
BRANCH  28  29
ATOM     29  C   UNL     1      18.410  18.602 -12.621  1.00  0.00    -0.000 C 
BRANCH  29  30
ATOM     30  C   UNL     1      18.020  19.953 -11.992  1.00  0.00    -0.000 C 
BRANCH  30  31
ATOM     31  C   UNL     1      18.905  21.135 -12.427  1.00  0.00    -0.003 C 
ATOM     32  C   UNL     1      20.382  20.756 -12.564  1.00  0.00     0.004 C 
ENDBRANCH  30  31
ENDBRANCH  29  30
ENDBRANCH  28  29
ENDBRANCH  27  28
ENDBRANCH  26  27
ENDBRANCH  25  26
ENDBRANCH  24  25
ENDBRANCH  23  24
ENDBRANCH  22  23
ENDBRANCH  21  22
ENDBRANCH  20  21
ENDBRANCH  19  20
ENDBRANCH  18  19
ENDBRANCH   1  18
TORSDOF 28
ENDMDL
MODEL 7
REMARK VINA RESULT:    10.443      4.580     13.176
REMARK INTER + INTRA:          27.232
REMARK INTER:                  27.755
REMARK INTRA:                  -0.523
REMARK UNBOUND:                -0.304
REMARK SMILES CCCCCCCCCCCCCCCCCCCCCCCCCCCCCC(=O)[O-]
REMARK SMILES IDX 16 1 17 2 18 3 19 4 20 5 21 6 22 7 23 8 24 9 25 10 26 11
REMARK SMILES IDX 27 12 28 13 29 14 30 15 31 16 32 17 15 18 14 19 13 20 12 21
REMARK SMILES IDX 11 22 10 23 9 24 8 25 7 26 6 27 5 28 4 29 3 30 2 31 1 32
REMARK H PARENT
REMARK Flexibility Score: inf
ROOT
ATOM      1  C   UNL     1      14.003  17.720  -6.687  1.00  0.00     0.000 C 
ENDROOT
BRANCH   1   2
ATOM      2  C   UNL     1      14.105  16.286  -7.226  1.00  0.00     0.000 C 
BRANCH   2   3
ATOM      3  C   UNL     1      15.110  16.151  -8.381  1.00  0.00     0.000 C 
BRANCH   3   4
ATOM      4  C   UNL     1      14.598  15.351  -9.593  1.00  0.00     0.000 C 
BRANCH   4   5
ATOM      5  C   UNL     1      15.471  15.540 -10.844  1.00  0.00     0.000 C 
BRANCH   5   6
ATOM      6  C   UNL     1      14.751  15.041 -12.110  1.00  0.00     0.000 C 
BRANCH   6   7
ATOM      7  C   UNL     1      15.651  15.062 -13.365  1.00  0.00     0.000 C 
BRANCH   7   8
ATOM      8  C   UNL     1      16.935  14.213 -13.246  1.00  0.00     0.000 C 
BRANCH   8   9
ATOM      9  C   UNL     1      18.213  14.843 -13.835  1.00  0.00     0.000 C 
BRANCH   9  10
ATOM     10  C   UNL     1      19.441  14.799 -12.907  1.00  0.00     0.000 C 
BRANCH  10  11
ATOM     11  C   UNL     1      19.528  16.023 -11.971  1.00  0.00     0.000 C 
BRANCH  11  12
ATOM     12  C   UNL     1      19.032  17.309 -12.656  1.00  0.00     0.000 C 
BRANCH  12  13
ATOM     13  C   UNL     1      17.787  17.887 -11.959  1.00  0.00     0.006 C 
BRANCH  13  14
ATOM     14  C   UNL     1      18.036  19.291 -11.388  1.00  0.00     0.053 C 
BRANCH  14  15
ATOM     15  C   UNL     1      18.496  20.253 -12.444  1.00  0.00     0.041 C 
ATOM     16  O   UNL     1      17.680  20.695 -13.297  1.00  0.00    -0.550 OA
ATOM     17  O   UNL     1      19.825  20.662 -12.485  1.00  0.00    -0.550 OA
ENDBRANCH  14  15
ENDBRANCH  13  14
ENDBRANCH  12  13
ENDBRANCH  11  12
ENDBRANCH  10  11
ENDBRANCH   9  10
ENDBRANCH   8   9
ENDBRANCH   7   8
ENDBRANCH   6   7
ENDBRANCH   5   6
ENDBRANCH   4   5
ENDBRANCH   3   4
ENDBRANCH   2   3
ENDBRANCH   1   2
BRANCH   1  18
ATOM     18  C   UNL     1      13.088  17.775  -5.453  1.00  0.00     0.000 C 
BRANCH  18  19
ATOM     19  C   UNL     1      11.724  17.102  -5.693  1.00  0.00     0.000 C 
BRANCH  19  20
ATOM     20  C   UNL     1      11.830  15.568  -5.752  1.00  0.00     0.000 C 
BRANCH  20  21
ATOM     21  C   UNL     1      10.695  14.862  -4.991  1.00  0.00     0.000 C 
BRANCH  21  22
ATOM     22  C   UNL     1      11.049  13.417  -4.596  1.00  0.00     0.000 C 
BRANCH  22  23
ATOM     23  C   UNL     1      10.524  13.035  -3.204  1.00  0.00     0.000 C 
BRANCH  23  24
ATOM     24  C   UNL     1      10.920  14.052  -2.116  1.00  0.00    -0.000 C 
BRANCH  24  25
ATOM     25  C   UNL     1      10.725  13.507  -0.692  1.00  0.00    -0.000 C 
BRANCH  25  26
ATOM     26  C   UNL     1      11.983  13.649   0.178  1.00  0.00    -0.000 C 
BRANCH  26  27
ATOM     27  C   UNL     1      11.668  13.689   1.682  1.00  0.00    -0.000 C 
BRANCH  27  28
ATOM     28  C   UNL     1      10.160  13.778   1.999  1.00  0.00    -0.000 C 
BRANCH  28  29
ATOM     29  C   UNL     1       9.470  14.909   1.218  1.00  0.00    -0.000 C 
BRANCH  29  30
ATOM     30  C   UNL     1       9.014  16.068   2.124  1.00  0.00    -0.000 C 
BRANCH  30  31
ATOM     31  C   UNL     1       9.767  17.390   1.892  1.00  0.00    -0.003 C 
ATOM     32  C   UNL     1      11.140  17.190   1.247  1.00  0.00     0.004 C 
ENDBRANCH  30  31
ENDBRANCH  29  30
ENDBRANCH  28  29
ENDBRANCH  27  28
ENDBRANCH  26  27
ENDBRANCH  25  26
ENDBRANCH  24  25
ENDBRANCH  23  24
ENDBRANCH  22  23
ENDBRANCH  21  22
ENDBRANCH  20  21
ENDBRANCH  19  20
ENDBRANCH  18  19
ENDBRANCH   1  18
TORSDOF 28
ENDMDL
MODEL 8
REMARK VINA RESULT:    11.070      1.567      2.349
REMARK INTER + INTRA:          28.886
REMARK INTER:                  29.220
REMARK INTRA:                  -0.333
REMARK UNBOUND:                -0.304
REMARK SMILES CCCCCCCCCCCCCCCCCCCCCCCCCCCCCC(=O)[O-]
REMARK SMILES IDX 16 1 17 2 18 3 19 4 20 5 21 6 22 7 23 8 24 9 25 10 26 11
REMARK SMILES IDX 27 12 28 13 29 14 30 15 31 16 32 17 15 18 14 19 13 20 12 21
REMARK SMILES IDX 11 22 10 23 9 24 8 25 7 26 6 27 5 28 4 29 3 30 2 31 1 32
REMARK H PARENT
REMARK Flexibility Score: inf
ROOT
ATOM      1  C   UNL     1      14.990  15.716  -7.638  1.00  0.00     0.000 C 
ENDROOT
BRANCH   1   2
ATOM      2  C   UNL     1      14.509  16.676  -6.540  1.00  0.00     0.000 C 
BRANCH   2   3
ATOM      3  C   UNL     1      13.246  17.455  -6.938  1.00  0.00     0.000 C 
BRANCH   3   4
ATOM      4  C   UNL     1      12.153  17.514  -5.854  1.00  0.00     0.000 C 
BRANCH   4   5
ATOM      5  C   UNL     1      12.340  16.452  -4.759  1.00  0.00     0.000 C 
BRANCH   5   6
ATOM      6  C   UNL     1      11.047  15.649  -4.532  1.00  0.00     0.000 C 
BRANCH   6   7
ATOM      7  C   UNL     1      11.283  14.325  -3.772  1.00  0.00     0.000 C 
BRANCH   7   8
ATOM      8  C   UNL     1      10.105  13.879  -2.881  1.00  0.00     0.000 C 
BRANCH   8   9
ATOM      9  C   UNL     1      10.319  14.026  -1.361  1.00  0.00     0.000 C 
BRANCH   9  10
ATOM     10  C   UNL     1       9.059  14.413  -0.566  1.00  0.00     0.000 C 
BRANCH  10  11
ATOM     11  C   UNL     1       9.334  14.598   0.940  1.00  0.00     0.000 C 
BRANCH  11  12
ATOM     12  C   UNL     1      10.065  15.920   1.235  1.00  0.00     0.000 C 
BRANCH  12  13
ATOM     13  C   UNL     1      11.589  15.785   1.061  1.00  0.00     0.006 C 
BRANCH  13  14
ATOM     14  C   UNL     1      12.217  14.862   2.115  1.00  0.00     0.053 C 
BRANCH  14  15
ATOM     15  C   UNL     1      12.705  13.575   1.516  1.00  0.00     0.041 C 
ATOM     16  O   UNL     1      12.176  13.125   0.464  1.00  0.00    -0.550 OA
ATOM     17  O   UNL     1      13.745  12.875   2.118  1.00  0.00    -0.550 OA
ENDBRANCH  14  15
ENDBRANCH  13  14
ENDBRANCH  12  13
ENDBRANCH  11  12
ENDBRANCH  10  11
ENDBRANCH   9  10
ENDBRANCH   8   9
ENDBRANCH   7   8
ENDBRANCH   6   7
ENDBRANCH   5   6
ENDBRANCH   4   5
ENDBRANCH   3   4
ENDBRANCH   2   3
ENDBRANCH   1   2
BRANCH   1  18
ATOM     18  C   UNL     1      14.634  16.259  -9.031  1.00  0.00     0.000 C 
BRANCH  18  19
ATOM     19  C   UNL     1      14.332  15.142 -10.046  1.00  0.00     0.000 C 
BRANCH  19  20
ATOM     20  C   UNL     1      15.354  15.103 -11.197  1.00  0.00     0.000 C 
BRANCH  20  21
ATOM     21  C   UNL     1      15.114  13.935 -12.168  1.00  0.00     0.000 C 
BRANCH  21  22
ATOM     22  C   UNL     1      15.834  14.121 -13.516  1.00  0.00     0.000 C 
BRANCH  22  23
ATOM     23  C   UNL     1      17.311  13.702 -13.465  1.00  0.00     0.000 C 
BRANCH  23  24
ATOM     24  C   UNL     1      18.249  14.743 -14.108  1.00  0.00    -0.000 C 
BRANCH  24  25
ATOM     25  C   UNL     1      18.862  15.707 -13.079  1.00  0.00    -0.000 C 
BRANCH  25  26
ATOM     26  C   UNL     1      17.939  16.889 -12.747  1.00  0.00    -0.000 C 
BRANCH  26  27
ATOM     27  C   UNL     1      18.474  17.762 -11.600  1.00  0.00    -0.000 C 
BRANCH  27  28
ATOM     28  C   UNL     1      17.841  19.168 -11.540  1.00  0.00    -0.000 C 
BRANCH  28  29
ATOM     29  C   UNL     1      17.877  19.878 -12.904  1.00  0.00    -0.000 C 
BRANCH  29  30
ATOM     30  C   UNL     1      18.418  21.317 -12.813  1.00  0.00    -0.000 C 
BRANCH  30  31
ATOM     31  C   UNL     1      19.849  21.424 -12.255  1.00  0.00    -0.003 C 
ATOM     32  C   UNL     1      20.617  20.102 -12.326  1.00  0.00     0.004 C 
ENDBRANCH  30  31
ENDBRANCH  29  30
ENDBRANCH  28  29
ENDBRANCH  27  28
ENDBRANCH  26  27
ENDBRANCH  25  26
ENDBRANCH  24  25
ENDBRANCH  23  24
ENDBRANCH  22  23
ENDBRANCH  21  22
ENDBRANCH  20  21
ENDBRANCH  19  20
ENDBRANCH  18  19
ENDBRANCH   1  18
TORSDOF 28
ENDMDL
MODEL 9
REMARK VINA RESULT:    11.168      4.653     13.135
REMARK INTER + INTRA:          29.144
REMARK INTER:                  29.614
REMARK INTRA:                  -0.470
REMARK UNBOUND:                -0.304
REMARK SMILES CCCCCCCCCCCCCCCCCCCCCCCCCCCCCC(=O)[O-]
REMARK SMILES IDX 16 1 17 2 18 3 19 4 20 5 21 6 22 7 23 8 24 9 25 10 26 11
REMARK SMILES IDX 27 12 28 13 29 14 30 15 31 16 32 17 15 18 14 19 13 20 12 21
REMARK SMILES IDX 11 22 10 23 9 24 8 25 7 26 6 27 5 28 4 29 3 30 2 31 1 32
REMARK H PARENT
REMARK Flexibility Score: inf
ROOT
ATOM      1  C   UNL     1      14.309  17.062  -6.391  1.00  0.00     0.000 C 
ENDROOT
BRANCH   1   2
ATOM      2  C   UNL     1      14.065  16.669  -7.855  1.00  0.00     0.000 C 
BRANCH   2   3
ATOM      3  C   UNL     1      14.877  15.439  -8.288  1.00  0.00     0.000 C 
BRANCH   3   4
ATOM      4  C   UNL     1      14.494  14.861  -9.664  1.00  0.00     0.000 C 
BRANCH   4   5
ATOM      5  C   UNL     1      15.262  15.519 -10.822  1.00  0.00     0.000 C 
BRANCH   5   6
ATOM      6  C   UNL     1      14.811  14.956 -12.182  1.00  0.00     0.000 C 
BRANCH   6   7
ATOM      7  C   UNL     1      15.926  14.173 -12.910  1.00  0.00     0.000 C 
BRANCH   7   8
ATOM      8  C   UNL     1      16.985  15.059 -13.600  1.00  0.00     0.000 C 
BRANCH   8   9
ATOM      9  C   UNL     1      18.455  14.724 -13.278  1.00  0.00     0.000 C 
BRANCH   9  10
ATOM     10  C   UNL     1      19.217  15.827 -12.521  1.00  0.00     0.000 C 
BRANCH  10  11
ATOM     11  C   UNL     1      18.719  17.245 -12.868  1.00  0.00     0.000 C 
BRANCH  11  12
ATOM     12  C   UNL     1      17.594  17.707 -11.925  1.00  0.00     0.000 C 
BRANCH  12  13
ATOM     13  C   UNL     1      18.122  18.632 -10.812  1.00  0.00     0.006 C 
BRANCH  13  14
ATOM     14  C   UNL     1      17.970  20.118 -11.167  1.00  0.00     0.053 C 
BRANCH  14  15
ATOM     15  C   UNL     1      18.516  20.429 -12.529  1.00  0.00     0.041 C 
ATOM     16  O   UNL     1      19.753  20.614 -12.689  1.00  0.00    -0.550 OA
ATOM     17  O   UNL     1      17.660  20.514 -13.622  1.00  0.00    -0.550 OA
ENDBRANCH  14  15
ENDBRANCH  13  14
ENDBRANCH  12  13
ENDBRANCH  11  12
ENDBRANCH  10  11
ENDBRANCH   9  10
ENDBRANCH   8   9
ENDBRANCH   7   8
ENDBRANCH   6   7
ENDBRANCH   5   6
ENDBRANCH   4   5
ENDBRANCH   3   4
ENDBRANCH   2   3
ENDBRANCH   1   2
BRANCH   1  18
ATOM     18  C   UNL     1      13.256  18.075  -5.915  1.00  0.00     0.000 C 
BRANCH  18  19
ATOM     19  C   UNL     1      11.919  17.412  -5.537  1.00  0.00     0.000 C 
BRANCH  19  20
ATOM     20  C   UNL     1      12.075  15.913  -5.226  1.00  0.00     0.000 C 
BRANCH  20  21
ATOM     21  C   UNL     1      10.921  15.357  -4.377  1.00  0.00     0.000 C 
BRANCH  21  22
ATOM     22  C   UNL     1      11.000  13.831  -4.185  1.00  0.00     0.000 C 
BRANCH  22  23
ATOM     23  C   UNL     1      10.586  13.385  -2.775  1.00  0.00     0.000 C 
BRANCH  23  24
ATOM     24  C   UNL     1      10.354  14.571  -1.817  1.00  0.00    -0.000 C 
BRANCH  24  25
ATOM     25  C   UNL     1       9.034  14.457  -1.039  1.00  0.00    -0.000 C 
BRANCH  25  26
ATOM     26  C   UNL     1       9.246  14.159   0.454  1.00  0.00    -0.000 C 
BRANCH  26  27
ATOM     27  C   UNL     1       9.226  15.425   1.325  1.00  0.00    -0.000 C 
BRANCH  27  28
ATOM     28  C   UNL     1      10.340  16.436   0.978  1.00  0.00    -0.000 C 
BRANCH  28  29
ATOM     29  C   UNL     1      11.447  16.466   2.044  1.00  0.00    -0.000 C 
BRANCH  29  30
ATOM     30  C   UNL     1      12.235  15.145   2.123  1.00  0.00    -0.000 C 
BRANCH  30  31
ATOM     31  C   UNL     1      12.338  14.386   0.788  1.00  0.00    -0.003 C 
ATOM     32  C   UNL     1      12.131  12.878   0.941  1.00  0.00     0.004 C 
ENDBRANCH  30  31
ENDBRANCH  29  30
ENDBRANCH  28  29
ENDBRANCH  27  28
ENDBRANCH  26  27
ENDBRANCH  25  26
ENDBRANCH  24  25
ENDBRANCH  23  24
ENDBRANCH  22  23
ENDBRANCH  21  22
ENDBRANCH  20  21
ENDBRANCH  19  20
ENDBRANCH  18  19
ENDBRANCH   1  18
TORSDOF 28
ENDMDL
