MODEL 1
REMARK VINA RESULT:    -2.379      0.000      0.000
REMARK INTER + INTRA:          -2.379
REMARK INTER:                  -2.379
REMARK INTRA:                   0.000
REMARK UNBOUND:                 0.000
REMARK SMILES CC(=O)[O-]
REMARK SMILES IDX 1 1 2 2 3 3 4 4
REMARK H PARENT
REMARK Flexibility Score: inf
ROOT
ATOM      1  C   UNL     1     136.704   0.240  94.591  1.00  0.00     0.063 C 
ATOM      2  C   UNL     1     136.454   1.709  94.633  1.00  0.00     0.038 C 
ATOM      3  O   UNL     1     135.417   2.190  94.107  1.00  0.00    -0.550 OA
ATOM      4  O   UNL     1     137.340   2.547  95.300  1.00  0.00    -0.550 OA
ENDROOT
TORSDOF 0
ENDMDL
MODEL 2
REMARK VINA RESULT:    -2.368      1.452      1.773
REMARK INTER + INTRA:          -2.368
REMARK INTER:                  -2.368
REMARK INTRA:                   0.000
REMARK UNBOUND:                 0.000
REMARK SMILES CC(=O)[O-]
REMARK SMILES IDX 1 1 2 2 3 3 4 4
REMARK H PARENT
REMARK Flexibility Score: inf
ROOT
ATOM      1  C   UNL     1     137.148   2.584  95.281  1.00  0.00     0.063 C 
ATOM      2  C   UNL     1     136.338   1.614  94.490  1.00  0.00     0.038 C 
ATOM      3  O   UNL     1     135.250   1.976  93.970  1.00  0.00    -0.550 OA
ATOM      4  O   UNL     1     136.806   0.323  94.280  1.00  0.00    -0.550 OA
ENDROOT
TORSDOF 0
ENDMDL
MODEL 3
REMARK VINA RESULT:    -2.349      0.459      1.680
REMARK INTER + INTRA:          -2.349
REMARK INTER:                  -2.349
REMARK INTRA:                   0.000
REMARK UNBOUND:                 0.000
REMARK SMILES CC(=O)[O-]
REMARK SMILES IDX 1 1 2 2 3 3 4 4
REMARK H PARENT
REMARK Flexibility Score: inf
ROOT
ATOM      1  C   UNL     1     136.758   0.702  94.521  1.00  0.00     0.063 C 
ATOM      2  C   UNL     1     136.459   2.142  94.766  1.00  0.00     0.038 C 
ATOM      3  O   UNL     1     137.268   2.855  95.416  1.00  0.00    -0.550 OA
ATOM      4  O   UNL     1     135.311   2.716  94.232  1.00  0.00    -0.550 OA
ENDROOT
TORSDOF 0
ENDMDL
MODEL 4
REMARK VINA RESULT:    -2.331      1.398      2.211
REMARK INTER + INTRA:          -2.331
REMARK INTER:                  -2.331
REMARK INTRA:                   0.000
REMARK UNBOUND:                 0.000
REMARK SMILES CC(=O)[O-]
REMARK SMILES IDX 1 1 2 2 3 3 4 4
REMARK H PARENT
REMARK Flexibility Score: inf
ROOT
ATOM      1  C   UNL     1     136.824   2.836  95.323  1.00  0.00     0.063 C 
ATOM      2  C   UNL     1     136.194   1.773  94.488  1.00  0.00     0.038 C 
ATOM      3  O   UNL     1     136.811   0.699  94.262  1.00  0.00    -0.550 OA
ATOM      4  O   UNL     1     134.904   1.942  94.001  1.00  0.00    -0.550 OA
ENDROOT
TORSDOF 0
ENDMDL
MODEL 5
REMARK VINA RESULT:    -2.312      1.424      2.094
REMARK INTER + INTRA:          -2.312
REMARK INTER:                  -2.312
REMARK INTRA:                   0.000
REMARK UNBOUND:                 0.000
REMARK SMILES CC(=O)[O-]
REMARK SMILES IDX 1 1 2 2 3 3 4 4
REMARK H PARENT
REMARK Flexibility Score: inf
ROOT
ATOM      1  C   UNL     1     135.226   2.077  94.233  1.00  0.00     0.063 C 
ATOM      2  C   UNL     1     136.562   1.523  94.595  1.00  0.00     0.038 C 
ATOM      3  O   UNL     1     137.425   2.261  95.139  1.00  0.00    -0.550 OA
ATOM      4  O   UNL     1     136.839   0.179  94.383  1.00  0.00    -0.550 OA
ENDROOT
TORSDOF 0
ENDMDL
MODEL 6
REMARK VINA RESULT:    -2.263      1.309      1.684
REMARK INTER + INTRA:          -2.263
REMARK INTER:                  -2.263
REMARK INTRA:                   0.000
REMARK UNBOUND:                 0.000
REMARK SMILES CC(=O)[O-]
REMARK SMILES IDX 1 1 2 2 3 3 4 4
REMARK H PARENT
REMARK Flexibility Score: inf
ROOT
ATOM      1  C   UNL     1     135.178   2.347  94.342  1.00  0.00     0.063 C 
ATOM      2  C   UNL     1     136.506   1.754  94.673  1.00  0.00     0.038 C 
ATOM      3  O   UNL     1     136.791   0.588  94.292  1.00  0.00    -0.550 OA
ATOM      4  O   UNL     1     137.454   2.507  95.356  1.00  0.00    -0.550 OA
ENDROOT
TORSDOF 0
ENDMDL
MODEL 7
REMARK VINA RESULT:    -2.244      1.620      1.765
REMARK INTER + INTRA:          -2.244
REMARK INTER:                  -2.244
REMARK INTRA:                   0.000
REMARK UNBOUND:                 0.000
REMARK SMILES CC(=O)[O-]
REMARK SMILES IDX 1 1 2 2 3 3 4 4
REMARK H PARENT
REMARK Flexibility Score: inf
ROOT
ATOM      1  C   UNL     1     137.122   2.127  95.043  1.00  0.00     0.063 C 
ATOM      2  C   UNL     1     136.204   3.301  95.018  1.00  0.00     0.038 C 
ATOM      3  O   UNL     1     135.162   3.275  94.311  1.00  0.00    -0.550 OA
ATOM      4  O   UNL     1     136.466   4.407  95.817  1.00  0.00    -0.550 OA
ENDROOT
TORSDOF 0
ENDMDL
MODEL 8
REMARK VINA RESULT:    -2.022     15.787     16.240
REMARK INTER + INTRA:          -2.022
REMARK INTER:                  -2.022
REMARK INTRA:                   0.000
REMARK UNBOUND:                 0.000
REMARK SMILES CC(=O)[O-]
REMARK SMILES IDX 1 1 2 2 3 3 4 4
REMARK H PARENT
REMARK Flexibility Score: inf
ROOT
ATOM      1  C   UNL     1     131.617  -5.528  81.899  1.00  0.00     0.063 C 
ATOM      2  C   UNL     1     131.453  -4.790  80.614  1.00  0.00     0.038 C 
ATOM      3  O   UNL     1     130.362  -4.845  79.988  1.00  0.00    -0.550 OA
ATOM      4  O   UNL     1     132.486  -3.997  80.130  1.00  0.00    -0.550 OA
ENDROOT
TORSDOF 0
ENDMDL
MODEL 9
REMARK VINA RESULT:    -1.996      1.608      1.833
REMARK INTER + INTRA:          -1.996
REMARK INTER:                  -1.996
REMARK INTRA:                   0.000
REMARK UNBOUND:                 0.000
REMARK SMILES CC(=O)[O-]
REMARK SMILES IDX 1 1 2 2 3 3 4 4
REMARK H PARENT
REMARK Flexibility Score: inf
ROOT
ATOM      1  C   UNL     1     134.330   1.461  94.034  1.00  0.00     0.063 C 
ATOM      2  C   UNL     1     135.719   1.898  94.353  1.00  0.00     0.038 C 
ATOM      3  O   UNL     1     135.932   3.057  94.795  1.00  0.00    -0.550 OA
ATOM      4  O   UNL     1     136.778   1.009  94.215  1.00  0.00    -0.550 OA
ENDROOT
TORSDOF 0
ENDMDL
