MODEL 1
REMARK VINA RESULT:    -5.048      0.000      0.000
REMARK INTER + INTRA:          -8.914
REMARK INTER:                  -7.556
REMARK INTRA:                  -1.357
REMARK UNBOUND:                -1.357
REMARK SMILES COC(=O)C1=CO[C@H](O[C@@H]2O[C@H](CO)[C@H](O)[C@H](O)[C@H]2O)[C@H]2C(CO)=CC[C@@H]12
REMARK SMILES IDX 9 1 8 2 5 3 6 4 27 5 7 6 21 7 26 8 22 9 25 10 3 11 4 12 2 13
REMARK SMILES IDX 1 14 23 15 24 16 10 18 19 19 11 20 17 21 12 22 15 23 20 24
REMARK SMILES IDX 18 26 13 28 14 29 16 31
REMARK H PARENT 24 17 20 25 18 27 14 30 16 32
REMARK Flexibility Score: inf
ROOT
ATOM      1  O   UNL     1       5.589  25.840  60.105  1.00  0.00    -0.310 OA
ENDROOT
BRANCH   1   2
ATOM      2  C   UNL     1       4.883  26.830  59.369  1.00  0.00     0.316 C 
ATOM      3  C   UNL     1       3.664  27.886  61.724  1.00  0.00     0.076 C 
ATOM      4  C   UNL     1       2.999  27.038  60.924  1.00  0.00     0.202 C 
ATOM      5  C   UNL     1       4.870  28.661  61.202  1.00  0.00     0.047 C 
ATOM      6  O   UNL     1       3.497  26.708  59.666  1.00  0.00    -0.471 OA
ATOM      7  C   UNL     1       5.380  28.227  59.798  1.00  0.00     0.094 C 
ATOM      8  C   UNL     1       4.503  30.151  61.035  1.00  0.00     0.037 C 
ATOM      9  C   UNL     1       4.912  29.322  58.890  1.00  0.00    -0.039 C 
ATOM     10  C   UNL     1       4.443  30.360  59.566  1.00  0.00    -0.024 C 
BRANCH   3  11
ATOM     11  C   UNL     1       3.193  28.135  63.108  1.00  0.00     0.337 C 
ATOM     12  O   UNL     1       1.964  28.292  63.349  1.00  0.00    -0.246 OA
BRANCH  11  13
ATOM     13  O   UNL     1       4.123  28.188  64.152  1.00  0.00    -0.466 OA
ATOM     14  C   UNL     1       4.466  29.399  64.814  1.00  0.00     0.282 C 
ENDBRANCH  11  13
ENDBRANCH   3  11
BRANCH   9  15
ATOM     15  C   UNL     1       5.128  29.358  57.402  1.00  0.00     0.187 C 
BRANCH  15  16
ATOM     16  O   UNL     1       6.341  29.999  57.124  1.00  0.00    -0.392 OA
ATOM     17  H   UNL     1       6.356  30.142  56.142  1.00  0.00     0.211 HD
ENDBRANCH  15  16
ENDBRANCH   9  15
ENDBRANCH   1   2
BRANCH   1  18
ATOM     18  C   UNL     1       6.819  26.307  60.641  1.00  0.00     0.286 C 
ATOM     19  C   UNL     1       7.102  25.673  62.032  1.00  0.00     0.202 C 
ATOM     20  O   UNL     1       7.897  26.076  59.746  1.00  0.00    -0.341 OA
ATOM     21  C   UNL     1       8.623  25.528  62.290  1.00  0.00     0.179 C 
ATOM     22  C   UNL     1       9.040  26.836  60.118  1.00  0.00     0.178 C 
ATOM     23  C   UNL     1       9.397  26.691  61.638  1.00  0.00     0.177 C 
BRANCH  19  24
ATOM     24  O   UNL     1       6.483  26.420  63.051  1.00  0.00    -0.385 OA
ATOM     25  H   UNL     1       6.917  26.184  63.911  1.00  0.00     0.211 HD
ENDBRANCH  19  24
BRANCH  21  26
ATOM     26  O   UNL     1       9.086  24.310  61.764  1.00  0.00    -0.387 OA
ATOM     27  H   UNL     1      10.058  24.421  61.592  1.00  0.00     0.211 HD
ENDBRANCH  21  26
BRANCH  22  28
ATOM     28  C   UNL     1      10.194  26.459  59.173  1.00  0.00     0.191 C 
BRANCH  28  29
ATOM     29  O   UNL     1      10.437  25.078  59.191  1.00  0.00    -0.394 OA
ATOM     30  H   UNL     1      11.413  24.961  59.327  1.00  0.00     0.210 HD
ENDBRANCH  28  29
ENDBRANCH  22  28
BRANCH  23  31
ATOM     31  O   UNL     1      10.780  26.525  61.838  1.00  0.00    -0.387 OA
ATOM     32  H   UNL     1      10.890  25.900  62.602  1.00  0.00     0.211 HD
ENDBRANCH  23  31
ENDBRANCH   1  18
TORSDOF 11
ENDMDL
MODEL 2
REMARK VINA RESULT:    -5.017      2.318      5.641
REMARK INTER + INTRA:          -8.867
REMARK INTER:                  -7.246
REMARK INTRA:                  -1.621
REMARK UNBOUND:                -1.357
REMARK SMILES COC(=O)C1=CO[C@H](O[C@@H]2O[C@H](CO)[C@H](O)[C@H](O)[C@H]2O)[C@H]2C(CO)=CC[C@@H]12
REMARK SMILES IDX 9 1 8 2 5 3 6 4 27 5 7 6 21 7 26 8 22 9 25 10 3 11 4 12 2 13
REMARK SMILES IDX 1 14 23 15 24 16 10 18 19 19 11 20 17 21 12 22 15 23 20 24
REMARK SMILES IDX 18 26 13 28 14 29 16 31
REMARK H PARENT 24 17 20 25 18 27 14 30 16 32
REMARK Flexibility Score: inf
ROOT
ATOM      1  O   UNL     1       4.195  26.669  61.419  1.00  0.00    -0.310 OA
ENDROOT
BRANCH   1   2
ATOM      2  C   UNL     1       5.582  26.884  61.650  1.00  0.00     0.316 C 
ATOM      3  C   UNL     1       5.696  24.835  63.633  1.00  0.00     0.076 C 
ATOM      4  C   UNL     1       5.596  26.127  63.981  1.00  0.00     0.202 C 
ATOM      5  C   UNL     1       6.203  24.441  62.249  1.00  0.00     0.047 C 
ATOM      6  O   UNL     1       5.774  27.135  63.036  1.00  0.00    -0.471 OA
ATOM      7  C   UNL     1       6.363  25.617  61.243  1.00  0.00     0.094 C 
ATOM      8  C   UNL     1       7.618  23.835  62.362  1.00  0.00     0.037 C 
ATOM      9  C   UNL     1       7.843  25.834  61.175  1.00  0.00    -0.039 C 
ATOM     10  C   UNL     1       8.515  24.865  61.779  1.00  0.00    -0.024 C 
BRANCH   3  11
ATOM     11  C   UNL     1       5.382  23.768  64.614  1.00  0.00     0.337 C 
ATOM     12  O   UNL     1       5.912  23.774  65.760  1.00  0.00    -0.246 OA
BRANCH  11  13
ATOM     13  O   UNL     1       4.484  22.754  64.263  1.00  0.00    -0.466 OA
ATOM     14  C   UNL     1       3.142  23.018  63.872  1.00  0.00     0.282 C 
ENDBRANCH  11  13
ENDBRANCH   3  11
BRANCH   9  15
ATOM     15  C   UNL     1       8.521  26.895  60.351  1.00  0.00     0.187 C 
BRANCH  15  16
ATOM     16  O   UNL     1       7.798  27.099  59.171  1.00  0.00    -0.392 OA
ATOM     17  H   UNL     1       8.332  26.681  58.447  1.00  0.00     0.211 HD
ENDBRANCH  15  16
ENDBRANCH   9  15
ENDBRANCH   1   2
BRANCH   1  18
ATOM     18  C   UNL     1       3.686  27.408  60.319  1.00  0.00     0.286 C 
ATOM     19  C   UNL     1       2.949  28.691  60.797  1.00  0.00     0.202 C 
ATOM     20  O   UNL     1       4.711  27.726  59.388  1.00  0.00    -0.341 OA
ATOM     21  C   UNL     1       3.053  29.828  59.750  1.00  0.00     0.179 C 
ATOM     22  C   UNL     1       4.160  28.151  58.148  1.00  0.00     0.178 C 
ATOM     23  C   UNL     1       3.056  29.252  58.320  1.00  0.00     0.177 C 
BRANCH  19  24
ATOM     24  O   UNL     1       1.606  28.404  61.103  1.00  0.00    -0.385 OA
ATOM     25  H   UNL     1       1.172  28.060  60.280  1.00  0.00     0.211 HD
ENDBRANCH  19  24
BRANCH  21  26
ATOM     26  O   UNL     1       4.233  30.564  59.955  1.00  0.00    -0.387 OA
ATOM     27  H   UNL     1       4.983  30.009  59.615  1.00  0.00     0.211 HD
ENDBRANCH  21  26
BRANCH  22  28
ATOM     28  C   UNL     1       5.319  28.575  57.229  1.00  0.00     0.191 C 
BRANCH  28  29
ATOM     29  O   UNL     1       6.110  29.565  57.831  1.00  0.00    -0.394 OA
ATOM     30  H   UNL     1       7.031  29.199  57.887  1.00  0.00     0.210 HD
ENDBRANCH  28  29
ENDBRANCH  22  28
BRANCH  23  31
ATOM     31  O   UNL     1       3.198  30.288  57.379  1.00  0.00    -0.387 OA
ATOM     32  H   UNL     1       3.037  29.890  56.483  1.00  0.00     0.211 HD
ENDBRANCH  23  31
ENDBRANCH   1  18
TORSDOF 11
ENDMDL
MODEL 3
REMARK VINA RESULT:    -4.973      2.099      6.552
REMARK INTER + INTRA:          -8.801
REMARK INTER:                  -8.041
REMARK INTRA:                  -0.760
REMARK UNBOUND:                -1.357
REMARK SMILES COC(=O)C1=CO[C@H](O[C@@H]2O[C@H](CO)[C@H](O)[C@H](O)[C@H]2O)[C@H]2C(CO)=CC[C@@H]12
REMARK SMILES IDX 9 1 8 2 5 3 6 4 27 5 7 6 21 7 26 8 22 9 25 10 3 11 4 12 2 13
REMARK SMILES IDX 1 14 23 15 24 16 10 18 19 19 11 20 17 21 12 22 15 23 20 24
REMARK SMILES IDX 18 26 13 28 14 29 16 31
REMARK H PARENT 24 17 20 25 18 27 14 30 16 32
REMARK Flexibility Score: inf
ROOT
ATOM      1  O   UNL     1       6.373  27.206  61.160  1.00  0.00    -0.310 OA
ENDROOT
BRANCH   1   2
ATOM      2  C   UNL     1       7.133  26.004  61.198  1.00  0.00     0.316 C 
ATOM      3  C   UNL     1       9.515  27.388  61.943  1.00  0.00     0.076 C 
ATOM      4  C   UNL     1       9.296  27.027  60.669  1.00  0.00     0.202 C 
ATOM      5  C   UNL     1       8.768  26.702  63.083  1.00  0.00     0.047 C 
ATOM      6  O   UNL     1       8.259  26.156  60.344  1.00  0.00    -0.471 OA
ATOM      7  C   UNL     1       7.612  25.757  62.644  1.00  0.00     0.094 C 
ATOM      8  C   UNL     1       9.733  25.791  63.870  1.00  0.00     0.037 C 
ATOM      9  C   UNL     1       8.173  24.383  62.851  1.00  0.00    -0.039 C 
ATOM     10  C   UNL     1       9.317  24.410  63.518  1.00  0.00    -0.024 C 
BRANCH   3  11
ATOM     11  C   UNL     1      10.539  28.410  62.267  1.00  0.00     0.337 C 
ATOM     12  O   UNL     1      10.493  29.041  63.360  1.00  0.00    -0.246 OA
BRANCH  11  13
ATOM     13  O   UNL     1      11.567  28.667  61.354  1.00  0.00    -0.466 OA
ATOM     14  C   UNL     1      12.056  29.978  61.098  1.00  0.00     0.282 C 
ENDBRANCH  11  13
ENDBRANCH   3  11
BRANCH   9  15
ATOM     15  C   UNL     1       7.448  23.102  62.541  1.00  0.00     0.187 C 
BRANCH  15  16
ATOM     16  O   UNL     1       8.372  22.131  62.142  1.00  0.00    -0.392 OA
ATOM     17  H   UNL     1       8.899  21.905  62.953  1.00  0.00     0.211 HD
ENDBRANCH  15  16
ENDBRANCH   9  15
ENDBRANCH   1   2
BRANCH   1  18
ATOM     18  C   UNL     1       5.442  27.249  60.088  1.00  0.00     0.286 C 
ATOM     19  C   UNL     1       3.987  27.057  60.602  1.00  0.00     0.202 C 
ATOM     20  O   UNL     1       5.565  28.452  59.342  1.00  0.00    -0.341 OA
ATOM     21  C   UNL     1       2.967  27.806  59.708  1.00  0.00     0.179 C 
ATOM     22  C   UNL     1       4.892  28.347  58.094  1.00  0.00     0.178 C 
ATOM     23  C   UNL     1       3.428  27.802  58.237  1.00  0.00     0.177 C 
BRANCH  19  24
ATOM     24  O   UNL     1       3.673  25.688  60.694  1.00  0.00    -0.385 OA
ATOM     25  H   UNL     1       4.331  25.186  60.148  1.00  0.00     0.211 HD
ENDBRANCH  19  24
BRANCH  21  26
ATOM     26  O   UNL     1       2.827  29.134  60.146  1.00  0.00    -0.387 OA
ATOM     27  H   UNL     1       1.856  29.338  60.144  1.00  0.00     0.211 HD
ENDBRANCH  21  26
BRANCH  22  28
ATOM     28  C   UNL     1       4.977  29.712  57.388  1.00  0.00     0.191 C 
BRANCH  28  29
ATOM     29  O   UNL     1       6.290  29.994  56.982  1.00  0.00    -0.394 OA
ATOM     30  H   UNL     1       6.254  30.174  56.007  1.00  0.00     0.210 HD
ENDBRANCH  28  29
ENDBRANCH  22  28
BRANCH  23  31
ATOM     31  O   UNL     1       2.520  28.524  57.441  1.00  0.00    -0.387 OA
ATOM     32  H   UNL     1       3.000  29.329  57.111  1.00  0.00     0.211 HD
ENDBRANCH  23  31
ENDBRANCH   1  18
TORSDOF 11
ENDMDL
MODEL 4
REMARK VINA RESULT:    -4.916      1.845      6.732
REMARK INTER + INTRA:          -8.717
REMARK INTER:                  -7.649
REMARK INTRA:                  -1.068
REMARK UNBOUND:                -1.357
REMARK SMILES COC(=O)C1=CO[C@H](O[C@@H]2O[C@H](CO)[C@H](O)[C@H](O)[C@H]2O)[C@H]2C(CO)=CC[C@@H]12
REMARK SMILES IDX 9 1 8 2 5 3 6 4 27 5 7 6 21 7 26 8 22 9 25 10 3 11 4 12 2 13
REMARK SMILES IDX 1 14 23 15 24 16 10 18 19 19 11 20 17 21 12 22 15 23 20 24
REMARK SMILES IDX 18 26 13 28 14 29 16 31
REMARK H PARENT 24 17 20 25 18 27 14 30 16 32
REMARK Flexibility Score: inf
ROOT
ATOM      1  O   UNL     1       6.128  27.298  61.665  1.00  0.00    -0.310 OA
ENDROOT
BRANCH   1   2
ATOM      2  C   UNL     1       6.363  25.903  61.518  1.00  0.00     0.316 C 
ATOM      3  C   UNL     1       9.035  26.325  60.610  1.00  0.00     0.076 C 
ATOM      4  C   UNL     1       8.040  26.092  59.740  1.00  0.00     0.202 C 
ATOM      5  C   UNL     1       8.893  25.931  62.076  1.00  0.00     0.047 C 
ATOM      6  O   UNL     1       6.793  25.658  60.185  1.00  0.00    -0.471 OA
ATOM      7  C   UNL     1       7.469  25.472  62.504  1.00  0.00     0.094 C 
ATOM      8  C   UNL     1       9.797  24.719  62.385  1.00  0.00     0.037 C 
ATOM      9  C   UNL     1       7.594  23.985  62.634  1.00  0.00    -0.039 C 
ATOM     10  C   UNL     1       8.856  23.587  62.572  1.00  0.00    -0.024 C 
BRANCH   3  11
ATOM     11  C   UNL     1      10.317  26.905  60.142  1.00  0.00     0.337 C 
ATOM     12  O   UNL     1      10.827  27.897  60.735  1.00  0.00    -0.246 OA
BRANCH  11  13
ATOM     13  O   UNL     1      10.967  26.340  59.039  1.00  0.00    -0.466 OA
ATOM     14  C   UNL     1      11.608  25.072  59.094  1.00  0.00     0.282 C 
ENDBRANCH  11  13
ENDBRANCH   3  11
BRANCH   9  15
ATOM     15  C   UNL     1       6.470  23.056  63.002  1.00  0.00     0.187 C 
BRANCH  15  16
ATOM     16  O   UNL     1       6.892  21.731  62.844  1.00  0.00    -0.392 OA
ATOM     17  H   UNL     1       6.148  21.165  63.179  1.00  0.00     0.211 HD
ENDBRANCH  15  16
ENDBRANCH   9  15
ENDBRANCH   1   2
BRANCH   1  18
ATOM     18  C   UNL     1       5.049  27.774  60.873  1.00  0.00     0.286 C 
ATOM     19  C   UNL     1       4.272  28.905  61.603  1.00  0.00     0.202 C 
ATOM     20  O   UNL     1       5.495  28.204  59.595  1.00  0.00    -0.341 OA
ATOM     21  C   UNL     1       3.655  29.909  60.598  1.00  0.00     0.179 C 
ATOM     22  C   UNL     1       4.402  28.350  58.697  1.00  0.00     0.178 C 
ATOM     23  C   UNL     1       3.224  29.188  59.305  1.00  0.00     0.177 C 
BRANCH  19  24
ATOM     24  O   UNL     1       3.286  28.361  62.448  1.00  0.00    -0.385 OA
ATOM     25  H   UNL     1       2.947  29.089  63.030  1.00  0.00     0.211 HD
ENDBRANCH  19  24
BRANCH  21  26
ATOM     26  O   UNL     1       4.590  30.909  60.280  1.00  0.00    -0.387 OA
ATOM     27  H   UNL     1       4.532  31.597  60.994  1.00  0.00     0.211 HD
ENDBRANCH  21  26
BRANCH  22  28
ATOM     28  C   UNL     1       4.943  28.915  57.371  1.00  0.00     0.191 C 
BRANCH  28  29
ATOM     29  O   UNL     1       5.815  29.991  57.595  1.00  0.00    -0.394 OA
ATOM     30  H   UNL     1       5.971  30.420  56.714  1.00  0.00     0.210 HD
ENDBRANCH  28  29
ENDBRANCH  22  28
BRANCH  23  31
ATOM     31  O   UNL     1       2.708  30.115  58.381  1.00  0.00    -0.387 OA
ATOM     32  H   UNL     1       2.463  29.605  57.565  1.00  0.00     0.211 HD
ENDBRANCH  23  31
ENDBRANCH   1  18
TORSDOF 11
ENDMDL
MODEL 5
REMARK VINA RESULT:    -4.748      2.384      5.647
REMARK INTER + INTRA:          -8.464
REMARK INTER:                  -6.921
REMARK INTRA:                  -1.544
REMARK UNBOUND:                -1.357
REMARK SMILES COC(=O)C1=CO[C@H](O[C@@H]2O[C@H](CO)[C@H](O)[C@H](O)[C@H]2O)[C@H]2C(CO)=CC[C@@H]12
REMARK SMILES IDX 9 1 8 2 5 3 6 4 27 5 7 6 21 7 26 8 22 9 25 10 3 11 4 12 2 13
REMARK SMILES IDX 1 14 23 15 24 16 10 18 19 19 11 20 17 21 12 22 15 23 20 24
REMARK SMILES IDX 18 26 13 28 14 29 16 31
REMARK H PARENT 24 17 20 25 18 27 14 30 16 32
REMARK Flexibility Score: inf
ROOT
ATOM      1  O   UNL     1       4.308  26.874  61.615  1.00  0.00    -0.310 OA
ENDROOT
BRANCH   1   2
ATOM      2  C   UNL     1       4.482  27.751  62.721  1.00  0.00     0.316 C 
ATOM      3  C   UNL     1       6.703  26.258  63.712  1.00  0.00     0.076 C 
ATOM      4  C   UNL     1       5.476  26.096  64.231  1.00  0.00     0.202 C 
ATOM      5  C   UNL     1       7.054  27.519  62.929  1.00  0.00     0.047 C 
ATOM      6  O   UNL     1       4.447  26.980  63.915  1.00  0.00    -0.471 OA
ATOM      7  C   UNL     1       5.852  28.450  62.599  1.00  0.00     0.094 C 
ATOM      8  C   UNL     1       8.010  28.403  63.758  1.00  0.00     0.037 C 
ATOM      9  C   UNL     1       6.013  29.597  63.549  1.00  0.00    -0.039 C 
ATOM     10  C   UNL     1       7.184  29.566  64.169  1.00  0.00    -0.024 C 
BRANCH   3  11
ATOM     11  C   UNL     1       7.758  25.245  63.953  1.00  0.00     0.337 C 
ATOM     12  O   UNL     1       8.309  25.149  65.085  1.00  0.00    -0.246 OA
BRANCH  11  13
ATOM     13  O   UNL     1       8.137  24.386  62.915  1.00  0.00    -0.466 OA
ATOM     14  C   UNL     1       7.308  23.325  62.457  1.00  0.00     0.282 C 
ENDBRANCH  11  13
ENDBRANCH   3  11
BRANCH   9  15
ATOM     15  C   UNL     1       5.074  30.768  63.653  1.00  0.00     0.187 C 
BRANCH  15  16
ATOM     16  O   UNL     1       5.028  31.436  62.424  1.00  0.00    -0.392 OA
ATOM     17  H   UNL     1       5.256  32.383  62.619  1.00  0.00     0.211 HD
ENDBRANCH  15  16
ENDBRANCH   9  15
ENDBRANCH   1   2
BRANCH   1  18
ATOM     18  C   UNL     1       3.788  27.520  60.461  1.00  0.00     0.286 C 
ATOM     19  C   UNL     1       2.947  28.769  60.849  1.00  0.00     0.202 C 
ATOM     20  O   UNL     1       4.821  27.864  59.549  1.00  0.00    -0.341 OA
ATOM     21  C   UNL     1       3.008  29.857  59.748  1.00  0.00     0.179 C 
ATOM     22  C   UNL     1       4.285  28.187  58.272  1.00  0.00     0.178 C 
ATOM     23  C   UNL     1       3.102  29.213  58.351  1.00  0.00     0.177 C 
BRANCH  19  24
ATOM     24  O   UNL     1       1.617  28.402  61.126  1.00  0.00    -0.385 OA
ATOM     25  H   UNL     1       1.025  29.129  60.803  1.00  0.00     0.211 HD
ENDBRANCH  19  24
BRANCH  21  26
ATOM     26  O   UNL     1       4.126  30.685  59.952  1.00  0.00    -0.387 OA
ATOM     27  H   UNL     1       4.224  30.801  60.933  1.00  0.00     0.211 HD
ENDBRANCH  21  26
BRANCH  22  28
ATOM     28  C   UNL     1       5.444  28.647  57.369  1.00  0.00     0.191 C 
BRANCH  28  29
ATOM     29  O   UNL     1       5.930  29.901  57.766  1.00  0.00    -0.394 OA
ATOM     30  H   UNL     1       5.259  30.284  58.388  1.00  0.00     0.210 HD
ENDBRANCH  28  29
ENDBRANCH  22  28
BRANCH  23  31
ATOM     31  O   UNL     1       3.204  30.209  57.363  1.00  0.00    -0.387 OA
ATOM     32  H   UNL     1       4.141  30.539  57.380  1.00  0.00     0.211 HD
ENDBRANCH  23  31
ENDBRANCH   1  18
TORSDOF 11
ENDMDL
MODEL 6
REMARK VINA RESULT:    -4.697      2.193      6.000
REMARK INTER + INTRA:          -8.388
REMARK INTER:                  -7.007
REMARK INTRA:                  -1.381
REMARK UNBOUND:                -1.357
REMARK SMILES COC(=O)C1=CO[C@H](O[C@@H]2O[C@H](CO)[C@H](O)[C@H](O)[C@H]2O)[C@H]2C(CO)=CC[C@@H]12
REMARK SMILES IDX 9 1 8 2 5 3 6 4 27 5 7 6 21 7 26 8 22 9 25 10 3 11 4 12 2 13
REMARK SMILES IDX 1 14 23 15 24 16 10 18 19 19 11 20 17 21 12 22 15 23 20 24
REMARK SMILES IDX 18 26 13 28 14 29 16 31
REMARK H PARENT 24 17 20 25 18 27 14 30 16 32
REMARK Flexibility Score: inf
ROOT
ATOM      1  O   UNL     1       5.938  26.761  61.685  1.00  0.00    -0.310 OA
ENDROOT
BRANCH   1   2
ATOM      2  C   UNL     1       7.307  27.068  61.451  1.00  0.00     0.316 C 
ATOM      3  C   UNL     1       8.159  25.556  63.717  1.00  0.00     0.076 C 
ATOM      4  C   UNL     1       8.032  26.890  63.786  1.00  0.00     0.202 C 
ATOM      5  C   UNL     1       8.304  24.859  62.368  1.00  0.00     0.047 C 
ATOM      6  O   UNL     1       7.845  27.649  62.632  1.00  0.00    -0.471 OA
ATOM      7  C   UNL     1       8.066  25.765  61.125  1.00  0.00     0.094 C 
ATOM      8  C   UNL     1       9.748  24.342  62.197  1.00  0.00     0.037 C 
ATOM      9  C   UNL     1       9.443  26.006  60.586  1.00  0.00    -0.039 C 
ATOM     10  C   UNL     1      10.346  25.230  61.168  1.00  0.00    -0.024 C 
BRANCH   3  11
ATOM     11  C   UNL     1       8.231  24.745  64.956  1.00  0.00     0.337 C 
ATOM     12  O   UNL     1       7.420  23.797  65.151  1.00  0.00    -0.246 OA
BRANCH  11  13
ATOM     13  O   UNL     1       9.214  25.033  65.910  1.00  0.00    -0.466 OA
ATOM     14  C   UNL     1      10.520  24.472  65.860  1.00  0.00     0.282 C 
ENDBRANCH  11  13
ENDBRANCH   3  11
BRANCH   9  15
ATOM     15  C   UNL     1       9.762  26.860  59.390  1.00  0.00     0.187 C 
BRANCH  15  16
ATOM     16  O   UNL     1      10.732  27.805  59.739  1.00  0.00    -0.392 OA
ATOM     17  H   UNL     1      10.558  28.600  59.170  1.00  0.00     0.211 HD
ENDBRANCH  15  16
ENDBRANCH   9  15
ENDBRANCH   1   2
BRANCH   1  18
ATOM     18  C   UNL     1       5.125  26.896  60.527  1.00  0.00     0.286 C 
ATOM     19  C   UNL     1       3.616  26.908  60.900  1.00  0.00     0.202 C 
ATOM     20  O   UNL     1       5.475  28.052  59.780  1.00  0.00    -0.341 OA
ATOM     21  C   UNL     1       2.792  27.758  59.901  1.00  0.00     0.179 C 
ATOM     22  C   UNL     1       4.915  28.002  58.474  1.00  0.00     0.178 C 
ATOM     23  C   UNL     1       3.385  27.655  58.481  1.00  0.00     0.177 C 
BRANCH  19  24
ATOM     24  O   UNL     1       3.117  25.594  60.980  1.00  0.00    -0.385 OA
ATOM     25  H   UNL     1       3.553  25.148  61.751  1.00  0.00     0.211 HD
ENDBRANCH  19  24
BRANCH  21  26
ATOM     26  O   UNL     1       2.787  29.105  60.304  1.00  0.00    -0.387 OA
ATOM     27  H   UNL     1       2.193  29.593  59.676  1.00  0.00     0.211 HD
ENDBRANCH  21  26
BRANCH  22  28
ATOM     28  C   UNL     1       5.245  29.325  57.760  1.00  0.00     0.191 C 
BRANCH  28  29
ATOM     29  O   UNL     1       4.724  30.424  58.458  1.00  0.00    -0.394 OA
ATOM     30  H   UNL     1       5.459  31.085  58.541  1.00  0.00     0.210 HD
ENDBRANCH  28  29
ENDBRANCH  22  28
BRANCH  23  31
ATOM     31  O   UNL     1       2.659  28.468  57.591  1.00  0.00    -0.387 OA
ATOM     32  H   UNL     1       2.514  29.339  58.046  1.00  0.00     0.211 HD
ENDBRANCH  23  31
ENDBRANCH   1  18
TORSDOF 11
ENDMDL
MODEL 7
REMARK VINA RESULT:    -4.680      1.834      6.272
REMARK INTER + INTRA:          -8.363
REMARK INTER:                  -6.712
REMARK INTRA:                  -1.651
REMARK UNBOUND:                -1.357
REMARK SMILES COC(=O)C1=CO[C@H](O[C@@H]2O[C@H](CO)[C@H](O)[C@H](O)[C@H]2O)[C@H]2C(CO)=CC[C@@H]12
REMARK SMILES IDX 9 1 8 2 5 3 6 4 27 5 7 6 21 7 26 8 22 9 25 10 3 11 4 12 2 13
REMARK SMILES IDX 1 14 23 15 24 16 10 18 19 19 11 20 17 21 12 22 15 23 20 24
REMARK SMILES IDX 18 26 13 28 14 29 16 31
REMARK H PARENT 24 17 20 25 18 27 14 30 16 32
REMARK Flexibility Score: inf
ROOT
ATOM      1  O   UNL     1       6.570  25.562  60.406  1.00  0.00    -0.310 OA
ENDROOT
BRANCH   1   2
ATOM      2  C   UNL     1       6.781  25.956  61.756  1.00  0.00     0.316 C 
ATOM      3  C   UNL     1       9.543  25.245  61.660  1.00  0.00     0.076 C 
ATOM      4  C   UNL     1       8.637  24.419  62.205  1.00  0.00     0.202 C 
ATOM      5  C   UNL     1       9.240  26.731  61.496  1.00  0.00     0.047 C 
ATOM      6  O   UNL     1       7.340  24.856  62.463  1.00  0.00    -0.471 OA
ATOM      7  C   UNL     1       7.767  27.142  61.786  1.00  0.00     0.094 C 
ATOM      8  C   UNL     1      10.074  27.551  62.502  1.00  0.00     0.037 C 
ATOM      9  C   UNL     1       7.837  27.815  63.122  1.00  0.00    -0.039 C 
ATOM     10  C   UNL     1       9.088  28.036  63.501  1.00  0.00    -0.024 C 
BRANCH   3  11
ATOM     11  C   UNL     1      10.882  24.738  61.274  1.00  0.00     0.337 C 
ATOM     12  O   UNL     1      11.399  23.761  61.883  1.00  0.00    -0.246 OA
BRANCH  11  13
ATOM     13  O   UNL     1      11.570  25.348  60.219  1.00  0.00    -0.466 OA
ATOM     14  C   UNL     1      11.507  24.867  58.882  1.00  0.00     0.282 C 
ENDBRANCH  11  13
ENDBRANCH   3  11
BRANCH   9  15
ATOM     15  C   UNL     1       6.656  28.373  63.869  1.00  0.00     0.187 C 
BRANCH  15  16
ATOM     16  O   UNL     1       5.965  29.266  63.043  1.00  0.00    -0.392 OA
ATOM     17  H   UNL     1       5.142  29.516  63.538  1.00  0.00     0.211 HD
ENDBRANCH  15  16
ENDBRANCH   9  15
ENDBRANCH   1   2
BRANCH   1  18
ATOM     18  C   UNL     1       5.436  26.176  59.811  1.00  0.00     0.286 C 
ATOM     19  C   UNL     1       4.377  26.557  60.884  1.00  0.00     0.202 C 
ATOM     20  O   UNL     1       5.805  27.307  59.035  1.00  0.00    -0.341 OA
ATOM     21  C   UNL     1       3.565  27.807  60.460  1.00  0.00     0.179 C 
ATOM     22  C   UNL     1       4.742  27.706  58.179  1.00  0.00     0.178 C 
ATOM     23  C   UNL     1       3.372  27.837  58.931  1.00  0.00     0.177 C 
BRANCH  19  24
ATOM     24  O   UNL     1       3.528  25.466  61.149  1.00  0.00    -0.385 OA
ATOM     25  H   UNL     1       3.106  25.192  60.294  1.00  0.00     0.211 HD
ENDBRANCH  19  24
BRANCH  21  26
ATOM     26  O   UNL     1       4.233  28.975  60.866  1.00  0.00    -0.387 OA
ATOM     27  H   UNL     1       4.307  29.558  60.067  1.00  0.00     0.211 HD
ENDBRANCH  21  26
BRANCH  22  28
ATOM     28  C   UNL     1       5.172  28.991  57.449  1.00  0.00     0.191 C 
BRANCH  28  29
ATOM     29  O   UNL     1       5.426  30.031  58.355  1.00  0.00    -0.394 OA
ATOM     30  H   UNL     1       4.825  30.780  58.105  1.00  0.00     0.210 HD
ENDBRANCH  28  29
ENDBRANCH  22  28
BRANCH  23  31
ATOM     31  O   UNL     1       2.676  28.999  58.552  1.00  0.00    -0.387 OA
ATOM     32  H   UNL     1       3.015  29.262  57.657  1.00  0.00     0.211 HD
ENDBRANCH  23  31
ENDBRANCH   1  18
TORSDOF 11
ENDMDL
MODEL 8
REMARK VINA RESULT:    -4.670      3.219      6.878
REMARK INTER + INTRA:          -8.348
REMARK INTER:                  -7.038
REMARK INTRA:                  -1.310
REMARK UNBOUND:                -1.357
REMARK SMILES COC(=O)C1=CO[C@H](O[C@@H]2O[C@H](CO)[C@H](O)[C@H](O)[C@H]2O)[C@H]2C(CO)=CC[C@@H]12
REMARK SMILES IDX 9 1 8 2 5 3 6 4 27 5 7 6 21 7 26 8 22 9 25 10 3 11 4 12 2 13
REMARK SMILES IDX 1 14 23 15 24 16 10 18 19 19 11 20 17 21 12 22 15 23 20 24
REMARK SMILES IDX 18 26 13 28 14 29 16 31
REMARK H PARENT 24 17 20 25 18 27 14 30 16 32
REMARK Flexibility Score: inf
ROOT
ATOM      1  O   UNL     1       2.105  26.738  60.681  1.00  0.00    -0.310 OA
ENDROOT
BRANCH   1   2
ATOM      2  C   UNL     1       3.146  27.235  61.513  1.00  0.00     0.316 C 
ATOM      3  C   UNL     1       4.344  28.677  59.361  1.00  0.00     0.076 C 
ATOM      4  C   UNL     1       4.821  27.482  59.741  1.00  0.00     0.202 C 
ATOM      5  C   UNL     1       3.480  29.504  60.308  1.00  0.00     0.047 C 
ATOM      6  O   UNL     1       4.394  26.888  60.926  1.00  0.00    -0.471 OA
ATOM      7  C   UNL     1       3.028  28.770  61.604  1.00  0.00     0.094 C 
ATOM      8  C   UNL     1       4.277  30.725  60.815  1.00  0.00     0.037 C 
ATOM      9  C   UNL     1       3.892  29.364  62.674  1.00  0.00    -0.039 C 
ATOM     10  C   UNL     1       4.561  30.422  62.241  1.00  0.00    -0.024 C 
BRANCH   3  11
ATOM     11  C   UNL     1       4.707  29.244  58.040  1.00  0.00     0.337 C 
ATOM     12  O   UNL     1       5.914  29.288  57.671  1.00  0.00    -0.246 OA
BRANCH  11  13
ATOM     13  O   UNL     1       3.699  29.726  57.198  1.00  0.00    -0.466 OA
ATOM     14  C   UNL     1       2.533  28.973  56.888  1.00  0.00     0.282 C 
ENDBRANCH  11  13
ENDBRANCH   3  11
BRANCH   9  15
ATOM     15  C   UNL     1       3.864  28.964  64.124  1.00  0.00     0.187 C 
BRANCH  15  16
ATOM     16  O   UNL     1       2.631  29.320  64.681  1.00  0.00    -0.392 OA
ATOM     17  H   UNL     1       2.637  28.967  65.608  1.00  0.00     0.211 HD
ENDBRANCH  15  16
ENDBRANCH   9  15
ENDBRANCH   1   2
BRANCH   1  18
ATOM     18  C   UNL     1       1.202  25.879  61.362  1.00  0.00     0.286 C 
ATOM     19  C   UNL     1       0.000  25.494  60.453  1.00  0.00     0.202 C 
ATOM     20  O   UNL     1       1.860  24.721  61.856  1.00  0.00    -0.341 OA
ATOM     21  C   UNL     1      -0.547  24.087  60.803  1.00  0.00     0.179 C 
ATOM     22  C   UNL     1       1.053  24.046  62.813  1.00  0.00     0.178 C 
ATOM     23  C   UNL     1      -0.416  23.813  62.314  1.00  0.00     0.177 C 
BRANCH  19  24
ATOM     24  O   UNL     1      -1.013  26.467  60.536  1.00  0.00    -0.385 OA
ATOM     25  H   UNL     1      -1.829  26.097  60.111  1.00  0.00     0.211 HD
ENDBRANCH  19  24
BRANCH  21  26
ATOM     26  O   UNL     1       0.163  23.104  60.090  1.00  0.00    -0.387 OA
ATOM     27  H   UNL     1      -0.126  22.224  60.447  1.00  0.00     0.211 HD
ENDBRANCH  21  26
BRANCH  22  28
ATOM     28  C   UNL     1       1.779  22.753  63.225  1.00  0.00     0.191 C 
BRANCH  28  29
ATOM     29  O   UNL     1       1.860  21.852  62.154  1.00  0.00    -0.394 OA
ATOM     30  H   UNL     1       2.709  21.350  62.267  1.00  0.00     0.210 HD
ENDBRANCH  28  29
ENDBRANCH  22  28
BRANCH  23  31
ATOM     31  O   UNL     1      -0.871  22.516  62.614  1.00  0.00    -0.387 OA
ATOM     32  H   UNL     1      -0.806  22.405  63.598  1.00  0.00     0.211 HD
ENDBRANCH  23  31
ENDBRANCH   1  18
TORSDOF 11
ENDMDL
MODEL 9
REMARK VINA RESULT:    -4.556      2.816      6.396
REMARK INTER + INTRA:          -8.178
REMARK INTER:                  -6.807
REMARK INTRA:                  -1.371
REMARK UNBOUND:                -1.357
REMARK SMILES COC(=O)C1=CO[C@H](O[C@@H]2O[C@H](CO)[C@H](O)[C@H](O)[C@H]2O)[C@H]2C(CO)=CC[C@@H]12
REMARK SMILES IDX 9 1 8 2 5 3 6 4 27 5 7 6 21 7 26 8 22 9 25 10 3 11 4 12 2 13
REMARK SMILES IDX 1 14 23 15 24 16 10 18 19 19 11 20 17 21 12 22 15 23 20 24
REMARK SMILES IDX 18 26 13 28 14 29 16 31
REMARK H PARENT 24 17 20 25 18 27 14 30 16 32
REMARK Flexibility Score: inf
ROOT
ATOM      1  O   UNL     1       2.608  26.092  60.739  1.00  0.00    -0.310 OA
ENDROOT
BRANCH   1   2
ATOM      2  C   UNL     1       2.967  27.377  60.247  1.00  0.00     0.316 C 
ATOM      3  C   UNL     1       5.663  27.102  61.142  1.00  0.00     0.076 C 
ATOM      4  C   UNL     1       4.766  27.797  61.858  1.00  0.00     0.202 C 
ATOM      5  C   UNL     1       5.431  26.832  59.658  1.00  0.00     0.047 C 
ATOM      6  O   UNL     1       3.526  28.128  61.317  1.00  0.00    -0.471 OA
ATOM      7  C   UNL     1       4.018  27.213  59.129  1.00  0.00     0.094 C 
ATOM      8  C   UNL     1       6.401  27.682  58.812  1.00  0.00     0.037 C 
ATOM      9  C   UNL     1       4.252  28.472  58.352  1.00  0.00    -0.039 C 
ATOM     10  C   UNL     1       5.543  28.716  58.182  1.00  0.00    -0.024 C 
BRANCH   3  11
ATOM     11  C   UNL     1       6.928  26.646  61.766  1.00  0.00     0.337 C 
ATOM     12  O   UNL     1       7.599  27.424  62.500  1.00  0.00    -0.246 OA
BRANCH  11  13
ATOM     13  O   UNL     1       7.374  25.338  61.541  1.00  0.00    -0.466 OA
ATOM     14  C   UNL     1       7.858  24.502  62.585  1.00  0.00     0.282 C 
ENDBRANCH  11  13
ENDBRANCH   3  11
BRANCH   9  15
ATOM     15  C   UNL     1       3.180  29.266  57.657  1.00  0.00     0.187 C 
BRANCH  15  16
ATOM     16  O   UNL     1       2.339  28.396  56.954  1.00  0.00    -0.392 OA
ATOM     17  H   UNL     1       1.650  28.098  57.603  1.00  0.00     0.211 HD
ENDBRANCH  15  16
ENDBRANCH   9  15
ENDBRANCH   1   2
BRANCH   1  18
ATOM     18  C   UNL     1       1.550  26.128  61.687  1.00  0.00     0.286 C 
ATOM     19  C   UNL     1       0.327  25.305  61.193  1.00  0.00     0.202 C 
ATOM     20  O   UNL     1       1.983  25.684  62.964  1.00  0.00    -0.341 OA
ATOM     21  C   UNL     1      -0.465  24.701  62.380  1.00  0.00     0.179 C 
ATOM     22  C   UNL     1       1.044  26.039  63.972  1.00  0.00     0.178 C 
ATOM     23  C   UNL     1      -0.428  25.647  63.596  1.00  0.00     0.177 C 
BRANCH  19  24
ATOM     24  O   UNL     1      -0.504  26.095  60.378  1.00  0.00    -0.385 OA
ATOM     25  H   UNL     1      -0.059  26.971  60.245  1.00  0.00     0.211 HD
ENDBRANCH  19  24
BRANCH  21  26
ATOM     26  O   UNL     1       0.083  23.459  62.743  1.00  0.00    -0.387 OA
ATOM     27  H   UNL     1       0.815  23.267  62.100  1.00  0.00     0.211 HD
ENDBRANCH  21  26
BRANCH  22  28
ATOM     28  C   UNL     1       1.522  25.439  65.306  1.00  0.00     0.191 C 
BRANCH  28  29
ATOM     29  O   UNL     1       1.595  24.040  65.238  1.00  0.00    -0.394 OA
ATOM     30  H   UNL     1       2.481  23.819  64.849  1.00  0.00     0.210 HD
ENDBRANCH  28  29
ENDBRANCH  22  28
BRANCH  23  31
ATOM     31  O   UNL     1      -1.110  25.069  64.683  1.00  0.00    -0.387 OA
ATOM     32  H   UNL     1      -0.945  24.091  64.641  1.00  0.00     0.211 HD
ENDBRANCH  23  31
ENDBRANCH   1  18
TORSDOF 11
ENDMDL
