MODEL 1
REMARK VINA RESULT:    -4.974      0.000      0.000
REMARK INTER + INTRA:         -16.662
REMARK INTER:                 -12.534
REMARK INTRA:                  -4.128
REMARK UNBOUND:                -4.128
REMARK SMILES CCCCCCCCCCCCCCCCCCCCCCCCCCCC(=O)[O-]
REMARK SMILES IDX 15 1 16 2 17 3 18 4 19 5 20 6 21 7 22 8 23 9 24 10 25 11
REMARK SMILES IDX 26 12 27 13 28 14 29 15 30 16 14 17 13 18 12 19 11 20 10 21
REMARK SMILES IDX 9 22 8 23 7 24 6 25 5 26 4 27 3 28 2 29 1 30
REMARK H PARENT
REMARK Flexibility Score: inf
ROOT
ATOM      1  C   UNL     1      12.738 -25.716 -14.128  1.00  0.00     0.000 C 
ENDROOT
BRANCH   1   2
ATOM      2  C   UNL     1      11.371 -25.010 -14.192  1.00  0.00     0.000 C 
BRANCH   2   3
ATOM      3  C   UNL     1      11.427 -23.546 -13.718  1.00  0.00     0.000 C 
BRANCH   3   4
ATOM      4  C   UNL     1      11.359 -22.540 -14.881  1.00  0.00     0.000 C 
BRANCH   4   5
ATOM      5  C   UNL     1      12.511 -21.520 -14.930  1.00  0.00     0.000 C 
BRANCH   5   6
ATOM      6  C   UNL     1      12.406 -20.554 -16.119  1.00  0.00     0.000 C 
BRANCH   6   7
ATOM      7  C   UNL     1      12.096 -19.130 -15.641  1.00  0.00     0.000 C 
BRANCH   7   8
ATOM      8  C   UNL     1      10.963 -19.129 -14.604  1.00  0.00     0.000 C 
BRANCH   8   9
ATOM      9  C   UNL     1      11.310 -18.315 -13.348  1.00  0.00     0.000 C 
BRANCH   9  10
ATOM     10  C   UNL     1      11.973 -19.166 -12.255  1.00  0.00     0.000 C 
BRANCH  10  11
ATOM     11  C   UNL     1      13.337 -18.587 -11.859  1.00  0.00     0.000 C 
BRANCH  11  12
ATOM     12  C   UNL     1      14.383 -18.846 -12.953  1.00  0.00     0.006 C 
BRANCH  12  13
ATOM     13  C   UNL     1      15.205 -17.593 -13.282  1.00  0.00     0.053 C 
BRANCH  13  14
ATOM     14  C   UNL     1      14.561 -16.769 -14.352  1.00  0.00     0.041 C 
ATOM     15  O   UNL     1      15.019 -16.783 -15.525  1.00  0.00    -0.550 OA
ATOM     16  O   UNL     1      13.469 -15.965 -14.051  1.00  0.00    -0.550 OA
ENDBRANCH  13  14
ENDBRANCH  12  13
ENDBRANCH  11  12
ENDBRANCH  10  11
ENDBRANCH   9  10
ENDBRANCH   8   9
ENDBRANCH   7   8
ENDBRANCH   6   7
ENDBRANCH   5   6
ENDBRANCH   4   5
ENDBRANCH   3   4
ENDBRANCH   2   3
ENDBRANCH   1   2
BRANCH   1  17
ATOM     17  C   UNL     1      13.954 -24.795 -13.889  1.00  0.00     0.000 C 
BRANCH  17  18
ATOM     18  C   UNL     1      14.798 -25.125 -12.644  1.00  0.00     0.000 C 
BRANCH  18  19
ATOM     19  C   UNL     1      15.521 -23.897 -12.069  1.00  0.00     0.000 C 
BRANCH  19  20
ATOM     20  C   UNL     1      15.292 -22.625 -12.915  1.00  0.00     0.000 C 
BRANCH  20  21
ATOM     21  C   UNL     1      16.561 -22.102 -13.614  1.00  0.00     0.000 C 
BRANCH  21  22
ATOM     22  C   UNL     1      17.651 -23.159 -13.868  1.00  0.00    -0.000 C 
BRANCH  22  23
ATOM     23  C   UNL     1      17.689 -23.728 -15.302  1.00  0.00    -0.000 C 
BRANCH  23  24
ATOM     24  C   UNL     1      17.814 -25.262 -15.396  1.00  0.00    -0.000 C 
BRANCH  24  25
ATOM     25  C   UNL     1      16.601 -25.978 -16.015  1.00  0.00    -0.000 C 
BRANCH  25  26
ATOM     26  C   UNL     1      16.424 -27.414 -15.491  1.00  0.00    -0.000 C 
BRANCH  26  27
ATOM     27  C   UNL     1      17.098 -27.632 -14.127  1.00  0.00    -0.000 C 
BRANCH  27  28
ATOM     28  C   UNL     1      16.254 -28.510 -13.187  1.00  0.00    -0.000 C 
BRANCH  28  29
ATOM     29  C   UNL     1      15.514 -29.630 -13.936  1.00  0.00    -0.003 C 
ATOM     30  C   UNL     1      14.842 -30.628 -12.991  1.00  0.00     0.004 C 
ENDBRANCH  28  29
ENDBRANCH  27  28
ENDBRANCH  26  27
ENDBRANCH  25  26
ENDBRANCH  24  25
ENDBRANCH  23  24
ENDBRANCH  22  23
ENDBRANCH  21  22
ENDBRANCH  20  21
ENDBRANCH  19  20
ENDBRANCH  18  19
ENDBRANCH  17  18
ENDBRANCH   1  17
TORSDOF 26
ENDMDL
MODEL 2
REMARK VINA RESULT:    -4.967      4.322      6.842
REMARK INTER + INTRA:         -16.645
REMARK INTER:                 -13.302
REMARK INTRA:                  -3.343
REMARK UNBOUND:                -4.128
REMARK SMILES CCCCCCCCCCCCCCCCCCCCCCCCCCCC(=O)[O-]
REMARK SMILES IDX 15 1 16 2 17 3 18 4 19 5 20 6 21 7 22 8 23 9 24 10 25 11
REMARK SMILES IDX 26 12 27 13 28 14 29 15 30 16 14 17 13 18 12 19 11 20 10 21
REMARK SMILES IDX 9 22 8 23 7 24 6 25 5 26 4 27 3 28 2 29 1 30
REMARK H PARENT
REMARK Flexibility Score: inf
ROOT
ATOM      1  C   UNL     1      14.174 -18.170 -15.301  1.00  0.00     0.000 C 
ENDROOT
BRANCH   1   2
ATOM      2  C   UNL     1      13.273 -18.698 -16.433  1.00  0.00     0.000 C 
BRANCH   2   3
ATOM      3  C   UNL     1      11.938 -19.271 -15.923  1.00  0.00     0.000 C 
BRANCH   3   4
ATOM      4  C   UNL     1      11.979 -19.635 -14.427  1.00  0.00     0.000 C 
BRANCH   4   5
ATOM      5  C   UNL     1      11.038 -18.811 -13.529  1.00  0.00     0.000 C 
BRANCH   5   6
ATOM      6  C   UNL     1      11.127 -19.206 -12.048  1.00  0.00     0.000 C 
BRANCH   6   7
ATOM      7  C   UNL     1      10.658 -18.056 -11.147  1.00  0.00     0.000 C 
BRANCH   7   8
ATOM      8  C   UNL     1      11.049 -18.307  -9.682  1.00  0.00     0.000 C 
BRANCH   8   9
ATOM      9  C   UNL     1      11.491 -17.025  -8.960  1.00  0.00     0.000 C 
BRANCH   9  10
ATOM     10  C   UNL     1      11.263 -17.091  -7.442  1.00  0.00     0.000 C 
BRANCH  10  11
ATOM     11  C   UNL     1      10.707 -18.460  -7.029  1.00  0.00     0.000 C 
BRANCH  11  12
ATOM     12  C   UNL     1      10.755 -18.635  -5.504  1.00  0.00     0.006 C 
BRANCH  12  13
ATOM     13  C   UNL     1       9.370 -18.917  -4.907  1.00  0.00     0.053 C 
BRANCH  13  14
ATOM     14  C   UNL     1       8.825 -17.728  -4.179  1.00  0.00     0.041 C 
ATOM     15  O   UNL     1       9.193 -16.566  -4.498  1.00  0.00    -0.550 OA
ATOM     16  O   UNL     1       7.929 -17.901  -3.132  1.00  0.00    -0.550 OA
ENDBRANCH  13  14
ENDBRANCH  12  13
ENDBRANCH  11  12
ENDBRANCH  10  11
ENDBRANCH   9  10
ENDBRANCH   8   9
ENDBRANCH   7   8
ENDBRANCH   6   7
ENDBRANCH   5   6
ENDBRANCH   4   5
ENDBRANCH   3   4
ENDBRANCH   2   3
ENDBRANCH   1   2
BRANCH   1  17
ATOM     17  C   UNL     1      13.957 -16.692 -14.911  1.00  0.00     0.000 C 
BRANCH  17  18
ATOM     18  C   UNL     1      13.728 -16.433 -13.410  1.00  0.00     0.000 C 
BRANCH  18  19
ATOM     19  C   UNL     1      14.888 -16.931 -12.533  1.00  0.00     0.000 C 
BRANCH  19  20
ATOM     20  C   UNL     1      14.417 -17.889 -11.417  1.00  0.00     0.000 C 
BRANCH  20  21
ATOM     21  C   UNL     1      14.752 -19.369 -11.680  1.00  0.00     0.000 C 
BRANCH  21  22
ATOM     22  C   UNL     1      15.980 -19.612 -12.578  1.00  0.00    -0.000 C 
BRANCH  22  23
ATOM     23  C   UNL     1      15.837 -20.778 -13.578  1.00  0.00    -0.000 C 
BRANCH  23  24
ATOM     24  C   UNL     1      15.013 -21.979 -13.073  1.00  0.00    -0.000 C 
BRANCH  24  25
ATOM     25  C   UNL     1      14.036 -22.578 -14.100  1.00  0.00    -0.000 C 
BRANCH  25  26
ATOM     26  C   UNL     1      12.570 -22.523 -13.635  1.00  0.00    -0.000 C 
BRANCH  26  27
ATOM     27  C   UNL     1      11.644 -23.396 -14.496  1.00  0.00    -0.000 C 
BRANCH  27  28
ATOM     28  C   UNL     1      11.449 -24.804 -13.910  1.00  0.00    -0.000 C 
BRANCH  28  29
ATOM     29  C   UNL     1      12.691 -25.692 -14.087  1.00  0.00    -0.003 C 
ATOM     30  C   UNL     1      12.344 -27.105 -14.558  1.00  0.00     0.004 C 
ENDBRANCH  28  29
ENDBRANCH  27  28
ENDBRANCH  26  27
ENDBRANCH  25  26
ENDBRANCH  24  25
ENDBRANCH  23  24
ENDBRANCH  22  23
ENDBRANCH  21  22
ENDBRANCH  20  21
ENDBRANCH  19  20
ENDBRANCH  18  19
ENDBRANCH  17  18
ENDBRANCH   1  17
TORSDOF 26
ENDMDL
MODEL 3
REMARK VINA RESULT:    -4.954      4.608      7.471
REMARK INTER + INTRA:         -16.612
REMARK INTER:                 -12.596
REMARK INTRA:                  -4.016
REMARK UNBOUND:                -4.128
REMARK SMILES CCCCCCCCCCCCCCCCCCCCCCCCCCCC(=O)[O-]
REMARK SMILES IDX 15 1 16 2 17 3 18 4 19 5 20 6 21 7 22 8 23 9 24 10 25 11
REMARK SMILES IDX 26 12 27 13 28 14 29 15 30 16 14 17 13 18 12 19 11 20 10 21
REMARK SMILES IDX 9 22 8 23 7 24 6 25 5 26 4 27 3 28 2 29 1 30
REMARK H PARENT
REMARK Flexibility Score: inf
ROOT
ATOM      1  C   UNL     1      11.953 -19.413 -15.581  1.00  0.00     0.000 C 
ENDROOT
BRANCH   1   2
ATOM      2  C   UNL     1      11.025 -18.905 -14.462  1.00  0.00     0.000 C 
BRANCH   2   3
ATOM      3  C   UNL     1      11.374 -19.485 -13.080  1.00  0.00     0.000 C 
BRANCH   3   4
ATOM      4  C   UNL     1      11.050 -18.516 -11.928  1.00  0.00     0.000 C 
BRANCH   4   5
ATOM      5  C   UNL     1      10.548 -19.184 -10.635  1.00  0.00     0.000 C 
BRANCH   5   6
ATOM      6  C   UNL     1      11.359 -18.775  -9.396  1.00  0.00     0.000 C 
BRANCH   6   7
ATOM      7  C   UNL     1      11.308 -17.257  -9.186  1.00  0.00     0.000 C 
BRANCH   7   8
ATOM      8  C   UNL     1      10.980 -16.911  -7.726  1.00  0.00     0.000 C 
BRANCH   8   9
ATOM      9  C   UNL     1      12.143 -17.217  -6.769  1.00  0.00     0.000 C 
BRANCH   9  10
ATOM     10  C   UNL     1      11.776 -18.263  -5.705  1.00  0.00     0.000 C 
BRANCH  10  11
ATOM     11  C   UNL     1      10.329 -18.739  -5.879  1.00  0.00     0.000 C 
BRANCH  11  12
ATOM     12  C   UNL     1       9.725 -19.168  -4.533  1.00  0.00     0.006 C 
BRANCH  12  13
ATOM     13  C   UNL     1       8.551 -18.277  -4.110  1.00  0.00     0.053 C 
BRANCH  13  14
ATOM     14  C   UNL     1       8.776 -16.845  -4.482  1.00  0.00     0.041 C 
ATOM     15  O   UNL     1       9.525 -16.117  -3.778  1.00  0.00    -0.550 OA
ATOM     16  O   UNL     1       8.141 -16.305  -5.594  1.00  0.00    -0.550 OA
ENDBRANCH  13  14
ENDBRANCH  12  13
ENDBRANCH  11  12
ENDBRANCH  10  11
ENDBRANCH   9  10
ENDBRANCH   8   9
ENDBRANCH   7   8
ENDBRANCH   6   7
ENDBRANCH   5   6
ENDBRANCH   4   5
ENDBRANCH   3   4
ENDBRANCH   2   3
ENDBRANCH   1   2
BRANCH   1  17
ATOM     17  C   UNL     1      13.460 -19.160 -15.364  1.00  0.00     0.000 C 
BRANCH  17  18
ATOM     18  C   UNL     1      14.040 -17.946 -16.113  1.00  0.00     0.000 C 
BRANCH  18  19
ATOM     19  C   UNL     1      14.621 -16.882 -15.168  1.00  0.00     0.000 C 
BRANCH  19  20
ATOM     20  C   UNL     1      13.593 -16.390 -14.127  1.00  0.00     0.000 C 
BRANCH  20  21
ATOM     21  C   UNL     1      14.031 -16.601 -12.666  1.00  0.00     0.000 C 
BRANCH  21  22
ATOM     22  C   UNL     1      15.087 -17.701 -12.453  1.00  0.00    -0.000 C 
BRANCH  22  23
ATOM     23  C   UNL     1      14.701 -18.789 -11.430  1.00  0.00    -0.000 C 
BRANCH  23  24
ATOM     24  C   UNL     1      15.064 -20.231 -11.838  1.00  0.00    -0.000 C 
BRANCH  24  25
ATOM     25  C   UNL     1      15.973 -20.350 -13.074  1.00  0.00    -0.000 C 
BRANCH  25  26
ATOM     26  C   UNL     1      15.760 -21.663 -13.848  1.00  0.00    -0.000 C 
BRANCH  26  27
ATOM     27  C   UNL     1      14.287 -22.103 -13.869  1.00  0.00    -0.000 C 
BRANCH  27  28
ATOM     28  C   UNL     1      14.110 -23.586 -13.498  1.00  0.00    -0.000 C 
BRANCH  28  29
ATOM     29  C   UNL     1      12.730 -24.131 -13.898  1.00  0.00    -0.003 C 
ATOM     30  C   UNL     1      11.710 -23.021 -14.159  1.00  0.00     0.004 C 
ENDBRANCH  28  29
ENDBRANCH  27  28
ENDBRANCH  26  27
ENDBRANCH  25  26
ENDBRANCH  24  25
ENDBRANCH  23  24
ENDBRANCH  22  23
ENDBRANCH  21  22
ENDBRANCH  20  21
ENDBRANCH  19  20
ENDBRANCH  18  19
ENDBRANCH  17  18
ENDBRANCH   1  17
TORSDOF 26
ENDMDL
MODEL 4
REMARK VINA RESULT:    -4.937      4.367      9.445
REMARK INTER + INTRA:         -16.569
REMARK INTER:                 -13.005
REMARK INTRA:                  -3.564
REMARK UNBOUND:                -4.128
REMARK SMILES CCCCCCCCCCCCCCCCCCCCCCCCCCCC(=O)[O-]
REMARK SMILES IDX 15 1 16 2 17 3 18 4 19 5 20 6 21 7 22 8 23 9 24 10 25 11
REMARK SMILES IDX 26 12 27 13 28 14 29 15 30 16 14 17 13 18 12 19 11 20 10 21
REMARK SMILES IDX 9 22 8 23 7 24 6 25 5 26 4 27 3 28 2 29 1 30
REMARK H PARENT
REMARK Flexibility Score: inf
ROOT
ATOM      1  C   UNL     1      14.645 -18.117 -15.651  1.00  0.00     0.000 C 
ENDROOT
BRANCH   1   2
ATOM      2  C   UNL     1      14.817 -16.743 -14.977  1.00  0.00     0.000 C 
BRANCH   2   3
ATOM      3  C   UNL     1      13.591 -16.322 -14.148  1.00  0.00     0.000 C 
BRANCH   3   4
ATOM      4  C   UNL     1      13.773 -16.580 -12.641  1.00  0.00     0.000 C 
BRANCH   4   5
ATOM      5  C   UNL     1      15.016 -17.406 -12.265  1.00  0.00     0.000 C 
BRANCH   5   6
ATOM      6  C   UNL     1      14.677 -18.658 -11.442  1.00  0.00     0.000 C 
BRANCH   6   7
ATOM      7  C   UNL     1      15.603 -19.823 -11.812  1.00  0.00     0.000 C 
BRANCH   7   8
ATOM      8  C   UNL     1      14.901 -20.808 -12.759  1.00  0.00     0.000 C 
BRANCH   8   9
ATOM      9  C   UNL     1      15.806 -21.269 -13.912  1.00  0.00     0.000 C 
BRANCH   9  10
ATOM     10  C   UNL     1      15.762 -22.788 -14.130  1.00  0.00     0.000 C 
BRANCH  10  11
ATOM     11  C   UNL     1      15.428 -23.522 -12.824  1.00  0.00     0.000 C 
BRANCH  11  12
ATOM     12  C   UNL     1      14.441 -24.671 -13.075  1.00  0.00     0.006 C 
BRANCH  12  13
ATOM     13  C   UNL     1      13.165 -24.199 -13.785  1.00  0.00     0.053 C 
BRANCH  13  14
ATOM     14  C   UNL     1      12.273 -25.345 -14.148  1.00  0.00     0.041 C 
ATOM     15  O   UNL     1      11.057 -25.144 -14.406  1.00  0.00    -0.550 OA
ATOM     16  O   UNL     1      12.777 -26.639 -14.177  1.00  0.00    -0.550 OA
ENDBRANCH  13  14
ENDBRANCH  12  13
ENDBRANCH  11  12
ENDBRANCH  10  11
ENDBRANCH   9  10
ENDBRANCH   8   9
ENDBRANCH   7   8
ENDBRANCH   6   7
ENDBRANCH   5   6
ENDBRANCH   4   5
ENDBRANCH   3   4
ENDBRANCH   2   3
ENDBRANCH   1   2
BRANCH   1  17
ATOM     17  C   UNL     1      13.198 -18.498 -16.030  1.00  0.00     0.000 C 
BRANCH  17  18
ATOM     18  C   UNL     1      12.775 -19.931 -15.659  1.00  0.00     0.000 C 
BRANCH  18  19
ATOM     19  C   UNL     1      11.359 -20.002 -15.064  1.00  0.00     0.000 C 
BRANCH  19  20
ATOM     20  C   UNL     1      11.126 -18.945 -13.962  1.00  0.00     0.000 C 
BRANCH  20  21
ATOM     21  C   UNL     1      11.358 -19.468 -12.533  1.00  0.00     0.000 C 
BRANCH  21  22
ATOM     22  C   UNL     1      10.619 -18.695 -11.425  1.00  0.00    -0.000 C 
BRANCH  22  23
ATOM     23  C   UNL     1      11.489 -18.292 -10.217  1.00  0.00    -0.000 C 
BRANCH  23  24
ATOM     24  C   UNL     1      10.844 -18.529  -8.836  1.00  0.00    -0.000 C 
BRANCH  24  25
ATOM     25  C   UNL     1      11.124 -17.437  -7.789  1.00  0.00    -0.000 C 
BRANCH  25  26
ATOM     26  C   UNL     1       9.846 -16.931  -7.097  1.00  0.00    -0.000 C 
BRANCH  26  27
ATOM     27  C   UNL     1       9.869 -17.153  -5.577  1.00  0.00    -0.000 C 
BRANCH  27  28
ATOM     28  C   UNL     1      10.137 -18.620  -5.200  1.00  0.00    -0.000 C 
BRANCH  28  29
ATOM     29  C   UNL     1       9.156 -19.143  -4.139  1.00  0.00    -0.003 C 
ATOM     30  C   UNL     1       8.383 -18.020  -3.446  1.00  0.00     0.004 C 
ENDBRANCH  28  29
ENDBRANCH  27  28
ENDBRANCH  26  27
ENDBRANCH  25  26
ENDBRANCH  24  25
ENDBRANCH  23  24
ENDBRANCH  22  23
ENDBRANCH  21  22
ENDBRANCH  20  21
ENDBRANCH  19  20
ENDBRANCH  18  19
ENDBRANCH  17  18
ENDBRANCH   1  17
TORSDOF 26
ENDMDL
MODEL 5
REMARK VINA RESULT:    -4.904      4.592      8.301
REMARK INTER + INTRA:         -16.487
REMARK INTER:                 -11.904
REMARK INTRA:                  -4.582
REMARK UNBOUND:                -4.128
REMARK SMILES CCCCCCCCCCCCCCCCCCCCCCCCCCCC(=O)[O-]
REMARK SMILES IDX 15 1 16 2 17 3 18 4 19 5 20 6 21 7 22 8 23 9 24 10 25 11
REMARK SMILES IDX 26 12 27 13 28 14 29 15 30 16 14 17 13 18 12 19 11 20 10 21
REMARK SMILES IDX 9 22 8 23 7 24 6 25 5 26 4 27 3 28 2 29 1 30
REMARK H PARENT
REMARK Flexibility Score: inf
ROOT
ATOM      1  C   UNL     1      14.646 -22.247 -13.617  1.00  0.00     0.000 C 
ENDROOT
BRANCH   1   2
ATOM      2  C   UNL     1      14.489 -20.894 -12.899  1.00  0.00     0.000 C 
BRANCH   2   3
ATOM      3  C   UNL     1      15.818 -20.132 -12.753  1.00  0.00     0.000 C 
BRANCH   3   4
ATOM      4  C   UNL     1      15.730 -18.966 -11.752  1.00  0.00     0.000 C 
BRANCH   4   5
ATOM      5  C   UNL     1      14.631 -19.104 -10.683  1.00  0.00     0.000 C 
BRANCH   5   6
ATOM      6  C   UNL     1      14.700 -18.010  -9.608  1.00  0.00     0.000 C 
BRANCH   6   7
ATOM      7  C   UNL     1      13.699 -16.887  -9.906  1.00  0.00     0.000 C 
BRANCH   7   8
ATOM      8  C   UNL     1      12.819 -16.591  -8.682  1.00  0.00     0.000 C 
BRANCH   8   9
ATOM      9  C   UNL     1      12.871 -17.712  -7.631  1.00  0.00     0.000 C 
BRANCH   9  10
ATOM     10  C   UNL     1      11.718 -17.630  -6.620  1.00  0.00     0.000 C 
BRANCH  10  11
ATOM     11  C   UNL     1      10.423 -17.168  -7.299  1.00  0.00     0.000 C 
BRANCH  11  12
ATOM     12  C   UNL     1       9.290 -17.011  -6.274  1.00  0.00     0.006 C 
BRANCH  12  13
ATOM     13  C   UNL     1       9.773 -17.226  -4.834  1.00  0.00     0.053 C 
BRANCH  13  14
ATOM     14  C   UNL     1       9.017 -18.322  -4.150  1.00  0.00     0.041 C 
ATOM     15  O   UNL     1       9.297 -19.527  -4.387  1.00  0.00    -0.550 OA
ATOM     16  O   UNL     1       7.986 -18.016  -3.271  1.00  0.00    -0.550 OA
ENDBRANCH  13  14
ENDBRANCH  12  13
ENDBRANCH  11  12
ENDBRANCH  10  11
ENDBRANCH   9  10
ENDBRANCH   8   9
ENDBRANCH   7   8
ENDBRANCH   6   7
ENDBRANCH   5   6
ENDBRANCH   4   5
ENDBRANCH   3   4
ENDBRANCH   2   3
ENDBRANCH   1   2
BRANCH   1  17
ATOM     17  C   UNL     1      13.340 -23.037 -13.845  1.00  0.00     0.000 C 
BRANCH  17  18
ATOM     18  C   UNL     1      12.050 -22.197 -13.833  1.00  0.00     0.000 C 
BRANCH  18  19
ATOM     19  C   UNL     1      11.543 -21.858 -15.245  1.00  0.00     0.000 C 
BRANCH  19  20
ATOM     20  C   UNL     1      11.675 -20.356 -15.577  1.00  0.00     0.000 C 
BRANCH  20  21
ATOM     21  C   UNL     1      12.464 -20.067 -16.868  1.00  0.00     0.000 C 
BRANCH  21  22
ATOM     22  C   UNL     1      13.282 -18.763 -16.855  1.00  0.00    -0.000 C 
BRANCH  22  23
ATOM     23  C   UNL     1      14.309 -18.646 -15.710  1.00  0.00    -0.000 C 
BRANCH  23  24
ATOM     24  C   UNL     1      14.688 -17.205 -15.313  1.00  0.00    -0.000 C 
BRANCH  24  25
ATOM     25  C   UNL     1      13.586 -16.416 -14.586  1.00  0.00    -0.000 C 
BRANCH  25  26
ATOM     26  C   UNL     1      13.098 -17.114 -13.304  1.00  0.00    -0.000 C 
BRANCH  26  27
ATOM     27  C   UNL     1      11.639 -17.587 -13.407  1.00  0.00    -0.000 C 
BRANCH  27  28
ATOM     28  C   UNL     1      11.341 -18.782 -12.485  1.00  0.00    -0.000 C 
BRANCH  28  29
ATOM     29  C   UNL     1      10.523 -18.379 -11.248  1.00  0.00    -0.003 C 
ATOM     30  C   UNL     1      10.656 -19.382 -10.101  1.00  0.00     0.004 C 
ENDBRANCH  28  29
ENDBRANCH  27  28
ENDBRANCH  26  27
ENDBRANCH  25  26
ENDBRANCH  24  25
ENDBRANCH  23  24
ENDBRANCH  22  23
ENDBRANCH  21  22
ENDBRANCH  20  21
ENDBRANCH  19  20
ENDBRANCH  18  19
ENDBRANCH  17  18
ENDBRANCH   1  17
TORSDOF 26
ENDMDL
MODEL 6
REMARK VINA RESULT:    -4.901      3.646      9.129
REMARK INTER + INTRA:         -16.478
REMARK INTER:                 -11.677
REMARK INTRA:                  -4.801
REMARK UNBOUND:                -4.128
REMARK SMILES CCCCCCCCCCCCCCCCCCCCCCCCCCCC(=O)[O-]
REMARK SMILES IDX 15 1 16 2 17 3 18 4 19 5 20 6 21 7 22 8 23 9 24 10 25 11
REMARK SMILES IDX 26 12 27 13 28 14 29 15 30 16 14 17 13 18 12 19 11 20 10 21
REMARK SMILES IDX 9 22 8 23 7 24 6 25 5 26 4 27 3 28 2 29 1 30
REMARK H PARENT
REMARK Flexibility Score: inf
ROOT
ATOM      1  C   UNL     1      14.605 -17.610 -15.211  1.00  0.00     0.000 C 
ENDROOT
BRANCH   1   2
ATOM      2  C   UNL     1      13.451 -16.658 -14.845  1.00  0.00     0.000 C 
BRANCH   2   3
ATOM      3  C   UNL     1      13.441 -16.269 -13.356  1.00  0.00     0.000 C 
BRANCH   3   4
ATOM      4  C   UNL     1      14.575 -16.938 -12.557  1.00  0.00     0.000 C 
BRANCH   4   5
ATOM      5  C   UNL     1      14.310 -17.087 -11.048  1.00  0.00     0.000 C 
BRANCH   5   6
ATOM      6  C   UNL     1      14.615 -18.497 -10.523  1.00  0.00     0.000 C 
BRANCH   6   7
ATOM      7  C   UNL     1      15.869 -19.072 -11.195  1.00  0.00     0.000 C 
BRANCH   7   8
ATOM      8  C   UNL     1      15.575 -20.433 -11.842  1.00  0.00     0.000 C 
BRANCH   8   9
ATOM      9  C   UNL     1      15.933 -20.468 -13.336  1.00  0.00     0.000 C 
BRANCH   9  10
ATOM     10  C   UNL     1      15.545 -21.793 -14.008  1.00  0.00     0.000 C 
BRANCH  10  11
ATOM     11  C   UNL     1      15.287 -22.885 -12.962  1.00  0.00     0.000 C 
BRANCH  11  12
ATOM     12  C   UNL     1      14.117 -23.785 -13.384  1.00  0.00     0.006 C 
BRANCH  12  13
ATOM     13  C   UNL     1      14.356 -25.258 -13.027  1.00  0.00     0.053 C 
BRANCH  13  14
ATOM     14  C   UNL     1      14.485 -26.113 -14.248  1.00  0.00     0.041 C 
ATOM     15  O   UNL     1      15.408 -25.898 -15.078  1.00  0.00    -0.550 OA
ATOM     16  O   UNL     1      13.572 -27.133 -14.485  1.00  0.00    -0.550 OA
ENDBRANCH  13  14
ENDBRANCH  12  13
ENDBRANCH  11  12
ENDBRANCH  10  11
ENDBRANCH   9  10
ENDBRANCH   8   9
ENDBRANCH   7   8
ENDBRANCH   6   7
ENDBRANCH   5   6
ENDBRANCH   4   5
ENDBRANCH   3   4
ENDBRANCH   2   3
ENDBRANCH   1   2
BRANCH   1  17
ATOM     17  C   UNL     1      14.376 -18.487 -16.461  1.00  0.00     0.000 C 
BRANCH  17  18
ATOM     18  C   UNL     1      12.903 -18.762 -16.813  1.00  0.00     0.000 C 
BRANCH  18  19
ATOM     19  C   UNL     1      12.476 -20.208 -16.514  1.00  0.00     0.000 C 
BRANCH  19  20
ATOM     20  C   UNL     1      11.452 -20.297 -15.361  1.00  0.00     0.000 C 
BRANCH  20  21
ATOM     21  C   UNL     1      12.031 -20.868 -14.053  1.00  0.00     0.000 C 
BRANCH  21  22
ATOM     22  C   UNL     1      12.169 -19.854 -12.902  1.00  0.00    -0.000 C 
BRANCH  22  23
ATOM     23  C   UNL     1      10.977 -18.888 -12.734  1.00  0.00    -0.000 C 
BRANCH  23  24
ATOM     24  C   UNL     1      10.888 -18.189 -11.363  1.00  0.00    -0.000 C 
BRANCH  24  25
ATOM     25  C   UNL     1      10.600 -19.120 -10.173  1.00  0.00    -0.000 C 
BRANCH  25  26
ATOM     26  C   UNL     1      11.032 -18.517  -8.825  1.00  0.00    -0.000 C 
BRANCH  26  27
ATOM     27  C   UNL     1      11.197 -16.990  -8.886  1.00  0.00    -0.000 C 
BRANCH  27  28
ATOM     28  C   UNL     1      11.469 -16.370  -7.505  1.00  0.00    -0.000 C 
BRANCH  28  29
ATOM     29  C   UNL     1      10.561 -15.166  -7.212  1.00  0.00    -0.003 C 
ATOM     30  C   UNL     1       9.204 -15.576  -6.638  1.00  0.00     0.004 C 
ENDBRANCH  28  29
ENDBRANCH  27  28
ENDBRANCH  26  27
ENDBRANCH  25  26
ENDBRANCH  24  25
ENDBRANCH  23  24
ENDBRANCH  22  23
ENDBRANCH  21  22
ENDBRANCH  20  21
ENDBRANCH  19  20
ENDBRANCH  18  19
ENDBRANCH  17  18
ENDBRANCH   1  17
TORSDOF 26
ENDMDL
MODEL 7
REMARK VINA RESULT:    -4.889      3.159      8.226
REMARK INTER + INTRA:         -16.448
REMARK INTER:                 -11.623
REMARK INTRA:                  -4.826
REMARK UNBOUND:                -4.128
REMARK SMILES CCCCCCCCCCCCCCCCCCCCCCCCCCCC(=O)[O-]
REMARK SMILES IDX 15 1 16 2 17 3 18 4 19 5 20 6 21 7 22 8 23 9 24 10 25 11
REMARK SMILES IDX 26 12 27 13 28 14 29 15 30 16 14 17 13 18 12 19 11 20 10 21
REMARK SMILES IDX 9 22 8 23 7 24 6 25 5 26 4 27 3 28 2 29 1 30
REMARK H PARENT
REMARK Flexibility Score: inf
ROOT
ATOM      1  C   UNL     1      11.509 -25.573 -14.338  1.00  0.00     0.000 C 
ENDROOT
BRANCH   1   2
ATOM      2  C   UNL     1      12.904 -26.190 -14.124  1.00  0.00     0.000 C 
BRANCH   2   3
ATOM      3  C   UNL     1      14.038 -25.150 -14.189  1.00  0.00     0.000 C 
BRANCH   3   4
ATOM      4  C   UNL     1      14.533 -24.720 -12.796  1.00  0.00     0.000 C 
BRANCH   4   5
ATOM      5  C   UNL     1      15.056 -23.275 -12.706  1.00  0.00     0.000 C 
BRANCH   5   6
ATOM      6  C   UNL     1      15.652 -22.771 -14.028  1.00  0.00     0.000 C 
BRANCH   6   7
ATOM      7  C   UNL     1      17.120 -22.366 -13.848  1.00  0.00     0.000 C 
BRANCH   7   8
ATOM      8  C   UNL     1      18.016 -23.601 -13.668  1.00  0.00     0.000 C 
BRANCH   8   9
ATOM      9  C   UNL     1      18.829 -23.558 -12.364  1.00  0.00     0.000 C 
BRANCH   9  10
ATOM     10  C   UNL     1      18.223 -24.435 -11.258  1.00  0.00     0.000 C 
BRANCH  10  11
ATOM     11  C   UNL     1      18.390 -25.925 -11.585  1.00  0.00     0.000 C 
BRANCH  11  12
ATOM     12  C   UNL     1      17.032 -26.643 -11.588  1.00  0.00     0.006 C 
BRANCH  12  13
ATOM     13  C   UNL     1      17.091 -27.997 -12.306  1.00  0.00     0.053 C 
BRANCH  13  14
ATOM     14  C   UNL     1      16.447 -27.940 -13.656  1.00  0.00     0.041 C 
ATOM     15  O   UNL     1      15.468 -28.686 -13.923  1.00  0.00    -0.550 OA
ATOM     16  O   UNL     1      16.943 -27.082 -14.629  1.00  0.00    -0.550 OA
ENDBRANCH  13  14
ENDBRANCH  12  13
ENDBRANCH  11  12
ENDBRANCH  10  11
ENDBRANCH   9  10
ENDBRANCH   8   9
ENDBRANCH   7   8
ENDBRANCH   6   7
ENDBRANCH   5   6
ENDBRANCH   4   5
ENDBRANCH   3   4
ENDBRANCH   2   3
ENDBRANCH   1   2
BRANCH   1  17
ATOM     17  C   UNL     1      11.311 -24.155 -13.760  1.00  0.00     0.000 C 
BRANCH  17  18
ATOM     18  C   UNL     1      11.361 -23.011 -14.790  1.00  0.00     0.000 C 
BRANCH  18  19
ATOM     19  C   UNL     1      12.032 -21.741 -14.240  1.00  0.00     0.000 C 
BRANCH  19  20
ATOM     20  C   UNL     1      12.747 -20.926 -15.339  1.00  0.00     0.000 C 
BRANCH  20  21
ATOM     21  C   UNL     1      12.315 -19.449 -15.404  1.00  0.00     0.000 C 
BRANCH  21  22
ATOM     22  C   UNL     1      11.056 -19.100 -14.591  1.00  0.00    -0.000 C 
BRANCH  22  23
ATOM     23  C   UNL     1      11.287 -18.139 -13.407  1.00  0.00    -0.000 C 
BRANCH  23  24
ATOM     24  C   UNL     1      11.721 -18.813 -12.090  1.00  0.00    -0.000 C 
BRANCH  24  25
ATOM     25  C   UNL     1      13.160 -18.503 -11.641  1.00  0.00    -0.000 C 
BRANCH  25  26
ATOM     26  C   UNL     1      14.181 -19.536 -12.150  1.00  0.00    -0.000 C 
BRANCH  26  27
ATOM     27  C   UNL     1      15.522 -18.896 -12.542  1.00  0.00    -0.000 C 
BRANCH  27  28
ATOM     28  C   UNL     1      15.605 -18.576 -14.044  1.00  0.00    -0.000 C 
BRANCH  28  29
ATOM     29  C   UNL     1      15.692 -17.066 -14.320  1.00  0.00    -0.003 C 
ATOM     30  C   UNL     1      14.318 -16.423 -14.516  1.00  0.00     0.004 C 
ENDBRANCH  28  29
ENDBRANCH  27  28
ENDBRANCH  26  27
ENDBRANCH  25  26
ENDBRANCH  24  25
ENDBRANCH  23  24
ENDBRANCH  22  23
ENDBRANCH  21  22
ENDBRANCH  20  21
ENDBRANCH  19  20
ENDBRANCH  18  19
ENDBRANCH  17  18
ENDBRANCH   1  17
TORSDOF 26
ENDMDL
MODEL 8
REMARK VINA RESULT:    -4.848      5.556      9.147
REMARK INTER + INTRA:         -16.345
REMARK INTER:                 -12.113
REMARK INTRA:                  -4.232
REMARK UNBOUND:                -4.128
REMARK SMILES CCCCCCCCCCCCCCCCCCCCCCCCCCCC(=O)[O-]
REMARK SMILES IDX 15 1 16 2 17 3 18 4 19 5 20 6 21 7 22 8 23 9 24 10 25 11
REMARK SMILES IDX 26 12 27 13 28 14 29 15 30 16 14 17 13 18 12 19 11 20 10 21
REMARK SMILES IDX 9 22 8 23 7 24 6 25 5 26 4 27 3 28 2 29 1 30
REMARK H PARENT
REMARK Flexibility Score: inf
ROOT
ATOM      1  C   UNL     1      11.311 -18.474  -9.192  1.00  0.00     0.000 C 
ENDROOT
BRANCH   1   2
ATOM      2  C   UNL     1      11.343 -16.934  -9.189  1.00  0.00     0.000 C 
BRANCH   2   3
ATOM      3  C   UNL     1      12.407 -16.355  -8.239  1.00  0.00     0.000 C 
BRANCH   3   4
ATOM      4  C   UNL     1      11.935 -15.076  -7.524  1.00  0.00     0.000 C 
BRANCH   4   5
ATOM      5  C   UNL     1      10.502 -14.627  -7.866  1.00  0.00     0.000 C 
BRANCH   5   6
ATOM      6  C   UNL     1       9.670 -14.283  -6.622  1.00  0.00     0.000 C 
BRANCH   6   7
ATOM      7  C   UNL     1       8.472 -15.232  -6.486  1.00  0.00     0.000 C 
BRANCH   7   8
ATOM      8  C   UNL     1       8.780 -16.373  -5.504  1.00  0.00     0.000 C 
BRANCH   8   9
ATOM      9  C   UNL     1       8.887 -17.740  -6.200  1.00  0.00     0.000 C 
BRANCH   9  10
ATOM     10  C   UNL     1      10.236 -18.429  -5.949  1.00  0.00     0.000 C 
BRANCH  10  11
ATOM     11  C   UNL     1      10.150 -19.387  -4.754  1.00  0.00     0.000 C 
BRANCH  11  12
ATOM     12  C   UNL     1      11.548 -19.708  -4.205  1.00  0.00     0.006 C 
BRANCH  12  13
ATOM     13  C   UNL     1      12.123 -21.002  -4.797  1.00  0.00     0.053 C 
BRANCH  13  14
ATOM     14  C   UNL     1      13.321 -20.738  -5.655  1.00  0.00     0.041 C 
ATOM     15  O   UNL     1      14.477 -20.770  -5.156  1.00  0.00    -0.550 OA
ATOM     16  O   UNL     1      13.161 -20.431  -7.000  1.00  0.00    -0.550 OA
ENDBRANCH  13  14
ENDBRANCH  12  13
ENDBRANCH  11  12
ENDBRANCH  10  11
ENDBRANCH   9  10
ENDBRANCH   8   9
ENDBRANCH   7   8
ENDBRANCH   6   7
ENDBRANCH   5   6
ENDBRANCH   4   5
ENDBRANCH   3   4
ENDBRANCH   2   3
ENDBRANCH   1   2
BRANCH   1  17
ATOM     17  C   UNL     1      10.965 -19.132 -10.545  1.00  0.00     0.000 C 
BRANCH  17  18
ATOM     18  C   UNL     1      10.677 -18.154 -11.700  1.00  0.00     0.000 C 
BRANCH  18  19
ATOM     19  C   UNL     1      11.256 -18.629 -13.042  1.00  0.00     0.000 C 
BRANCH  19  20
ATOM     20  C   UNL     1      11.759 -20.088 -12.988  1.00  0.00     0.000 C 
BRANCH  20  21
ATOM     21  C   UNL     1      11.755 -20.803 -14.352  1.00  0.00     0.000 C 
BRANCH  21  22
ATOM     22  C   UNL     1      11.497 -19.892 -15.567  1.00  0.00    -0.000 C 
BRANCH  22  23
ATOM     23  C   UNL     1      12.565 -19.965 -16.678  1.00  0.00    -0.000 C 
BRANCH  23  24
ATOM     24  C   UNL     1      13.373 -18.670 -16.897  1.00  0.00    -0.000 C 
BRANCH  24  25
ATOM     25  C   UNL     1      13.863 -17.980 -15.612  1.00  0.00    -0.000 C 
BRANCH  25  26
ATOM     26  C   UNL     1      14.839 -18.852 -14.801  1.00  0.00    -0.000 C 
BRANCH  26  27
ATOM     27  C   UNL     1      15.321 -18.160 -13.516  1.00  0.00    -0.000 C 
BRANCH  27  28
ATOM     28  C   UNL     1      14.406 -16.997 -13.095  1.00  0.00    -0.000 C 
BRANCH  28  29
ATOM     29  C   UNL     1      14.280 -16.873 -11.568  1.00  0.00    -0.003 C 
ATOM     30  C   UNL     1      14.600 -18.180 -10.841  1.00  0.00     0.004 C 
ENDBRANCH  28  29
ENDBRANCH  27  28
ENDBRANCH  26  27
ENDBRANCH  25  26
ENDBRANCH  24  25
ENDBRANCH  23  24
ENDBRANCH  22  23
ENDBRANCH  21  22
ENDBRANCH  20  21
ENDBRANCH  19  20
ENDBRANCH  18  19
ENDBRANCH  17  18
ENDBRANCH   1  17
TORSDOF 26
ENDMDL
MODEL 9
REMARK VINA RESULT:    -4.848      4.247      9.274
REMARK INTER + INTRA:         -16.343
REMARK INTER:                 -12.391
REMARK INTRA:                  -3.952
REMARK UNBOUND:                -4.128
REMARK SMILES CCCCCCCCCCCCCCCCCCCCCCCCCCCC(=O)[O-]
REMARK SMILES IDX 15 1 16 2 17 3 18 4 19 5 20 6 21 7 22 8 23 9 24 10 25 11
REMARK SMILES IDX 26 12 27 13 28 14 29 15 30 16 14 17 13 18 12 19 11 20 10 21
REMARK SMILES IDX 9 22 8 23 7 24 6 25 5 26 4 27 3 28 2 29 1 30
REMARK H PARENT
REMARK Flexibility Score: inf
ROOT
ATOM      1  C   UNL     1      12.092 -20.111 -14.860  1.00  0.00     0.000 C 
ENDROOT
BRANCH   1   2
ATOM      2  C   UNL     1      12.479 -20.030 -16.348  1.00  0.00     0.000 C 
BRANCH   2   3
ATOM      3  C   UNL     1      13.252 -18.746 -16.700  1.00  0.00     0.000 C 
BRANCH   3   4
ATOM      4  C   UNL     1      14.201 -18.294 -15.574  1.00  0.00     0.000 C 
BRANCH   4   5
ATOM      5  C   UNL     1      14.168 -16.788 -15.258  1.00  0.00     0.000 C 
BRANCH   5   6
ATOM      6  C   UNL     1      13.916 -16.494 -13.772  1.00  0.00     0.000 C 
BRANCH   6   7
ATOM      7  C   UNL     1      15.139 -16.868 -12.925  1.00  0.00     0.000 C 
BRANCH   7   8
ATOM      8  C   UNL     1      14.756 -17.041 -11.447  1.00  0.00     0.000 C 
BRANCH   8   9
ATOM      9  C   UNL     1      14.494 -18.508 -11.072  1.00  0.00     0.000 C 
BRANCH   9  10
ATOM     10  C   UNL     1      15.512 -19.472 -11.700  1.00  0.00     0.000 C 
BRANCH  10  11
ATOM     11  C   UNL     1      14.812 -20.507 -12.589  1.00  0.00     0.000 C 
BRANCH  11  12
ATOM     12  C   UNL     1      15.686 -20.876 -13.797  1.00  0.00     0.006 C 
BRANCH  12  13
ATOM     13  C   UNL     1      15.766 -22.392 -14.018  1.00  0.00     0.053 C 
BRANCH  13  14
ATOM     14  C   UNL     1      17.049 -22.964 -13.501  1.00  0.00     0.041 C 
ATOM     15  O   UNL     1      18.139 -22.689 -14.069  1.00  0.00    -0.550 OA
ATOM     16  O   UNL     1      17.041 -23.820 -12.407  1.00  0.00    -0.550 OA
ENDBRANCH  13  14
ENDBRANCH  12  13
ENDBRANCH  11  12
ENDBRANCH  10  11
ENDBRANCH   9  10
ENDBRANCH   8   9
ENDBRANCH   7   8
ENDBRANCH   6   7
ENDBRANCH   5   6
ENDBRANCH   4   5
ENDBRANCH   3   4
ENDBRANCH   2   3
ENDBRANCH   1   2
BRANCH   1  17
ATOM     17  C   UNL     1      10.998 -19.125 -14.399  1.00  0.00     0.000 C 
BRANCH  17  18
ATOM     18  C   UNL     1      11.336 -18.304 -13.141  1.00  0.00     0.000 C 
BRANCH  18  19
ATOM     19  C   UNL     1      10.829 -18.958 -11.846  1.00  0.00     0.000 C 
BRANCH  19  20
ATOM     20  C   UNL     1      10.966 -18.029 -10.620  1.00  0.00     0.000 C 
BRANCH  20  21
ATOM     21  C   UNL     1      11.072 -18.776  -9.277  1.00  0.00     0.000 C 
BRANCH  21  22
ATOM     22  C   UNL     1      11.711 -17.971  -8.131  1.00  0.00    -0.000 C 
BRANCH  22  23
ATOM     23  C   UNL     1      12.363 -16.638  -8.551  1.00  0.00    -0.000 C 
BRANCH  23  24
ATOM     24  C   UNL     1      11.788 -15.382  -7.866  1.00  0.00    -0.000 C 
BRANCH  24  25
ATOM     25  C   UNL     1      10.258 -15.367  -7.707  1.00  0.00    -0.000 C 
BRANCH  25  26
ATOM     26  C   UNL     1       9.810 -15.410  -6.235  1.00  0.00    -0.000 C 
BRANCH  26  27
ATOM     27  C   UNL     1       8.506 -16.200  -6.037  1.00  0.00    -0.000 C 
BRANCH  27  28
ATOM     28  C   UNL     1       8.711 -17.718  -6.173  1.00  0.00    -0.000 C 
BRANCH  28  29
ATOM     29  C   UNL     1       8.831 -18.419  -4.811  1.00  0.00    -0.003 C 
ATOM     30  C   UNL     1      10.024 -19.373  -4.740  1.00  0.00     0.004 C 
ENDBRANCH  28  29
ENDBRANCH  27  28
ENDBRANCH  26  27
ENDBRANCH  25  26
ENDBRANCH  24  25
ENDBRANCH  23  24
ENDBRANCH  22  23
ENDBRANCH  21  22
ENDBRANCH  20  21
ENDBRANCH  19  20
ENDBRANCH  18  19
ENDBRANCH  17  18
ENDBRANCH   1  17
TORSDOF 26
ENDMDL
