MODEL 1
REMARK VINA RESULT:    -2.500      0.000      0.000
REMARK INTER + INTRA:          -2.798
REMARK INTER:                  -2.792
REMARK INTRA:                  -0.006
REMARK UNBOUND:                -0.006
REMARK SMILES CCCC(=O)[O-]
REMARK SMILES IDX 3 1 4 2 5 3 6 4 2 5 1 6
REMARK H PARENT
REMARK Flexibility Score: inf
ROOT
ATOM      1  C   UNL     1      50.603  51.026  10.795  1.00  0.00     0.052 C 
ENDROOT
BRANCH   1   2
ATOM      2  C   UNL     1      50.985  50.075   9.702  1.00  0.00     0.041 C 
ATOM      3  O   UNL     1      50.118  49.660   8.889  1.00  0.00    -0.550 OA
ATOM      4  O   UNL     1      52.295  49.622   9.603  1.00  0.00    -0.550 OA
ENDBRANCH   1   2
BRANCH   1   5
ATOM      5  C   UNL     1      50.286  50.289  12.102  1.00  0.00     0.003 C 
ATOM      6  C   UNL     1      49.400  51.114  13.036  1.00  0.00     0.004 C 
ENDBRANCH   1   5
TORSDOF 2
ENDMDL
MODEL 2
REMARK VINA RESULT:    -2.425     14.952     15.557
REMARK INTER + INTRA:          -2.714
REMARK INTER:                  -2.684
REMARK INTRA:                  -0.030
REMARK UNBOUND:                -0.006
REMARK SMILES CCCC(=O)[O-]
REMARK SMILES IDX 3 1 4 2 5 3 6 4 2 5 1 6
REMARK H PARENT
REMARK Flexibility Score: inf
ROOT
ATOM      1  C   UNL     1      64.344  44.252  15.217  1.00  0.00     0.052 C 
ENDROOT
BRANCH   1   2
ATOM      2  C   UNL     1      63.582  45.157  16.135  1.00  0.00     0.041 C 
ATOM      3  O   UNL     1      62.552  44.739  16.728  1.00  0.00    -0.550 OA
ATOM      4  O   UNL     1      63.990  46.473  16.311  1.00  0.00    -0.550 OA
ENDBRANCH   1   2
BRANCH   1   5
ATOM      5  C   UNL     1      63.520  43.021  14.821  1.00  0.00     0.003 C 
ATOM      6  C   UNL     1      63.973  41.757  15.552  1.00  0.00     0.004 C 
ENDBRANCH   1   5
TORSDOF 2
ENDMDL
MODEL 3
REMARK VINA RESULT:    -2.390     15.636     16.244
REMARK INTER + INTRA:          -2.675
REMARK INTER:                  -2.640
REMARK INTRA:                  -0.036
REMARK UNBOUND:                -0.006
REMARK SMILES CCCC(=O)[O-]
REMARK SMILES IDX 3 1 4 2 5 3 6 4 2 5 1 6
REMARK H PARENT
REMARK Flexibility Score: inf
ROOT
ATOM      1  C   UNL     1      56.517  35.238  13.134  1.00  0.00     0.052 C 
ENDROOT
BRANCH   1   2
ATOM      2  C   UNL     1      55.851  36.295  12.307  1.00  0.00     0.041 C 
ATOM      3  O   UNL     1      56.440  36.781  11.305  1.00  0.00    -0.550 OA
ATOM      4  O   UNL     1      54.594  36.765  12.662  1.00  0.00    -0.550 OA
ENDBRANCH   1   2
BRANCH   1   5
ATOM      5  C   UNL     1      57.307  34.251  12.265  1.00  0.00     0.003 C 
ATOM      6  C   UNL     1      58.782  34.180  12.658  1.00  0.00     0.004 C 
ENDBRANCH   1   5
TORSDOF 2
ENDMDL
MODEL 4
REMARK VINA RESULT:    -2.366     15.565     16.186
REMARK INTER + INTRA:          -2.649
REMARK INTER:                  -2.643
REMARK INTRA:                  -0.006
REMARK UNBOUND:                -0.006
REMARK SMILES CCCC(=O)[O-]
REMARK SMILES IDX 3 1 4 2 5 3 6 4 2 5 1 6
REMARK H PARENT
REMARK Flexibility Score: inf
ROOT
ATOM      1  C   UNL     1      63.663  43.037  15.123  1.00  0.00     0.052 C 
ENDROOT
BRANCH   1   2
ATOM      2  C   UNL     1      64.029  44.448  15.468  1.00  0.00     0.041 C 
ATOM      3  O   UNL     1      65.125  44.933  15.081  1.00  0.00    -0.550 OA
ATOM      4  O   UNL     1      63.173  45.217  16.247  1.00  0.00    -0.550 OA
ENDBRANCH   1   2
BRANCH   1   5
ATOM      5  C   UNL     1      64.623  42.029  15.766  1.00  0.00     0.003 C 
ATOM      6  C   UNL     1      63.930  40.716  16.131  1.00  0.00     0.004 C 
ENDBRANCH   1   5
TORSDOF 2
ENDMDL
MODEL 5
REMARK VINA RESULT:    -2.344      2.391      3.253
REMARK INTER + INTRA:          -2.624
REMARK INTER:                  -2.586
REMARK INTRA:                  -0.038
REMARK UNBOUND:                -0.006
REMARK SMILES CCCC(=O)[O-]
REMARK SMILES IDX 3 1 4 2 5 3 6 4 2 5 1 6
REMARK H PARENT
REMARK Flexibility Score: inf
ROOT
ATOM      1  C   UNL     1      51.912  49.906   9.809  1.00  0.00     0.052 C 
ENDROOT
BRANCH   1   2
ATOM      2  C   UNL     1      51.926  49.519  11.256  1.00  0.00     0.041 C 
ATOM      3  O   UNL     1      53.005  49.188  11.814  1.00  0.00    -0.550 OA
ATOM      4  O   UNL     1      50.740  49.492  11.979  1.00  0.00    -0.550 OA
ENDBRANCH   1   2
BRANCH   1   5
ATOM      5  C   UNL     1      50.570  50.526   9.401  1.00  0.00     0.003 C 
ATOM      6  C   UNL     1      49.772  49.622   8.461  1.00  0.00     0.004 C 
ENDBRANCH   1   5
TORSDOF 2
ENDMDL
MODEL 6
REMARK VINA RESULT:    -2.299      1.740      2.515
REMARK INTER + INTRA:          -2.574
REMARK INTER:                  -2.557
REMARK INTRA:                  -0.016
REMARK UNBOUND:                -0.006
REMARK SMILES CCCC(=O)[O-]
REMARK SMILES IDX 3 1 4 2 5 3 6 4 2 5 1 6
REMARK H PARENT
REMARK Flexibility Score: inf
ROOT
ATOM      1  C   UNL     1      51.074  49.619  11.351  1.00  0.00     0.052 C 
ENDROOT
BRANCH   1   2
ATOM      2  C   UNL     1      51.270  49.888   9.890  1.00  0.00     0.041 C 
ATOM      3  O   UNL     1      52.416  50.157   9.443  1.00  0.00    -0.550 OA
ATOM      4  O   UNL     1      50.181  49.873   9.028  1.00  0.00    -0.550 OA
ENDBRANCH   1   2
BRANCH   1   5
ATOM      5  C   UNL     1      52.332  49.021  11.991  1.00  0.00     0.003 C 
ATOM      6  C   UNL     1      52.050  47.700  12.707  1.00  0.00     0.004 C 
ENDBRANCH   1   5
TORSDOF 2
ENDMDL
MODEL 7
REMARK VINA RESULT:    -2.291     14.497     15.063
REMARK INTER + INTRA:          -2.565
REMARK INTER:                  -2.527
REMARK INTRA:                  -0.038
REMARK UNBOUND:                -0.006
REMARK SMILES CCCC(=O)[O-]
REMARK SMILES IDX 3 1 4 2 5 3 6 4 2 5 1 6
REMARK H PARENT
REMARK Flexibility Score: inf
ROOT
ATOM      1  C   UNL     1      54.690  36.112  12.570  1.00  0.00     0.052 C 
ENDROOT
BRANCH   1   2
ATOM      2  C   UNL     1      54.386  36.948  13.775  1.00  0.00     0.041 C 
ATOM      3  O   UNL     1      53.283  37.549  13.869  1.00  0.00    -0.550 OA
ATOM      4  O   UNL     1      55.334  37.090  14.780  1.00  0.00    -0.550 OA
ENDBRANCH   1   2
BRANCH   1   5
ATOM      5  C   UNL     1      56.127  36.328  12.079  1.00  0.00     0.003 C 
ATOM      6  C   UNL     1      57.006  35.095  12.290  1.00  0.00     0.004 C 
ENDBRANCH   1   5
TORSDOF 2
ENDMDL
MODEL 8
REMARK VINA RESULT:    -2.221      9.271      9.769
REMARK INTER + INTRA:          -2.486
REMARK INTER:                  -2.476
REMARK INTRA:                  -0.010
REMARK UNBOUND:                -0.006
REMARK SMILES CCCC(=O)[O-]
REMARK SMILES IDX 3 1 4 2 5 3 6 4 2 5 1 6
REMARK H PARENT
REMARK Flexibility Score: inf
ROOT
ATOM      1  C   UNL     1      46.708  42.768  14.447  1.00  0.00     0.052 C 
ENDROOT
BRANCH   1   2
ATOM      2  C   UNL     1      46.631  44.149  15.022  1.00  0.00     0.041 C 
ATOM      3  O   UNL     1      45.550  44.575  15.508  1.00  0.00    -0.550 OA
ATOM      4  O   UNL     1      47.746  44.978  14.991  1.00  0.00    -0.550 OA
ENDBRANCH   1   2
BRANCH   1   5
ATOM      5  C   UNL     1      45.721  41.813  15.130  1.00  0.00     0.003 C 
ATOM      6  C   UNL     1      46.252  40.381  15.202  1.00  0.00     0.004 C 
ENDBRANCH   1   5
TORSDOF 2
ENDMDL
MODEL 9
REMARK VINA RESULT:    -2.208      2.479      3.392
REMARK INTER + INTRA:          -2.472
REMARK INTER:                  -2.418
REMARK INTRA:                  -0.053
REMARK UNBOUND:                -0.006
REMARK SMILES CCCC(=O)[O-]
REMARK SMILES IDX 3 1 4 2 5 3 6 4 2 5 1 6
REMARK H PARENT
REMARK Flexibility Score: inf
ROOT
ATOM      1  C   UNL     1      51.432  50.401  11.544  1.00  0.00     0.052 C 
ENDROOT
BRANCH   1   2
ATOM      2  C   UNL     1      50.345  50.040  12.509  1.00  0.00     0.041 C 
ATOM      3  O   UNL     1      50.276  48.874  12.980  1.00  0.00    -0.550 OA
ATOM      4  O   UNL     1      49.389  50.983  12.863  1.00  0.00    -0.550 OA
ENDBRANCH   1   2
BRANCH   1   5
ATOM      5  C   UNL     1      50.869  51.040  10.269  1.00  0.00     0.003 C 
ATOM      6  C   UNL     1      50.394  49.998   9.256  1.00  0.00     0.004 C 
ENDBRANCH   1   5
TORSDOF 2
ENDMDL
