MODEL 1
REMARK VINA RESULT:    -4.179      0.000      0.000
REMARK INTER + INTRA:          -6.822
REMARK INTER:                  -6.133
REMARK INTRA:                  -0.688
REMARK UNBOUND:                -0.688
REMARK SMILES O=C([O-])CCCCCCCC(=O)[O-]
REMARK SMILES IDX 7 1 6 2 5 3 4 4 2 5 1 6 3 7 8 8 9 9 10 10 11 11 12 12 13 13
REMARK H PARENT
REMARK Flexibility Score: inf
ROOT
ATOM      1  C   UNL     1       7.333   5.165  -7.351  1.00  0.00     0.000 C 
ENDROOT
BRANCH   1   2
ATOM      2  C   UNL     1       6.472   5.011  -8.617  1.00  0.00     0.000 C 
BRANCH   2   3
ATOM      3  C   UNL     1       5.996   3.569  -8.843  1.00  0.00     0.006 C 
BRANCH   3   4
ATOM      4  C   UNL     1       7.165   2.584  -8.752  1.00  0.00     0.053 C 
BRANCH   4   5
ATOM      5  C   UNL     1       6.701   1.267  -8.217  1.00  0.00     0.041 C 
ATOM      6  O   UNL     1       6.813   1.007  -6.991  1.00  0.00    -0.550 OA
ATOM      7  O   UNL     1       6.191   0.306  -9.081  1.00  0.00    -0.550 OA
ENDBRANCH   4   5
ENDBRANCH   3   4
ENDBRANCH   2   3
ENDBRANCH   1   2
BRANCH   1   8
ATOM      8  C   UNL     1       6.543   5.243  -6.028  1.00  0.00     0.000 C 
BRANCH   8   9
ATOM      9  C   UNL     1       6.547   3.950  -5.187  1.00  0.00     0.006 C 
BRANCH   9  10
ATOM     10  C   UNL     1       7.758   3.805  -4.252  1.00  0.00     0.053 C 
BRANCH  10  11
ATOM     11  C   UNL     1       8.700   2.738  -4.718  1.00  0.00     0.041 C 
ATOM     12  O   UNL     1       9.504   2.970  -5.659  1.00  0.00    -0.550 OA
ATOM     13  O   UNL     1       8.714   1.499  -4.090  1.00  0.00    -0.550 OA
ENDBRANCH  10  11
ENDBRANCH   9  10
ENDBRANCH   8   9
ENDBRANCH   1   8
TORSDOF 8
ENDMDL
MODEL 2
REMARK VINA RESULT:    -4.159      1.832      3.939
REMARK INTER + INTRA:          -6.793
REMARK INTER:                  -6.142
REMARK INTRA:                  -0.651
REMARK UNBOUND:                -0.688
REMARK SMILES O=C([O-])CCCCCCCC(=O)[O-]
REMARK SMILES IDX 7 1 6 2 5 3 4 4 2 5 1 6 3 7 8 8 9 9 10 10 11 11 12 12 13 13
REMARK H PARENT
REMARK Flexibility Score: inf
ROOT
ATOM      1  C   UNL     1       6.838   4.229  -5.068  1.00  0.00     0.000 C 
ENDROOT
BRANCH   1   2
ATOM      2  C   UNL     1       7.856   3.498  -4.174  1.00  0.00     0.000 C 
BRANCH   2   3
ATOM      3  C   UNL     1       9.036   2.916  -4.966  1.00  0.00     0.006 C 
BRANCH   3   4
ATOM      4  C   UNL     1       9.516   1.600  -4.347  1.00  0.00     0.053 C 
BRANCH   4   5
ATOM      5  C   UNL     1       9.066   0.437  -5.174  1.00  0.00     0.041 C 
ATOM      6  O   UNL     1       9.224  -0.738  -4.751  1.00  0.00    -0.550 OA
ATOM      7  O   UNL     1       8.518   0.649  -6.432  1.00  0.00    -0.550 OA
ENDBRANCH   4   5
ENDBRANCH   3   4
ENDBRANCH   2   3
ENDBRANCH   1   2
BRANCH   1   8
ATOM      8  C   UNL     1       6.123   3.339  -6.106  1.00  0.00     0.000 C 
BRANCH   8   9
ATOM      9  C   UNL     1       6.043   3.927  -7.529  1.00  0.00     0.006 C 
BRANCH   9  10
ATOM     10  C   UNL     1       7.070   3.348  -8.514  1.00  0.00     0.053 C 
BRANCH  10  11
ATOM     11  C   UNL     1       8.442   3.902  -8.284  1.00  0.00     0.041 C 
ATOM     12  O   UNL     1       9.456   3.178  -8.465  1.00  0.00    -0.550 OA
ATOM     13  O   UNL     1       8.603   5.227  -7.900  1.00  0.00    -0.550 OA
ENDBRANCH  10  11
ENDBRANCH   9  10
ENDBRANCH   8   9
ENDBRANCH   1   8
TORSDOF 8
ENDMDL
MODEL 3
REMARK VINA RESULT:    -4.086      1.705      2.551
REMARK INTER + INTRA:          -6.686
REMARK INTER:                  -6.211
REMARK INTRA:                  -0.474
REMARK UNBOUND:                -0.688
REMARK SMILES O=C([O-])CCCCCCCC(=O)[O-]
REMARK SMILES IDX 7 1 6 2 5 3 4 4 2 5 1 6 3 7 8 8 9 9 10 10 11 11 12 12 13 13
REMARK H PARENT
REMARK Flexibility Score: inf
ROOT
ATOM      1  C   UNL     1       7.219   4.535  -4.419  1.00  0.00     0.000 C 
ENDROOT
BRANCH   1   2
ATOM      2  C   UNL     1       6.743   4.631  -5.880  1.00  0.00     0.000 C 
BRANCH   2   3
ATOM      3  C   UNL     1       5.708   3.557  -6.242  1.00  0.00     0.006 C 
BRANCH   3   4
ATOM      4  C   UNL     1       5.745   3.243  -7.741  1.00  0.00     0.053 C 
BRANCH   4   5
ATOM      5  C   UNL     1       6.830   2.258  -8.044  1.00  0.00     0.041 C 
ATOM      6  O   UNL     1       7.964   2.660  -8.413  1.00  0.00    -0.550 OA
ATOM      7  O   UNL     1       6.574   0.895  -7.966  1.00  0.00    -0.550 OA
ENDBRANCH   4   5
ENDBRANCH   3   4
ENDBRANCH   2   3
ENDBRANCH   1   2
BRANCH   1   8
ATOM      8  C   UNL     1       7.927   3.216  -4.048  1.00  0.00     0.000 C 
BRANCH   8   9
ATOM      9  C   UNL     1       8.921   2.687  -5.102  1.00  0.00     0.006 C 
BRANCH   9  10
ATOM     10  C   UNL     1       9.818   1.542  -4.610  1.00  0.00     0.053 C 
BRANCH  10  11
ATOM     11  C   UNL     1       9.583   0.276  -5.376  1.00  0.00     0.041 C 
ATOM     12  O   UNL     1       9.656   0.274  -6.633  1.00  0.00    -0.550 OA
ATOM     13  O   UNL     1       9.316  -0.908  -4.700  1.00  0.00    -0.550 OA
ENDBRANCH  10  11
ENDBRANCH   9  10
ENDBRANCH   8   9
ENDBRANCH   1   8
TORSDOF 8
ENDMDL
MODEL 4
REMARK VINA RESULT:    -4.066      2.216      3.881
REMARK INTER + INTRA:          -6.656
REMARK INTER:                  -6.092
REMARK INTRA:                  -0.565
REMARK UNBOUND:                -0.688
REMARK SMILES O=C([O-])CCCCCCCC(=O)[O-]
REMARK SMILES IDX 7 1 6 2 5 3 4 4 2 5 1 6 3 7 8 8 9 9 10 10 11 11 12 12 13 13
REMARK H PARENT
REMARK Flexibility Score: inf
ROOT
ATOM      1  C   UNL     1       6.888   1.546  -7.876  1.00  0.00     0.000 C 
ENDROOT
BRANCH   1   2
ATOM      2  C   UNL     1       6.145   2.706  -8.562  1.00  0.00     0.000 C 
BRANCH   2   3
ATOM      3  C   UNL     1       6.099   3.977  -7.702  1.00  0.00     0.006 C 
BRANCH   3   4
ATOM      4  C   UNL     1       6.109   3.631  -6.210  1.00  0.00     0.053 C 
BRANCH   4   5
ATOM      5  C   UNL     1       6.809   4.698  -5.429  1.00  0.00     0.041 C 
ATOM      6  O   UNL     1       6.992   5.836  -5.936  1.00  0.00    -0.550 OA
ATOM      7  O   UNL     1       7.302   4.422  -4.160  1.00  0.00    -0.550 OA
ENDBRANCH   4   5
ENDBRANCH   3   4
ENDBRANCH   2   3
ENDBRANCH   1   2
BRANCH   1   8
ATOM      8  C   UNL     1       8.391   1.444  -8.209  1.00  0.00     0.000 C 
BRANCH   8   9
ATOM      9  C   UNL     1       9.343   1.872  -7.074  1.00  0.00     0.006 C 
BRANCH   9  10
ATOM     10  C   UNL     1      10.051   0.705  -6.367  1.00  0.00     0.053 C 
BRANCH  10  11
ATOM     11  C   UNL     1       9.337   0.292  -5.117  1.00  0.00     0.041 C 
ATOM     12  O   UNL     1       9.358  -0.911  -4.743  1.00  0.00    -0.550 OA
ATOM     13  O   UNL     1       8.677   1.240  -4.346  1.00  0.00    -0.550 OA
ENDBRANCH  10  11
ENDBRANCH   9  10
ENDBRANCH   8   9
ENDBRANCH   1   8
TORSDOF 8
ENDMDL
MODEL 5
REMARK VINA RESULT:    -4.049     13.922     15.160
REMARK INTER + INTRA:          -6.631
REMARK INTER:                  -6.356
REMARK INTRA:                  -0.274
REMARK UNBOUND:                -0.688
REMARK SMILES O=C([O-])CCCCCCCC(=O)[O-]
REMARK SMILES IDX 7 1 6 2 5 3 4 4 2 5 1 6 3 7 8 8 9 9 10 10 11 11 12 12 13 13
REMARK H PARENT
REMARK Flexibility Score: inf
ROOT
ATOM      1  C   UNL     1      -4.685  12.212  -6.466  1.00  0.00     0.000 C 
ENDROOT
BRANCH   1   2
ATOM      2  C   UNL     1      -3.412  12.896  -5.937  1.00  0.00     0.000 C 
BRANCH   2   3
ATOM      3  C   UNL     1      -2.259  12.877  -6.950  1.00  0.00     0.006 C 
BRANCH   3   4
ATOM      4  C   UNL     1      -2.527  11.866  -8.068  1.00  0.00     0.053 C 
BRANCH   4   5
ATOM      5  C   UNL     1      -1.270  11.573  -8.824  1.00  0.00     0.041 C 
ATOM      6  O   UNL     1      -1.263  10.695  -9.726  1.00  0.00    -0.550 OA
ATOM      7  O   UNL     1      -0.093  12.235  -8.499  1.00  0.00    -0.550 OA
ENDBRANCH   4   5
ENDBRANCH   3   4
ENDBRANCH   2   3
ENDBRANCH   1   2
BRANCH   1   8
ATOM      8  C   UNL     1      -5.517  11.467  -5.402  1.00  0.00     0.000 C 
BRANCH   8   9
ATOM      9  C   UNL     1      -7.036  11.725  -5.460  1.00  0.00     0.006 C 
BRANCH   9  10
ATOM     10  C   UNL     1      -7.807  10.768  -6.383  1.00  0.00     0.053 C 
BRANCH  10  11
ATOM     11  C   UNL     1      -8.211   9.511  -5.676  1.00  0.00     0.041 C 
ATOM     12  O   UNL     1      -8.356   9.506  -4.425  1.00  0.00    -0.550 OA
ATOM     13  O   UNL     1      -8.459   8.353  -6.401  1.00  0.00    -0.550 OA
ENDBRANCH  10  11
ENDBRANCH   9  10
ENDBRANCH   8   9
ENDBRANCH   1   8
TORSDOF 8
ENDMDL
MODEL 6
REMARK VINA RESULT:    -4.035     13.990     15.053
REMARK INTER + INTRA:          -6.610
REMARK INTER:                  -6.295
REMARK INTRA:                  -0.316
REMARK UNBOUND:                -0.688
REMARK SMILES O=C([O-])CCCCCCCC(=O)[O-]
REMARK SMILES IDX 7 1 6 2 5 3 4 4 2 5 1 6 3 7 8 8 9 9 10 10 11 11 12 12 13 13
REMARK H PARENT
REMARK Flexibility Score: inf
ROOT
ATOM      1  C   UNL     1      -4.762  12.861  -5.330  1.00  0.00     0.000 C 
ENDROOT
BRANCH   1   2
ATOM      2  C   UNL     1      -6.150  12.555  -5.921  1.00  0.00     0.000 C 
BRANCH   2   3
ATOM      3  C   UNL     1      -6.656  11.152  -5.562  1.00  0.00     0.006 C 
BRANCH   3   4
ATOM      4  C   UNL     1      -7.861  10.764  -6.425  1.00  0.00     0.053 C 
BRANCH   4   5
ATOM      5  C   UNL     1      -8.476   9.495  -5.928  1.00  0.00     0.041 C 
ATOM      6  O   UNL     1      -8.664   9.323  -4.695  1.00  0.00    -0.550 OA
ATOM      7  O   UNL     1      -8.797   8.481  -6.821  1.00  0.00    -0.550 OA
ENDBRANCH   4   5
ENDBRANCH   3   4
ENDBRANCH   2   3
ENDBRANCH   1   2
BRANCH   1   8
ATOM      8  C   UNL     1      -3.619  11.965  -5.850  1.00  0.00     0.000 C 
BRANCH   8   9
ATOM      9  C   UNL     1      -2.804  12.555  -7.019  1.00  0.00     0.006 C 
BRANCH   9  10
ATOM     10  C   UNL     1      -2.852  11.723  -8.310  1.00  0.00     0.053 C 
BRANCH  10  11
ATOM     11  C   UNL     1      -1.539  11.064  -8.601  1.00  0.00     0.041 C 
ATOM     12  O   UNL     1      -0.503  11.761  -8.767  1.00  0.00    -0.550 OA
ATOM     13  O   UNL     1      -1.452   9.679  -8.656  1.00  0.00    -0.550 OA
ENDBRANCH  10  11
ENDBRANCH   9  10
ENDBRANCH   8   9
ENDBRANCH   1   8
TORSDOF 8
ENDMDL
MODEL 7
REMARK VINA RESULT:    -3.993      2.088      3.410
REMARK INTER + INTRA:          -6.549
REMARK INTER:                  -6.017
REMARK INTRA:                  -0.532
REMARK UNBOUND:                -0.688
REMARK SMILES O=C([O-])CCCCCCCC(=O)[O-]
REMARK SMILES IDX 7 1 6 2 5 3 4 4 2 5 1 6 3 7 8 8 9 9 10 10 11 11 12 12 13 13
REMARK H PARENT
REMARK Flexibility Score: inf
ROOT
ATOM      1  C   UNL     1       6.865   4.565  -5.297  1.00  0.00     0.000 C 
ENDROOT
BRANCH   1   2
ATOM      2  C   UNL     1       5.877   3.876  -6.255  1.00  0.00     0.000 C 
BRANCH   2   3
ATOM      3  C   UNL     1       6.335   3.922  -7.720  1.00  0.00     0.006 C 
BRANCH   3   4
ATOM      4  C   UNL     1       6.448   5.367  -8.215  1.00  0.00     0.053 C 
BRANCH   4   5
ATOM      5  C   UNL     1       7.865   5.691  -8.569  1.00  0.00     0.041 C 
ATOM      6  O   UNL     1       8.123   6.685  -9.297  1.00  0.00    -0.550 OA
ATOM      7  O   UNL     1       8.896   4.867  -8.137  1.00  0.00    -0.550 OA
ENDBRANCH   4   5
ENDBRANCH   3   4
ENDBRANCH   2   3
ENDBRANCH   1   2
BRANCH   1   8
ATOM      8  C   UNL     1       7.477   3.647  -4.218  1.00  0.00     0.000 C 
BRANCH   8   9
ATOM      9  C   UNL     1       8.859   3.059  -4.567  1.00  0.00     0.006 C 
BRANCH   9  10
ATOM     10  C   UNL     1       8.852   2.081  -5.752  1.00  0.00     0.053 C 
BRANCH  10  11
ATOM     11  C   UNL     1       8.154   0.799  -5.417  1.00  0.00     0.041 C 
ATOM     12  O   UNL     1       6.936   0.647  -5.701  1.00  0.00    -0.550 OA
ATOM     13  O   UNL     1       8.856  -0.241  -4.821  1.00  0.00    -0.550 OA
ENDBRANCH  10  11
ENDBRANCH   9  10
ENDBRANCH   8   9
ENDBRANCH   1   8
TORSDOF 8
ENDMDL
MODEL 8
REMARK VINA RESULT:    -3.978      2.480      4.372
REMARK INTER + INTRA:          -6.527
REMARK INTER:                  -5.894
REMARK INTRA:                  -0.633
REMARK UNBOUND:                -0.688
REMARK SMILES O=C([O-])CCCCCCCC(=O)[O-]
REMARK SMILES IDX 7 1 6 2 5 3 4 4 2 5 1 6 3 7 8 8 9 9 10 10 11 11 12 12 13 13
REMARK H PARENT
REMARK Flexibility Score: inf
ROOT
ATOM      1  C   UNL     1       5.884   3.802  -5.714  1.00  0.00     0.000 C 
ENDROOT
BRANCH   1   2
ATOM      2  C   UNL     1       7.265   4.144  -5.124  1.00  0.00     0.000 C 
BRANCH   2   3
ATOM      3  C   UNL     1       7.870   2.989  -4.313  1.00  0.00     0.006 C 
BRANCH   3   4
ATOM      4  C   UNL     1       8.794   2.132  -5.184  1.00  0.00     0.053 C 
BRANCH   4   5
ATOM      5  C   UNL     1       8.267   0.736  -5.293  1.00  0.00     0.041 C 
ATOM      6  O   UNL     1       7.071   0.536  -5.633  1.00  0.00    -0.550 OA
ATOM      7  O   UNL     1       9.081  -0.342  -4.970  1.00  0.00    -0.550 OA
ENDBRANCH   4   5
ENDBRANCH   3   4
ENDBRANCH   2   3
ENDBRANCH   1   2
BRANCH   1   8
ATOM      8  C   UNL     1       5.896   3.367  -7.193  1.00  0.00     0.000 C 
BRANCH   8   9
ATOM      9  C   UNL     1       6.962   4.053  -8.070  1.00  0.00     0.006 C 
BRANCH   9  10
ATOM     10  C   UNL     1       6.434   5.227  -8.909  1.00  0.00     0.053 C 
BRANCH  10  11
ATOM     11  C   UNL     1       7.046   6.531  -8.496  1.00  0.00     0.041 C 
ATOM     12  O   UNL     1       6.677   7.605  -9.041  1.00  0.00    -0.550 OA
ATOM     13  O   UNL     1       7.999   6.564  -7.486  1.00  0.00    -0.550 OA
ENDBRANCH  10  11
ENDBRANCH   9  10
ENDBRANCH   8   9
ENDBRANCH   1   8
TORSDOF 8
ENDMDL
MODEL 9
REMARK VINA RESULT:    -3.870      1.463      4.137
REMARK INTER + INTRA:          -6.368
REMARK INTER:                  -5.803
REMARK INTRA:                  -0.565
REMARK UNBOUND:                -0.688
REMARK SMILES O=C([O-])CCCCCCCC(=O)[O-]
REMARK SMILES IDX 7 1 6 2 5 3 4 4 2 5 1 6 3 7 8 8 9 9 10 10 11 11 12 12 13 13
REMARK H PARENT
REMARK Flexibility Score: inf
ROOT
ATOM      1  C   UNL     1       6.786   4.527  -5.746  1.00  0.00     0.000 C 
ENDROOT
BRANCH   1   2
ATOM      2  C   UNL     1       7.165   3.110  -5.281  1.00  0.00     0.000 C 
BRANCH   2   3
ATOM      3  C   UNL     1       8.637   2.767  -5.549  1.00  0.00     0.006 C 
BRANCH   3   4
ATOM      4  C   UNL     1       9.132   1.682  -4.587  1.00  0.00     0.053 C 
BRANCH   4   5
ATOM      5  C   UNL     1       9.324   0.387  -5.311  1.00  0.00     0.041 C 
ATOM      6  O   UNL     1       9.319   0.359  -6.569  1.00  0.00    -0.550 OA
ATOM      7  O   UNL     1       9.458  -0.796  -4.596  1.00  0.00    -0.550 OA
ENDBRANCH   4   5
ENDBRANCH   3   4
ENDBRANCH   2   3
ENDBRANCH   1   2
BRANCH   1   8
ATOM      8  C   UNL     1       6.709   4.714  -7.275  1.00  0.00     0.000 C 
BRANCH   8   9
ATOM      9  C   UNL     1       6.087   3.534  -8.049  1.00  0.00     0.006 C 
BRANCH   9  10
ATOM     10  C   UNL     1       7.057   2.821  -9.004  1.00  0.00     0.053 C 
BRANCH  10  11
ATOM     11  C   UNL     1       6.853   1.337  -9.003  1.00  0.00     0.041 C 
ATOM     12  O   UNL     1       7.088   0.665 -10.042  1.00  0.00    -0.550 OA
ATOM     13  O   UNL     1       6.437   0.692  -7.846  1.00  0.00    -0.550 OA
ENDBRANCH  10  11
ENDBRANCH   9  10
ENDBRANCH   8   9
ENDBRANCH   1   8
TORSDOF 8
ENDMDL
