MODEL 1
REMARK VINA RESULT:    -5.008      0.000      0.000
REMARK INTER + INTRA:          -5.602
REMARK INTER:                  -5.447
REMARK INTRA:                  -0.155
REMARK UNBOUND:                -0.155
REMARK SMILES O=C([O-])c1ccccc1O
REMARK SMILES IDX 4 1 9 2 5 3 8 4 6 5 7 6 2 7 1 8 3 9 10 10
REMARK H PARENT 10 11
REMARK Flexibility Score: inf
ROOT
ATOM      1  C   UNL     1      10.927  -8.116  10.041  1.00  0.00     0.039 A 
ATOM      2  C   UNL     1       9.622  -8.482  10.447  1.00  0.00     0.124 A 
ATOM      3  C   UNL     1      12.025  -8.820  10.573  1.00  0.00     0.014 A 
ATOM      4  C   UNL     1       9.442  -9.531  11.362  1.00  0.00     0.047 A 
ATOM      5  C   UNL     1      11.832  -9.861  11.484  1.00  0.00     0.001 A 
ATOM      6  C   UNL     1      10.542 -10.216  11.878  1.00  0.00     0.004 A 
ENDROOT
BRANCH   1   7
ATOM      7  C   UNL     1      11.170  -7.014   9.075  1.00  0.00     0.075 C 
ATOM      8  O   UNL     1      11.554  -7.255   7.900  1.00  0.00    -0.545 OA
ATOM      9  O   UNL     1      10.978  -5.691   9.457  1.00  0.00    -0.545 OA
ENDBRANCH   1   7
BRANCH   2  10
ATOM     10  O   UNL     1       8.504  -7.814   9.946  1.00  0.00    -0.507 OA
ATOM     11  H   UNL     1       8.322  -7.749   8.952  1.00  0.00     0.293 HD
ENDBRANCH   2  10
TORSDOF 2
ENDMDL
MODEL 2
REMARK VINA RESULT:    -4.825     14.368     15.298
REMARK INTER + INTRA:          -5.403
REMARK INTER:                  -5.192
REMARK INTRA:                  -0.210
REMARK UNBOUND:                -0.155
REMARK SMILES O=C([O-])c1ccccc1O
REMARK SMILES IDX 4 1 9 2 5 3 8 4 6 5 7 6 2 7 1 8 3 9 10 10
REMARK H PARENT 10 11
REMARK Flexibility Score: inf
ROOT
ATOM      1  C   UNL     1       1.972  -7.190  22.830  1.00  0.00     0.039 A 
ATOM      2  C   UNL     1       1.753  -7.973  21.672  1.00  0.00     0.124 A 
ATOM      3  C   UNL     1       2.220  -7.842  24.053  1.00  0.00     0.014 A 
ATOM      4  C   UNL     1       1.787  -9.374  21.758  1.00  0.00     0.047 A 
ATOM      5  C   UNL     1       2.251  -9.237  24.125  1.00  0.00     0.001 A 
ATOM      6  C   UNL     1       2.035 -10.001  22.979  1.00  0.00     0.004 A 
ENDROOT
BRANCH   1   7
ATOM      7  C   UNL     1       1.946  -5.705  22.793  1.00  0.00     0.075 C 
ATOM      8  O   UNL     1       1.319  -5.090  21.890  1.00  0.00    -0.545 OA
ATOM      9  O   UNL     1       2.619  -4.967  23.760  1.00  0.00    -0.545 OA
ENDBRANCH   1   7
BRANCH   2  10
ATOM     10  O   UNL     1       1.503  -7.370  20.439  1.00  0.00    -0.507 OA
ATOM     11  H   UNL     1       1.211  -7.908  19.632  1.00  0.00     0.293 HD
ENDBRANCH   2  10
TORSDOF 2
ENDMDL
MODEL 3
REMARK VINA RESULT:    -4.734      2.922      3.800
REMARK INTER + INTRA:          -5.305
REMARK INTER:                  -5.054
REMARK INTRA:                  -0.251
REMARK UNBOUND:                -0.155
REMARK SMILES O=C([O-])c1ccccc1O
REMARK SMILES IDX 4 1 9 2 5 3 8 4 6 5 7 6 2 7 1 8 3 9 10 10
REMARK H PARENT 10 11
REMARK Flexibility Score: inf
ROOT
ATOM      1  C   UNL     1      11.229  -9.608  11.717  1.00  0.00     0.039 A 
ATOM      2  C   UNL     1       9.842  -9.642  11.439  1.00  0.00     0.124 A 
ATOM      3  C   UNL     1      12.071  -8.855  10.875  1.00  0.00     0.014 A 
ATOM      4  C   UNL     1       9.330  -8.932  10.342  1.00  0.00     0.047 A 
ATOM      5  C   UNL     1      11.549  -8.153   9.786  1.00  0.00     0.001 A 
ATOM      6  C   UNL     1      10.180  -8.191   9.520  1.00  0.00     0.004 A 
ENDROOT
BRANCH   1   7
ATOM      7  C   UNL     1      11.820 -10.342  12.865  1.00  0.00     0.075 C 
ATOM      8  O   UNL     1      12.794 -11.124  12.703  1.00  0.00    -0.545 OA
ATOM      9  O   UNL     1      11.303 -10.175  14.145  1.00  0.00    -0.545 OA
ENDBRANCH   1   7
BRANCH   2  10
ATOM     10  O   UNL     1       8.970 -10.374  12.245  1.00  0.00    -0.507 OA
ATOM     11  H   UNL     1       9.104 -11.363  12.415  1.00  0.00     0.293 HD
ENDBRANCH   2  10
TORSDOF 2
ENDMDL
MODEL 4
REMARK VINA RESULT:    -4.609     12.598     13.960
REMARK INTER + INTRA:          -5.168
REMARK INTER:                  -4.923
REMARK INTRA:                  -0.246
REMARK UNBOUND:                -0.155
REMARK SMILES O=C([O-])c1ccccc1O
REMARK SMILES IDX 4 1 9 2 5 3 8 4 6 5 7 6 2 7 1 8 3 9 10 10
REMARK H PARENT 10 11
REMARK Flexibility Score: inf
ROOT
ATOM      1  C   UNL     1       3.354  -8.480  21.616  1.00  0.00     0.039 A 
ATOM      2  C   UNL     1       2.223  -7.639  21.739  1.00  0.00     0.124 A 
ATOM      3  C   UNL     1       4.106  -8.778  22.768  1.00  0.00     0.014 A 
ATOM      4  C   UNL     1       1.870  -7.120  22.995  1.00  0.00     0.047 A 
ATOM      5  C   UNL     1       3.746  -8.255  24.012  1.00  0.00     0.001 A 
ATOM      6  C   UNL     1       2.629  -7.427  24.125  1.00  0.00     0.004 A 
ENDROOT
BRANCH   1   7
ATOM      7  C   UNL     1       3.768  -9.055  20.310  1.00  0.00     0.075 C 
ATOM      8  O   UNL     1       2.964  -9.729  19.613  1.00  0.00    -0.545 OA
ATOM      9  O   UNL     1       5.060  -8.856  19.835  1.00  0.00    -0.545 OA
ENDBRANCH   1   7
BRANCH   2  10
ATOM     10  O   UNL     1       1.446  -7.317  20.625  1.00  0.00    -0.507 OA
ATOM     11  H   UNL     1       0.816  -6.524  20.626  1.00  0.00     0.293 HD
ENDBRANCH   2  10
TORSDOF 2
ENDMDL
MODEL 5
REMARK VINA RESULT:    -4.400     12.977     14.483
REMARK INTER + INTRA:          -4.941
REMARK INTER:                  -4.705
REMARK INTRA:                  -0.236
REMARK UNBOUND:                -0.155
REMARK SMILES O=C([O-])c1ccccc1O
REMARK SMILES IDX 4 1 9 2 5 3 8 4 6 5 7 6 2 7 1 8 3 9 10 10
REMARK H PARENT 10 11
REMARK Flexibility Score: inf
ROOT
ATOM      1  C   UNL     1       2.210  -9.202  21.475  1.00  0.00     0.039 A 
ATOM      2  C   UNL     1       1.840  -7.859  21.722  1.00  0.00     0.124 A 
ATOM      3  C   UNL     1       2.510 -10.035  22.571  1.00  0.00     0.014 A 
ATOM      4  C   UNL     1       1.776  -7.381  23.040  1.00  0.00     0.047 A 
ATOM      5  C   UNL     1       2.444  -9.547  23.878  1.00  0.00     0.001 A 
ATOM      6  C   UNL     1       2.077  -8.221  24.112  1.00  0.00     0.004 A 
ENDROOT
BRANCH   1   7
ATOM      7  C   UNL     1       2.292  -9.756  20.100  1.00  0.00     0.075 C 
ATOM      8  O   UNL     1       3.070  -9.256  19.244  1.00  0.00    -0.545 OA
ATOM      9  O   UNL     1       1.506 -10.842  19.733  1.00  0.00    -0.545 OA
ENDBRANCH   1   7
BRANCH   2  10
ATOM     10  O   UNL     1       1.534  -6.997  20.668  1.00  0.00    -0.507 OA
ATOM     11  H   UNL     1       1.001  -7.306  19.864  1.00  0.00     0.293 HD
ENDBRANCH   2  10
TORSDOF 2
ENDMDL
MODEL 6
REMARK VINA RESULT:    -4.388     14.573     15.477
REMARK INTER + INTRA:          -4.928
REMARK INTER:                  -4.678
REMARK INTRA:                  -0.250
REMARK UNBOUND:                -0.155
REMARK SMILES O=C([O-])c1ccccc1O
REMARK SMILES IDX 4 1 9 2 5 3 8 4 6 5 7 6 2 7 1 8 3 9 10 10
REMARK H PARENT 10 11
REMARK Flexibility Score: inf
ROOT
ATOM      1  C   UNL     1       1.779  -8.645  22.820  1.00  0.00     0.039 A 
ATOM      2  C   UNL     1       1.273  -8.523  21.504  1.00  0.00     0.124 A 
ATOM      3  C   UNL     1       1.506  -9.821  23.546  1.00  0.00     0.014 A 
ATOM      4  C   UNL     1       0.516  -9.566  20.947  1.00  0.00     0.047 A 
ATOM      5  C   UNL     1       0.751 -10.850  22.980  1.00  0.00     0.001 A 
ATOM      6  C   UNL     1       0.257 -10.723  21.682  1.00  0.00     0.004 A 
ENDROOT
BRANCH   1   7
ATOM      7  C   UNL     1       2.585  -7.571  23.455  1.00  0.00     0.075 C 
ATOM      8  O   UNL     1       2.220  -6.367  23.400  1.00  0.00    -0.545 OA
ATOM      9  O   UNL     1       3.763  -7.882  24.125  1.00  0.00    -0.545 OA
ENDBRANCH   1   7
BRANCH   2  10
ATOM     10  O   UNL     1       1.517  -7.377  20.747  1.00  0.00    -0.507 OA
ATOM     11  H   UNL     1       1.919  -7.427  19.819  1.00  0.00     0.293 HD
ENDBRANCH   2  10
TORSDOF 2
ENDMDL
MODEL 7
REMARK VINA RESULT:    -4.346     12.777     14.396
REMARK INTER + INTRA:          -4.883
REMARK INTER:                  -4.655
REMARK INTRA:                  -0.228
REMARK UNBOUND:                -0.155
REMARK SMILES O=C([O-])c1ccccc1O
REMARK SMILES IDX 4 1 9 2 5 3 8 4 6 5 7 6 2 7 1 8 3 9 10 10
REMARK H PARENT 10 11
REMARK Flexibility Score: inf
ROOT
ATOM      1  C   UNL     1       1.860  -8.718  21.577  1.00  0.00     0.039 A 
ATOM      2  C   UNL     1       2.975  -8.917  20.729  1.00  0.00     0.124 A 
ATOM      3  C   UNL     1       0.716  -9.519  21.392  1.00  0.00     0.014 A 
ATOM      4  C   UNL     1       2.927  -9.900  19.729  1.00  0.00     0.047 A 
ATOM      5  C   UNL     1       0.681 -10.493  20.392  1.00  0.00     0.001 A 
ATOM      6  C   UNL     1       1.785 -10.684  19.562  1.00  0.00     0.004 A 
ENDROOT
BRANCH   1   7
ATOM      7  C   UNL     1       1.860  -7.692  22.651  1.00  0.00     0.075 C 
ATOM      8  O   UNL     1       1.709  -8.016  23.858  1.00  0.00    -0.545 OA
ATOM      9  O   UNL     1       2.028  -6.348  22.336  1.00  0.00    -0.545 OA
ENDBRANCH   1   7
BRANCH   2  10
ATOM     10  O   UNL     1       4.130  -8.148  20.875  1.00  0.00    -0.507 OA
ATOM     11  H   UNL     1       4.178  -7.377  21.530  1.00  0.00     0.293 HD
ENDBRANCH   2  10
TORSDOF 2
ENDMDL
MODEL 8
REMARK VINA RESULT:    -4.093     13.329     14.842
REMARK INTER + INTRA:          -4.607
REMARK INTER:                  -4.352
REMARK INTRA:                  -0.255
REMARK UNBOUND:                -0.155
REMARK SMILES O=C([O-])c1ccccc1O
REMARK SMILES IDX 4 1 9 2 5 3 8 4 6 5 7 6 2 7 1 8 3 9 10 10
REMARK H PARENT 10 11
REMARK Flexibility Score: inf
ROOT
ATOM      1  C   UNL     1       2.192  -8.946  21.687  1.00  0.00     0.039 A 
ATOM      2  C   UNL     1       2.350  -9.573  22.945  1.00  0.00     0.124 A 
ATOM      3  C   UNL     1       2.014  -7.549  21.642  1.00  0.00     0.014 A 
ATOM      4  C   UNL     1       2.329  -8.802  24.119  1.00  0.00     0.047 A 
ATOM      5  C   UNL     1       1.994  -6.794  22.817  1.00  0.00     0.001 A 
ATOM      6  C   UNL     1       2.152  -7.420  24.054  1.00  0.00     0.004 A 
ENDROOT
BRANCH   1   7
ATOM      7  C   UNL     1       2.207  -9.716  20.417  1.00  0.00     0.075 C 
ATOM      8  O   UNL     1       2.873  -9.318  19.425  1.00  0.00    -0.545 OA
ATOM      9  O   UNL     1       1.480 -10.896  20.303  1.00  0.00    -0.545 OA
ENDBRANCH   1   7
BRANCH   2  10
ATOM     10  O   UNL     1       2.530 -10.953  23.039  1.00  0.00    -0.507 OA
ATOM     11  H   UNL     1       3.130 -11.366  23.742  1.00  0.00     0.293 HD
ENDBRANCH   2  10
TORSDOF 2
ENDMDL
MODEL 9
REMARK VINA RESULT:    -4.056     13.082     14.381
REMARK INTER + INTRA:          -4.566
REMARK INTER:                  -4.337
REMARK INTRA:                  -0.229
REMARK UNBOUND:                -0.155
REMARK SMILES O=C([O-])c1ccccc1O
REMARK SMILES IDX 4 1 9 2 5 3 8 4 6 5 7 6 2 7 1 8 3 9 10 10
REMARK H PARENT 10 11
REMARK Flexibility Score: inf
ROOT
ATOM      1  C   UNL     1       1.975  -8.728  21.396  1.00  0.00     0.039 A 
ATOM      2  C   UNL     1       0.915  -9.611  21.082  1.00  0.00     0.124 A 
ATOM      3  C   UNL     1       3.169  -8.810  20.654  1.00  0.00     0.014 A 
ATOM      4  C   UNL     1       1.067 -10.546  20.046  1.00  0.00     0.047 A 
ATOM      5  C   UNL     1       3.308  -9.746  19.627  1.00  0.00     0.001 A 
ATOM      6  C   UNL     1       2.258 -10.612  19.323  1.00  0.00     0.004 A 
ENDROOT
BRANCH   1   7
ATOM      7  C   UNL     1       1.864  -7.721  22.483  1.00  0.00     0.075 C 
ATOM      8  O   UNL     1       1.682  -8.073  23.678  1.00  0.00    -0.545 OA
ATOM      9  O   UNL     1       1.960  -6.364  22.193  1.00  0.00    -0.545 OA
ENDBRANCH   1   7
BRANCH   2  10
ATOM     10  O   UNL     1      -0.286  -9.566  21.790  1.00  0.00    -0.507 OA
ATOM     11  H   UNL     1      -0.363  -9.925  22.734  1.00  0.00     0.293 HD
ENDBRANCH   2  10
TORSDOF 2
ENDMDL
