MODEL 1
REMARK VINA RESULT:    -3.629      0.000      0.000
REMARK INTER + INTRA:          -6.812
REMARK INTER:                  -5.857
REMARK INTRA:                  -0.955
REMARK UNBOUND:                -0.955
REMARK SMILES CCCCCCCCCCCCO
REMARK SMILES IDX 7 1 6 2 5 3 4 4 3 5 2 6 1 7 8 8 9 9 10 10 11 11 12 12 13 13
REMARK H PARENT 13 14
REMARK Flexibility Score: inf
ROOT
ATOM      1  C   UNL     1     117.337 118.530 113.193  1.00  0.00     0.000 C 
ENDROOT
BRANCH   1   2
ATOM      2  C   UNL     1     116.150 119.131 112.421  1.00  0.00    -0.000 C 
BRANCH   2   3
ATOM      3  C   UNL     1     114.796 118.580 112.897  1.00  0.00    -0.000 C 
BRANCH   3   4
ATOM      4  C   UNL     1     114.830 117.062 113.152  1.00  0.00    -0.000 C 
BRANCH   4   5
ATOM      5  C   UNL     1     114.577 116.244 111.875  1.00  0.00    -0.000 C 
BRANCH   5   6
ATOM      6  C   UNL     1     114.201 114.786 112.173  1.00  0.00    -0.003 C 
ATOM      7  C   UNL     1     113.336 114.687 113.426  1.00  0.00     0.004 C 
ENDBRANCH   5   6
ENDBRANCH   4   5
ENDBRANCH   3   4
ENDBRANCH   2   3
ENDBRANCH   1   2
BRANCH   1   8
ATOM      8  C   UNL     1     118.647 118.541 112.384  1.00  0.00     0.000 C 
BRANCH   8   9
ATOM      9  C   UNL     1     119.325 117.168 112.217  1.00  0.00     0.000 C 
BRANCH   9  10
ATOM     10  C   UNL     1     118.322 116.019 112.041  1.00  0.00     0.002 C 
BRANCH  10  11
ATOM     11  C   UNL     1     118.376 115.055 113.232  1.00  0.00     0.028 C 
BRANCH  11  12
ATOM     12  C   UNL     1     118.539 113.607 112.763  1.00  0.00     0.156 C 
BRANCH  12  13
ATOM     13  O   UNL     1     118.946 112.796 113.831  1.00  0.00    -0.396 OA
ATOM     14  H   UNL     1     118.671 111.869 113.605  1.00  0.00     0.210 HD
ENDBRANCH  12  13
ENDBRANCH  11  12
ENDBRANCH  10  11
ENDBRANCH   9  10
ENDBRANCH   8   9
ENDBRANCH   1   8
TORSDOF 11
ENDMDL
MODEL 2
REMARK VINA RESULT:    -3.534      2.643      4.154
REMARK INTER + INTRA:          -6.658
REMARK INTER:                  -5.568
REMARK INTRA:                  -1.090
REMARK UNBOUND:                -0.955
REMARK SMILES CCCCCCCCCCCCO
REMARK SMILES IDX 7 1 6 2 5 3 4 4 3 5 2 6 1 7 8 8 9 9 10 10 11 11 12 12 13 13
REMARK H PARENT 13 14
REMARK Flexibility Score: inf
ROOT
ATOM      1  C   UNL     1     119.028 116.318 111.967  1.00  0.00     0.000 C 
ENDROOT
BRANCH   1   2
ATOM      2  C   UNL     1     118.391 114.958 112.299  1.00  0.00    -0.000 C 
BRANCH   2   3
ATOM      3  C   UNL     1     117.625 114.974 113.632  1.00  0.00    -0.000 C 
BRANCH   3   4
ATOM      4  C   UNL     1     116.160 114.527 113.480  1.00  0.00    -0.000 C 
BRANCH   4   5
ATOM      5  C   UNL     1     115.483 115.139 112.243  1.00  0.00    -0.000 C 
BRANCH   5   6
ATOM      6  C   UNL     1     113.997 114.768 112.138  1.00  0.00    -0.003 C 
ATOM      7  C   UNL     1     113.341 114.736 113.516  1.00  0.00     0.004 C 
ENDBRANCH   5   6
ENDBRANCH   4   5
ENDBRANCH   3   4
ENDBRANCH   2   3
ENDBRANCH   1   2
BRANCH   1   8
ATOM      8  C   UNL     1     118.906 117.334 113.117  1.00  0.00     0.000 C 
BRANCH   8   9
ATOM      9  C   UNL     1     118.374 118.722 112.711  1.00  0.00     0.000 C 
BRANCH   9  10
ATOM     10  C   UNL     1     116.959 118.673 112.118  1.00  0.00     0.002 C 
BRANCH  10  11
ATOM     11  C   UNL     1     115.900 118.628 113.226  1.00  0.00     0.028 C 
BRANCH  11  12
ATOM     12  C   UNL     1     114.715 119.538 112.894  1.00  0.00     0.156 C 
BRANCH  12  13
ATOM     13  O   UNL     1     114.353 120.292 114.019  1.00  0.00    -0.396 OA
ATOM     14  H   UNL     1     113.554 119.853 114.411  1.00  0.00     0.210 HD
ENDBRANCH  12  13
ENDBRANCH  11  12
ENDBRANCH  10  11
ENDBRANCH   9  10
ENDBRANCH   8   9
ENDBRANCH   1   8
TORSDOF 11
ENDMDL
MODEL 3
REMARK VINA RESULT:    -3.501      2.086      3.562
REMARK INTER + INTRA:          -6.605
REMARK INTER:                  -5.525
REMARK INTRA:                  -1.080
REMARK UNBOUND:                -0.955
REMARK SMILES CCCCCCCCCCCCO
REMARK SMILES IDX 7 1 6 2 5 3 4 4 3 5 2 6 1 7 8 8 9 9 10 10 11 11 12 12 13 13
REMARK H PARENT 13 14
REMARK Flexibility Score: inf
ROOT
ATOM      1  C   UNL     1     114.694 118.514 112.192  1.00  0.00     0.000 C 
ENDROOT
BRANCH   1   2
ATOM      2  C   UNL     1     114.733 117.231 113.040  1.00  0.00    -0.000 C 
BRANCH   2   3
ATOM      3  C   UNL     1     114.036 116.046 112.349  1.00  0.00    -0.000 C 
BRANCH   3   4
ATOM      4  C   UNL     1     114.873 114.754 112.402  1.00  0.00    -0.000 C 
BRANCH   4   5
ATOM      5  C   UNL     1     116.242 114.967 113.067  1.00  0.00    -0.000 C 
BRANCH   5   6
ATOM      6  C   UNL     1     117.409 114.795 112.084  1.00  0.00    -0.003 C 
ATOM      7  C   UNL     1     118.420 113.777 112.605  1.00  0.00     0.004 C 
ENDBRANCH   5   6
ENDBRANCH   4   5
ENDBRANCH   3   4
ENDBRANCH   2   3
ENDBRANCH   1   2
BRANCH   1   8
ATOM      8  C   UNL     1     116.095 119.088 111.910  1.00  0.00     0.000 C 
BRANCH   8   9
ATOM      9  C   UNL     1     117.223 118.532 112.799  1.00  0.00     0.000 C 
BRANCH   9  10
ATOM     10  C   UNL     1     118.573 118.447 112.073  1.00  0.00     0.002 C 
BRANCH  10  11
ATOM     11  C   UNL     1     119.602 117.683 112.915  1.00  0.00     0.028 C 
BRANCH  11  12
ATOM     12  C   UNL     1     119.607 118.178 114.363  1.00  0.00     0.156 C 
BRANCH  12  13
ATOM     13  O   UNL     1     120.758 118.937 114.612  1.00  0.00    -0.396 OA
ATOM     14  H   UNL     1     120.726 119.714 113.996  1.00  0.00     0.210 HD
ENDBRANCH  12  13
ENDBRANCH  11  12
ENDBRANCH  10  11
ENDBRANCH   9  10
ENDBRANCH   8   9
ENDBRANCH   1   8
TORSDOF 11
ENDMDL
MODEL 4
REMARK VINA RESULT:    -3.500      2.379      5.389
REMARK INTER + INTRA:          -6.604
REMARK INTER:                  -5.463
REMARK INTRA:                  -1.141
REMARK UNBOUND:                -0.955
REMARK SMILES CCCCCCCCCCCCO
REMARK SMILES IDX 7 1 6 2 5 3 4 4 3 5 2 6 1 7 8 8 9 9 10 10 11 11 12 12 13 13
REMARK H PARENT 13 14
REMARK Flexibility Score: inf
ROOT
ATOM      1  C   UNL     1     114.616 114.762 112.428  1.00  0.00     0.000 C 
ENDROOT
BRANCH   1   2
ATOM      2  C   UNL     1     116.009 114.416 111.875  1.00  0.00    -0.000 C 
BRANCH   2   3
ATOM      3  C   UNL     1     117.084 114.362 112.973  1.00  0.00    -0.000 C 
BRANCH   3   4
ATOM      4  C   UNL     1     118.492 114.684 112.440  1.00  0.00    -0.000 C 
BRANCH   4   5
ATOM      5  C   UNL     1     118.630 116.147 111.987  1.00  0.00    -0.000 C 
BRANCH   5   6
ATOM      6  C   UNL     1     118.249 117.144 113.091  1.00  0.00    -0.003 C 
ATOM      7  C   UNL     1     118.576 118.576 112.673  1.00  0.00     0.004 C 
ENDBRANCH   5   6
ENDBRANCH   4   5
ENDBRANCH   3   4
ENDBRANCH   2   3
ENDBRANCH   1   2
BRANCH   1   8
ATOM      8  C   UNL     1     114.162 116.187 112.062  1.00  0.00     0.000 C 
BRANCH   8   9
ATOM      9  C   UNL     1     114.573 117.283 113.063  1.00  0.00     0.000 C 
BRANCH   9  10
ATOM     10  C   UNL     1     114.656 118.677 112.426  1.00  0.00     0.002 C 
BRANCH  10  11
ATOM     11  C   UNL     1     114.932 119.750 113.487  1.00  0.00     0.028 C 
BRANCH  11  12
ATOM     12  C   UNL     1     115.191 119.118 114.856  1.00  0.00     0.156 C 
BRANCH  12  13
ATOM     13  O   UNL     1     116.278 119.745 115.481  1.00  0.00    -0.396 OA
ATOM     14  H   UNL     1     117.047 119.668 114.858  1.00  0.00     0.210 HD
ENDBRANCH  12  13
ENDBRANCH  11  12
ENDBRANCH  10  11
ENDBRANCH   9  10
ENDBRANCH   8   9
ENDBRANCH   1   8
TORSDOF 11
ENDMDL
MODEL 5
REMARK VINA RESULT:    -3.496      2.788      3.812
REMARK INTER + INTRA:          -6.596
REMARK INTER:                  -5.308
REMARK INTRA:                  -1.288
REMARK UNBOUND:                -0.955
REMARK SMILES CCCCCCCCCCCCO
REMARK SMILES IDX 7 1 6 2 5 3 4 4 3 5 2 6 1 7 8 8 9 9 10 10 11 11 12 12 13 13
REMARK H PARENT 13 14
REMARK Flexibility Score: inf
ROOT
ATOM      1  C   UNL     1     117.144 118.675 112.516  1.00  0.00     0.000 C 
ENDROOT
BRANCH   1   2
ATOM      2  C   UNL     1     116.165 117.517 112.255  1.00  0.00    -0.000 C 
BRANCH   2   3
ATOM      3  C   UNL     1     115.913 116.662 113.508  1.00  0.00    -0.000 C 
BRANCH   3   4
ATOM      4  C   UNL     1     116.391 115.208 113.338  1.00  0.00    -0.000 C 
BRANCH   4   5
ATOM      5  C   UNL     1     117.107 114.977 111.997  1.00  0.00    -0.000 C 
BRANCH   5   6
ATOM      6  C   UNL     1     118.526 114.416 112.175  1.00  0.00    -0.003 C 
ATOM      7  C   UNL     1     118.581 113.420 113.330  1.00  0.00     0.004 C 
ENDBRANCH   5   6
ENDBRANCH   4   5
ENDBRANCH   3   4
ENDBRANCH   2   3
ENDBRANCH   1   2
BRANCH   1   8
ATOM      8  C   UNL     1     118.561 118.393 111.985  1.00  0.00     0.000 C 
BRANCH   8   9
ATOM      9  C   UNL     1     119.679 118.441 113.043  1.00  0.00     0.000 C 
BRANCH   9  10
ATOM     10  C   UNL     1     119.436 117.484 114.218  1.00  0.00     0.002 C 
BRANCH  10  11
ATOM     11  C   UNL     1     119.424 118.241 115.551  1.00  0.00     0.028 C 
BRANCH  11  12
ATOM     12  C   UNL     1     120.781 118.146 116.252  1.00  0.00     0.156 C 
BRANCH  12  13
ATOM     13  O   UNL     1     121.555 119.278 115.965  1.00  0.00    -0.396 OA
ATOM     14  H   UNL     1     122.385 119.200 116.504  1.00  0.00     0.210 HD
ENDBRANCH  12  13
ENDBRANCH  11  12
ENDBRANCH  10  11
ENDBRANCH   9  10
ENDBRANCH   8   9
ENDBRANCH   1   8
TORSDOF 11
ENDMDL
MODEL 6
REMARK VINA RESULT:    -3.480      2.588      4.953
REMARK INTER + INTRA:          -6.571
REMARK INTER:                  -5.233
REMARK INTRA:                  -1.338
REMARK UNBOUND:                -0.955
REMARK SMILES CCCCCCCCCCCCO
REMARK SMILES IDX 7 1 6 2 5 3 4 4 3 5 2 6 1 7 8 8 9 9 10 10 11 11 12 12 13 13
REMARK H PARENT 13 14
REMARK Flexibility Score: inf
ROOT
ATOM      1  C   UNL     1     118.122 113.570 114.377  1.00  0.00     0.000 C 
ENDROOT
BRANCH   1   2
ATOM      2  C   UNL     1     118.361 114.783 115.292  1.00  0.00    -0.000 C 
BRANCH   2   3
ATOM      3  C   UNL     1     117.230 115.821 115.204  1.00  0.00    -0.000 C 
BRANCH   3   4
ATOM      4  C   UNL     1     117.674 117.123 114.511  1.00  0.00    -0.000 C 
BRANCH   4   5
ATOM      5  C   UNL     1     119.194 117.186 114.295  1.00  0.00    -0.000 C 
BRANCH   5   6
ATOM      6  C   UNL     1     119.608 118.311 113.337  1.00  0.00    -0.003 C 
ATOM      7  C   UNL     1     119.329 117.927 111.886  1.00  0.00     0.004 C 
ENDBRANCH   5   6
ENDBRANCH   4   5
ENDBRANCH   3   4
ENDBRANCH   2   3
ENDBRANCH   1   2
BRANCH   1   8
ATOM      8  C   UNL     1     118.874 113.672 113.037  1.00  0.00     0.000 C 
BRANCH   8   9
ATOM      9  C   UNL     1     118.062 114.275 111.875  1.00  0.00     0.000 C 
BRANCH   9  10
ATOM     10  C   UNL     1     116.592 113.831 111.875  1.00  0.00     0.002 C 
BRANCH  10  11
ATOM     11  C   UNL     1     115.653 115.041 111.925  1.00  0.00     0.028 C 
BRANCH  11  12
ATOM     12  C   UNL     1     114.346 114.697 112.644  1.00  0.00     0.156 C 
BRANCH  12  13
ATOM     13  O   UNL     1     113.248 115.118 111.881  1.00  0.00    -0.396 OA
ATOM     14  H   UNL     1     113.206 116.106 111.964  1.00  0.00     0.210 HD
ENDBRANCH  12  13
ENDBRANCH  11  12
ENDBRANCH  10  11
ENDBRANCH   9  10
ENDBRANCH   8   9
ENDBRANCH   1   8
TORSDOF 11
ENDMDL
MODEL 7
REMARK VINA RESULT:    -3.473      2.033      4.380
REMARK INTER + INTRA:          -6.560
REMARK INTER:                  -5.303
REMARK INTRA:                  -1.256
REMARK UNBOUND:                -0.955
REMARK SMILES CCCCCCCCCCCCO
REMARK SMILES IDX 7 1 6 2 5 3 4 4 3 5 2 6 1 7 8 8 9 9 10 10 11 11 12 12 13 13
REMARK H PARENT 13 14
REMARK Flexibility Score: inf
ROOT
ATOM      1  C   UNL     1     118.507 115.621 113.596  1.00  0.00     0.000 C 
ENDROOT
BRANCH   1   2
ATOM      2  C   UNL     1     118.911 116.126 112.201  1.00  0.00    -0.000 C 
BRANCH   2   3
ATOM      3  C   UNL     1     119.254 117.625 112.191  1.00  0.00    -0.000 C 
BRANCH   3   4
ATOM      4  C   UNL     1     118.399 118.435 113.183  1.00  0.00    -0.000 C 
BRANCH   4   5
ATOM      5  C   UNL     1     117.027 118.816 112.602  1.00  0.00    -0.000 C 
BRANCH   5   6
ATOM      6  C   UNL     1     115.948 118.963 113.684  1.00  0.00    -0.003 C 
ATOM      7  C   UNL     1     114.752 119.754 113.162  1.00  0.00     0.004 C 
ENDBRANCH   5   6
ENDBRANCH   4   5
ENDBRANCH   3   4
ENDBRANCH   2   3
ENDBRANCH   1   2
BRANCH   1   8
ATOM      8  C   UNL     1     117.105 114.986 113.621  1.00  0.00     0.000 C 
BRANCH   8   9
ATOM      9  C   UNL     1     116.484 114.713 112.238  1.00  0.00     0.000 C 
BRANCH   9  10
ATOM     10  C   UNL     1     115.319 115.656 111.905  1.00  0.00     0.002 C 
BRANCH  10  11
ATOM     11  C   UNL     1     114.305 115.702 113.054  1.00  0.00     0.028 C 
BRANCH  11  12
ATOM     12  C   UNL     1     113.406 114.464 113.046  1.00  0.00     0.156 C 
BRANCH  12  13
ATOM     13  O   UNL     1     112.881 114.238 114.326  1.00  0.00    -0.396 OA
ATOM     14  H   UNL     1     112.544 113.304 114.335  1.00  0.00     0.210 HD
ENDBRANCH  12  13
ENDBRANCH  11  12
ENDBRANCH  10  11
ENDBRANCH   9  10
ENDBRANCH   8   9
ENDBRANCH   1   8
TORSDOF 11
ENDMDL
MODEL 8
REMARK VINA RESULT:    -3.451      2.125      3.995
REMARK INTER + INTRA:          -6.524
REMARK INTER:                  -5.285
REMARK INTRA:                  -1.238
REMARK UNBOUND:                -0.955
REMARK SMILES CCCCCCCCCCCCO
REMARK SMILES IDX 7 1 6 2 5 3 4 4 3 5 2 6 1 7 8 8 9 9 10 10 11 11 12 12 13 13
REMARK H PARENT 13 14
REMARK Flexibility Score: inf
ROOT
ATOM      1  C   UNL     1     116.354 114.523 114.824  1.00  0.00     0.000 C 
ENDROOT
BRANCH   1   2
ATOM      2  C   UNL     1     114.880 114.892 114.580  1.00  0.00    -0.000 C 
BRANCH   2   3
ATOM      3  C   UNL     1     114.463 114.720 113.111  1.00  0.00    -0.000 C 
BRANCH   3   4
ATOM      4  C   UNL     1     113.955 116.031 112.482  1.00  0.00    -0.000 C 
BRANCH   4   5
ATOM      5  C   UNL     1     115.087 117.041 112.233  1.00  0.00    -0.000 C 
BRANCH   5   6
ATOM      6  C   UNL     1     114.972 118.287 113.124  1.00  0.00    -0.003 C 
ATOM      7  C   UNL     1     115.097 119.564 112.299  1.00  0.00     0.004 C 
ENDBRANCH   5   6
ENDBRANCH   4   5
ENDBRANCH   3   4
ENDBRANCH   2   3
ENDBRANCH   1   2
BRANCH   1   8
ATOM      8  C   UNL     1     117.070 114.041 113.548  1.00  0.00     0.000 C 
BRANCH   8   9
ATOM      9  C   UNL     1     118.410 114.737 113.247  1.00  0.00     0.000 C 
BRANCH   9  10
ATOM     10  C   UNL     1     118.420 116.220 113.647  1.00  0.00     0.002 C 
BRANCH  10  11
ATOM     11  C   UNL     1     118.819 117.106 112.461  1.00  0.00     0.028 C 
BRANCH  11  12
ATOM     12  C   UNL     1     118.773 118.588 112.839  1.00  0.00     0.156 C 
BRANCH  12  13
ATOM     13  O   UNL     1     119.929 118.945 113.546  1.00  0.00    -0.396 OA
ATOM     14  H   UNL     1     120.642 118.316 113.261  1.00  0.00     0.210 HD
ENDBRANCH  12  13
ENDBRANCH  11  12
ENDBRANCH  10  11
ENDBRANCH   9  10
ENDBRANCH   8   9
ENDBRANCH   1   8
TORSDOF 11
ENDMDL
