MODEL 1
REMARK VINA RESULT:    -3.508      0.000      0.000
REMARK INTER + INTRA:          -4.359
REMARK INTER:                  -4.123
REMARK INTRA:                  -0.236
REMARK UNBOUND:                -0.236
REMARK SMILES [NH3+][C@@H](CO)C(=O)[O-]
REMARK SMILES IDX 3 1 2 2 1 3 5 7 6 8 7 9 4 10
REMARK H PARENT 1 4 1 5 1 6 4 11
REMARK Flexibility Score: inf
ROOT
ATOM      1  C   UNL     1     180.990 165.351 182.849  1.00  0.00     0.227 C 
ENDROOT
BRANCH   1   2
ATOM      2  C   UNL     1     181.076 166.629 183.704  1.00  0.00     0.253 C 
BRANCH   2   3
ATOM      3  N   UNL     1     181.450 166.318 185.089  1.00  0.00    -0.348 N 
ATOM      4  H   UNL     1     182.317 166.844 185.348  1.00  0.00     0.345 HD
ATOM      5  H   UNL     1     180.680 166.578 185.748  1.00  0.00     0.345 HD
ATOM      6  H   UNL     1     181.653 165.296 185.183  1.00  0.00     0.345 HD
ENDBRANCH   2   3
BRANCH   2   7
ATOM      7  C   UNL     1     179.757 167.354 183.671  1.00  0.00     0.102 C 
ATOM      8  O   UNL     1     179.024 167.289 182.650  1.00  0.00    -0.544 OA
ATOM      9  O   UNL     1     179.333 168.086 184.775  1.00  0.00    -0.544 OA
ENDBRANCH   2   7
ENDBRANCH   1   2
BRANCH   1  10
ATOM     10  O   UNL     1     179.850 164.607 183.186  1.00  0.00    -0.390 OA
ATOM     11  H   UNL     1     179.720 164.706 184.164  1.00  0.00     0.210 HD
ENDBRANCH   1  10
TORSDOF 4
ENDMDL
MODEL 2
REMARK VINA RESULT:    -3.427     18.690     19.660
REMARK INTER + INTRA:          -4.263
REMARK INTER:                  -4.034
REMARK INTRA:                  -0.229
REMARK UNBOUND:                -0.236
REMARK SMILES [NH3+][C@@H](CO)C(=O)[O-]
REMARK SMILES IDX 3 1 2 2 1 3 5 7 6 8 7 9 4 10
REMARK H PARENT 1 4 1 5 1 6 4 11
REMARK Flexibility Score: inf
ROOT
ATOM      1  C   UNL     1     163.729 178.902 182.519  1.00  0.00     0.227 C 
ENDROOT
BRANCH   1   2
ATOM      2  C   UNL     1     163.584 177.634 183.380  1.00  0.00     0.253 C 
BRANCH   2   3
ATOM      3  N   UNL     1     162.966 177.938 184.676  1.00  0.00    -0.348 N 
ATOM      4  H   UNL     1     162.822 177.054 185.216  1.00  0.00     0.345 HD
ATOM      5  H   UNL     1     163.571 178.586 185.232  1.00  0.00     0.345 HD
ATOM      6  H   UNL     1     162.030 178.382 184.530  1.00  0.00     0.345 HD
ENDBRANCH   2   3
BRANCH   2   7
ATOM      7  C   UNL     1     164.933 176.998 183.583  1.00  0.00     0.102 C 
ATOM      8  O   UNL     1     165.884 177.265 182.802  1.00  0.00    -0.544 OA
ATOM      9  O   UNL     1     165.144 176.124 184.644  1.00  0.00    -0.544 OA
ENDBRANCH   2   7
ENDBRANCH   1   2
BRANCH   1  10
ATOM     10  O   UNL     1     164.489 179.870 183.191  1.00  0.00    -0.390 OA
ATOM     11  H   UNL     1     165.081 179.386 183.822  1.00  0.00     0.210 HD
ENDBRANCH   1  10
TORSDOF 4
ENDMDL
MODEL 3
REMARK VINA RESULT:    -3.246     19.928     20.531
REMARK INTER + INTRA:          -4.051
REMARK INTER:                  -3.862
REMARK INTRA:                  -0.190
REMARK UNBOUND:                -0.236
REMARK SMILES [NH3+][C@@H](CO)C(=O)[O-]
REMARK SMILES IDX 3 1 2 2 1 3 5 7 6 8 7 9 4 10
REMARK H PARENT 1 4 1 5 1 6 4 11
REMARK Flexibility Score: inf
ROOT
ATOM      1  C   UNL     1     165.552 179.061 182.456  1.00  0.00     0.227 C 
ENDROOT
BRANCH   1   2
ATOM      2  C   UNL     1     164.102 178.687 182.098  1.00  0.00     0.253 C 
BRANCH   2   3
ATOM      3  N   UNL     1     163.382 179.831 181.527  1.00  0.00    -0.348 N 
ATOM      4  H   UNL     1     163.899 180.716 181.737  1.00  0.00     0.345 HD
ATOM      5  H   UNL     1     163.285 179.728 180.490  1.00  0.00     0.345 HD
ATOM      6  H   UNL     1     162.431 179.905 181.956  1.00  0.00     0.345 HD
ENDBRANCH   2   3
BRANCH   2   7
ATOM      7  C   UNL     1     163.387 178.182 183.323  1.00  0.00     0.102 C 
ATOM      8  O   UNL     1     163.416 176.958 183.614  1.00  0.00    -0.544 OA
ATOM      9  O   UNL     1     162.705 179.067 184.151  1.00  0.00    -0.544 OA
ENDBRANCH   2   7
ENDBRANCH   1   2
BRANCH   1  10
ATOM     10  O   UNL     1     165.577 180.155 183.334  1.00  0.00    -0.390 OA
ATOM     11  H   UNL     1     165.967 179.831 184.187  1.00  0.00     0.210 HD
ENDBRANCH   1  10
TORSDOF 4
ENDMDL
MODEL 4
REMARK VINA RESULT:    -3.207     19.536     20.217
REMARK INTER + INTRA:          -4.005
REMARK INTER:                  -3.766
REMARK INTRA:                  -0.239
REMARK UNBOUND:                -0.236
REMARK SMILES [NH3+][C@@H](CO)C(=O)[O-]
REMARK SMILES IDX 3 1 2 2 1 3 5 7 6 8 7 9 4 10
REMARK H PARENT 1 4 1 5 1 6 4 11
REMARK Flexibility Score: inf
ROOT
ATOM      1  C   UNL     1     164.822 178.884 182.260  1.00  0.00     0.227 C 
ENDROOT
BRANCH   1   2
ATOM      2  C   UNL     1     163.818 177.741 182.496  1.00  0.00     0.253 C 
BRANCH   2   3
ATOM      3  N   UNL     1     162.475 178.108 182.032  1.00  0.00    -0.348 N 
ATOM      4  H   UNL     1     162.416 179.144 181.901  1.00  0.00     0.345 HD
ATOM      5  H   UNL     1     162.253 177.633 181.126  1.00  0.00     0.345 HD
ATOM      6  H   UNL     1     161.762 177.833 182.747  1.00  0.00     0.345 HD
ENDBRANCH   2   3
BRANCH   2   7
ATOM      7  C   UNL     1     163.784 177.385 183.959  1.00  0.00     0.102 C 
ATOM      8  O   UNL     1     162.945 177.929 184.724  1.00  0.00    -0.544 OA
ATOM      9  O   UNL     1     164.667 176.442 184.471  1.00  0.00    -0.544 OA
ENDBRANCH   2   7
ENDBRANCH   1   2
BRANCH   1  10
ATOM     10  O   UNL     1     164.585 179.941 183.150  1.00  0.00    -0.390 OA
ATOM     11  H   UNL     1     164.743 179.590 184.064  1.00  0.00     0.210 HD
ENDBRANCH   1  10
TORSDOF 4
ENDMDL
MODEL 5
REMARK VINA RESULT:    -3.207      2.141      2.487
REMARK INTER + INTRA:          -4.005
REMARK INTER:                  -3.631
REMARK INTRA:                  -0.374
REMARK UNBOUND:                -0.236
REMARK SMILES [NH3+][C@@H](CO)C(=O)[O-]
REMARK SMILES IDX 3 1 2 2 1 3 5 7 6 8 7 9 4 10
REMARK H PARENT 1 4 1 5 1 6 4 11
REMARK Flexibility Score: inf
ROOT
ATOM      1  C   UNL     1     181.757 165.242 184.334  1.00  0.00     0.227 C 
ENDROOT
BRANCH   1   2
ATOM      2  C   UNL     1     180.741 165.239 183.178  1.00  0.00     0.253 C 
BRANCH   2   3
ATOM      3  N   UNL     1     181.222 164.433 182.049  1.00  0.00    -0.348 N 
ATOM      4  H   UNL     1     180.699 164.692 181.181  1.00  0.00     0.345 HD
ATOM      5  H   UNL     1     182.245 164.587 181.894  1.00  0.00     0.345 HD
ATOM      6  H   UNL     1     181.051 163.418 182.237  1.00  0.00     0.345 HD
ENDBRANCH   2   3
BRANCH   2   7
ATOM      7  C   UNL     1     180.470 166.651 182.732  1.00  0.00     0.102 C 
ATOM      8  O   UNL     1     179.396 167.222 183.055  1.00  0.00    -0.544 OA
ATOM      9  O   UNL     1     181.411 167.339 181.974  1.00  0.00    -0.544 OA
ENDBRANCH   2   7
ENDBRANCH   1   2
BRANCH   1  10
ATOM     10  O   UNL     1     181.760 166.485 184.986  1.00  0.00    -0.390 OA
ATOM     11  H   UNL     1     180.935 166.959 184.706  1.00  0.00     0.210 HD
ENDBRANCH   1  10
TORSDOF 4
ENDMDL
MODEL 6
REMARK VINA RESULT:    -3.192     20.268     21.145
REMARK INTER + INTRA:          -3.988
REMARK INTER:                  -3.759
REMARK INTRA:                  -0.229
REMARK UNBOUND:                -0.236
REMARK SMILES [NH3+][C@@H](CO)C(=O)[O-]
REMARK SMILES IDX 3 1 2 2 1 3 5 7 6 8 7 9 4 10
REMARK H PARENT 1 4 1 5 1 6 4 11
REMARK Flexibility Score: inf
ROOT
ATOM      1  C   UNL     1     163.964 177.536 183.514  1.00  0.00     0.227 C 
ENDROOT
BRANCH   1   2
ATOM      2  C   UNL     1     163.931 178.761 182.582  1.00  0.00     0.253 C 
BRANCH   2   3
ATOM      3  N   UNL     1     164.698 179.878 183.145  1.00  0.00    -0.348 N 
ATOM      4  H   UNL     1     165.697 179.595 183.271  1.00  0.00     0.345 HD
ATOM      5  H   UNL     1     164.654 180.713 182.516  1.00  0.00     0.345 HD
ATOM      6  H   UNL     1     164.317 180.136 184.085  1.00  0.00     0.345 HD
ENDBRANCH   2   3
BRANCH   2   7
ATOM      7  C   UNL     1     162.506 179.179 182.338  1.00  0.00     0.102 C 
ATOM      8  O   UNL     1     161.882 179.839 183.208  1.00  0.00    -0.544 OA
ATOM      9  O   UNL     1     161.875 178.852 181.143  1.00  0.00    -0.544 OA
ENDBRANCH   2   7
ENDBRANCH   1   2
BRANCH   1  10
ATOM     10  O   UNL     1     163.026 177.676 184.548  1.00  0.00    -0.390 OA
ATOM     11  H   UNL     1     162.357 176.954 184.431  1.00  0.00     0.210 HD
ENDBRANCH   1  10
TORSDOF 4
ENDMDL
MODEL 7
REMARK VINA RESULT:    -3.116     19.131     20.122
REMARK INTER + INTRA:          -3.898
REMARK INTER:                  -3.506
REMARK INTRA:                  -0.392
REMARK UNBOUND:                -0.236
REMARK SMILES [NH3+][C@@H](CO)C(=O)[O-]
REMARK SMILES IDX 3 1 2 2 1 3 5 7 6 8 7 9 4 10
REMARK H PARENT 1 4 1 5 1 6 4 11
REMARK Flexibility Score: inf
ROOT
ATOM      1  C   UNL     1     162.939 179.210 183.270  1.00  0.00     0.227 C 
ENDROOT
BRANCH   1   2
ATOM      2  C   UNL     1     163.699 177.882 183.103  1.00  0.00     0.253 C 
BRANCH   2   3
ATOM      3  N   UNL     1     164.060 177.308 184.405  1.00  0.00    -0.348 N 
ATOM      4  H   UNL     1     164.361 176.314 184.283  1.00  0.00     0.345 HD
ATOM      5  H   UNL     1     164.837 177.851 184.847  1.00  0.00     0.345 HD
ATOM      6  H   UNL     1     163.230 177.317 185.042  1.00  0.00     0.345 HD
ENDBRANCH   2   3
BRANCH   2   7
ATOM      7  C   UNL     1     164.934 178.100 182.270  1.00  0.00     0.102 C 
ATOM      8  O   UNL     1     165.991 178.525 182.805  1.00  0.00    -0.544 OA
ATOM      9  O   UNL     1     164.919 177.820 180.909  1.00  0.00    -0.544 OA
ENDBRANCH   2   7
ENDBRANCH   1   2
BRANCH   1  10
ATOM     10  O   UNL     1     163.429 180.175 182.377  1.00  0.00    -0.390 OA
ATOM     11  H   UNL     1     163.209 181.062 182.761  1.00  0.00     0.210 HD
ENDBRANCH   1  10
TORSDOF 4
ENDMDL
MODEL 8
REMARK VINA RESULT:    -3.109     20.026     20.877
REMARK INTER + INTRA:          -3.889
REMARK INTER:                  -3.651
REMARK INTRA:                  -0.239
REMARK UNBOUND:                -0.236
REMARK SMILES [NH3+][C@@H](CO)C(=O)[O-]
REMARK SMILES IDX 3 1 2 2 1 3 5 7 6 8 7 9 4 10
REMARK H PARENT 1 4 1 5 1 6 4 11
REMARK Flexibility Score: inf
ROOT
ATOM      1  C   UNL     1     162.638 179.186 183.988  1.00  0.00     0.227 C 
ENDROOT
BRANCH   1   2
ATOM      2  C   UNL     1     163.635 178.914 182.846  1.00  0.00     0.253 C 
BRANCH   2   3
ATOM      3  N   UNL     1     163.522 179.926 181.789  1.00  0.00    -0.348 N 
ATOM      4  H   UNL     1     163.060 180.785 182.168  1.00  0.00     0.345 HD
ATOM      5  H   UNL     1     164.466 180.180 181.415  1.00  0.00     0.345 HD
ATOM      6  H   UNL     1     162.930 179.562 181.007  1.00  0.00     0.345 HD
ENDBRANCH   2   3
BRANCH   2   7
ATOM      7  C   UNL     1     163.399 177.540 182.278  1.00  0.00     0.102 C 
ATOM      8  O   UNL     1     163.895 176.529 182.840  1.00  0.00    -0.544 OA
ATOM      9  O   UNL     1     162.618 177.377 181.139  1.00  0.00    -0.544 OA
ENDBRANCH   2   7
ENDBRANCH   1   2
BRANCH   1  10
ATOM     10  O   UNL     1     162.678 178.152 184.934  1.00  0.00    -0.390 OA
ATOM     11  H   UNL     1     163.094 178.525 185.753  1.00  0.00     0.210 HD
ENDBRANCH   1  10
TORSDOF 4
ENDMDL
MODEL 9
REMARK VINA RESULT:    -3.075      4.195      5.341
REMARK INTER + INTRA:          -3.849
REMARK INTER:                  -3.480
REMARK INTRA:                  -0.369
REMARK UNBOUND:                -0.236
REMARK SMILES [NH3+][C@@H](CO)C(=O)[O-]
REMARK SMILES IDX 3 1 2 2 1 3 5 7 6 8 7 9 4 10
REMARK H PARENT 1 4 1 5 1 6 4 11
REMARK Flexibility Score: inf
ROOT
ATOM      1  C   UNL     1     177.369 170.796 186.448  1.00  0.00     0.227 C 
ENDROOT
BRANCH   1   2
ATOM      2  C   UNL     1     176.896 170.073 185.174  1.00  0.00     0.253 C 
BRANCH   2   3
ATOM      3  N   UNL     1     175.562 169.488 185.358  1.00  0.00    -0.348 N 
ATOM      4  H   UNL     1     175.398 168.747 184.638  1.00  0.00     0.345 HD
ATOM      5  H   UNL     1     175.471 169.067 186.311  1.00  0.00     0.345 HD
ATOM      6  H   UNL     1     174.829 170.224 185.235  1.00  0.00     0.345 HD
ENDBRANCH   2   3
BRANCH   2   7
ATOM      7  C   UNL     1     177.886 169.004 184.795  1.00  0.00     0.102 C 
ATOM      8  O   UNL     1     177.899 167.907 185.412  1.00  0.00    -0.544 OA
ATOM      9  O   UNL     1     178.781 169.215 183.753  1.00  0.00    -0.544 OA
ENDBRANCH   2   7
ENDBRANCH   1   2
BRANCH   1  10
ATOM     10  O   UNL     1     178.705 170.476 186.729  1.00  0.00    -0.390 OA
ATOM     11  H   UNL     1     178.729 170.124 187.656  1.00  0.00     0.210 HD
ENDBRANCH   1  10
TORSDOF 4
ENDMDL
