MODEL 1
REMARK VINA RESULT:    -6.349      0.000      0.000
REMARK INTER + INTRA:          -9.705
REMARK INTER:                  -9.318
REMARK INTRA:                  -0.386
REMARK UNBOUND:                -0.386
REMARK SMILES Cc1cc2c(C(C)C)c(O)c(O)c(C=O)c2c(O)c1-c1c(C)cc2c(C(C)C)c(O)c(O)c(C=O)c2c1O
REMARK SMILES IDX 1 1 2 2 3 3 4 4 16 5 13 6 11 7 9 8 5 9 17 10 19 11 20 12
REMARK SMILES IDX 37 13 21 14 36 15 23 16 22 17 24 18 33 19 25 20 31 21 29 22
REMARK SMILES IDX 38 23 34 25 35 26 26 27 27 28 28 29 32 30 30 32 18 34 6 36
REMARK SMILES IDX 7 37 8 38 14 39 15 40 10 41 12 43
REMARK H PARENT 38 24 32 31 30 33 18 35 10 42 12 44
REMARK Flexibility Score: inf
ROOT
ATOM      1  C   UNL     1      11.743  27.007  33.937  1.00  0.00     0.045 C 
ATOM      2  C   UNL     1      11.110  26.336  35.130  1.00  0.00    -0.039 A 
ATOM      3  C   UNL     1       9.743  26.501  35.362  1.00  0.00     0.013 A 
ATOM      4  C   UNL     1       9.088  25.871  36.444  1.00  0.00    -0.006 A 
ATOM      5  C   UNL     1       9.866  25.098  37.357  1.00  0.00     0.039 A 
ATOM      6  C   UNL     1       9.211  24.452  38.443  1.00  0.00     0.072 A 
ATOM      7  C   UNL     1       7.878  24.768  38.744  1.00  0.00     0.169 A 
ATOM      8  C   UNL     1       7.143  25.620  37.901  1.00  0.00     0.162 A 
ATOM      9  C   UNL     1       7.685  26.035  36.663  1.00  0.00     0.008 A 
ATOM     10  C   UNL     1      11.280  25.041  37.187  1.00  0.00     0.132 A 
ATOM     11  C   UNL     1      11.886  25.613  36.050  1.00  0.00     0.031 A 
ENDROOT
BRANCH  11  12
ATOM     12  C   UNL     1      13.352  25.484  35.839  1.00  0.00     0.031 A 
ATOM     13  C   UNL     1      13.890  24.311  35.266  1.00  0.00     0.132 A 
ATOM     14  C   UNL     1      14.199  26.545  36.193  1.00  0.00    -0.039 A 
ATOM     15  C   UNL     1      15.303  24.164  35.109  1.00  0.00     0.039 A 
ATOM     16  C   UNL     1      15.574  26.421  35.998  1.00  0.00     0.013 A 
ATOM     17  C   UNL     1      13.642  27.838  36.737  1.00  0.00     0.045 C 
ATOM     18  C   UNL     1      16.160  25.236  35.515  1.00  0.00    -0.006 A 
ATOM     19  C   UNL     1      15.887  22.998  34.528  1.00  0.00     0.072 A 
ATOM     20  C   UNL     1      17.580  25.108  35.396  1.00  0.00     0.008 A 
ATOM     21  C   UNL     1      17.271  22.959  34.276  1.00  0.00     0.169 A 
ATOM     22  C   UNL     1      18.094  24.017  34.653  1.00  0.00     0.162 A 
BRANCH  13  23
ATOM     23  O   UNL     1      13.018  23.307  34.832  1.00  0.00    -0.507 OA
ATOM     24  H   UNL     1      12.023  23.437  34.702  1.00  0.00     0.293 HD
ENDBRANCH  13  23
BRANCH  19  25
ATOM     25  C   UNL     1      15.079  21.812  34.175  1.00  0.00     0.264 C 
ATOM     26  O   UNL     1      14.696  21.008  35.065  1.00  0.00    -0.298 OA
ENDBRANCH  19  25
BRANCH  20  27
ATOM     27  C   UNL     1      18.583  26.039  36.105  1.00  0.00     0.017 C 
ATOM     28  C   UNL     1      18.831  27.336  35.324  1.00  0.00     0.012 C 
ATOM     29  C   UNL     1      18.282  26.287  37.598  1.00  0.00     0.012 C 
ENDBRANCH  20  27
BRANCH  21  30
ATOM     30  O   UNL     1      17.883  21.858  33.664  1.00  0.00    -0.504 OA
ATOM     31  H   UNL     1      18.861  21.621  33.770  1.00  0.00     0.293 HD
ENDBRANCH  21  30
BRANCH  22  32
ATOM     32  O   UNL     1      19.438  23.940  34.269  1.00  0.00    -0.504 OA
ATOM     33  H   UNL     1      19.746  23.788  33.317  1.00  0.00     0.293 HD
ENDBRANCH  22  32
ENDBRANCH  11  12
BRANCH  10  34
ATOM     34  O   UNL     1      12.083  24.468  38.180  1.00  0.00    -0.507 OA
ATOM     35  H   UNL     1      12.483  23.541  38.115  1.00  0.00     0.293 HD
ENDBRANCH  10  34
BRANCH   9  36
ATOM     36  C   UNL     1       6.774  26.706  35.618  1.00  0.00     0.017 C 
ATOM     37  C   UNL     1       7.435  26.705  34.236  1.00  0.00     0.012 C 
ATOM     38  C   UNL     1       6.307  28.120  36.013  1.00  0.00     0.012 C 
ENDBRANCH   9  36
BRANCH   6  39
ATOM     39  C   UNL     1       9.843  23.379  39.245  1.00  0.00     0.264 C 
ATOM     40  O   UNL     1      10.108  23.557  40.464  1.00  0.00    -0.298 OA
ENDBRANCH   6  39
BRANCH   8  41
ATOM     41  O   UNL     1       5.876  26.073  38.278  1.00  0.00    -0.504 OA
ATOM     42  H   UNL     1       5.711  26.921  38.801  1.00  0.00     0.293 HD
ENDBRANCH   8  41
BRANCH   7  43
ATOM     43  O   UNL     1       7.289  24.176  39.867  1.00  0.00    -0.504 OA
ATOM     44  H   UNL     1       6.707  23.350  39.831  1.00  0.00     0.293 HD
ENDBRANCH   7  43
TORSDOF 11
ENDMDL
MODEL 2
REMARK VINA RESULT:    -6.241      1.826      3.126
REMARK INTER + INTRA:          -9.546
REMARK INTER:                  -9.498
REMARK INTRA:                  -0.048
REMARK UNBOUND:                -0.386
REMARK SMILES Cc1cc2c(C(C)C)c(O)c(O)c(C=O)c2c(O)c1-c1c(C)cc2c(C(C)C)c(O)c(O)c(C=O)c2c1O
REMARK SMILES IDX 1 1 2 2 3 3 4 4 16 5 13 6 11 7 9 8 5 9 17 10 19 11 20 12
REMARK SMILES IDX 37 13 21 14 36 15 23 16 22 17 24 18 33 19 25 20 31 21 29 22
REMARK SMILES IDX 38 23 34 25 35 26 26 27 27 28 28 29 32 30 30 32 18 34 6 36
REMARK SMILES IDX 7 37 8 38 14 39 15 40 10 41 12 43
REMARK H PARENT 38 24 32 31 30 33 18 35 10 42 12 44
REMARK Flexibility Score: inf
ROOT
ATOM      1  C   UNL     1      12.357  26.311  33.984  1.00  0.00     0.045 C 
ATOM      2  C   UNL     1      11.434  25.926  35.113  1.00  0.00    -0.039 A 
ATOM      3  C   UNL     1      10.115  26.385  35.105  1.00  0.00     0.013 A 
ATOM      4  C   UNL     1       9.195  26.032  36.118  1.00  0.00    -0.006 A 
ATOM      5  C   UNL     1       9.654  25.233  37.209  1.00  0.00     0.039 A 
ATOM      6  C   UNL     1       8.729  24.865  38.226  1.00  0.00     0.072 A 
ATOM      7  C   UNL     1       7.466  25.473  38.279  1.00  0.00     0.169 A 
ATOM      8  C   UNL     1       7.058  26.348  37.257  1.00  0.00     0.162 A 
ATOM      9  C   UNL     1       7.844  26.497  36.092  1.00  0.00     0.008 A 
ATOM     10  C   UNL     1      11.031  24.877  37.276  1.00  0.00     0.132 A 
ATOM     11  C   UNL     1      11.900  25.177  36.206  1.00  0.00     0.031 A 
ENDROOT
BRANCH  11  12
ATOM     12  C   UNL     1      13.319  24.736  36.248  1.00  0.00     0.031 A 
ATOM     13  C   UNL     1      14.331  25.626  36.670  1.00  0.00     0.132 A 
ATOM     14  C   UNL     1      13.647  23.421  35.885  1.00  0.00    -0.039 A 
ATOM     15  C   UNL     1      15.701  25.220  36.662  1.00  0.00     0.039 A 
ATOM     16  C   UNL     1      14.979  23.010  35.920  1.00  0.00     0.013 A 
ATOM     17  C   UNL     1      12.576  22.429  35.503  1.00  0.00     0.045 C 
ATOM     18  C   UNL     1      16.028  23.891  36.248  1.00  0.00    -0.006 A 
ATOM     19  C   UNL     1      16.753  26.088  37.088  1.00  0.00     0.072 A 
ATOM     20  C   UNL     1      17.393  23.464  36.203  1.00  0.00     0.008 A 
ATOM     21  C   UNL     1      18.069  25.596  37.185  1.00  0.00     0.169 A 
ATOM     22  C   UNL     1      18.373  24.292  36.802  1.00  0.00     0.162 A 
BRANCH  13  23
ATOM     23  O   UNL     1      13.968  26.901  37.119  1.00  0.00    -0.507 OA
ATOM     24  H   UNL     1      14.562  27.492  37.687  1.00  0.00     0.293 HD
ENDBRANCH  13  23
BRANCH  19  25
ATOM     25  C   UNL     1      16.508  27.502  37.436  1.00  0.00     0.264 C 
ATOM     26  O   UNL     1      16.761  27.931  38.593  1.00  0.00    -0.298 OA
ENDBRANCH  19  25
BRANCH  20  27
ATOM     27  C   UNL     1      17.867  22.199  35.461  1.00  0.00     0.017 C 
ATOM     28  C   UNL     1      17.333  22.127  34.025  1.00  0.00     0.012 C 
ATOM     29  C   UNL     1      19.385  21.934  35.551  1.00  0.00     0.012 C 
ENDBRANCH  20  27
BRANCH  21  30
ATOM     30  O   UNL     1      19.126  26.392  37.643  1.00  0.00    -0.504 OA
ATOM     31  H   UNL     1      19.908  26.042  38.180  1.00  0.00     0.293 HD
ENDBRANCH  21  30
BRANCH  22  32
ATOM     32  O   UNL     1      19.682  23.856  37.033  1.00  0.00    -0.504 OA
ATOM     33  H   UNL     1      20.290  24.241  37.743  1.00  0.00     0.293 HD
ENDBRANCH  22  32
ENDBRANCH  11  12
BRANCH  10  34
ATOM     34  O   UNL     1      11.546  24.277  38.432  1.00  0.00    -0.507 OA
ATOM     35  H   UNL     1      11.507  24.699  39.350  1.00  0.00     0.293 HD
ENDBRANCH  10  34
BRANCH   9  36
ATOM     36  C   UNL     1       7.254  27.206  34.859  1.00  0.00     0.017 C 
ATOM     37  C   UNL     1       6.625  26.194  33.895  1.00  0.00     0.012 C 
ATOM     38  C   UNL     1       8.253  28.125  34.130  1.00  0.00     0.012 C 
ENDBRANCH   9  36
BRANCH   6  39
ATOM     39  C   UNL     1       8.997  23.790  39.210  1.00  0.00     0.264 C 
ATOM     40  O   UNL     1       9.205  24.065  40.423  1.00  0.00    -0.298 OA
ENDBRANCH   6  39
BRANCH   8  41
ATOM     41  O   UNL     1       5.877  27.085  37.383  1.00  0.00    -0.504 OA
ATOM     42  H   UNL     1       5.821  28.087  37.269  1.00  0.00     0.293 HD
ENDBRANCH   8  41
BRANCH   7  43
ATOM     43  O   UNL     1       6.612  25.148  39.339  1.00  0.00    -0.504 OA
ATOM     44  H   UNL     1       5.620  24.989  39.237  1.00  0.00     0.293 HD
ENDBRANCH   7  43
TORSDOF 11
ENDMDL
MODEL 3
REMARK VINA RESULT:    -6.038      0.337      8.819
REMARK INTER + INTRA:          -9.248
REMARK INTER:                  -8.842
REMARK INTRA:                  -0.406
REMARK UNBOUND:                -0.386
REMARK SMILES Cc1cc2c(C(C)C)c(O)c(O)c(C=O)c2c(O)c1-c1c(C)cc2c(C(C)C)c(O)c(O)c(C=O)c2c1O
REMARK SMILES IDX 1 1 2 2 3 3 4 4 16 5 13 6 11 7 9 8 5 9 17 10 19 11 20 12
REMARK SMILES IDX 37 13 21 14 36 15 23 16 22 17 24 18 33 19 25 20 31 21 29 22
REMARK SMILES IDX 38 23 34 25 35 26 26 27 27 28 28 29 32 30 30 32 18 34 6 36
REMARK SMILES IDX 7 37 8 38 14 39 15 40 10 41 12 43
REMARK H PARENT 38 24 32 31 30 33 18 35 10 42 12 44
REMARK Flexibility Score: inf
ROOT
ATOM      1  C   UNL     1      13.927  27.641  36.863  1.00  0.00     0.045 C 
ATOM      2  C   UNL     1      14.380  26.337  36.256  1.00  0.00    -0.039 A 
ATOM      3  C   UNL     1      15.739  26.137  36.000  1.00  0.00     0.013 A 
ATOM      4  C   UNL     1      16.227  24.924  35.464  1.00  0.00    -0.006 A 
ATOM      5  C   UNL     1      15.290  23.904  35.119  1.00  0.00     0.039 A 
ATOM      6  C   UNL     1      15.776  22.676  34.588  1.00  0.00     0.072 A 
ATOM      7  C   UNL     1      17.117  22.567  34.190  1.00  0.00     0.169 A 
ATOM      8  C   UNL     1      18.016  23.620  34.432  1.00  0.00     0.162 A 
ATOM      9  C   UNL     1      17.621  24.726  35.219  1.00  0.00     0.008 A 
ATOM     10  C   UNL     1      13.897  24.165  35.262  1.00  0.00     0.132 A 
ATOM     11  C   UNL     1      13.452  25.353  35.878  1.00  0.00     0.031 A 
ENDROOT
BRANCH  11  12
ATOM     12  C   UNL     1      12.000  25.586  36.094  1.00  0.00     0.031 A 
ATOM     13  C   UNL     1      11.341  25.002  37.198  1.00  0.00     0.132 A 
ATOM     14  C   UNL     1      11.290  26.408  35.208  1.00  0.00    -0.039 A 
ATOM     15  C   UNL     1       9.935  25.182  37.380  1.00  0.00     0.039 A 
ATOM     16  C   UNL     1       9.927  26.623  35.410  1.00  0.00     0.013 A 
ATOM     17  C   UNL     1      11.987  27.105  34.064  1.00  0.00     0.045 C 
ATOM     18  C   UNL     1       9.213  25.987  36.444  1.00  0.00    -0.006 A 
ATOM     19  C   UNL     1       9.232  24.614  38.486  1.00  0.00     0.072 A 
ATOM     20  C   UNL     1       7.800  26.164  36.584  1.00  0.00     0.008 A 
ATOM     21  C   UNL     1       7.876  24.931  38.691  1.00  0.00     0.169 A 
ATOM     22  C   UNL     1       7.187  25.735  37.786  1.00  0.00     0.162 A 
BRANCH  13  23
ATOM     23  O   UNL     1      12.089  24.265  38.123  1.00  0.00    -0.507 OA
ATOM     24  H   UNL     1      12.007  24.364  39.127  1.00  0.00     0.293 HD
ENDBRANCH  13  23
BRANCH  19  25
ATOM     25  C   UNL     1       9.886  23.694  39.439  1.00  0.00     0.264 C 
ATOM     26  O   UNL     1       9.763  23.862  40.681  1.00  0.00    -0.298 OA
ENDBRANCH  19  25
BRANCH  20  27
ATOM     27  C   UNL     1       6.894  26.713  35.464  1.00  0.00     0.017 C 
ATOM     28  C   UNL     1       6.375  28.124  35.769  1.00  0.00     0.012 C 
ATOM     29  C   UNL     1       7.482  26.586  34.043  1.00  0.00     0.012 C 
ENDBRANCH  20  27
BRANCH  21  30
ATOM     30  O   UNL     1       7.156  24.439  39.786  1.00  0.00    -0.504 OA
ATOM     31  H   UNL     1       6.317  23.880  39.709  1.00  0.00     0.293 HD
ENDBRANCH  21  30
BRANCH  22  32
ATOM     32  O   UNL     1       5.875  26.085  38.124  1.00  0.00    -0.504 OA
ATOM     33  H   UNL     1       5.505  26.053  39.065  1.00  0.00     0.293 HD
ENDBRANCH  22  32
ENDBRANCH  11  12
BRANCH  10  34
ATOM     34  O   UNL     1      12.957  23.269  34.739  1.00  0.00    -0.507 OA
ATOM     35  H   UNL     1      12.546  23.358  33.820  1.00  0.00     0.293 HD
ENDBRANCH  10  34
BRANCH   9  36
ATOM     36  C   UNL     1      18.683  25.714  35.734  1.00  0.00     0.017 C 
ATOM     37  C   UNL     1      18.586  25.879  37.254  1.00  0.00     0.012 C 
ATOM     38  C   UNL     1      18.662  27.080  35.022  1.00  0.00     0.012 C 
ENDBRANCH   9  36
BRANCH   6  39
ATOM     39  C   UNL     1      14.951  21.449  34.505  1.00  0.00     0.264 C 
ATOM     40  O   UNL     1      14.587  20.846  35.550  1.00  0.00    -0.298 OA
ENDBRANCH   6  39
BRANCH   8  41
ATOM     41  O   UNL     1      19.306  23.592  33.893  1.00  0.00    -0.504 OA
ATOM     42  H   UNL     1      20.113  23.228  34.377  1.00  0.00     0.293 HD
ENDBRANCH   8  41
BRANCH   7  43
ATOM     43  O   UNL     1      17.542  21.373  33.597  1.00  0.00    -0.504 OA
ATOM     44  H   UNL     1      18.322  20.824  33.929  1.00  0.00     0.293 HD
ENDBRANCH   7  43
TORSDOF 11
ENDMDL
MODEL 4
REMARK VINA RESULT:    -5.923      1.686      8.968
REMARK INTER + INTRA:          -9.079
REMARK INTER:                  -9.673
REMARK INTRA:                   0.594
REMARK UNBOUND:                -0.386
REMARK SMILES Cc1cc2c(C(C)C)c(O)c(O)c(C=O)c2c(O)c1-c1c(C)cc2c(C(C)C)c(O)c(O)c(C=O)c2c1O
REMARK SMILES IDX 1 1 2 2 3 3 4 4 16 5 13 6 11 7 9 8 5 9 17 10 19 11 20 12
REMARK SMILES IDX 37 13 21 14 36 15 23 16 22 17 24 18 33 19 25 20 31 21 29 22
REMARK SMILES IDX 38 23 34 25 35 26 26 27 27 28 28 29 32 30 30 32 18 34 6 36
REMARK SMILES IDX 7 37 8 38 14 39 15 40 10 41 12 43
REMARK H PARENT 38 24 32 31 30 33 18 35 10 42 12 44
REMARK Flexibility Score: inf
ROOT
ATOM      1  C   UNL     1      12.703  22.478  35.382  1.00  0.00     0.045 C 
ATOM      2  C   UNL     1      13.774  23.457  35.795  1.00  0.00    -0.039 A 
ATOM      3  C   UNL     1      15.114  23.065  35.748  1.00  0.00     0.013 A 
ATOM      4  C   UNL     1      16.162  23.948  36.091  1.00  0.00    -0.006 A 
ATOM      5  C   UNL     1      15.828  25.255  36.558  1.00  0.00     0.039 A 
ATOM      6  C   UNL     1      16.880  26.153  36.896  1.00  0.00     0.072 A 
ATOM      7  C   UNL     1      18.198  25.682  36.997  1.00  0.00     0.169 A 
ATOM      8  C   UNL     1      18.507  24.358  36.640  1.00  0.00     0.162 A 
ATOM      9  C   UNL     1      17.531  23.541  36.025  1.00  0.00     0.008 A 
ATOM     10  C   UNL     1      14.457  25.602  36.726  1.00  0.00     0.132 A 
ATOM     11  C   UNL     1      13.440  24.726  36.295  1.00  0.00     0.031 A 
ENDROOT
BRANCH  11  12
ATOM     12  C   UNL     1      12.012  25.125  36.402  1.00  0.00     0.031 A 
ATOM     13  C   UNL     1      11.233  24.699  37.501  1.00  0.00     0.132 A 
ATOM     14  C   UNL     1      11.446  25.947  35.417  1.00  0.00    -0.039 A 
ATOM     15  C   UNL     1       9.847  25.039  37.581  1.00  0.00     0.039 A 
ATOM     16  C   UNL     1      10.106  26.317  35.517  1.00  0.00     0.013 A 
ATOM     17  C   UNL     1      12.277  26.477  34.274  1.00  0.00     0.045 C 
ATOM     18  C   UNL     1       9.270  25.841  36.546  1.00  0.00    -0.006 A 
ATOM     19  C   UNL     1       9.027  24.633  38.677  1.00  0.00     0.072 A 
ATOM     20  C   UNL     1       7.879  26.174  36.584  1.00  0.00     0.008 A 
ATOM     21  C   UNL     1       7.704  25.105  38.773  1.00  0.00     0.169 A 
ATOM     22  C   UNL     1       7.158  25.905  37.772  1.00  0.00     0.162 A 
BRANCH  13  23
ATOM     23  O   UNL     1      11.845  23.961  38.520  1.00  0.00    -0.507 OA
ATOM     24  H   UNL     1      11.755  22.958  38.627  1.00  0.00     0.293 HD
ENDBRANCH  13  23
BRANCH  19  25
ATOM     25  C   UNL     1       9.523  23.725  39.731  1.00  0.00     0.264 C 
ATOM     26  O   UNL     1       9.748  24.154  40.894  1.00  0.00    -0.298 OA
ENDBRANCH  19  25
BRANCH  20  27
ATOM     27  C   UNL     1       7.102  26.728  35.373  1.00  0.00     0.017 C 
ATOM     28  C   UNL     1       6.524  28.125  35.637  1.00  0.00     0.012 C 
ATOM     29  C   UNL     1       7.856  26.634  34.030  1.00  0.00     0.012 C 
ENDBRANCH  20  27
BRANCH  21  30
ATOM     30  O   UNL     1       6.876  24.776  39.853  1.00  0.00    -0.504 OA
ATOM     31  H   UNL     1       6.579  23.835  40.074  1.00  0.00     0.293 HD
ENDBRANCH  21  30
BRANCH  22  32
ATOM     32  O   UNL     1       5.875  26.415  38.001  1.00  0.00    -0.504 OA
ATOM     33  H   UNL     1       5.068  26.193  37.432  1.00  0.00     0.293 HD
ENDBRANCH  22  32
ENDBRANCH  11  12
BRANCH  10  34
ATOM     34  O   UNL     1      14.109  26.793  37.376  1.00  0.00    -0.507 OA
ATOM     35  H   UNL     1      14.557  27.682  37.201  1.00  0.00     0.293 HD
ENDBRANCH  10  34
BRANCH   9  36
ATOM     36  C   UNL     1      17.951  22.215  35.364  1.00  0.00     0.017 C 
ATOM     37  C   UNL     1      19.465  22.176  35.132  1.00  0.00     0.012 C 
ATOM     38  C   UNL     1      17.179  21.890  34.071  1.00  0.00     0.012 C 
ENDBRANCH   9  36
BRANCH   6  39
ATOM     39  C   UNL     1      16.674  27.609  37.071  1.00  0.00     0.264 C 
ATOM     40  O   UNL     1      16.580  28.112  38.223  1.00  0.00    -0.298 OA
ENDBRANCH   6  39
BRANCH   8  41
ATOM     41  O   UNL     1      19.776  23.831  36.894  1.00  0.00    -0.504 OA
ATOM     42  H   UNL     1      20.526  23.812  36.219  1.00  0.00     0.293 HD
ENDBRANCH   8  41
BRANCH   7  43
ATOM     43  O   UNL     1      19.195  26.573  37.410  1.00  0.00    -0.504 OA
ATOM     44  H   UNL     1      19.042  27.560  37.565  1.00  0.00     0.293 HD
ENDBRANCH   7  43
TORSDOF 11
ENDMDL
MODEL 5
REMARK VINA RESULT:    -4.491      1.738      8.942
REMARK INTER + INTRA:          -6.978
REMARK INTER:                  -7.225
REMARK INTRA:                   0.248
REMARK UNBOUND:                -0.386
REMARK SMILES Cc1cc2c(C(C)C)c(O)c(O)c(C=O)c2c(O)c1-c1c(C)cc2c(C(C)C)c(O)c(O)c(C=O)c2c1O
REMARK SMILES IDX 1 1 2 2 3 3 4 4 16 5 13 6 11 7 9 8 5 9 17 10 19 11 20 12
REMARK SMILES IDX 37 13 21 14 36 15 23 16 22 17 24 18 33 19 25 20 31 21 29 22
REMARK SMILES IDX 38 23 34 25 35 26 26 27 27 28 28 29 32 30 30 32 18 34 6 36
REMARK SMILES IDX 7 37 8 38 14 39 15 40 10 41 12 43
REMARK H PARENT 38 24 32 31 30 33 18 35 10 42 12 44
REMARK Flexibility Score: inf
ROOT
ATOM      1  C   UNL     1      13.857  28.112  36.704  1.00  0.00     0.045 C 
ATOM      2  C   UNL     1      14.534  26.867  36.187  1.00  0.00    -0.039 A 
ATOM      3  C   UNL     1      15.900  26.900  35.898  1.00  0.00     0.013 A 
ATOM      4  C   UNL     1      16.595  25.758  35.442  1.00  0.00    -0.006 A 
ATOM      5  C   UNL     1      15.859  24.556  35.214  1.00  0.00     0.039 A 
ATOM      6  C   UNL     1      16.556  23.399  34.766  1.00  0.00     0.072 A 
ATOM      7  C   UNL     1      17.884  23.507  34.328  1.00  0.00     0.169 A 
ATOM      8  C   UNL     1      18.575  24.725  34.452  1.00  0.00     0.162 A 
ATOM      9  C   UNL     1      17.997  25.801  35.163  1.00  0.00     0.008 A 
ATOM     10  C   UNL     1      14.445  24.566  35.388  1.00  0.00     0.132 A 
ATOM     11  C   UNL     1      13.799  25.700  35.923  1.00  0.00     0.031 A 
ENDROOT
BRANCH  11  12
ATOM     12  C   UNL     1      12.333  25.677  36.174  1.00  0.00     0.031 A 
ATOM     13  C   UNL     1      11.461  26.440  35.367  1.00  0.00     0.132 A 
ATOM     14  C   UNL     1      11.818  24.877  37.203  1.00  0.00    -0.039 A 
ATOM     15  C   UNL     1      10.057  26.460  35.638  1.00  0.00     0.039 A 
ATOM     16  C   UNL     1      10.445  24.860  37.440  1.00  0.00     0.013 A 
ATOM     17  C   UNL     1      12.722  23.994  38.029  1.00  0.00     0.045 C 
ATOM     18  C   UNL     1       9.549  25.674  36.719  1.00  0.00    -0.006 A 
ATOM     19  C   UNL     1       9.141  27.213  34.843  1.00  0.00     0.072 A 
ATOM     20  C   UNL     1       8.153  25.695  37.032  1.00  0.00     0.008 A 
ATOM     21  C   UNL     1       7.756  27.095  35.070  1.00  0.00     0.169 A 
ATOM     22  C   UNL     1       7.270  26.307  36.111  1.00  0.00     0.162 A 
BRANCH  13  23
ATOM     23  O   UNL     1      11.987  27.155  34.286  1.00  0.00    -0.507 OA
ATOM     24  H   UNL     1      12.082  26.780  33.350  1.00  0.00     0.293 HD
ENDBRANCH  13  23
BRANCH  19  25
ATOM     25  C   UNL     1       9.597  28.124  33.773  1.00  0.00     0.264 C 
ATOM     26  O   UNL     1       9.155  28.009  32.600  1.00  0.00    -0.298 OA
ENDBRANCH  19  25
BRANCH  20  27
ATOM     27  C   UNL     1       7.568  25.168  38.358  1.00  0.00     0.017 C 
ATOM     28  C   UNL     1       8.386  24.007  38.938  1.00  0.00     0.012 C 
ATOM     29  C   UNL     1       7.256  26.262  39.401  1.00  0.00     0.012 C 
ENDBRANCH  20  27
BRANCH  21  30
ATOM     30  O   UNL     1       6.815  27.774  34.287  1.00  0.00    -0.504 OA
ATOM     31  H   UNL     1       6.155  28.448  34.650  1.00  0.00     0.293 HD
ENDBRANCH  21  30
BRANCH  22  32
ATOM     32  O   UNL     1       5.880  26.163  36.197  1.00  0.00    -0.504 OA
ATOM     33  H   UNL     1       5.298  25.825  35.441  1.00  0.00     0.293 HD
ENDBRANCH  22  32
ENDBRANCH  11  12
BRANCH  10  34
ATOM     34  O   UNL     1      13.679  23.470  34.973  1.00  0.00    -0.507 OA
ATOM     35  H   UNL     1      13.901  22.902  34.166  1.00  0.00     0.293 HD
ENDBRANCH  10  34
BRANCH   9  36
ATOM     36  C   UNL     1      18.865  27.009  35.558  1.00  0.00     0.017 C 
ATOM     37  C   UNL     1      18.444  27.563  36.923  1.00  0.00     0.012 C 
ATOM     38  C   UNL     1      18.908  28.121  34.493  1.00  0.00     0.012 C 
ENDBRANCH   9  36
BRANCH   6  39
ATOM     39  C   UNL     1      15.973  22.038  34.811  1.00  0.00     0.264 C 
ATOM     40  O   UNL     1      15.771  21.388  33.750  1.00  0.00    -0.298 OA
ENDBRANCH   6  39
BRANCH   8  41
ATOM     41  O   UNL     1      19.835  24.890  33.870  1.00  0.00    -0.504 OA
ATOM     42  H   UNL     1      20.006  24.858  32.876  1.00  0.00     0.293 HD
ENDBRANCH   8  41
BRANCH   7  43
ATOM     43  O   UNL     1      18.513  22.365  33.817  1.00  0.00    -0.504 OA
ATOM     44  H   UNL     1      19.483  22.333  33.536  1.00  0.00     0.293 HD
ENDBRANCH   7  43
TORSDOF 11
ENDMDL
MODEL 6
REMARK VINA RESULT:    -4.233      2.184      8.953
REMARK INTER + INTRA:          -6.599
REMARK INTER:                  -7.073
REMARK INTRA:                   0.474
REMARK UNBOUND:                -0.386
REMARK SMILES Cc1cc2c(C(C)C)c(O)c(O)c(C=O)c2c(O)c1-c1c(C)cc2c(C(C)C)c(O)c(O)c(C=O)c2c1O
REMARK SMILES IDX 1 1 2 2 3 3 4 4 16 5 13 6 11 7 9 8 5 9 17 10 19 11 20 12
REMARK SMILES IDX 37 13 21 14 36 15 23 16 22 17 24 18 33 19 25 20 31 21 29 22
REMARK SMILES IDX 38 23 34 25 35 26 26 27 27 28 28 29 32 30 30 32 18 34 6 36
REMARK SMILES IDX 7 37 8 38 14 39 15 40 10 41 12 43
REMARK H PARENT 38 24 32 31 30 33 18 35 10 42 12 44
REMARK Flexibility Score: inf
ROOT
ATOM      1  C   UNL     1      12.870  22.503  34.928  1.00  0.00     0.045 C 
ATOM      2  C   UNL     1      13.907  23.512  35.355  1.00  0.00    -0.039 A 
ATOM      3  C   UNL     1      15.261  23.224  35.166  1.00  0.00     0.013 A 
ATOM      4  C   UNL     1      16.276  24.142  35.517  1.00  0.00    -0.006 A 
ATOM      5  C   UNL     1      15.899  25.371  36.139  1.00  0.00     0.039 A 
ATOM      6  C   UNL     1      16.917  26.305  36.484  1.00  0.00     0.072 A 
ATOM      7  C   UNL     1      18.265  25.922  36.436  1.00  0.00     0.169 A 
ATOM      8  C   UNL     1      18.627  24.664  35.923  1.00  0.00     0.162 A 
ATOM      9  C   UNL     1      17.657  23.842  35.305  1.00  0.00     0.008 A 
ATOM     10  C   UNL     1      14.528  25.601  36.446  1.00  0.00     0.132 A 
ATOM     11  C   UNL     1      13.536  24.700  36.006  1.00  0.00     0.031 A 
ENDROOT
BRANCH  11  12
ATOM     12  C   UNL     1      12.099  24.984  36.263  1.00  0.00     0.031 A 
ATOM     13  C   UNL     1      11.394  25.889  35.440  1.00  0.00     0.132 A 
ATOM     14  C   UNL     1      11.441  24.331  37.314  1.00  0.00    -0.039 A 
ATOM     15  C   UNL     1      10.027  26.203  35.715  1.00  0.00     0.039 A 
ATOM     16  C   UNL     1      10.095  24.601  37.556  1.00  0.00     0.013 A 
ATOM     17  C   UNL     1      12.153  23.303  38.160  1.00  0.00     0.045 C 
ATOM     18  C   UNL     1       9.378  25.563  36.818  1.00  0.00    -0.006 A 
ATOM     19  C   UNL     1       9.276  27.107  34.904  1.00  0.00     0.072 A 
ATOM     20  C   UNL     1       8.019  25.877  37.136  1.00  0.00     0.008 A 
ATOM     21  C   UNL     1       7.899  27.280  35.140  1.00  0.00     0.169 A 
ATOM     22  C   UNL     1       7.271  26.634  36.202  1.00  0.00     0.162 A 
BRANCH  13  23
ATOM     23  O   UNL     1      12.046  26.455  34.338  1.00  0.00    -0.507 OA
ATOM     24  H   UNL     1      13.013  26.278  34.100  1.00  0.00     0.293 HD
ENDBRANCH  13  23
BRANCH  19  25
ATOM     25  C   UNL     1       9.900  27.879  33.810  1.00  0.00     0.264 C 
ATOM     26  O   UNL     1       9.362  27.929  32.672  1.00  0.00    -0.298 OA
ENDBRANCH  19  25
BRANCH  20  27
ATOM     27  C   UNL     1       7.350  25.513  38.476  1.00  0.00     0.017 C 
ATOM     28  C   UNL     1       7.860  24.182  39.043  1.00  0.00     0.012 C 
ATOM     29  C   UNL     1       7.349  26.649  39.521  1.00  0.00     0.012 C 
ENDBRANCH  20  27
BRANCH  21  30
ATOM     30  O   UNL     1       7.109  28.117  34.342  1.00  0.00    -0.504 OA
ATOM     31  H   UNL     1       6.290  28.608  34.673  1.00  0.00     0.293 HD
ENDBRANCH  21  30
BRANCH  22  32
ATOM     32  O   UNL     1       5.882  26.779  36.296  1.00  0.00    -0.504 OA
ATOM     33  H   UNL     1       5.293  26.211  36.891  1.00  0.00     0.293 HD
ENDBRANCH  22  32
ENDBRANCH  11  12
BRANCH  10  34
ATOM     34  O   UNL     1      14.160  26.695  37.238  1.00  0.00    -0.507 OA
ATOM     35  H   UNL     1      13.276  26.766  37.725  1.00  0.00     0.293 HD
ENDBRANCH  10  34
BRANCH   9  36
ATOM     36  C   UNL     1      18.104  22.620  34.483  1.00  0.00     0.017 C 
ATOM     37  C   UNL     1      19.220  22.999  33.503  1.00  0.00     0.012 C 
ATOM     38  C   UNL     1      16.951  21.896  33.763  1.00  0.00     0.012 C 
ENDBRANCH   9  36
BRANCH   6  39
ATOM     39  C   UNL     1      16.633  27.719  36.822  1.00  0.00     0.264 C 
ATOM     40  O   UNL     1      16.551  28.090  38.024  1.00  0.00    -0.298 OA
ENDBRANCH   6  39
BRANCH   8  41
ATOM     41  O   UNL     1      19.944  24.207  36.025  1.00  0.00    -0.504 OA
ATOM     42  H   UNL     1      20.496  23.894  35.240  1.00  0.00     0.293 HD
ENDBRANCH   8  41
BRANCH   7  43
ATOM     43  O   UNL     1      19.235  26.838  36.860  1.00  0.00    -0.504 OA
ATOM     44  H   UNL     1      19.357  27.758  36.460  1.00  0.00     0.293 HD
ENDBRANCH   7  43
TORSDOF 11
ENDMDL
