MODEL 1
REMARK VINA RESULT:    -5.798      0.000      0.000
REMARK INTER + INTRA:          -9.910
REMARK INTER:                  -8.849
REMARK INTRA:                  -1.062
REMARK UNBOUND:                -1.062
REMARK SMILES OC[C@@H]1O[C@@H](O[C@@]2(CO)O[C@H](CO)[C@@H](O)[C@@H]2O)[C@H](O)[C@@H](O)[C@@H]1O
REMARK SMILES IDX 6 1 5 2 3 3 22 4 4 5 20 6 18 7 2 8 1 9 23 11 21 13 19 15
REMARK SMILES IDX 7 17 16 18 10 19 14 20 11 21 8 22 9 23 17 25 15 27 12 29
REMARK SMILES IDX 13 30
REMARK H PARENT 1 10 23 12 21 14 19 16 9 24 17 26 15 28 13 31
REMARK Flexibility Score: inf
ROOT
ATOM      1  O   UNL     1       3.622   9.813 -24.787  1.00  0.00    -0.313 OA
ENDROOT
BRANCH   1   2
ATOM      2  C   UNL     1       2.923   8.649 -24.359  1.00  0.00     0.285 C 
ATOM      3  C   UNL     1       3.259   7.584 -26.426  1.00  0.00     0.178 C 
ATOM      4  C   UNL     1       1.763   7.639 -26.814  1.00  0.00     0.177 C 
ATOM      5  O   UNL     1       3.410   7.489 -25.018  1.00  0.00    -0.341 OA
ATOM      6  C   UNL     1       1.090   8.832 -26.116  1.00  0.00     0.179 C 
ATOM      7  C   UNL     1       1.410   8.834 -24.606  1.00  0.00     0.202 C 
BRANCH   3   8
ATOM      8  C   UNL     1       3.962   6.391 -27.083  1.00  0.00     0.191 C 
BRANCH   8   9
ATOM      9  O   UNL     1       3.834   5.262 -26.262  1.00  0.00    -0.394 OA
ATOM     10  H   UNL     1       4.269   5.498 -25.401  1.00  0.00     0.210 HD
ENDBRANCH   8   9
ENDBRANCH   3   8
BRANCH   4  11
ATOM     11  O   UNL     1       1.111   6.451 -26.432  1.00  0.00    -0.387 OA
ATOM     12  H   UNL     1       0.588   6.138 -27.216  1.00  0.00     0.211 HD
ENDBRANCH   4  11
BRANCH   6  13
ATOM     13  O   UNL     1       1.530  10.028 -26.709  1.00  0.00    -0.387 OA
ATOM     14  H   UNL     1       2.082   9.775 -27.495  1.00  0.00     0.211 HD
ENDBRANCH   6  13
BRANCH   7  15
ATOM     15  O   UNL     1       0.692   7.802 -23.978  1.00  0.00    -0.385 OA
ATOM     16  H   UNL     1       1.328   7.329 -23.380  1.00  0.00     0.211 HD
ENDBRANCH   7  15
ENDBRANCH   1   2
BRANCH   1  17
ATOM     17  C   UNL     1       4.234  10.586 -23.752  1.00  0.00     0.224 C 
ATOM     18  C   UNL     1       5.194  11.650 -24.334  1.00  0.00     0.208 C 
ATOM     19  O   UNL     1       5.065   9.699 -23.037  1.00  0.00    -0.337 OA
ATOM     20  C   UNL     1       6.444  10.848 -24.633  1.00  0.00     0.180 C 
ATOM     21  C   UNL     1       6.291   9.610 -23.734  1.00  0.00     0.179 C 
BRANCH  17  22
ATOM     22  C   UNL     1       3.200  11.143 -22.733  1.00  0.00     0.225 C 
BRANCH  22  23
ATOM     23  O   UNL     1       2.430  12.190 -23.267  1.00  0.00    -0.391 OA
ATOM     24  H   UNL     1       1.803  11.792 -23.925  1.00  0.00     0.210 HD
ENDBRANCH  22  23
ENDBRANCH  17  22
BRANCH  18  25
ATOM     25  O   UNL     1       5.475  12.678 -23.410  1.00  0.00    -0.385 OA
ATOM     26  H   UNL     1       5.500  12.283 -22.500  1.00  0.00     0.211 HD
ENDBRANCH  18  25
BRANCH  20  27
ATOM     27  O   UNL     1       6.457  10.473 -25.986  1.00  0.00    -0.387 OA
ATOM     28  H   UNL     1       5.599  10.002 -26.156  1.00  0.00     0.211 HD
ENDBRANCH  20  27
BRANCH  21  29
ATOM     29  C   UNL     1       7.445   9.492 -22.731  1.00  0.00     0.191 C 
BRANCH  29  30
ATOM     30  O   UNL     1       7.239   8.400 -21.874  1.00  0.00    -0.394 OA
ATOM     31  H   UNL     1       7.693   7.622 -22.290  1.00  0.00     0.210 HD
ENDBRANCH  29  30
ENDBRANCH  21  29
ENDBRANCH   1  17
TORSDOF 13
ENDMDL
MODEL 2
REMARK VINA RESULT:    -5.737      2.004      2.646
REMARK INTER + INTRA:          -9.818
REMARK INTER:                  -8.527
REMARK INTRA:                  -1.291
REMARK UNBOUND:                -1.062
REMARK SMILES OC[C@@H]1O[C@@H](O[C@@]2(CO)O[C@H](CO)[C@@H](O)[C@@H]2O)[C@H](O)[C@@H](O)[C@@H]1O
REMARK SMILES IDX 6 1 5 2 3 3 22 4 4 5 20 6 18 7 2 8 1 9 23 11 21 13 19 15
REMARK SMILES IDX 7 17 16 18 10 19 14 20 11 21 8 22 9 23 17 25 15 27 12 29
REMARK SMILES IDX 13 30
REMARK H PARENT 1 10 23 12 21 14 19 16 9 24 17 26 15 28 13 31
REMARK Flexibility Score: inf
ROOT
ATOM      1  O   UNL     1       4.309   9.140 -24.235  1.00  0.00    -0.313 OA
ENDROOT
BRANCH   1   2
ATOM      2  C   UNL     1       3.310   8.433 -23.510  1.00  0.00     0.285 C 
ATOM      3  C   UNL     1       4.771   6.643 -23.082  1.00  0.00     0.178 C 
ATOM      4  C   UNL     1       3.994   5.658 -23.987  1.00  0.00     0.177 C 
ATOM      5  O   UNL     1       3.893   7.603 -22.514  1.00  0.00    -0.341 OA
ATOM      6  C   UNL     1       3.259   6.438 -25.091  1.00  0.00     0.179 C 
ATOM      7  C   UNL     1       2.449   7.605 -24.488  1.00  0.00     0.202 C 
BRANCH   3   8
ATOM      8  C   UNL     1       5.497   5.905 -21.952  1.00  0.00     0.191 C 
BRANCH   8   9
ATOM      9  O   UNL     1       5.751   4.583 -22.342  1.00  0.00    -0.394 OA
ATOM     10  H   UNL     1       6.691   4.566 -22.659  1.00  0.00     0.210 HD
ENDBRANCH   8   9
ENDBRANCH   3   8
BRANCH   4  11
ATOM     11  O   UNL     1       3.055   4.930 -23.232  1.00  0.00    -0.387 OA
ATOM     12  H   UNL     1       2.285   5.533 -23.060  1.00  0.00     0.211 HD
ENDBRANCH   4  11
BRANCH   6  13
ATOM     13  O   UNL     1       4.195   6.923 -26.020  1.00  0.00    -0.387 OA
ATOM     14  H   UNL     1       3.761   6.889 -26.912  1.00  0.00     0.211 HD
ENDBRANCH   6  13
BRANCH   7  15
ATOM     15  O   UNL     1       1.323   7.093 -23.820  1.00  0.00    -0.385 OA
ATOM     16  H   UNL     1       0.542   7.628 -24.115  1.00  0.00     0.211 HD
ENDBRANCH   7  15
ENDBRANCH   1   2
BRANCH   1  17
ATOM     17  C   UNL     1       4.659  10.426 -23.717  1.00  0.00     0.224 C 
ATOM     18  C   UNL     1       5.149  11.372 -24.838  1.00  0.00     0.208 C 
ATOM     19  O   UNL     1       5.784  10.226 -22.891  1.00  0.00    -0.337 OA
ATOM     20  C   UNL     1       6.586  10.937 -25.041  1.00  0.00     0.180 C 
ATOM     21  C   UNL     1       6.926  10.220 -23.724  1.00  0.00     0.179 C 
BRANCH  17  22
ATOM     22  C   UNL     1       3.546  11.026 -22.811  1.00  0.00     0.225 C 
BRANCH  22  23
ATOM     23  O   UNL     1       2.665  11.858 -23.523  1.00  0.00    -0.391 OA
ATOM     24  H   UNL     1       1.978  12.179 -22.884  1.00  0.00     0.210 HD
ENDBRANCH  22  23
ENDBRANCH  17  22
BRANCH  18  25
ATOM     25  O   UNL     1       5.094  12.729 -24.454  1.00  0.00    -0.385 OA
ATOM     26  H   UNL     1       5.694  12.858 -23.674  1.00  0.00     0.211 HD
ENDBRANCH  18  25
BRANCH  20  27
ATOM     27  O   UNL     1       6.664  10.042 -26.121  1.00  0.00    -0.387 OA
ATOM     28  H   UNL     1       6.940  10.576 -26.910  1.00  0.00     0.211 HD
ENDBRANCH  20  27
BRANCH  21  29
ATOM     29  C   UNL     1       8.096  10.895 -22.997  1.00  0.00     0.191 C 
BRANCH  29  30
ATOM     30  O   UNL     1       8.064  12.282 -23.200  1.00  0.00    -0.394 OA
ATOM     31  H   UNL     1       9.008  12.584 -23.252  1.00  0.00     0.210 HD
ENDBRANCH  29  30
ENDBRANCH  21  29
ENDBRANCH   1  17
TORSDOF 13
ENDMDL
MODEL 3
REMARK VINA RESULT:    -5.676      8.272     11.232
REMARK INTER + INTRA:          -9.725
REMARK INTER:                  -8.206
REMARK INTRA:                  -1.518
REMARK UNBOUND:                -1.062
REMARK SMILES OC[C@@H]1O[C@@H](O[C@@]2(CO)O[C@H](CO)[C@@H](O)[C@@H]2O)[C@H](O)[C@@H](O)[C@@H]1O
REMARK SMILES IDX 6 1 5 2 3 3 22 4 4 5 20 6 18 7 2 8 1 9 23 11 21 13 19 15
REMARK SMILES IDX 7 17 16 18 10 19 14 20 11 21 8 22 9 23 17 25 15 27 12 29
REMARK SMILES IDX 13 30
REMARK H PARENT 1 10 23 12 21 14 19 16 9 24 17 26 15 28 13 31
REMARK Flexibility Score: inf
ROOT
ATOM      1  O   UNL     1       3.715  -1.096 -23.998  1.00  0.00    -0.313 OA
ENDROOT
BRANCH   1   2
ATOM      2  C   UNL     1       3.790  -2.455 -24.413  1.00  0.00     0.285 C 
ATOM      3  C   UNL     1       2.987  -3.218 -22.341  1.00  0.00     0.178 C 
ATOM      4  C   UNL     1       4.333  -3.867 -21.941  1.00  0.00     0.177 C 
ATOM      5  O   UNL     1       2.813  -3.246 -23.749  1.00  0.00    -0.341 OA
ATOM      6  C   UNL     1       5.489  -3.134 -22.643  1.00  0.00     0.179 C 
ATOM      7  C   UNL     1       5.213  -2.997 -24.155  1.00  0.00     0.202 C 
BRANCH   3   8
ATOM      8  C   UNL     1       1.805  -3.938 -21.681  1.00  0.00     0.191 C 
BRANCH   8   9
ATOM      9  O   UNL     1       2.251  -4.629 -20.546  1.00  0.00    -0.394 OA
ATOM     10  H   UNL     1       1.469  -4.691 -19.938  1.00  0.00     0.210 HD
ENDBRANCH   8   9
ENDBRANCH   3   8
BRANCH   4  11
ATOM     11  O   UNL     1       4.355  -5.225 -22.310  1.00  0.00    -0.387 OA
ATOM     12  H   UNL     1       5.301  -5.526 -22.268  1.00  0.00     0.211 HD
ENDBRANCH   4  11
BRANCH   6  13
ATOM     13  O   UNL     1       5.657  -1.865 -22.061  1.00  0.00    -0.387 OA
ATOM     14  H   UNL     1       5.639  -1.204 -22.801  1.00  0.00     0.211 HD
ENDBRANCH   6  13
BRANCH   7  15
ATOM     15  O   UNL     1       5.366  -4.252 -24.770  1.00  0.00    -0.385 OA
ATOM     16  H   UNL     1       4.457  -4.634 -24.879  1.00  0.00     0.211 HD
ENDBRANCH   7  15
ENDBRANCH   1   2
BRANCH   1  17
ATOM     17  C   UNL     1       3.893  -0.121 -25.029  1.00  0.00     0.224 C 
ATOM     18  C   UNL     1       5.374   0.307 -25.153  1.00  0.00     0.208 C 
ATOM     19  O   UNL     1       3.214   1.037 -24.598  1.00  0.00    -0.337 OA
ATOM     20  C   UNL     1       5.530   1.305 -24.024  1.00  0.00     0.180 C 
ATOM     21  C   UNL     1       4.085   1.745 -23.740  1.00  0.00     0.179 C 
BRANCH  17  22
ATOM     22  C   UNL     1       3.233  -0.548 -26.372  1.00  0.00     0.225 C 
BRANCH  22  23
ATOM     23  O   UNL     1       2.774   0.552 -27.116  1.00  0.00    -0.391 OA
ATOM     24  H   UNL     1       2.982   0.374 -28.069  1.00  0.00     0.210 HD
ENDBRANCH  22  23
ENDBRANCH  17  22
BRANCH  18  25
ATOM     25  O   UNL     1       5.652   0.917 -26.394  1.00  0.00    -0.385 OA
ATOM     26  H   UNL     1       5.086   0.487 -27.087  1.00  0.00     0.211 HD
ENDBRANCH  18  25
BRANCH  20  27
ATOM     27  O   UNL     1       6.079   0.669 -22.899  1.00  0.00    -0.387 OA
ATOM     28  H   UNL     1       6.037   1.325 -22.155  1.00  0.00     0.211 HD
ENDBRANCH  20  27
BRANCH  21  29
ATOM     29  C   UNL     1       3.899   3.253 -23.951  1.00  0.00     0.191 C 
BRANCH  29  30
ATOM     30  O   UNL     1       4.735   3.710 -24.980  1.00  0.00    -0.394 OA
ATOM     31  H   UNL     1       5.364   4.360 -24.569  1.00  0.00     0.210 HD
ENDBRANCH  29  30
ENDBRANCH  21  29
ENDBRANCH   1  17
TORSDOF 13
ENDMDL
MODEL 4
REMARK VINA RESULT:    -5.671      1.537      5.630
REMARK INTER + INTRA:          -9.716
REMARK INTER:                  -8.148
REMARK INTRA:                  -1.568
REMARK UNBOUND:                -1.062
REMARK SMILES OC[C@@H]1O[C@@H](O[C@@]2(CO)O[C@H](CO)[C@@H](O)[C@@H]2O)[C@H](O)[C@@H](O)[C@@H]1O
REMARK SMILES IDX 6 1 5 2 3 3 22 4 4 5 20 6 18 7 2 8 1 9 23 11 21 13 19 15
REMARK SMILES IDX 7 17 16 18 10 19 14 20 11 21 8 22 9 23 17 25 15 27 12 29
REMARK SMILES IDX 13 30
REMARK H PARENT 1 10 23 12 21 14 19 16 9 24 17 26 15 28 13 31
REMARK Flexibility Score: inf
ROOT
ATOM      1  O   UNL     1       4.632   9.394 -25.339  1.00  0.00    -0.313 OA
ENDROOT
BRANCH   1   2
ATOM      2  C   UNL     1       4.628  10.770 -24.972  1.00  0.00     0.285 C 
ATOM      3  C   UNL     1       6.891  11.017 -25.553  1.00  0.00     0.178 C 
ATOM      4  C   UNL     1       7.351  11.222 -24.091  1.00  0.00     0.177 C 
ATOM      5  O   UNL     1       5.572  11.505 -25.739  1.00  0.00    -0.341 OA
ATOM      6  C   UNL     1       6.373  10.515 -23.136  1.00  0.00     0.179 C 
ATOM      7  C   UNL     1       4.915  10.903 -23.461  1.00  0.00     0.202 C 
BRANCH   3   8
ATOM      8  C   UNL     1       7.827  11.730 -26.536  1.00  0.00     0.191 C 
BRANCH   8   9
ATOM      9  O   UNL     1       7.661  13.116 -26.420  1.00  0.00    -0.394 OA
ATOM     10  H   UNL     1       6.757  13.315 -26.779  1.00  0.00     0.210 HD
ENDBRANCH   8   9
ENDBRANCH   3   8
BRANCH   4  11
ATOM     11  O   UNL     1       7.395  12.593 -23.776  1.00  0.00    -0.387 OA
ATOM     12  H   UNL     1       6.855  12.723 -22.952  1.00  0.00     0.211 HD
ENDBRANCH   4  11
BRANCH   6  13
ATOM     13  O   UNL     1       6.543   9.124 -23.243  1.00  0.00    -0.387 OA
ATOM     14  H   UNL     1       5.788   8.703 -22.755  1.00  0.00     0.211 HD
ENDBRANCH   6  13
BRANCH   7  15
ATOM     15  O   UNL     1       4.683  12.225 -23.045  1.00  0.00    -0.385 OA
ATOM     16  H   UNL     1       4.170  12.671 -23.768  1.00  0.00     0.211 HD
ENDBRANCH   7  15
ENDBRANCH   1   2
BRANCH   1  17
ATOM     17  C   UNL     1       3.347   8.791 -25.502  1.00  0.00     0.224 C 
ATOM     18  C   UNL     1       2.846   8.160 -24.182  1.00  0.00     0.208 C 
ATOM     19  O   UNL     1       3.530   7.703 -26.380  1.00  0.00    -0.337 OA
ATOM     20  C   UNL     1       3.587   6.839 -24.139  1.00  0.00     0.180 C 
ATOM     21  C   UNL     1       3.977   6.607 -25.608  1.00  0.00     0.179 C 
BRANCH  17  22
ATOM     22  C   UNL     1       2.324   9.744 -26.187  1.00  0.00     0.225 C 
BRANCH  22  23
ATOM     23  O   UNL     1       1.297   9.045 -26.843  1.00  0.00    -0.391 OA
ATOM     24  H   UNL     1       0.648   9.717 -27.179  1.00  0.00     0.210 HD
ENDBRANCH  22  23
ENDBRANCH  17  22
BRANCH  18  25
ATOM     25  O   UNL     1       1.452   7.945 -24.187  1.00  0.00    -0.385 OA
ATOM     26  H   UNL     1       1.088   8.231 -23.310  1.00  0.00     0.211 HD
ENDBRANCH  18  25
BRANCH  20  27
ATOM     27  O   UNL     1       4.736   6.964 -23.341  1.00  0.00    -0.387 OA
ATOM     28  H   UNL     1       5.386   6.292 -23.676  1.00  0.00     0.211 HD
ENDBRANCH  20  27
BRANCH  21  29
ATOM     29  C   UNL     1       3.369   5.310 -26.158  1.00  0.00     0.191 C 
BRANCH  29  30
ATOM     30  O   UNL     1       1.972   5.335 -26.038  1.00  0.00    -0.394 OA
ATOM     31  H   UNL     1       1.722   6.268 -25.808  1.00  0.00     0.210 HD
ENDBRANCH  29  30
ENDBRANCH  21  29
ENDBRANCH   1  17
TORSDOF 13
ENDMDL
MODEL 5
REMARK VINA RESULT:    -5.551      8.838     12.148
REMARK INTER + INTRA:          -9.533
REMARK INTER:                  -8.210
REMARK INTRA:                  -1.323
REMARK UNBOUND:                -1.062
REMARK SMILES OC[C@@H]1O[C@@H](O[C@@]2(CO)O[C@H](CO)[C@@H](O)[C@@H]2O)[C@H](O)[C@@H](O)[C@@H]1O
REMARK SMILES IDX 6 1 5 2 3 3 22 4 4 5 20 6 18 7 2 8 1 9 23 11 21 13 19 15
REMARK SMILES IDX 7 17 16 18 10 19 14 20 11 21 8 22 9 23 17 25 15 27 12 29
REMARK SMILES IDX 13 30
REMARK H PARENT 1 10 23 12 21 14 19 16 9 24 17 26 15 28 13 31
REMARK Flexibility Score: inf
ROOT
ATOM      1  O   UNL     1       3.968  -1.835 -23.572  1.00  0.00    -0.313 OA
ENDROOT
BRANCH   1   2
ATOM      2  C   UNL     1       5.166  -1.112 -23.837  1.00  0.00     0.285 C 
ATOM      3  C   UNL     1       4.379   0.778 -22.684  1.00  0.00     0.178 C 
ATOM      4  C   UNL     1       4.259   1.637 -23.964  1.00  0.00     0.177 C 
ATOM      5  O   UNL     1       5.430  -0.167 -22.809  1.00  0.00    -0.341 OA
ATOM      6  C   UNL     1       4.023   0.724 -25.180  1.00  0.00     0.179 C 
ATOM      7  C   UNL     1       5.058  -0.420 -25.213  1.00  0.00     0.202 C 
BRANCH   3   8
ATOM      8  C   UNL     1       4.640   1.650 -21.451  1.00  0.00     0.191 C 
BRANCH   8   9
ATOM      9  O   UNL     1       4.034   2.902 -21.626  1.00  0.00    -0.394 OA
ATOM     10  H   UNL     1       4.427   3.284 -22.453  1.00  0.00     0.210 HD
ENDBRANCH   8   9
ENDBRANCH   3   8
BRANCH   4  11
ATOM     11  O   UNL     1       5.433   2.385 -24.168  1.00  0.00    -0.387 OA
ATOM     12  H   UNL     1       5.440   3.111 -23.490  1.00  0.00     0.211 HD
ENDBRANCH   4  11
BRANCH   6  13
ATOM     13  O   UNL     1       2.720   0.201 -25.124  1.00  0.00    -0.387 OA
ATOM     14  H   UNL     1       2.558  -0.264 -25.986  1.00  0.00     0.211 HD
ENDBRANCH   6  13
BRANCH   7  15
ATOM     15  O   UNL     1       6.310   0.097 -25.588  1.00  0.00    -0.385 OA
ATOM     16  H   UNL     1       6.159   1.029 -25.893  1.00  0.00     0.211 HD
ENDBRANCH   7  15
ENDBRANCH   1   2
BRANCH   1  17
ATOM     17  C   UNL     1       4.137  -3.101 -22.931  1.00  0.00     0.224 C 
ATOM     18  C   UNL     1       3.002  -4.082 -23.309  1.00  0.00     0.208 C 
ATOM     19  O   UNL     1       3.973  -2.870 -21.550  1.00  0.00    -0.337 OA
ATOM     20  C   UNL     1       1.867  -3.647 -22.404  1.00  0.00     0.180 C 
ATOM     21  C   UNL     1       2.587  -2.886 -21.279  1.00  0.00     0.179 C 
BRANCH  17  22
ATOM     22  C   UNL     1       5.570  -3.677 -23.117  1.00  0.00     0.225 C 
BRANCH  22  23
ATOM     23  O   UNL     1       5.656  -4.565 -24.202  1.00  0.00    -0.391 OA
ATOM     24  H   UNL     1       6.351  -4.216 -24.818  1.00  0.00     0.210 HD
ENDBRANCH  22  23
ENDBRANCH  17  22
BRANCH  18  25
ATOM     25  O   UNL     1       3.349  -5.425 -23.055  1.00  0.00    -0.385 OA
ATOM     26  H   UNL     1       3.984  -5.722 -23.758  1.00  0.00     0.211 HD
ENDBRANCH  18  25
BRANCH  20  27
ATOM     27  O   UNL     1       1.004  -2.787 -23.104  1.00  0.00    -0.387 OA
ATOM     28  H   UNL     1       0.143  -3.270 -23.201  1.00  0.00     0.211 HD
ENDBRANCH  20  27
BRANCH  21  29
ATOM     29  C   UNL     1       2.339  -3.532 -19.910  1.00  0.00     0.191 C 
BRANCH  29  30
ATOM     30  O   UNL     1       2.439  -4.928 -20.001  1.00  0.00    -0.394 OA
ATOM     31  H   UNL     1       2.417  -5.277 -19.072  1.00  0.00     0.210 HD
ENDBRANCH  29  30
ENDBRANCH  21  29
ENDBRANCH   1  17
TORSDOF 13
ENDMDL
MODEL 6
REMARK VINA RESULT:    -5.516      8.329     11.735
REMARK INTER + INTRA:          -9.479
REMARK INTER:                  -8.491
REMARK INTRA:                  -0.988
REMARK UNBOUND:                -1.062
REMARK SMILES OC[C@@H]1O[C@@H](O[C@@]2(CO)O[C@H](CO)[C@@H](O)[C@@H]2O)[C@H](O)[C@@H](O)[C@@H]1O
REMARK SMILES IDX 6 1 5 2 3 3 22 4 4 5 20 6 18 7 2 8 1 9 23 11 21 13 19 15
REMARK SMILES IDX 7 17 16 18 10 19 14 20 11 21 8 22 9 23 17 25 15 27 12 29
REMARK SMILES IDX 13 30
REMARK H PARENT 1 10 23 12 21 14 19 16 9 24 17 26 15 28 13 31
REMARK Flexibility Score: inf
ROOT
ATOM      1  O   UNL     1       4.675  -1.472 -24.582  1.00  0.00    -0.313 OA
ENDROOT
BRANCH   1   2
ATOM      2  C   UNL     1       4.532  -2.886 -24.673  1.00  0.00     0.285 C 
ATOM      3  C   UNL     1       3.131  -2.949 -22.788  1.00  0.00     0.178 C 
ATOM      4  C   UNL     1       4.170  -3.689 -21.913  1.00  0.00     0.177 C 
ATOM      5  O   UNL     1       3.277  -3.306 -24.154  1.00  0.00    -0.341 OA
ATOM      6  C   UNL     1       5.589  -3.362 -22.407  1.00  0.00     0.179 C 
ATOM      7  C   UNL     1       5.699  -3.573 -23.932  1.00  0.00     0.202 C 
BRANCH   3   8
ATOM      8  C   UNL     1       1.699  -3.269 -22.343  1.00  0.00     0.191 C 
BRANCH   8   9
ATOM      9  O   UNL     1       0.792  -2.530 -23.114  1.00  0.00    -0.394 OA
ATOM     10  H   UNL     1       1.207  -2.435 -24.010  1.00  0.00     0.210 HD
ENDBRANCH   8   9
ENDBRANCH   3   8
BRANCH   4  11
ATOM     11  O   UNL     1       3.966  -5.080 -21.975  1.00  0.00    -0.387 OA
ATOM     12  H   UNL     1       4.548  -5.493 -21.285  1.00  0.00     0.211 HD
ENDBRANCH   4  11
BRANCH   6  13
ATOM     13  O   UNL     1       5.904  -2.034 -22.075  1.00  0.00    -0.387 OA
ATOM     14  H   UNL     1       5.062  -1.513 -22.137  1.00  0.00     0.211 HD
ENDBRANCH   6  13
BRANCH   7  15
ATOM     15  O   UNL     1       5.699  -4.950 -24.212  1.00  0.00    -0.385 OA
ATOM     16  H   UNL     1       5.238  -5.400 -23.457  1.00  0.00     0.211 HD
ENDBRANCH   7  15
ENDBRANCH   1   2
BRANCH   1  17
ATOM     17  C   UNL     1       4.797  -0.779 -25.826  1.00  0.00     0.224 C 
ATOM     18  C   UNL     1       5.236   0.689 -25.615  1.00  0.00     0.208 C 
ATOM     19  O   UNL     1       3.496  -0.697 -26.362  1.00  0.00    -0.337 OA
ATOM     20  C   UNL     1       3.941   1.374 -25.229  1.00  0.00     0.180 C 
ATOM     21  C   UNL     1       2.864   0.420 -25.770  1.00  0.00     0.179 C 
BRANCH  17  22
ATOM     22  C   UNL     1       5.654  -1.562 -26.863  1.00  0.00     0.225 C 
BRANCH  22  23
ATOM     23  O   UNL     1       7.033  -1.417 -26.638  1.00  0.00    -0.391 OA
ATOM     24  H   UNL     1       7.361  -2.266 -26.245  1.00  0.00     0.210 HD
ENDBRANCH  22  23
ENDBRANCH  17  22
BRANCH  18  25
ATOM     25  O   UNL     1       5.768   1.262 -26.788  1.00  0.00    -0.385 OA
ATOM     26  H   UNL     1       5.136   1.093 -27.534  1.00  0.00     0.211 HD
ENDBRANCH  18  25
BRANCH  20  27
ATOM     27  O   UNL     1       3.852   1.472 -23.831  1.00  0.00    -0.387 OA
ATOM     28  H   UNL     1       4.751   1.747 -23.510  1.00  0.00     0.211 HD
ENDBRANCH  20  27
BRANCH  21  29
ATOM     29  C   UNL     1       1.964   1.109 -26.804  1.00  0.00     0.191 C 
BRANCH  29  30
ATOM     30  O   UNL     1       2.342   2.449 -26.967  1.00  0.00    -0.394 OA
ATOM     31  H   UNL     1       2.062   2.716 -27.881  1.00  0.00     0.210 HD
ENDBRANCH  29  30
ENDBRANCH  21  29
ENDBRANCH   1  17
TORSDOF 13
ENDMDL
MODEL 7
REMARK VINA RESULT:    -5.391      1.814      5.753
REMARK INTER + INTRA:          -9.288
REMARK INTER:                  -8.422
REMARK INTRA:                  -0.866
REMARK UNBOUND:                -1.062
REMARK SMILES OC[C@@H]1O[C@@H](O[C@@]2(CO)O[C@H](CO)[C@@H](O)[C@@H]2O)[C@H](O)[C@@H](O)[C@@H]1O
REMARK SMILES IDX 6 1 5 2 3 3 22 4 4 5 20 6 18 7 2 8 1 9 23 11 21 13 19 15
REMARK SMILES IDX 7 17 16 18 10 19 14 20 11 21 8 22 9 23 17 25 15 27 12 29
REMARK SMILES IDX 13 30
REMARK H PARENT 1 10 23 12 21 14 19 16 9 24 17 26 15 28 13 31
REMARK Flexibility Score: inf
ROOT
ATOM      1  O   UNL     1       5.078   8.131 -23.970  1.00  0.00    -0.313 OA
ENDROOT
BRANCH   1   2
ATOM      2  C   UNL     1       5.589   9.099 -23.060  1.00  0.00     0.285 C 
ATOM      3  C   UNL     1       4.010  10.698 -23.744  1.00  0.00     0.178 C 
ATOM      4  C   UNL     1       5.068  11.609 -24.409  1.00  0.00     0.177 C 
ATOM      5  O   UNL     1       4.569   9.997 -22.645  1.00  0.00    -0.341 OA
ATOM      6  C   UNL     1       6.270  10.762 -24.863  1.00  0.00     0.179 C 
ATOM      7  C   UNL     1       6.764   9.857 -23.715  1.00  0.00     0.202 C 
BRANCH   3   8
ATOM      8  C   UNL     1       2.805  11.510 -23.255  1.00  0.00     0.191 C 
BRANCH   8   9
ATOM      9  O   UNL     1       2.453  11.094 -21.964  1.00  0.00    -0.394 OA
ATOM     10  H   UNL     1       2.087  11.895 -21.507  1.00  0.00     0.210 HD
ENDBRANCH   8   9
ENDBRANCH   3   8
BRANCH   4  11
ATOM     11  O   UNL     1       5.511  12.593 -23.505  1.00  0.00    -0.387 OA
ATOM     12  H   UNL     1       4.733  13.177 -23.302  1.00  0.00     0.211 HD
ENDBRANCH   4  11
BRANCH   6  13
ATOM     13  O   UNL     1       5.898   9.984 -25.973  1.00  0.00    -0.387 OA
ATOM     14  H   UNL     1       5.886   9.038 -25.671  1.00  0.00     0.211 HD
ENDBRANCH   6  13
BRANCH   7  15
ATOM     15  O   UNL     1       7.423  10.642 -22.754  1.00  0.00    -0.385 OA
ATOM     16  H   UNL     1       7.516  11.552 -23.138  1.00  0.00     0.211 HD
ENDBRANCH   7  15
ENDBRANCH   1   2
BRANCH   1  17
ATOM     17  C   UNL     1       4.409   7.015 -23.379  1.00  0.00     0.224 C 
ATOM     18  C   UNL     1       4.423   5.786 -24.317  1.00  0.00     0.208 C 
ATOM     19  O   UNL     1       3.050   7.379 -23.277  1.00  0.00    -0.337 OA
ATOM     20  C   UNL     1       3.301   6.090 -25.288  1.00  0.00     0.180 C 
ATOM     21  C   UNL     1       2.446   7.116 -24.526  1.00  0.00     0.179 C 
BRANCH  17  22
ATOM     22  C   UNL     1       4.899   6.724 -21.932  1.00  0.00     0.225 C 
BRANCH  22  23
ATOM     23  O   UNL     1       5.957   5.800 -21.899  1.00  0.00    -0.391 OA
ATOM     24  H   UNL     1       6.692   6.170 -22.453  1.00  0.00     0.210 HD
ENDBRANCH  22  23
ENDBRANCH  17  22
BRANCH  18  25
ATOM     25  O   UNL     1       4.166   4.583 -23.626  1.00  0.00    -0.385 OA
ATOM     26  H   UNL     1       3.239   4.295 -23.834  1.00  0.00     0.211 HD
ENDBRANCH  18  25
BRANCH  20  27
ATOM     27  O   UNL     1       3.827   6.663 -26.458  1.00  0.00    -0.387 OA
ATOM     28  H   UNL     1       3.619   7.633 -26.415  1.00  0.00     0.211 HD
ENDBRANCH  20  27
BRANCH  21  29
ATOM     29  C   UNL     1       1.014   6.609 -24.308  1.00  0.00     0.191 C 
BRANCH  29  30
ATOM     30  O   UNL     1       0.240   7.588 -23.668  1.00  0.00    -0.394 OA
ATOM     31  H   UNL     1      -0.471   7.852 -24.308  1.00  0.00     0.210 HD
ENDBRANCH  29  30
ENDBRANCH  21  29
ENDBRANCH   1  17
TORSDOF 13
ENDMDL
MODEL 8
REMARK VINA RESULT:    -5.313      1.497      5.432
REMARK INTER + INTRA:          -9.170
REMARK INTER:                  -8.197
REMARK INTRA:                  -0.973
REMARK UNBOUND:                -1.062
REMARK SMILES OC[C@@H]1O[C@@H](O[C@@]2(CO)O[C@H](CO)[C@@H](O)[C@@H]2O)[C@H](O)[C@@H](O)[C@@H]1O
REMARK SMILES IDX 6 1 5 2 3 3 22 4 4 5 20 6 18 7 2 8 1 9 23 11 21 13 19 15
REMARK SMILES IDX 7 17 16 18 10 19 14 20 11 21 8 22 9 23 17 25 15 27 12 29
REMARK SMILES IDX 13 30
REMARK H PARENT 1 10 23 12 21 14 19 16 9 24 17 26 15 28 13 31
REMARK Flexibility Score: inf
ROOT
ATOM      1  O   UNL     1       4.097   9.524 -24.821  1.00  0.00    -0.313 OA
ENDROOT
BRANCH   1   2
ATOM      2  C   UNL     1       5.317   9.788 -25.504  1.00  0.00     0.285 C 
ATOM      3  C   UNL     1       6.475  10.105 -23.484  1.00  0.00     0.178 C 
ATOM      4  C   UNL     1       6.684  11.619 -23.722  1.00  0.00     0.177 C 
ATOM      5  O   UNL     1       6.436   9.403 -24.716  1.00  0.00    -0.341 OA
ATOM      6  C   UNL     1       5.558  12.163 -24.618  1.00  0.00     0.179 C 
ATOM      7  C   UNL     1       5.389  11.285 -25.876  1.00  0.00     0.202 C 
BRANCH   3   8
ATOM      8  C   UNL     1       7.593   9.519 -22.614  1.00  0.00     0.191 C 
BRANCH   8   9
ATOM      9  O   UNL     1       7.094   8.439 -21.874  1.00  0.00    -0.394 OA
ATOM     10  H   UNL     1       7.887   7.961 -21.516  1.00  0.00     0.210 HD
ENDBRANCH   8   9
ENDBRANCH   3   8
BRANCH   4  11
ATOM     11  O   UNL     1       7.924  11.854 -24.343  1.00  0.00    -0.387 OA
ATOM     12  H   UNL     1       7.777  12.546 -25.041  1.00  0.00     0.211 HD
ENDBRANCH   4  11
BRANCH   6  13
ATOM     13  O   UNL     1       4.358  12.202 -23.887  1.00  0.00    -0.387 OA
ATOM     14  H   UNL     1       4.123  11.263 -23.667  1.00  0.00     0.211 HD
ENDBRANCH   6  13
BRANCH   7  15
ATOM     15  O   UNL     1       6.468  11.510 -26.748  1.00  0.00    -0.385 OA
ATOM     16  H   UNL     1       6.962  10.653 -26.825  1.00  0.00     0.211 HD
ENDBRANCH   7  15
ENDBRANCH   1   2
BRANCH   1  17
ATOM     17  C   UNL     1       3.189   8.645 -25.489  1.00  0.00     0.224 C 
ATOM     18  C   UNL     1       2.164   8.035 -24.505  1.00  0.00     0.208 C 
ATOM     19  O   UNL     1       3.957   7.551 -25.939  1.00  0.00    -0.337 OA
ATOM     20  C   UNL     1       2.949   6.915 -23.853  1.00  0.00     0.180 C 
ATOM     21  C   UNL     1       4.081   6.648 -24.859  1.00  0.00     0.179 C 
BRANCH  17  22
ATOM     22  C   UNL     1       2.557   9.291 -26.756  1.00  0.00     0.225 C 
BRANCH  22  23
ATOM     23  O   UNL     1       1.367   9.980 -26.468  1.00  0.00    -0.391 OA
ATOM     24  H   UNL     1       0.720   9.320 -26.109  1.00  0.00     0.210 HD
ENDBRANCH  22  23
ENDBRANCH  17  22
BRANCH  18  25
ATOM     25  O   UNL     1       1.027   7.524 -25.165  1.00  0.00    -0.385 OA
ATOM     26  H   UNL     1       1.285   6.684 -25.627  1.00  0.00     0.211 HD
ENDBRANCH  18  25
BRANCH  20  27
ATOM     27  O   UNL     1       3.475   7.353 -22.627  1.00  0.00    -0.387 OA
ATOM     28  H   UNL     1       3.483   6.564 -22.025  1.00  0.00     0.211 HD
ENDBRANCH  20  27
BRANCH  21  29
ATOM     29  C   UNL     1       4.042   5.208 -25.387  1.00  0.00     0.191 C 
BRANCH  29  30
ATOM     30  O   UNL     1       2.716   4.770 -25.517  1.00  0.00    -0.394 OA
ATOM     31  H   UNL     1       2.733   3.986 -26.126  1.00  0.00     0.210 HD
ENDBRANCH  29  30
ENDBRANCH  21  29
ENDBRANCH   1  17
TORSDOF 13
ENDMDL
MODEL 9
REMARK VINA RESULT:    -5.154      7.856     11.142
REMARK INTER + INTRA:          -8.927
REMARK INTER:                  -7.536
REMARK INTRA:                  -1.391
REMARK UNBOUND:                -1.062
REMARK SMILES OC[C@@H]1O[C@@H](O[C@@]2(CO)O[C@H](CO)[C@@H](O)[C@@H]2O)[C@H](O)[C@@H](O)[C@@H]1O
REMARK SMILES IDX 6 1 5 2 3 3 22 4 4 5 20 6 18 7 2 8 1 9 23 11 21 13 19 15
REMARK SMILES IDX 7 17 16 18 10 19 14 20 11 21 8 22 9 23 17 25 15 27 12 29
REMARK SMILES IDX 13 30
REMARK H PARENT 1 10 23 12 21 14 19 16 9 24 17 26 15 28 13 31
REMARK Flexibility Score: inf
ROOT
ATOM      1  O   UNL     1       4.017  -0.590 -23.532  1.00  0.00    -0.313 OA
ENDROOT
BRANCH   1   2
ATOM      2  C   UNL     1       5.108   0.112 -24.117  1.00  0.00     0.285 C 
ATOM      3  C   UNL     1       3.736   1.931 -24.691  1.00  0.00     0.178 C 
ATOM      4  C   UNL     1       3.841   1.663 -26.211  1.00  0.00     0.177 C 
ATOM      5  O   UNL     1       4.919   1.518 -24.025  1.00  0.00    -0.341 OA
ATOM      6  C   UNL     1       4.105   0.168 -26.457  1.00  0.00     0.179 C 
ATOM      7  C   UNL     1       5.279  -0.330 -25.587  1.00  0.00     0.202 C 
BRANCH   3   8
ATOM      8  C   UNL     1       3.498   3.418 -24.404  1.00  0.00     0.191 C 
BRANCH   8   9
ATOM      9  O   UNL     1       4.726   4.091 -24.371  1.00  0.00    -0.394 OA
ATOM     10  H   UNL     1       4.738   4.599 -23.519  1.00  0.00     0.210 HD
ENDBRANCH   8   9
ENDBRANCH   3   8
BRANCH   4  11
ATOM     11  O   UNL     1       4.889   2.416 -26.773  1.00  0.00    -0.387 OA
ATOM     12  H   UNL     1       5.559   2.568 -26.056  1.00  0.00     0.211 HD
ENDBRANCH   4  11
BRANCH   6  13
ATOM     13  O   UNL     1       2.941  -0.564 -26.169  1.00  0.00    -0.387 OA
ATOM     14  H   UNL     1       2.684  -0.344 -25.235  1.00  0.00     0.211 HD
ENDBRANCH   6  13
BRANCH   7  15
ATOM     15  O   UNL     1       6.485   0.175 -26.101  1.00  0.00    -0.385 OA
ATOM     16  H   UNL     1       7.190  -0.018 -25.430  1.00  0.00     0.211 HD
ENDBRANCH   7  15
ENDBRANCH   1   2
BRANCH   1  17
ATOM     17  C   UNL     1       4.369  -1.631 -22.616  1.00  0.00     0.224 C 
ATOM     18  C   UNL     1       4.785  -2.921 -23.360  1.00  0.00     0.208 C 
ATOM     19  O   UNL     1       3.184  -1.971 -21.932  1.00  0.00    -0.337 OA
ATOM     20  C   UNL     1       3.452  -3.540 -23.730  1.00  0.00     0.180 C 
ATOM     21  C   UNL     1       2.474  -2.885 -22.742  1.00  0.00     0.179 C 
BRANCH  17  22
ATOM     22  C   UNL     1       5.383  -1.157 -21.536  1.00  0.00     0.225 C 
BRANCH  22  23
ATOM     23  O   UNL     1       4.749  -0.702 -20.368  1.00  0.00    -0.391 OA
ATOM     24  H   UNL     1       3.772  -0.817 -20.495  1.00  0.00     0.210 HD
ENDBRANCH  22  23
ENDBRANCH  17  22
BRANCH  18  25
ATOM     25  O   UNL     1       5.525  -3.796 -22.538  1.00  0.00    -0.385 OA
ATOM     26  H   UNL     1       6.075  -3.252 -21.916  1.00  0.00     0.211 HD
ENDBRANCH  18  25
BRANCH  20  27
ATOM     27  O   UNL     1       3.119  -3.197 -25.050  1.00  0.00    -0.387 OA
ATOM     28  H   UNL     1       2.134  -3.294 -25.127  1.00  0.00     0.211 HD
ENDBRANCH  20  27
BRANCH  21  29
ATOM     29  C   UNL     1       1.781  -3.927 -21.854  1.00  0.00     0.191 C 
BRANCH  29  30
ATOM     30  O   UNL     1       2.728  -4.628 -21.092  1.00  0.00    -0.394 OA
ATOM     31  H   UNL     1       2.360  -5.538 -20.948  1.00  0.00     0.210 HD
ENDBRANCH  29  30
ENDBRANCH  21  29
ENDBRANCH   1  17
TORSDOF 13
ENDMDL
