MODEL 1
REMARK VINA RESULT:    -5.102      0.000      0.000
REMARK INTER + INTRA:          -8.517
REMARK INTER:                  -7.488
REMARK INTRA:                  -1.029
REMARK UNBOUND:                -1.029
REMARK SMILES Cc1cc2c(C(C)C)c(O)c(O)c(C=O)c2c(O)c1-c1c(C)cc2c(C(C)C)c(O)c(O)c(C=O)c2c1O
REMARK SMILES IDX 1 1 2 2 3 3 4 4 16 5 13 6 11 7 9 8 5 9 17 10 19 11 20 12
REMARK SMILES IDX 37 13 21 14 36 15 23 16 22 17 24 18 33 19 25 20 31 21 29 22
REMARK SMILES IDX 38 23 34 25 35 26 26 27 27 28 28 29 32 30 30 32 18 34 6 36
REMARK SMILES IDX 7 37 8 38 14 39 15 40 10 41 12 43
REMARK H PARENT 38 24 32 31 30 33 18 35 10 42 12 44
REMARK Flexibility Score: inf
ROOT
ATOM      1  C   UNL     1       5.252  -5.410  -5.991  1.00  0.00     0.045 C 
ATOM      2  C   UNL     1       5.283  -5.280  -4.487  1.00  0.00    -0.039 A 
ATOM      3  C   UNL     1       5.602  -6.392  -3.707  1.00  0.00     0.013 A 
ATOM      4  C   UNL     1       5.633  -6.327  -2.297  1.00  0.00    -0.006 A 
ATOM      5  C   UNL     1       5.484  -5.057  -1.665  1.00  0.00     0.039 A 
ATOM      6  C   UNL     1       5.732  -4.952  -0.263  1.00  0.00     0.072 A 
ATOM      7  C   UNL     1       6.119  -6.095   0.468  1.00  0.00     0.169 A 
ATOM      8  C   UNL     1       6.164  -7.351  -0.146  1.00  0.00     0.162 A 
ATOM      9  C   UNL     1       5.837  -7.502  -1.510  1.00  0.00     0.008 A 
ATOM     10  C   UNL     1       5.080  -3.940  -2.458  1.00  0.00     0.132 A 
ATOM     11  C   UNL     1       4.982  -4.060  -3.862  1.00  0.00     0.031 A 
ENDROOT
BRANCH  11  12
ATOM     12  C   UNL     1       4.573  -2.893  -4.687  1.00  0.00     0.031 A 
ATOM     13  C   UNL     1       3.228  -2.757  -5.063  1.00  0.00     0.132 A 
ATOM     14  C   UNL     1       5.531  -1.984  -5.161  1.00  0.00    -0.039 A 
ATOM     15  C   UNL     1       2.796  -1.606  -5.782  1.00  0.00     0.039 A 
ATOM     16  C   UNL     1       5.138  -0.971  -6.042  1.00  0.00     0.013 A 
ATOM     17  C   UNL     1       6.995  -2.156  -4.840  1.00  0.00     0.045 C 
ATOM     18  C   UNL     1       3.776  -0.739  -6.348  1.00  0.00    -0.006 A 
ATOM     19  C   UNL     1       1.422  -1.303  -5.972  1.00  0.00     0.072 A 
ATOM     20  C   UNL     1       3.372   0.311  -7.231  1.00  0.00     0.008 A 
ATOM     21  C   UNL     1       1.045  -0.391  -6.968  1.00  0.00     0.169 A 
ATOM     22  C   UNL     1       2.024   0.341  -7.663  1.00  0.00     0.162 A 
BRANCH  13  23
ATOM     23  O   UNL     1       2.373  -3.829  -4.785  1.00  0.00    -0.507 OA
ATOM     24  H   UNL     1       2.422  -4.362  -3.926  1.00  0.00     0.293 HD
ENDBRANCH  13  23
BRANCH  19  25
ATOM     25  C   UNL     1       0.361  -1.793  -5.057  1.00  0.00     0.264 C 
ATOM     26  O   UNL     1      -0.412  -0.988  -4.475  1.00  0.00    -0.298 OA
ENDBRANCH  19  25
BRANCH  20  27
ATOM     27  C   UNL     1       4.370   1.348  -7.774  1.00  0.00     0.017 C 
ATOM     28  C   UNL     1       4.864   2.268  -6.652  1.00  0.00     0.012 C 
ATOM     29  C   UNL     1       5.549   0.736  -8.554  1.00  0.00     0.012 C 
ENDBRANCH  20  27
BRANCH  21  30
ATOM     30  O   UNL     1      -0.319  -0.192  -7.215  1.00  0.00    -0.504 OA
ATOM     31  H   UNL     1      -0.919   0.380  -6.638  1.00  0.00     0.293 HD
ENDBRANCH  21  30
BRANCH  22  32
ATOM     32  O   UNL     1       1.681   1.103  -8.782  1.00  0.00    -0.504 OA
ATOM     33  H   UNL     1       0.807   1.601  -8.880  1.00  0.00     0.293 HD
ENDBRANCH  22  32
ENDBRANCH  11  12
BRANCH  10  34
ATOM     34  O   UNL     1       4.755  -2.722  -1.852  1.00  0.00    -0.507 OA
ATOM     35  H   UNL     1       4.165  -2.018  -2.277  1.00  0.00     0.293 HD
ENDBRANCH  10  34
BRANCH   9  36
ATOM     36  C   UNL     1       5.719  -8.912  -2.116  1.00  0.00     0.017 C 
ATOM     37  C   UNL     1       7.102  -9.498  -2.415  1.00  0.00     0.012 C 
ATOM     38  C   UNL     1       4.871  -9.878  -1.269  1.00  0.00     0.012 C 
ENDBRANCH   9  36
BRANCH   6  39
ATOM     39  C   UNL     1       5.683  -3.655   0.443  1.00  0.00     0.264 C 
ATOM     40  O   UNL     1       4.832  -3.451   1.348  1.00  0.00    -0.298 OA
ENDBRANCH   6  39
BRANCH   8  41
ATOM     41  O   UNL     1       6.564  -8.462   0.601  1.00  0.00    -0.504 OA
ATOM     42  H   UNL     1       6.739  -9.371   0.189  1.00  0.00     0.293 HD
ENDBRANCH   8  41
BRANCH   7  43
ATOM     43  O   UNL     1       6.490  -6.011   1.816  1.00  0.00    -0.504 OA
ATOM     44  H   UNL     1       5.935  -6.371   2.581  1.00  0.00     0.293 HD
ENDBRANCH   7  43
TORSDOF 11
ENDMDL
MODEL 2
REMARK VINA RESULT:    -4.945      0.771      9.120
REMARK INTER + INTRA:          -8.287
REMARK INTER:                  -7.047
REMARK INTRA:                  -1.240
REMARK UNBOUND:                -1.029
REMARK SMILES Cc1cc2c(C(C)C)c(O)c(O)c(C=O)c2c(O)c1-c1c(C)cc2c(C(C)C)c(O)c(O)c(C=O)c2c1O
REMARK SMILES IDX 1 1 2 2 3 3 4 4 16 5 13 6 11 7 9 8 5 9 17 10 19 11 20 12
REMARK SMILES IDX 37 13 21 14 36 15 23 16 22 17 24 18 33 19 25 20 31 21 29 22
REMARK SMILES IDX 38 23 34 25 35 26 26 27 27 28 28 29 32 30 30 32 18 34 6 36
REMARK SMILES IDX 7 37 8 38 14 39 15 40 10 41 12 43
REMARK H PARENT 38 24 32 31 30 33 18 35 10 42 12 44
REMARK Flexibility Score: inf
ROOT
ATOM      1  C   UNL     1       6.890  -3.546  -5.581  1.00  0.00     0.045 C 
ATOM      2  C   UNL     1       5.503  -2.952  -5.632  1.00  0.00    -0.039 A 
ATOM      3  C   UNL     1       5.270  -1.815  -6.408  1.00  0.00     0.013 A 
ATOM      4  C   UNL     1       3.995  -1.214  -6.481  1.00  0.00    -0.006 A 
ATOM      5  C   UNL     1       2.889  -1.873  -5.867  1.00  0.00     0.039 A 
ATOM      6  C   UNL     1       1.570  -1.389  -6.121  1.00  0.00     0.072 A 
ATOM      7  C   UNL     1       1.383  -0.277  -6.970  1.00  0.00     0.169 A 
ATOM      8  C   UNL     1       2.483   0.419  -7.483  1.00  0.00     0.162 A 
ATOM      9  C   UNL     1       3.801   0.018  -7.177  1.00  0.00     0.008 A 
ATOM     10  C   UNL     1       3.144  -2.987  -5.011  1.00  0.00     0.132 A 
ATOM     11  C   UNL     1       4.448  -3.517  -4.899  1.00  0.00     0.031 A 
ENDROOT
BRANCH  11  12
ATOM     12  C   UNL     1       4.710  -4.684  -4.016  1.00  0.00     0.031 A 
ATOM     13  C   UNL     1       5.252  -4.471  -2.740  1.00  0.00     0.132 A 
ATOM     14  C   UNL     1       4.503  -5.992  -4.483  1.00  0.00    -0.039 A 
ATOM     15  C   UNL     1       5.434  -5.564  -1.845  1.00  0.00     0.039 A 
ATOM     16  C   UNL     1       4.880  -7.074  -3.680  1.00  0.00     0.013 A 
ATOM     17  C   UNL     1       4.000  -6.250  -5.881  1.00  0.00     0.045 C 
ATOM     18  C   UNL     1       5.321  -6.893  -2.348  1.00  0.00    -0.006 A 
ATOM     19  C   UNL     1       5.745  -5.375  -0.472  1.00  0.00     0.072 A 
ATOM     20  C   UNL     1       5.686  -8.000  -1.519  1.00  0.00     0.008 A 
ATOM     21  C   UNL     1       6.265  -6.442   0.274  1.00  0.00     0.169 A 
ATOM     22  C   UNL     1       6.325  -7.731  -0.285  1.00  0.00     0.162 A 
BRANCH  13  23
ATOM     23  O   UNL     1       5.682  -3.175  -2.435  1.00  0.00    -0.507 OA
ATOM     24  H   UNL     1       6.589  -2.818  -2.706  1.00  0.00     0.293 HD
ENDBRANCH  13  23
BRANCH  19  25
ATOM     25  C   UNL     1       5.400  -4.132   0.262  1.00  0.00     0.264 C 
ATOM     26  O   UNL     1       6.289  -3.295   0.570  1.00  0.00    -0.298 OA
ENDBRANCH  19  25
BRANCH  20  27
ATOM     27  C   UNL     1       5.471  -9.457  -1.965  1.00  0.00     0.017 C 
ATOM     28  C   UNL     1       6.765 -10.049  -2.534  1.00  0.00     0.012 C 
ATOM     29  C   UNL     1       4.875 -10.366  -0.873  1.00  0.00     0.012 C 
ENDBRANCH  20  27
BRANCH  21  30
ATOM     30  O   UNL     1       6.671  -6.205   1.593  1.00  0.00    -0.504 OA
ATOM     31  H   UNL     1       6.922  -5.295   1.951  1.00  0.00     0.293 HD
ENDBRANCH  21  30
BRANCH  22  32
ATOM     32  O   UNL     1       7.013  -8.757   0.367  1.00  0.00    -0.504 OA
ATOM     33  H   UNL     1       7.470  -9.522  -0.111  1.00  0.00     0.293 HD
ENDBRANCH  22  32
ENDBRANCH  11  12
BRANCH  10  34
ATOM     34  O   UNL     1       2.110  -3.551  -4.255  1.00  0.00    -0.507 OA
ATOM     35  H   UNL     1       2.169  -4.453  -3.799  1.00  0.00     0.293 HD
ENDBRANCH  10  34
BRANCH   9  36
ATOM     36  C   UNL     1       4.987   0.901  -7.604  1.00  0.00     0.017 C 
ATOM     37  C   UNL     1       5.163   0.885  -9.125  1.00  0.00     0.012 C 
ATOM     38  C   UNL     1       4.909   2.341  -7.062  1.00  0.00     0.012 C 
ENDBRANCH   9  36
BRANCH   6  39
ATOM     39  C   UNL     1       0.372  -2.071  -5.593  1.00  0.00     0.264 C 
ATOM     40  O   UNL     1      -0.307  -1.550  -4.668  1.00  0.00    -0.298 OA
ENDBRANCH   6  39
BRANCH   8  41
ATOM     41  O   UNL     1       2.266   1.508  -8.331  1.00  0.00    -0.504 OA
ATOM     42  H   UNL     1       3.018   2.013  -8.786  1.00  0.00     0.293 HD
ENDBRANCH   8  41
BRANCH   7  43
ATOM     43  O   UNL     1       0.104   0.153  -7.343  1.00  0.00    -0.504 OA
ATOM     44  H   UNL     1      -0.666   0.271  -6.697  1.00  0.00     0.293 HD
ENDBRANCH   7  43
TORSDOF 11
ENDMDL
MODEL 3
REMARK VINA RESULT:    -4.363      1.442      2.963
REMARK INTER + INTRA:          -7.432
REMARK INTER:                  -6.430
REMARK INTRA:                  -1.002
REMARK UNBOUND:                -1.029
REMARK SMILES Cc1cc2c(C(C)C)c(O)c(O)c(C=O)c2c(O)c1-c1c(C)cc2c(C(C)C)c(O)c(O)c(C=O)c2c1O
REMARK SMILES IDX 1 1 2 2 3 3 4 4 16 5 13 6 11 7 9 8 5 9 17 10 19 11 20 12
REMARK SMILES IDX 37 13 21 14 36 15 23 16 22 17 24 18 33 19 25 20 31 21 29 22
REMARK SMILES IDX 38 23 34 25 35 26 26 27 27 28 28 29 32 30 30 32 18 34 6 36
REMARK SMILES IDX 7 37 8 38 14 39 15 40 10 41 12 43
REMARK H PARENT 38 24 32 31 30 33 18 35 10 42 12 44
REMARK Flexibility Score: inf
ROOT
ATOM      1  C   UNL     1       4.166  -1.508  -1.418  1.00  0.00     0.045 C 
ATOM      2  C   UNL     1       4.684  -2.863  -1.836  1.00  0.00    -0.039 A 
ATOM      3  C   UNL     1       5.097  -3.772  -0.861  1.00  0.00     0.013 A 
ATOM      4  C   UNL     1       5.601  -5.047  -1.199  1.00  0.00    -0.006 A 
ATOM      5  C   UNL     1       5.544  -5.469  -2.560  1.00  0.00     0.039 A 
ATOM      6  C   UNL     1       5.846  -6.828  -2.873  1.00  0.00     0.072 A 
ATOM      7  C   UNL     1       6.190  -7.726  -1.840  1.00  0.00     0.169 A 
ATOM      8  C   UNL     1       6.339  -7.273  -0.525  1.00  0.00     0.162 A 
ATOM      9  C   UNL     1       6.135  -5.915  -0.198  1.00  0.00     0.008 A 
ATOM     10  C   UNL     1       5.197  -4.511  -3.561  1.00  0.00     0.132 A 
ATOM     11  C   UNL     1       4.772  -3.216  -3.192  1.00  0.00     0.031 A 
ENDROOT
BRANCH  11  12
ATOM     12  C   UNL     1       4.400  -2.223  -4.234  1.00  0.00     0.031 A 
ATOM     13  C   UNL     1       3.076  -2.176  -4.695  1.00  0.00     0.132 A 
ATOM     14  C   UNL     1       5.378  -1.401  -4.818  1.00  0.00    -0.039 A 
ATOM     15  C   UNL     1       2.676  -1.179  -5.631  1.00  0.00     0.039 A 
ATOM     16  C   UNL     1       5.025  -0.569  -5.886  1.00  0.00     0.013 A 
ATOM     17  C   UNL     1       6.824  -1.493  -4.399  1.00  0.00     0.045 C 
ATOM     18  C   UNL     1       3.680  -0.415  -6.295  1.00  0.00    -0.006 A 
ATOM     19  C   UNL     1       1.312  -0.935  -5.940  1.00  0.00     0.072 A 
ATOM     20  C   UNL     1       3.315   0.452  -7.373  1.00  0.00     0.008 A 
ATOM     21  C   UNL     1       0.981  -0.223  -7.102  1.00  0.00     0.169 A 
ATOM     22  C   UNL     1       1.991   0.385  -7.869  1.00  0.00     0.162 A 
BRANCH  13  23
ATOM     23  O   UNL     1       2.213  -3.191  -4.269  1.00  0.00    -0.507 OA
ATOM     24  H   UNL     1       2.454  -3.847  -3.538  1.00  0.00     0.293 HD
ENDBRANCH  13  23
BRANCH  19  25
ATOM     25  C   UNL     1       0.208  -1.266  -5.005  1.00  0.00     0.264 C 
ATOM     26  O   UNL     1      -0.530  -0.362  -4.531  1.00  0.00    -0.298 OA
ENDBRANCH  19  25
BRANCH  20  27
ATOM     27  C   UNL     1       4.335   1.388  -8.045  1.00  0.00     0.017 C 
ATOM     28  C   UNL     1       4.833   2.449  -7.058  1.00  0.00     0.012 C 
ATOM     29  C   UNL     1       5.512   0.654  -8.717  1.00  0.00     0.012 C 
ENDBRANCH  20  27
BRANCH  21  30
ATOM     30  O   UNL     1      -0.369  -0.091  -7.448  1.00  0.00    -0.504 OA
ATOM     31  H   UNL     1      -1.025   0.489  -6.946  1.00  0.00     0.293 HD
ENDBRANCH  21  30
BRANCH  22  32
ATOM     32  O   UNL     1       1.703   0.927  -9.124  1.00  0.00    -0.504 OA
ATOM     33  H   UNL     1       2.366   1.450  -9.679  1.00  0.00     0.293 HD
ENDBRANCH  22  32
ENDBRANCH  11  12
BRANCH  10  34
ATOM     34  O   UNL     1       5.298  -4.836  -4.918  1.00  0.00    -0.507 OA
ATOM     35  H   UNL     1       4.901  -4.280  -5.665  1.00  0.00     0.293 HD
ENDBRANCH  10  34
BRANCH   9  36
ATOM     36  C   UNL     1       6.479  -5.409   1.213  1.00  0.00     0.017 C 
ATOM     37  C   UNL     1       7.117  -4.018   1.156  1.00  0.00     0.012 C 
ATOM     38  C   UNL     1       5.285  -5.439   2.186  1.00  0.00     0.012 C 
ENDBRANCH   9  36
BRANCH   6  39
ATOM     39  C   UNL     1       5.722  -7.360  -4.246  1.00  0.00     0.264 C 
ATOM     40  O   UNL     1       6.747  -7.545  -4.955  1.00  0.00    -0.298 OA
ENDBRANCH   6  39
BRANCH   8  41
ATOM     41  O   UNL     1       6.669  -8.187   0.479  1.00  0.00    -0.504 OA
ATOM     42  H   UNL     1       7.078  -7.913   1.364  1.00  0.00     0.293 HD
ENDBRANCH   8  41
BRANCH   7  43
ATOM     43  O   UNL     1       6.373  -9.092  -2.087  1.00  0.00    -0.504 OA
ATOM     44  H   UNL     1       7.168  -9.626  -1.762  1.00  0.00     0.293 HD
ENDBRANCH   7  43
TORSDOF 11
ENDMDL
MODEL 4
REMARK VINA RESULT:    -4.329     10.277     13.531
REMARK INTER + INTRA:          -7.382
REMARK INTER:                  -6.591
REMARK INTRA:                  -0.791
REMARK UNBOUND:                -1.029
REMARK SMILES Cc1cc2c(C(C)C)c(O)c(O)c(C=O)c2c(O)c1-c1c(C)cc2c(C(C)C)c(O)c(O)c(C=O)c2c1O
REMARK SMILES IDX 1 1 2 2 3 3 4 4 16 5 13 6 11 7 9 8 5 9 17 10 19 11 20 12
REMARK SMILES IDX 37 13 21 14 36 15 23 16 22 17 24 18 33 19 25 20 31 21 29 22
REMARK SMILES IDX 38 23 34 25 35 26 26 27 27 28 28 29 32 30 30 32 18 34 6 36
REMARK SMILES IDX 7 37 8 38 14 39 15 40 10 41 12 43
REMARK H PARENT 38 24 32 31 30 33 18 35 10 42 12 44
REMARK Flexibility Score: inf
ROOT
ATOM      1  C   UNL     1       5.392  -5.561  10.198  1.00  0.00     0.045 C 
ATOM      2  C   UNL     1       4.008  -5.914   9.707  1.00  0.00    -0.039 A 
ATOM      3  C   UNL     1       3.555  -7.230   9.815  1.00  0.00     0.013 A 
ATOM      4  C   UNL     1       2.275  -7.615   9.361  1.00  0.00    -0.006 A 
ATOM      5  C   UNL     1       1.370  -6.604   8.920  1.00  0.00     0.039 A 
ATOM      6  C   UNL     1       0.010  -6.958   8.668  1.00  0.00     0.072 A 
ATOM      7  C   UNL     1      -0.414  -8.290   8.860  1.00  0.00     0.169 A 
ATOM      8  C   UNL     1       0.507  -9.288   9.196  1.00  0.00     0.162 A 
ATOM      9  C   UNL     1       1.874  -8.986   9.364  1.00  0.00     0.008 A 
ATOM     10  C   UNL     1       1.863  -5.276   8.735  1.00  0.00     0.132 A 
ATOM     11  C   UNL     1       3.177  -4.942   9.128  1.00  0.00     0.031 A 
ENDROOT
BRANCH  11  12
ATOM     12  C   UNL     1       3.685  -3.557   8.946  1.00  0.00     0.031 A 
ATOM     13  C   UNL     1       4.520  -3.270   7.857  1.00  0.00     0.132 A 
ATOM     14  C   UNL     1       3.407  -2.564   9.900  1.00  0.00    -0.039 A 
ATOM     15  C   UNL     1       4.951  -1.935   7.613  1.00  0.00     0.039 A 
ATOM     16  C   UNL     1       4.004  -1.305   9.772  1.00  0.00     0.013 A 
ATOM     17  C   UNL     1       2.581  -2.869  11.124  1.00  0.00     0.045 C 
ATOM     18  C   UNL     1       4.756  -0.952   8.628  1.00  0.00    -0.006 A 
ATOM     19  C   UNL     1       5.588  -1.552   6.403  1.00  0.00     0.072 A 
ATOM     20  C   UNL     1       5.349   0.343   8.487  1.00  0.00     0.008 A 
ATOM     21  C   UNL     1       6.309  -0.351   6.348  1.00  0.00     0.169 A 
ATOM     22  C   UNL     1       6.266   0.548   7.428  1.00  0.00     0.162 A 
BRANCH  13  23
ATOM     23  O   UNL     1       4.974  -4.352   7.094  1.00  0.00    -0.507 OA
ATOM     24  H   UNL     1       5.736  -4.950   7.387  1.00  0.00     0.293 HD
ENDBRANCH  13  23
BRANCH  19  25
ATOM     25  C   UNL     1       5.399  -2.295   5.132  1.00  0.00     0.264 C 
ATOM     26  O   UNL     1       6.367  -2.874   4.571  1.00  0.00    -0.298 OA
ENDBRANCH  19  25
BRANCH  20  27
ATOM     27  C   UNL     1       5.073   1.478   9.488  1.00  0.00     0.017 C 
ATOM     28  C   UNL     1       6.075   1.437  10.647  1.00  0.00     0.012 C 
ATOM     29  C   UNL     1       5.016   2.879   8.848  1.00  0.00     0.012 C 
ENDBRANCH  20  27
BRANCH  21  30
ATOM     30  O   UNL     1       7.022  -0.048   5.181  1.00  0.00    -0.504 OA
ATOM     31  H   UNL     1       7.877  -0.510   4.907  1.00  0.00     0.293 HD
ENDBRANCH  21  30
BRANCH  22  32
ATOM     32  O   UNL     1       7.125   1.649   7.472  1.00  0.00    -0.504 OA
ATOM     33  H   UNL     1       7.068   2.435   6.838  1.00  0.00     0.293 HD
ENDBRANCH  22  32
ENDBRANCH  11  12
BRANCH  10  34
ATOM     34  O   UNL     1       1.058  -4.298   8.141  1.00  0.00    -0.507 OA
ATOM     35  H   UNL     1       0.160  -4.487   7.713  1.00  0.00     0.293 HD
ENDBRANCH  10  34
BRANCH   9  36
ATOM     36  C   UNL     1       2.891 -10.125   9.555  1.00  0.00     0.017 C 
ATOM     37  C   UNL     1       3.771 -10.288   8.312  1.00  0.00     0.012 C 
ATOM     38  C   UNL     1       3.742  -9.984  10.831  1.00  0.00     0.012 C 
ENDBRANCH   9  36
BRANCH   6  39
ATOM     39  C   UNL     1      -1.003  -5.950   8.294  1.00  0.00     0.264 C 
ATOM     40  O   UNL     1      -1.910  -5.623   9.105  1.00  0.00    -0.298 OA
ENDBRANCH   6  39
BRANCH   8  41
ATOM     41  O   UNL     1       0.054 -10.596   9.392  1.00  0.00    -0.504 OA
ATOM     42  H   UNL     1      -0.919 -10.826   9.550  1.00  0.00     0.293 HD
ENDBRANCH   8  41
BRANCH   7  43
ATOM     43  O   UNL     1      -1.761  -8.653   8.744  1.00  0.00    -0.504 OA
ATOM     44  H   UNL     1      -2.159  -9.104   7.931  1.00  0.00     0.293 HD
ENDBRANCH   7  43
TORSDOF 11
ENDMDL
MODEL 5
REMARK VINA RESULT:    -4.183      1.672      3.115
REMARK INTER + INTRA:          -7.169
REMARK INTER:                  -6.360
REMARK INTRA:                  -0.808
REMARK UNBOUND:                -1.029
REMARK SMILES Cc1cc2c(C(C)C)c(O)c(O)c(C=O)c2c(O)c1-c1c(C)cc2c(C(C)C)c(O)c(O)c(C=O)c2c1O
REMARK SMILES IDX 1 1 2 2 3 3 4 4 16 5 13 6 11 7 9 8 5 9 17 10 19 11 20 12
REMARK SMILES IDX 37 13 21 14 36 15 23 16 22 17 24 18 33 19 25 20 31 21 29 22
REMARK SMILES IDX 38 23 34 25 35 26 26 27 27 28 28 29 32 30 30 32 18 34 6 36
REMARK SMILES IDX 7 37 8 38 14 39 15 40 10 41 12 43
REMARK H PARENT 38 24 32 31 30 33 18 35 10 42 12 44
REMARK Flexibility Score: inf
ROOT
ATOM      1  C   UNL     1       4.663  -5.909  -6.376  1.00  0.00     0.045 C 
ATOM      2  C   UNL     1       4.822  -5.667  -4.894  1.00  0.00    -0.039 A 
ATOM      3  C   UNL     1       5.235  -6.713  -4.067  1.00  0.00     0.013 A 
ATOM      4  C   UNL     1       5.388  -6.544  -2.674  1.00  0.00    -0.006 A 
ATOM      5  C   UNL     1       5.261  -5.235  -2.124  1.00  0.00     0.039 A 
ATOM      6  C   UNL     1       5.628  -5.021  -0.761  1.00  0.00     0.072 A 
ATOM      7  C   UNL     1       6.107  -6.100   0.013  1.00  0.00     0.169 A 
ATOM      8  C   UNL     1       6.130  -7.396  -0.512  1.00  0.00     0.162 A 
ATOM      9  C   UNL     1       5.690  -7.654  -1.827  1.00  0.00     0.008 A 
ATOM     10  C   UNL     1       4.761  -4.187  -2.956  1.00  0.00     0.132 A 
ATOM     11  C   UNL     1       4.544  -4.411  -4.333  1.00  0.00     0.031 A 
ENDROOT
BRANCH  11  12
ATOM     12  C   UNL     1       4.035  -3.316  -5.200  1.00  0.00     0.031 A 
ATOM     13  C   UNL     1       4.917  -2.314  -5.628  1.00  0.00     0.132 A 
ATOM     14  C   UNL     1       2.669  -3.233  -5.517  1.00  0.00    -0.039 A 
ATOM     15  C   UNL     1       4.474  -1.302  -6.526  1.00  0.00     0.039 A 
ATOM     16  C   UNL     1       2.196  -2.124  -6.224  1.00  0.00     0.013 A 
ATOM     17  C   UNL     1       1.686  -4.253  -4.998  1.00  0.00     0.045 C 
ATOM     18  C   UNL     1       3.076  -1.158  -6.767  1.00  0.00    -0.006 A 
ATOM     19  C   UNL     1       5.375  -0.417  -7.176  1.00  0.00     0.072 A 
ATOM     20  C   UNL     1       2.594  -0.034  -7.509  1.00  0.00     0.008 A 
ATOM     21  C   UNL     1       4.892   0.768  -7.749  1.00  0.00     0.169 A 
ATOM     22  C   UNL     1       3.507   1.001  -7.826  1.00  0.00     0.162 A 
BRANCH  13  23
ATOM     23  O   UNL     1       6.199  -2.306  -5.067  1.00  0.00    -0.507 OA
ATOM     24  H   UNL     1       6.799  -3.120  -5.055  1.00  0.00     0.293 HD
ENDBRANCH  13  23
BRANCH  19  25
ATOM     25  C   UNL     1       6.799  -0.761  -7.416  1.00  0.00     0.264 C 
ATOM     26  O   UNL     1       7.114  -1.784  -8.079  1.00  0.00    -0.298 OA
ENDBRANCH  19  25
BRANCH  20  27
ATOM     27  C   UNL     1       1.114   0.109  -7.901  1.00  0.00     0.017 C 
ATOM     28  C   UNL     1       0.750  -0.870  -9.023  1.00  0.00     0.012 C 
ATOM     29  C   UNL     1       0.136  -0.012  -6.716  1.00  0.00     0.012 C 
ENDBRANCH  20  27
BRANCH  21  30
ATOM     30  O   UNL     1       5.810   1.679  -8.285  1.00  0.00    -0.504 OA
ATOM     31  H   UNL     1       6.803   1.649  -8.105  1.00  0.00     0.293 HD
ENDBRANCH  21  30
BRANCH  22  32
ATOM     32  O   UNL     1       3.017   2.250  -8.213  1.00  0.00    -0.504 OA
ATOM     33  H   UNL     1       2.946   3.046  -7.593  1.00  0.00     0.293 HD
ENDBRANCH  22  32
ENDBRANCH  11  12
BRANCH  10  34
ATOM     34  O   UNL     1       4.459  -2.934  -2.411  1.00  0.00    -0.507 OA
ATOM     35  H   UNL     1       4.143  -2.791  -1.460  1.00  0.00     0.293 HD
ENDBRANCH  10  34
BRANCH   9  36
ATOM     36  C   UNL     1       5.556  -9.106  -2.318  1.00  0.00     0.017 C 
ATOM     37  C   UNL     1       6.893  -9.630  -2.851  1.00  0.00     0.012 C 
ATOM     38  C   UNL     1       4.959 -10.060  -1.266  1.00  0.00     0.012 C 
ENDBRANCH   9  36
BRANCH   6  39
ATOM     39  C   UNL     1       5.607  -3.678  -0.147  1.00  0.00     0.264 C 
ATOM     40  O   UNL     1       6.661  -2.992  -0.072  1.00  0.00    -0.298 OA
ENDBRANCH   6  39
BRANCH   8  41
ATOM     41  O   UNL     1       6.622  -8.442   0.274  1.00  0.00    -0.504 OA
ATOM     42  H   UNL     1       7.114  -9.239  -0.111  1.00  0.00     0.293 HD
ENDBRANCH   8  41
BRANCH   7  43
ATOM     43  O   UNL     1       6.592  -5.910   1.313  1.00  0.00    -0.504 OA
ATOM     44  H   UNL     1       7.526  -6.157   1.612  1.00  0.00     0.293 HD
ENDBRANCH   7  43
TORSDOF 11
ENDMDL
MODEL 6
REMARK VINA RESULT:    -3.859      2.124      4.326
REMARK INTER + INTRA:          -6.693
REMARK INTER:                  -5.774
REMARK INTRA:                  -0.920
REMARK UNBOUND:                -1.029
REMARK SMILES Cc1cc2c(C(C)C)c(O)c(O)c(C=O)c2c(O)c1-c1c(C)cc2c(C(C)C)c(O)c(O)c(C=O)c2c1O
REMARK SMILES IDX 1 1 2 2 3 3 4 4 16 5 13 6 11 7 9 8 5 9 17 10 19 11 20 12
REMARK SMILES IDX 37 13 21 14 36 15 23 16 22 17 24 18 33 19 25 20 31 21 29 22
REMARK SMILES IDX 38 23 34 25 35 26 26 27 27 28 28 29 32 30 30 32 18 34 6 36
REMARK SMILES IDX 7 37 8 38 14 39 15 40 10 41 12 43
REMARK H PARENT 38 24 32 31 30 33 18 35 10 42 12 44
REMARK Flexibility Score: inf
ROOT
ATOM      1  C   UNL     1       3.487  -1.338  -2.245  1.00  0.00     0.045 C 
ATOM      2  C   UNL     1       4.238  -2.613  -2.542  1.00  0.00    -0.039 A 
ATOM      3  C   UNL     1       4.802  -3.339  -1.491  1.00  0.00     0.013 A 
ATOM      4  C   UNL     1       5.525  -4.531  -1.714  1.00  0.00    -0.006 A 
ATOM      5  C   UNL     1       5.549  -5.083  -3.029  1.00  0.00     0.039 A 
ATOM      6  C   UNL     1       6.088  -6.391  -3.218  1.00  0.00     0.072 A 
ATOM      7  C   UNL     1       6.582  -7.112  -2.110  1.00  0.00     0.169 A 
ATOM      8  C   UNL     1       6.643  -6.518  -0.845  1.00  0.00     0.162 A 
ATOM      9  C   UNL     1       6.200  -5.194  -0.644  1.00  0.00     0.008 A 
ATOM     10  C   UNL     1       5.042  -4.300  -4.111  1.00  0.00     0.132 A 
ATOM     11  C   UNL     1       4.393  -3.071  -3.860  1.00  0.00     0.031 A 
ENDROOT
BRANCH  11  12
ATOM     12  C   UNL     1       3.856  -2.263  -4.985  1.00  0.00     0.031 A 
ATOM     13  C   UNL     1       4.599  -1.173  -5.462  1.00  0.00     0.132 A 
ATOM     14  C   UNL     1       2.580  -2.527  -5.510  1.00  0.00    -0.039 A 
ATOM     15  C   UNL     1       4.147  -0.434  -6.593  1.00  0.00     0.039 A 
ATOM     16  C   UNL     1       2.046  -1.671  -6.478  1.00  0.00     0.013 A 
ATOM     17  C   UNL     1       1.727  -3.641  -4.956  1.00  0.00     0.045 C 
ATOM     18  C   UNL     1       2.815  -0.636  -7.060  1.00  0.00    -0.006 A 
ATOM     19  C   UNL     1       4.971   0.511  -7.259  1.00  0.00     0.072 A 
ATOM     20  C   UNL     1       2.276   0.227  -8.066  1.00  0.00     0.008 A 
ATOM     21  C   UNL     1       4.388   1.458  -8.113  1.00  0.00     0.169 A 
ATOM     22  C   UNL     1       3.022   1.372  -8.437  1.00  0.00     0.162 A 
BRANCH  13  23
ATOM     23  O   UNL     1       5.732  -0.800  -4.730  1.00  0.00    -0.507 OA
ATOM     24  H   UNL     1       6.293  -1.462  -4.210  1.00  0.00     0.293 HD
ENDBRANCH  13  23
BRANCH  19  25
ATOM     25  C   UNL     1       6.453   0.450  -7.217  1.00  0.00     0.264 C 
ATOM     26  O   UNL     1       7.113   1.256  -6.510  1.00  0.00    -0.298 OA
ENDBRANCH  19  25
BRANCH  20  27
ATOM     27  C   UNL     1       0.892  -0.017  -8.691  1.00  0.00     0.017 C 
ATOM     28  C   UNL     1       0.740  -1.479  -9.125  1.00  0.00     0.012 C 
ATOM     29  C   UNL     1      -0.286   0.426  -7.802  1.00  0.00     0.012 C 
ENDBRANCH  20  27
BRANCH  21  30
ATOM     30  O   UNL     1       5.202   2.451  -8.672  1.00  0.00    -0.504 OA
ATOM     31  H   UNL     1       6.203   2.493  -8.550  1.00  0.00     0.293 HD
ENDBRANCH  21  30
BRANCH  22  32
ATOM     32  O   UNL     1       2.386   2.409  -9.123  1.00  0.00    -0.504 OA
ATOM     33  H   UNL     1       1.407   2.638  -9.019  1.00  0.00     0.293 HD
ENDBRANCH  22  32
ENDBRANCH  11  12
BRANCH  10  34
ATOM     34  O   UNL     1       5.205  -4.728  -5.433  1.00  0.00    -0.507 OA
ATOM     35  H   UNL     1       4.654  -5.461  -5.862  1.00  0.00     0.293 HD
ENDBRANCH  10  34
BRANCH   9  36
ATOM     36  C   UNL     1       6.442  -4.504   0.709  1.00  0.00     0.017 C 
ATOM     37  C   UNL     1       6.950  -3.073   0.512  1.00  0.00     0.012 C 
ATOM     38  C   UNL     1       5.222  -4.542   1.648  1.00  0.00     0.012 C 
ENDBRANCH   9  36
BRANCH   6  39
ATOM     39  C   UNL     1       6.066  -7.063  -4.533  1.00  0.00     0.264 C 
ATOM     40  O   UNL     1       7.024  -6.924  -5.339  1.00  0.00    -0.298 OA
ENDBRANCH   6  39
BRANCH   8  41
ATOM     41  O   UNL     1       7.125  -7.262   0.235  1.00  0.00    -0.504 OA
ATOM     42  H   UNL     1       8.093  -7.243   0.531  1.00  0.00     0.293 HD
ENDBRANCH   8  41
BRANCH   7  43
ATOM     43  O   UNL     1       7.004  -8.442  -2.231  1.00  0.00    -0.504 OA
ATOM     44  H   UNL     1       6.792  -9.035  -3.022  1.00  0.00     0.293 HD
ENDBRANCH   7  43
TORSDOF 11
ENDMDL
MODEL 7
REMARK VINA RESULT:    -3.710      2.072      8.907
REMARK INTER + INTRA:          -6.474
REMARK INTER:                  -5.808
REMARK INTRA:                  -0.666
REMARK UNBOUND:                -1.029
REMARK SMILES Cc1cc2c(C(C)C)c(O)c(O)c(C=O)c2c(O)c1-c1c(C)cc2c(C(C)C)c(O)c(O)c(C=O)c2c1O
REMARK SMILES IDX 1 1 2 2 3 3 4 4 16 5 13 6 11 7 9 8 5 9 17 10 19 11 20 12
REMARK SMILES IDX 37 13 21 14 36 15 23 16 22 17 24 18 33 19 25 20 31 21 29 22
REMARK SMILES IDX 38 23 34 25 35 26 26 27 27 28 28 29 32 30 30 32 18 34 6 36
REMARK SMILES IDX 7 37 8 38 14 39 15 40 10 41 12 43
REMARK H PARENT 38 24 32 31 30 33 18 35 10 42 12 44
REMARK Flexibility Score: inf
ROOT
ATOM      1  C   UNL     1       1.678  -2.861  -3.857  1.00  0.00     0.045 C 
ATOM      2  C   UNL     1       2.644  -2.060  -4.696  1.00  0.00    -0.039 A 
ATOM      3  C   UNL     1       2.153  -1.212  -5.690  1.00  0.00     0.013 A 
ATOM      4  C   UNL     1       3.013  -0.450  -6.510  1.00  0.00    -0.006 A 
ATOM      5  C   UNL     1       4.408  -0.434  -6.212  1.00  0.00     0.039 A 
ATOM      6  C   UNL     1       5.248   0.498  -6.894  1.00  0.00     0.072 A 
ATOM      7  C   UNL     1       4.688   1.383  -7.841  1.00  0.00     0.169 A 
ATOM      8  C   UNL     1       3.338   1.286  -8.193  1.00  0.00     0.162 A 
ATOM      9  C   UNL     1       2.502   0.315  -7.602  1.00  0.00     0.008 A 
ATOM     10  C   UNL     1       4.915  -1.360  -5.251  1.00  0.00     0.132 A 
ATOM     11  C   UNL     1       4.031  -2.167  -4.501  1.00  0.00     0.031 A 
ENDROOT
BRANCH  11  12
ATOM     12  C   UNL     1       4.558  -3.122  -3.493  1.00  0.00     0.031 A 
ATOM     13  C   UNL     1       4.731  -4.468  -3.847  1.00  0.00     0.132 A 
ATOM     14  C   UNL     1       4.800  -2.706  -2.173  1.00  0.00    -0.039 A 
ATOM     15  C   UNL     1       5.313  -5.385  -2.927  1.00  0.00     0.039 A 
ATOM     16  C   UNL     1       5.171  -3.653  -1.213  1.00  0.00     0.013 A 
ATOM     17  C   UNL     1       4.542  -1.283  -1.746  1.00  0.00     0.045 C 
ATOM     18  C   UNL     1       5.464  -4.992  -1.564  1.00  0.00    -0.006 A 
ATOM     19  C   UNL     1       5.731  -6.686  -3.314  1.00  0.00     0.072 A 
ATOM     20  C   UNL     1       5.865  -5.956  -0.587  1.00  0.00     0.008 A 
ATOM     21  C   UNL     1       5.953  -7.664  -2.334  1.00  0.00     0.169 A 
ATOM     22  C   UNL     1       5.922  -7.318  -0.971  1.00  0.00     0.162 A 
BRANCH  13  23
ATOM     23  O   UNL     1       4.227  -4.874  -5.089  1.00  0.00    -0.507 OA
ATOM     24  H   UNL     1       4.332  -5.816  -5.443  1.00  0.00     0.293 HD
ENDBRANCH  13  23
BRANCH  19  25
ATOM     25  C   UNL     1       6.097  -7.025  -4.712  1.00  0.00     0.264 C 
ATOM     26  O   UNL     1       6.951  -6.344  -5.339  1.00  0.00    -0.298 OA
ENDBRANCH  19  25
BRANCH  20  27
ATOM     27  C   UNL     1       6.159  -5.563   0.871  1.00  0.00     0.017 C 
ATOM     28  C   UNL     1       7.124  -4.375   0.931  1.00  0.00     0.012 C 
ATOM     29  C   UNL     1       4.897  -5.300   1.717  1.00  0.00     0.012 C 
ENDBRANCH  20  27
BRANCH  21  30
ATOM     30  O   UNL     1       6.254  -8.969  -2.742  1.00  0.00    -0.504 OA
ATOM     31  H   UNL     1       6.984  -9.199  -3.401  1.00  0.00     0.293 HD
ENDBRANCH  21  30
BRANCH  22  32
ATOM     32  O   UNL     1       5.947  -8.306   0.015  1.00  0.00    -0.504 OA
ATOM     33  H   UNL     1       5.187  -8.482   0.657  1.00  0.00     0.293 HD
ENDBRANCH  22  32
ENDBRANCH  11  12
BRANCH  10  34
ATOM     34  O   UNL     1       6.294  -1.497  -5.057  1.00  0.00    -0.507 OA
ATOM     35  H   UNL     1       6.764  -1.311  -4.180  1.00  0.00     0.293 HD
ENDBRANCH  10  34
BRANCH   9  36
ATOM     36  C   UNL     1       1.073   0.111  -8.134  1.00  0.00     0.017 C 
ATOM     37  C   UNL     1       0.990  -1.138  -9.016  1.00  0.00     0.012 C 
ATOM     38  C   UNL     1       0.001   0.090  -7.028  1.00  0.00     0.012 C 
ENDBRANCH   9  36
BRANCH   6  39
ATOM     39  C   UNL     1       6.684   0.634  -6.576  1.00  0.00     0.264 C 
ATOM     40  O   UNL     1       7.063   1.375  -5.631  1.00  0.00    -0.298 OA
ENDBRANCH   6  39
BRANCH   8  41
ATOM     41  O   UNL     1       2.810   2.184  -9.124  1.00  0.00    -0.504 OA
ATOM     42  H   UNL     1       2.036   2.804  -8.917  1.00  0.00     0.293 HD
ENDBRANCH   8  41
BRANCH   7  43
ATOM     43  O   UNL     1       5.452   2.392  -8.440  1.00  0.00    -0.504 OA
ATOM     44  H   UNL     1       6.422   2.575  -8.222  1.00  0.00     0.293 HD
ENDBRANCH   7  43
TORSDOF 11
ENDMDL
MODEL 8
REMARK VINA RESULT:    -3.285      1.806      9.173
REMARK INTER + INTRA:          -5.850
REMARK INTER:                  -5.784
REMARK INTRA:                  -0.066
REMARK UNBOUND:                -1.029
REMARK SMILES Cc1cc2c(C(C)C)c(O)c(O)c(C=O)c2c(O)c1-c1c(C)cc2c(C(C)C)c(O)c(O)c(C=O)c2c1O
REMARK SMILES IDX 1 1 2 2 3 3 4 4 16 5 13 6 11 7 9 8 5 9 17 10 19 11 20 12
REMARK SMILES IDX 37 13 21 14 36 15 23 16 22 17 24 18 33 19 25 20 31 21 29 22
REMARK SMILES IDX 38 23 34 25 35 26 26 27 27 28 28 29 32 30 30 32 18 34 6 36
REMARK SMILES IDX 7 37 8 38 14 39 15 40 10 41 12 43
REMARK H PARENT 38 24 32 31 30 33 18 35 10 42 12 44
REMARK Flexibility Score: inf
ROOT
ATOM      1  C   UNL     1       1.867  -3.099  -3.458  1.00  0.00     0.045 C 
ATOM      2  C   UNL     1       2.786  -2.670  -4.575  1.00  0.00    -0.039 A 
ATOM      3  C   UNL     1       2.421  -1.598  -5.392  1.00  0.00     0.013 A 
ATOM      4  C   UNL     1       3.239  -1.164  -6.458  1.00  0.00    -0.006 A 
ATOM      5  C   UNL     1       4.536  -1.738  -6.606  1.00  0.00     0.039 A 
ATOM      6  C   UNL     1       5.445  -1.155  -7.539  1.00  0.00     0.072 A 
ATOM      7  C   UNL     1       5.051  -0.028  -8.291  1.00  0.00     0.169 A 
ATOM      8  C   UNL     1       3.744   0.461  -8.207  1.00  0.00     0.162 A 
ATOM      9  C   UNL     1       2.795  -0.149  -7.360  1.00  0.00     0.008 A 
ATOM     10  C   UNL     1       4.872  -2.884  -5.823  1.00  0.00     0.132 A 
ATOM     11  C   UNL     1       3.995  -3.342  -4.815  1.00  0.00     0.031 A 
ENDROOT
BRANCH  11  12
ATOM     12  C   UNL     1       4.351  -4.528  -3.993  1.00  0.00     0.031 A 
ATOM     13  C   UNL     1       5.038  -4.343  -2.785  1.00  0.00     0.132 A 
ATOM     14  C   UNL     1       4.083  -5.825  -4.458  1.00  0.00    -0.039 A 
ATOM     15  C   UNL     1       5.317  -5.454  -1.939  1.00  0.00     0.039 A 
ATOM     16  C   UNL     1       4.544  -6.925  -3.726  1.00  0.00     0.013 A 
ATOM     17  C   UNL     1       3.419  -6.053  -5.793  1.00  0.00     0.045 C 
ATOM     18  C   UNL     1       5.138  -6.772  -2.451  1.00  0.00    -0.006 A 
ATOM     19  C   UNL     1       5.787  -5.294  -0.608  1.00  0.00     0.072 A 
ATOM     20  C   UNL     1       5.591  -7.898  -1.693  1.00  0.00     0.008 A 
ATOM     21  C   UNL     1       6.383  -6.378   0.051  1.00  0.00     0.169 A 
ATOM     22  C   UNL     1       6.370  -7.656  -0.536  1.00  0.00     0.162 A 
BRANCH  13  23
ATOM     23  O   UNL     1       5.508  -3.055  -2.505  1.00  0.00    -0.507 OA
ATOM     24  H   UNL     1       6.057  -2.836  -1.683  1.00  0.00     0.293 HD
ENDBRANCH  13  23
BRANCH  19  25
ATOM     25  C   UNL     1       5.537  -4.066   0.186  1.00  0.00     0.264 C 
ATOM     26  O   UNL     1       6.441  -3.204   0.346  1.00  0.00    -0.298 OA
ENDBRANCH  19  25
BRANCH  20  27
ATOM     27  C   UNL     1       5.316  -9.344  -2.139  1.00  0.00     0.017 C 
ATOM     28  C   UNL     1       6.401  -9.830  -3.106  1.00  0.00     0.012 C 
ATOM     29  C   UNL     1       5.123 -10.334  -0.975  1.00  0.00     0.012 C 
ENDBRANCH  20  27
BRANCH  21  30
ATOM     30  O   UNL     1       6.941  -6.170   1.319  1.00  0.00    -0.504 OA
ATOM     31  H   UNL     1       6.401  -6.120   2.170  1.00  0.00     0.293 HD
ENDBRANCH  21  30
BRANCH  22  32
ATOM     32  O   UNL     1       7.124  -8.698   0.011  1.00  0.00    -0.504 OA
ATOM     33  H   UNL     1       8.134  -8.719   0.020  1.00  0.00     0.293 HD
ENDBRANCH  22  32
ENDBRANCH  11  12
BRANCH  10  34
ATOM     34  O   UNL     1       6.062  -3.581  -6.061  1.00  0.00    -0.507 OA
ATOM     35  H   UNL     1       6.182  -4.571  -5.891  1.00  0.00     0.293 HD
ENDBRANCH  10  34
BRANCH   9  36
ATOM     36  C   UNL     1       1.322   0.292  -7.419  1.00  0.00     0.017 C 
ATOM     37  C   UNL     1       0.762   0.145  -8.837  1.00  0.00     0.012 C 
ATOM     38  C   UNL     1       0.425  -0.414  -6.385  1.00  0.00     0.012 C 
ENDBRANCH   9  36
BRANCH   6  39
ATOM     39  C   UNL     1       6.833  -1.639  -7.684  1.00  0.00     0.264 C 
ATOM     40  O   UNL     1       7.125  -2.495  -8.561  1.00  0.00    -0.298 OA
ENDBRANCH   6  39
BRANCH   8  41
ATOM     41  O   UNL     1       3.386   1.587  -8.954  1.00  0.00    -0.504 OA
ATOM     42  H   UNL     1       3.601   2.534  -8.664  1.00  0.00     0.293 HD
ENDBRANCH   8  41
BRANCH   7  43
ATOM     43  O   UNL     1       5.951   0.648  -9.124  1.00  0.00    -0.504 OA
ATOM     44  H   UNL     1       5.697   1.082 -10.001  1.00  0.00     0.293 HD
ENDBRANCH   7  43
TORSDOF 11
ENDMDL
