MODEL 1
REMARK VINA RESULT:    -4.413      0.000      0.000
REMARK INTER + INTRA:          -5.435
REMARK INTER:                  -5.316
REMARK INTRA:                  -0.119
REMARK UNBOUND:                -0.119
REMARK SMILES NC(=O)C[C@H]([NH3+])C(=O)[O-]
REMARK SMILES IDX 4 1 5 2 6 3 7 7 8 8 9 9 2 10 3 11 1 12
REMARK H PARENT 6 4 6 5 6 6 1 13 1 14
REMARK Flexibility Score: inf
ROOT
ATOM      1  C   UNL     1     -32.227  48.967 -14.679  1.00  0.00     0.171 C 
ENDROOT
BRANCH   1   2
ATOM      2  C   UNL     1     -32.546  48.179 -15.967  1.00  0.00     0.237 C 
BRANCH   2   3
ATOM      3  N   UNL     1     -32.625  46.735 -15.707  1.00  0.00    -0.350 N 
ATOM      4  H   UNL     1     -32.378  46.204 -16.574  1.00  0.00     0.345 HD
ATOM      5  H   UNL     1     -31.971  46.459 -14.938  1.00  0.00     0.345 HD
ATOM      6  H   UNL     1     -33.601  46.472 -15.437  1.00  0.00     0.345 HD
ENDBRANCH   2   3
BRANCH   2   7
ATOM      7  C   UNL     1     -31.501  48.463 -17.012  1.00  0.00     0.100 C 
ATOM      8  O   UNL     1     -30.759  49.476 -16.915  1.00  0.00    -0.544 OA
ATOM      9  O   UNL     1     -31.362  47.615 -18.104  1.00  0.00    -0.544 OA
ENDBRANCH   2   7
ENDBRANCH   1   2
BRANCH   1  10
ATOM     10  C   UNL     1     -33.184  50.104 -14.472  1.00  0.00     0.223 C 
ATOM     11  O   UNL     1     -34.125  50.289 -15.291  1.00  0.00    -0.275 OA
ATOM     12  N   UNL     1     -33.018  50.996 -13.372  1.00  0.00    -0.369 N 
ATOM     13  H   UNL     1     -33.678  51.794 -13.235  1.00  0.00     0.159 HD
ATOM     14  H   UNL     1     -32.237  50.862 -12.692  1.00  0.00     0.159 HD
ENDBRANCH   1  10
TORSDOF 4
ENDMDL
MODEL 2
REMARK VINA RESULT:    -4.400      1.946      3.817
REMARK INTER + INTRA:          -5.419
REMARK INTER:                  -5.254
REMARK INTRA:                  -0.164
REMARK UNBOUND:                -0.119
REMARK SMILES NC(=O)C[C@H]([NH3+])C(=O)[O-]
REMARK SMILES IDX 4 1 5 2 6 3 7 7 8 8 9 9 2 10 3 11 1 12
REMARK H PARENT 6 4 6 5 6 6 1 13 1 14
REMARK Flexibility Score: inf
ROOT
ATOM      1  C   UNL     1     -32.353  47.671 -16.008  1.00  0.00     0.171 C 
ENDROOT
BRANCH   1   2
ATOM      2  C   UNL     1     -33.591  48.575 -15.832  1.00  0.00     0.237 C 
BRANCH   2   3
ATOM      3  N   UNL     1     -34.037  49.130 -17.116  1.00  0.00    -0.350 N 
ATOM      4  H   UNL     1     -33.275  49.036 -17.828  1.00  0.00     0.345 HD
ATOM      5  H   UNL     1     -34.890  48.633 -17.462  1.00  0.00     0.345 HD
ATOM      6  H   UNL     1     -34.252  50.149 -17.012  1.00  0.00     0.345 HD
ENDBRANCH   2   3
BRANCH   2   7
ATOM      7  C   UNL     1     -33.279  49.685 -14.864  1.00  0.00     0.100 C 
ATOM      8  O   UNL     1     -34.125  50.589 -14.634  1.00  0.00    -0.544 OA
ATOM      9  O   UNL     1     -32.043  49.725 -14.230  1.00  0.00    -0.544 OA
ENDBRANCH   2   7
ENDBRANCH   1   2
BRANCH   1  10
ATOM     10  C   UNL     1     -31.502  48.112 -17.162  1.00  0.00     0.223 C 
ATOM     11  O   UNL     1     -30.926  49.233 -17.125  1.00  0.00    -0.275 OA
ATOM     12  N   UNL     1     -31.365  47.285 -18.316  1.00  0.00    -0.369 N 
ATOM     13  H   UNL     1     -30.783  47.598 -19.124  1.00  0.00     0.159 HD
ATOM     14  H   UNL     1     -31.845  46.358 -18.366  1.00  0.00     0.159 HD
ENDBRANCH   1  10
TORSDOF 4
ENDMDL
MODEL 3
REMARK VINA RESULT:    -4.372      1.850      2.025
REMARK INTER + INTRA:          -5.385
REMARK INTER:                  -5.314
REMARK INTRA:                  -0.071
REMARK UNBOUND:                -0.119
REMARK SMILES NC(=O)C[C@H]([NH3+])C(=O)[O-]
REMARK SMILES IDX 4 1 5 2 6 3 7 7 8 8 9 9 2 10 3 11 1 12
REMARK H PARENT 6 4 6 5 6 6 1 13 1 14
REMARK Flexibility Score: inf
ROOT
ATOM      1  C   UNL     1     -33.910  49.309 -15.050  1.00  0.00     0.171 C 
ENDROOT
BRANCH   1   2
ATOM      2  C   UNL     1     -33.180  49.131 -16.398  1.00  0.00     0.237 C 
BRANCH   2   3
ATOM      3  N   UNL     1     -34.125  49.125 -17.522  1.00  0.00    -0.350 N 
ATOM      4  H   UNL     1     -34.299  50.106 -17.845  1.00  0.00     0.345 HD
ATOM      5  H   UNL     1     -33.749  48.564 -18.322  1.00  0.00     0.345 HD
ATOM      6  H   UNL     1     -35.041  48.721 -17.220  1.00  0.00     0.345 HD
ENDBRANCH   2   3
BRANCH   2   7
ATOM      7  C   UNL     1     -32.382  47.855 -16.381  1.00  0.00     0.100 C 
ATOM      8  O   UNL     1     -31.498  47.643 -17.253  1.00  0.00    -0.544 OA
ATOM      9  O   UNL     1     -32.630  46.894 -15.409  1.00  0.00    -0.544 OA
ENDBRANCH   2   7
ENDBRANCH   1   2
BRANCH   1  10
ATOM     10  C   UNL     1     -33.187  50.269 -14.150  1.00  0.00     0.223 C 
ATOM     11  O   UNL     1     -33.757  51.330 -13.778  1.00  0.00    -0.275 OA
ATOM     12  N   UNL     1     -31.848  50.003 -13.738  1.00  0.00    -0.369 N 
ATOM     13  H   UNL     1     -31.341  50.678 -13.122  1.00  0.00     0.159 HD
ATOM     14  H   UNL     1     -31.359  49.134 -14.047  1.00  0.00     0.159 HD
ENDBRANCH   1  10
TORSDOF 4
ENDMDL
MODEL 4
REMARK VINA RESULT:    -4.280     16.386     17.049
REMARK INTER + INTRA:          -5.275
REMARK INTER:                  -4.797
REMARK INTRA:                  -0.478
REMARK UNBOUND:                -0.119
REMARK SMILES NC(=O)C[C@H]([NH3+])C(=O)[O-]
REMARK SMILES IDX 4 1 5 2 6 3 7 7 8 8 9 9 2 10 3 11 1 12
REMARK H PARENT 6 4 6 5 6 6 1 13 1 14
REMARK Flexibility Score: inf
ROOT
ATOM      1  C   UNL     1     -32.573  37.119  -2.986  1.00  0.00     0.171 C 
ENDROOT
BRANCH   1   2
ATOM      2  C   UNL     1     -32.949  38.359  -3.824  1.00  0.00     0.237 C 
BRANCH   2   3
ATOM      3  N   UNL     1     -31.754  39.038  -4.343  1.00  0.00    -0.350 N 
ATOM      4  H   UNL     1     -30.893  38.533  -4.027  1.00  0.00     0.345 HD
ATOM      5  H   UNL     1     -31.768  39.069  -5.389  1.00  0.00     0.345 HD
ATOM      6  H   UNL     1     -31.706  40.014  -3.971  1.00  0.00     0.345 HD
ENDBRANCH   2   3
BRANCH   2   7
ATOM      7  C   UNL     1     -33.768  39.308  -2.992  1.00  0.00     0.100 C 
ATOM      8  O   UNL     1     -34.124  40.423  -3.458  1.00  0.00    -0.544 OA
ATOM      9  O   UNL     1     -34.122  38.964  -1.693  1.00  0.00    -0.544 OA
ENDBRANCH   2   7
ENDBRANCH   1   2
BRANCH   1  10
ATOM     10  C   UNL     1     -31.255  37.297  -2.291  1.00  0.00     0.223 C 
ATOM     11  O   UNL     1     -30.198  36.879  -2.836  1.00  0.00    -0.275 OA
ATOM     12  N   UNL     1     -31.194  37.908  -1.004  1.00  0.00    -0.369 N 
ATOM     13  H   UNL     1     -30.277  38.021  -0.516  1.00  0.00     0.159 HD
ATOM     14  H   UNL     1     -32.062  38.249  -0.535  1.00  0.00     0.159 HD
ENDBRANCH   1  10
TORSDOF 4
ENDMDL
MODEL 5
REMARK VINA RESULT:    -4.214     16.804     17.225
REMARK INTER + INTRA:          -5.195
REMARK INTER:                  -4.826
REMARK INTRA:                  -0.368
REMARK UNBOUND:                -0.119
REMARK SMILES NC(=O)C[C@H]([NH3+])C(=O)[O-]
REMARK SMILES IDX 4 1 5 2 6 3 7 7 8 8 9 9 2 10 3 11 1 12
REMARK H PARENT 6 4 6 5 6 6 1 13 1 14
REMARK Flexibility Score: inf
ROOT
ATOM      1  C   UNL     1     -32.890  37.375  -2.838  1.00  0.00     0.171 C 
ENDROOT
BRANCH   1   2
ATOM      2  C   UNL     1     -31.680  37.152  -1.906  1.00  0.00     0.237 C 
BRANCH   2   3
ATOM      3  N   UNL     1     -31.443  38.318  -1.045  1.00  0.00    -0.350 N 
ATOM      4  H   UNL     1     -31.753  39.190  -1.534  1.00  0.00     0.345 HD
ATOM      5  H   UNL     1     -31.968  38.228  -0.143  1.00  0.00     0.345 HD
ATOM      6  H   UNL     1     -30.422  38.411  -0.840  1.00  0.00     0.345 HD
ENDBRANCH   2   3
BRANCH   2   7
ATOM      7  C   UNL     1     -30.453  36.852  -2.726  1.00  0.00     0.100 C 
ATOM      8  O   UNL     1     -29.754  35.834  -2.480  1.00  0.00    -0.544 OA
ATOM      9  O   UNL     1     -30.075  37.712  -3.750  1.00  0.00    -0.544 OA
ENDBRANCH   2   7
ENDBRANCH   1   2
BRANCH   1  10
ATOM     10  C   UNL     1     -33.001  38.808  -3.269  1.00  0.00     0.223 C 
ATOM     11  O   UNL     1     -33.597  39.640  -2.534  1.00  0.00    -0.275 OA
ATOM     12  N   UNL     1     -32.463  39.228  -4.522  1.00  0.00    -0.369 N 
ATOM     13  H   UNL     1     -32.552  40.223  -4.827  1.00  0.00     0.159 HD
ATOM     14  H   UNL     1     -31.977  38.548  -5.147  1.00  0.00     0.159 HD
ENDBRANCH   1  10
TORSDOF 4
ENDMDL
MODEL 6
REMARK VINA RESULT:    -4.122     17.167     17.540
REMARK INTER + INTRA:          -5.084
REMARK INTER:                  -4.610
REMARK INTRA:                  -0.474
REMARK UNBOUND:                -0.119
REMARK SMILES NC(=O)C[C@H]([NH3+])C(=O)[O-]
REMARK SMILES IDX 4 1 5 2 6 3 7 7 8 8 9 9 2 10 3 11 1 12
REMARK H PARENT 6 4 6 5 6 6 1 13 1 14
REMARK Flexibility Score: inf
ROOT
ATOM      1  C   UNL     1     -33.022  37.255  -2.218  1.00  0.00     0.171 C 
ENDROOT
BRANCH   1   2
ATOM      2  C   UNL     1     -31.534  37.051  -1.865  1.00  0.00     0.237 C 
BRANCH   2   3
ATOM      3  N   UNL     1     -31.134  37.884  -0.723  1.00  0.00    -0.350 N 
ATOM      4  H   UNL     1     -30.770  37.277   0.049  1.00  0.00     0.345 HD
ATOM      5  H   UNL     1     -30.391  38.566  -1.001  1.00  0.00     0.345 HD
ATOM      6  H   UNL     1     -31.961  38.408  -0.354  1.00  0.00     0.345 HD
ENDBRANCH   2   3
BRANCH   2   7
ATOM      7  C   UNL     1     -30.678  37.364  -3.063  1.00  0.00     0.100 C 
ATOM      8  O   UNL     1     -29.591  36.755  -3.247  1.00  0.00    -0.544 OA
ATOM      9  O   UNL     1     -31.077  38.343  -3.964  1.00  0.00    -0.544 OA
ENDBRANCH   2   7
ENDBRANCH   1   2
BRANCH   1  10
ATOM     10  C   UNL     1     -33.537  38.571  -1.713  1.00  0.00     0.223 C 
ATOM     11  O   UNL     1     -34.125  38.629  -0.599  1.00  0.00    -0.275 OA
ATOM     12  N   UNL     1     -33.393  39.752  -2.499  1.00  0.00    -0.369 N 
ATOM     13  H   UNL     1     -33.763  40.665  -2.153  1.00  0.00     0.159 HD
ATOM     14  H   UNL     1     -32.919  39.718  -3.429  1.00  0.00     0.159 HD
ENDBRANCH   1  10
TORSDOF 4
ENDMDL
MODEL 7
REMARK VINA RESULT:    -3.997      1.723      2.018
REMARK INTER + INTRA:          -4.933
REMARK INTER:                  -4.890
REMARK INTRA:                  -0.043
REMARK UNBOUND:                -0.119
REMARK SMILES NC(=O)C[C@H]([NH3+])C(=O)[O-]
REMARK SMILES IDX 4 1 5 2 6 3 7 7 8 8 9 9 2 10 3 11 1 12
REMARK H PARENT 6 4 6 5 6 6 1 13 1 14
REMARK Flexibility Score: inf
ROOT
ATOM      1  C   UNL     1     -33.900  49.966 -15.246  1.00  0.00     0.171 C 
ENDROOT
BRANCH   1   2
ATOM      2  C   UNL     1     -34.032  48.436 -15.396  1.00  0.00     0.237 C 
BRANCH   2   3
ATOM      3  N   UNL     1     -34.124  47.775 -14.088  1.00  0.00    -0.350 N 
ATOM      4  H   UNL     1     -33.813  46.779 -14.172  1.00  0.00     0.345 HD
ATOM      5  H   UNL     1     -33.525  48.261 -13.382  1.00  0.00     0.345 HD
ATOM      6  H   UNL     1     -35.115  47.774 -13.755  1.00  0.00     0.345 HD
ENDBRANCH   2   3
BRANCH   2   7
ATOM      7  C   UNL     1     -32.861  47.896 -16.173  1.00  0.00     0.100 C 
ATOM      8  O   UNL     1     -32.366  46.775 -15.886  1.00  0.00    -0.544 OA
ATOM      9  O   UNL     1     -32.308  48.646 -17.204  1.00  0.00    -0.544 OA
ENDBRANCH   2   7
ENDBRANCH   1   2
BRANCH   1  10
ATOM     10  C   UNL     1     -32.905  50.336 -14.186  1.00  0.00     0.223 C 
ATOM     11  O   UNL     1     -31.749  49.834 -14.207  1.00  0.00    -0.275 OA
ATOM     12  N   UNL     1     -33.269  51.230 -13.135  1.00  0.00    -0.369 N 
ATOM     13  H   UNL     1     -32.580  51.478 -12.390  1.00  0.00     0.159 HD
ATOM     14  H   UNL     1     -34.226  51.646 -13.098  1.00  0.00     0.159 HD
ENDBRANCH   1  10
TORSDOF 4
ENDMDL
MODEL 8
REMARK VINA RESULT:    -3.981     15.956     16.627
REMARK INTER + INTRA:          -4.914
REMARK INTER:                  -4.706
REMARK INTRA:                  -0.209
REMARK UNBOUND:                -0.119
REMARK SMILES NC(=O)C[C@H]([NH3+])C(=O)[O-]
REMARK SMILES IDX 4 1 5 2 6 3 7 7 8 8 9 9 2 10 3 11 1 12
REMARK H PARENT 6 4 6 5 6 6 1 13 1 14
REMARK Flexibility Score: inf
ROOT
ATOM      1  C   UNL     1     -31.444  38.267  -3.614  1.00  0.00     0.171 C 
ENDROOT
BRANCH   1   2
ATOM      2  C   UNL     1     -32.975  38.076  -3.587  1.00  0.00     0.237 C 
BRANCH   2   3
ATOM      3  N   UNL     1     -33.383  36.904  -4.373  1.00  0.00    -0.350 N 
ATOM      4  H   UNL     1     -33.294  36.038  -3.792  1.00  0.00     0.345 HD
ATOM      5  H   UNL     1     -34.375  36.999  -4.696  1.00  0.00     0.345 HD
ATOM      6  H   UNL     1     -32.761  36.796  -5.206  1.00  0.00     0.345 HD
ENDBRANCH   2   3
BRANCH   2   7
ATOM      7  C   UNL     1     -33.654  39.315  -4.107  1.00  0.00     0.100 C 
ATOM      8  O   UNL     1     -34.125  40.167  -3.309  1.00  0.00    -0.544 OA
ATOM      9  O   UNL     1     -33.780  39.514  -5.476  1.00  0.00    -0.544 OA
ENDBRANCH   2   7
ENDBRANCH   1   2
BRANCH   1  10
ATOM     10  C   UNL     1     -30.736  37.186  -2.851  1.00  0.00     0.223 C 
ATOM     11  O   UNL     1     -31.279  36.676  -1.835  1.00  0.00    -0.275 OA
ATOM     12  N   UNL     1     -29.437  36.754  -3.252  1.00  0.00    -0.369 N 
ATOM     13  H   UNL     1     -28.939  36.010  -2.713  1.00  0.00     0.159 HD
ATOM     14  H   UNL     1     -28.969  37.175  -4.085  1.00  0.00     0.159 HD
ENDBRANCH   1  10
TORSDOF 4
ENDMDL
MODEL 9
REMARK VINA RESULT:    -3.931     16.254     16.736
REMARK INTER + INTRA:          -4.854
REMARK INTER:                  -4.594
REMARK INTRA:                  -0.261
REMARK UNBOUND:                -0.119
REMARK SMILES NC(=O)C[C@H]([NH3+])C(=O)[O-]
REMARK SMILES IDX 4 1 5 2 6 3 7 7 8 8 9 9 2 10 3 11 1 12
REMARK H PARENT 6 4 6 5 6 6 1 13 1 14
REMARK Flexibility Score: inf
ROOT
ATOM      1  C   UNL     1     -32.588  38.080  -4.026  1.00  0.00     0.171 C 
ENDROOT
BRANCH   1   2
ATOM      2  C   UNL     1     -31.305  38.235  -3.183  1.00  0.00     0.237 C 
BRANCH   2   3
ATOM      3  N   UNL     1     -30.144  37.638  -3.857  1.00  0.00    -0.350 N 
ATOM      4  H   UNL     1     -29.376  37.478  -3.165  1.00  0.00     0.345 HD
ATOM      5  H   UNL     1     -30.400  36.725  -4.301  1.00  0.00     0.345 HD
ATOM      6  H   UNL     1     -29.783  38.288  -4.592  1.00  0.00     0.345 HD
ENDBRANCH   2   3
BRANCH   2   7
ATOM      7  C   UNL     1     -31.504  37.604  -1.830  1.00  0.00     0.100 C 
ATOM      8  O   UNL     1     -32.226  38.164  -0.964  1.00  0.00    -0.544 OA
ATOM      9  O   UNL     1     -30.874  36.404  -1.525  1.00  0.00    -0.544 OA
ENDBRANCH   2   7
ENDBRANCH   1   2
BRANCH   1  10
ATOM     10  C   UNL     1     -33.356  39.367  -4.109  1.00  0.00     0.223 C 
ATOM     11  O   UNL     1     -33.772  39.778  -5.226  1.00  0.00    -0.275 OA
ATOM     12  N   UNL     1     -33.593  40.143  -2.936  1.00  0.00    -0.369 N 
ATOM     13  H   UNL     1     -34.117  41.044  -2.996  1.00  0.00     0.159 HD
ATOM     14  H   UNL     1     -33.245  39.821  -2.006  1.00  0.00     0.159 HD
ENDBRANCH   1  10
TORSDOF 4
ENDMDL
