MODEL 1
REMARK VINA RESULT:    -4.155      0.000      0.000
REMARK INTER + INTRA:          -5.275
REMARK INTER:                  -5.126
REMARK INTRA:                  -0.149
REMARK UNBOUND:                -0.149
REMARK SMILES CCCCCC(C)=O
REMARK SMILES IDX 4 1 3 2 2 3 1 4 5 5 6 6 8 7 7 8
REMARK H PARENT
REMARK Flexibility Score: inf
ROOT
ATOM      1  C   UNL     1      15.959  36.130  12.222  1.00  0.00     0.008 C 
ENDROOT
BRANCH   1   2
ATOM      2  C   UNL     1      16.267  36.653  10.814  1.00  0.00     0.000 C 
BRANCH   2   3
ATOM      3  C   UNL     1      17.460  35.911  10.200  1.00  0.00    -0.003 C 
ATOM      4  C   UNL     1      17.378  35.903   8.675  1.00  0.00     0.004 C 
ENDBRANCH   2   3
ENDBRANCH   1   2
BRANCH   1   5
ATOM      5  C   UNL     1      16.955  35.041  12.634  1.00  0.00     0.075 C 
BRANCH   5   6
ATOM      6  C   UNL     1      16.339  34.102  13.634  1.00  0.00     0.129 C 
ATOM      7  O   UNL     1      16.445  32.894  13.479  1.00  0.00    -0.300 OA
ATOM      8  C   UNL     1      15.614  34.637  14.832  1.00  0.00     0.087 C 
ENDBRANCH   5   6
ENDBRANCH   1   5
TORSDOF 4
ENDMDL
MODEL 2
REMARK VINA RESULT:    -4.089      2.401      4.361
REMARK INTER + INTRA:          -5.193
REMARK INTER:                  -5.041
REMARK INTRA:                  -0.152
REMARK UNBOUND:                -0.149
REMARK SMILES CCCCCC(C)=O
REMARK SMILES IDX 4 1 3 2 2 3 1 4 5 5 6 6 8 7 7 8
REMARK H PARENT
REMARK Flexibility Score: inf
ROOT
ATOM      1  C   UNL     1      17.403  35.865  11.606  1.00  0.00     0.008 C 
ENDROOT
BRANCH   1   2
ATOM      2  C   UNL     1      16.217  35.562  12.531  1.00  0.00     0.000 C 
BRANCH   2   3
ATOM      3  C   UNL     1      16.480  34.305  13.367  1.00  0.00    -0.003 C 
ATOM      4  C   UNL     1      15.671  34.326  14.662  1.00  0.00     0.004 C 
ENDBRANCH   2   3
ENDBRANCH   1   2
BRANCH   1   5
ATOM      5  C   UNL     1      18.448  34.746  11.667  1.00  0.00     0.075 C 
BRANCH   5   6
ATOM      6  C   UNL     1      18.997  34.451  10.299  1.00  0.00     0.129 C 
ATOM      7  O   UNL     1      18.273  34.553   9.320  1.00  0.00    -0.300 OA
ATOM      8  C   UNL     1      20.432  34.055  10.125  1.00  0.00     0.087 C 
ENDBRANCH   5   6
ENDBRANCH   1   5
TORSDOF 4
ENDMDL
MODEL 3
REMARK VINA RESULT:    -4.022      1.931      4.737
REMARK INTER + INTRA:          -5.111
REMARK INTER:                  -5.049
REMARK INTRA:                  -0.062
REMARK UNBOUND:                -0.149
REMARK SMILES CCCCCC(C)=O
REMARK SMILES IDX 4 1 3 2 2 3 1 4 5 5 6 6 8 7 7 8
REMARK H PARENT
REMARK Flexibility Score: inf
ROOT
ATOM      1  C   UNL     1      17.549  35.533  11.593  1.00  0.00     0.008 C 
ENDROOT
BRANCH   1   2
ATOM      2  C   UNL     1      16.364  35.461  12.563  1.00  0.00     0.000 C 
BRANCH   2   3
ATOM      3  C   UNL     1      16.467  34.224  13.464  1.00  0.00    -0.003 C 
ATOM      4  C   UNL     1      15.618  34.389  14.722  1.00  0.00     0.004 C 
ENDBRANCH   2   3
ENDBRANCH   1   2
BRANCH   1   5
ATOM      5  C   UNL     1      17.149  36.222  10.284  1.00  0.00     0.075 C 
BRANCH   5   6
ATOM      6  C   UNL     1      17.944  35.680   9.129  1.00  0.00     0.129 C 
ATOM      7  O   UNL     1      18.304  34.512   9.134  1.00  0.00    -0.300 OA
ATOM      8  C   UNL     1      18.281  36.557   7.961  1.00  0.00     0.087 C 
ENDBRANCH   5   6
ENDBRANCH   1   5
TORSDOF 4
ENDMDL
MODEL 4
REMARK VINA RESULT:    -3.933     11.939     13.538
REMARK INTER + INTRA:          -5.001
REMARK INTER:                  -4.747
REMARK INTRA:                  -0.254
REMARK UNBOUND:                -0.149
REMARK SMILES CCCCCC(C)=O
REMARK SMILES IDX 4 1 3 2 2 3 1 4 5 5 6 6 8 7 7 8
REMARK H PARENT
REMARK Flexibility Score: inf
ROOT
ATOM      1  C   UNL     1      16.616  34.389  25.007  1.00  0.00     0.008 C 
ENDROOT
BRANCH   1   2
ATOM      2  C   UNL     1      18.099  34.731  24.824  1.00  0.00     0.000 C 
BRANCH   2   3
ATOM      3  C   UNL     1      18.270  35.988  23.963  1.00  0.00    -0.003 C 
ATOM      4  C   UNL     1      17.025  36.251  23.120  1.00  0.00     0.004 C 
ENDBRANCH   2   3
ENDBRANCH   1   2
BRANCH   1   5
ATOM      5  C   UNL     1      16.234  34.367  26.491  1.00  0.00     0.075 C 
BRANCH   5   6
ATOM      6  C   UNL     1      14.821  34.840  26.687  1.00  0.00     0.129 C 
ATOM      7  O   UNL     1      14.278  34.699  27.773  1.00  0.00    -0.300 OA
ATOM      8  C   UNL     1      14.080  35.505  25.567  1.00  0.00     0.087 C 
ENDBRANCH   5   6
ENDBRANCH   1   5
TORSDOF 4
ENDMDL
MODEL 5
REMARK VINA RESULT:    -3.894      1.866      2.585
REMARK INTER + INTRA:          -4.954
REMARK INTER:                  -4.850
REMARK INTRA:                  -0.103
REMARK UNBOUND:                -0.149
REMARK SMILES CCCCCC(C)=O
REMARK SMILES IDX 4 1 3 2 2 3 1 4 5 5 6 6 8 7 7 8
REMARK H PARENT
REMARK Flexibility Score: inf
ROOT
ATOM      1  C   UNL     1      18.222  34.948  10.518  1.00  0.00     0.008 C 
ENDROOT
BRANCH   1   2
ATOM      2  C   UNL     1      19.394  34.253   9.817  1.00  0.00     0.000 C 
BRANCH   2   3
ATOM      3  C   UNL     1      19.450  34.633   8.333  1.00  0.00    -0.003 C 
ATOM      4  C   UNL     1      18.598  35.868   8.049  1.00  0.00     0.004 C 
ENDBRANCH   2   3
ENDBRANCH   1   2
BRANCH   1   5
ATOM      5  C   UNL     1      18.283  34.737  12.035  1.00  0.00     0.075 C 
BRANCH   5   6
ATOM      6  C   UNL     1      16.905  34.772  12.636  1.00  0.00     0.129 C 
ATOM      7  O   UNL     1      16.161  35.710  12.395  1.00  0.00    -0.300 OA
ATOM      8  C   UNL     1      16.430  33.652  13.511  1.00  0.00     0.087 C 
ENDBRANCH   5   6
ENDBRANCH   1   5
TORSDOF 4
ENDMDL
MODEL 6
REMARK VINA RESULT:    -3.877     11.363     13.543
REMARK INTER + INTRA:          -4.933
REMARK INTER:                  -4.677
REMARK INTRA:                  -0.256
REMARK UNBOUND:                -0.149
REMARK SMILES CCCCCC(C)=O
REMARK SMILES IDX 4 1 3 2 2 3 1 4 5 5 6 6 8 7 7 8
REMARK H PARENT
REMARK Flexibility Score: inf
ROOT
ATOM      1  C   UNL     1      16.335  34.363  25.131  1.00  0.00     0.008 C 
ENDROOT
BRANCH   1   2
ATOM      2  C   UNL     1      15.955  34.425  26.615  1.00  0.00     0.000 C 
BRANCH   2   3
ATOM      3  C   UNL     1      14.520  34.932  26.794  1.00  0.00    -0.003 C 
ATOM      4  C   UNL     1      13.995  35.565  25.507  1.00  0.00     0.004 C 
ENDBRANCH   2   3
ENDBRANCH   1   2
BRANCH   1   5
ATOM      5  C   UNL     1      17.810  34.725  24.924  1.00  0.00     0.075 C 
BRANCH   5   6
ATOM      6  C   UNL     1      17.951  35.858  23.946  1.00  0.00     0.129 C 
ATOM      7  O   UNL     1      18.979  36.519  23.925  1.00  0.00    -0.300 OA
ATOM      8  C   UNL     1      16.848  36.169  22.979  1.00  0.00     0.087 C 
ENDBRANCH   5   6
ENDBRANCH   1   5
TORSDOF 4
ENDMDL
MODEL 7
REMARK VINA RESULT:    -3.839      2.978      4.413
REMARK INTER + INTRA:          -4.886
REMARK INTER:                  -4.720
REMARK INTRA:                  -0.166
REMARK UNBOUND:                -0.149
REMARK SMILES CCCCCC(C)=O
REMARK SMILES IDX 4 1 3 2 2 3 1 4 5 5 6 6 8 7 7 8
REMARK H PARENT
REMARK Flexibility Score: inf
ROOT
ATOM      1  C   UNL     1      18.449  34.763  11.591  1.00  0.00     0.008 C 
ENDROOT
BRANCH   1   2
ATOM      2  C   UNL     1      17.266  35.411  12.320  1.00  0.00     0.000 C 
BRANCH   2   3
ATOM      3  C   UNL     1      16.819  36.693  11.610  1.00  0.00    -0.003 C 
ATOM      4  C   UNL     1      15.296  36.775  11.528  1.00  0.00     0.004 C 
ENDBRANCH   2   3
ENDBRANCH   1   2
BRANCH   1   5
ATOM      5  C   UNL     1      18.326  34.941  10.074  1.00  0.00     0.075 C 
BRANCH   5   6
ATOM      6  C   UNL     1      19.549  34.418   9.373  1.00  0.00     0.129 C 
ATOM      7  O   UNL     1      19.645  34.525   8.159  1.00  0.00    -0.300 OA
ATOM      8  C   UNL     1      20.661  33.787  10.154  1.00  0.00     0.087 C 
ENDBRANCH   5   6
ENDBRANCH   1   5
TORSDOF 4
ENDMDL
MODEL 8
REMARK VINA RESULT:    -3.831      2.735      3.278
REMARK INTER + INTRA:          -4.876
REMARK INTER:                  -4.752
REMARK INTRA:                  -0.123
REMARK UNBOUND:                -0.149
REMARK SMILES CCCCCC(C)=O
REMARK SMILES IDX 4 1 3 2 2 3 1 4 5 5 6 6 8 7 7 8
REMARK H PARENT
REMARK Flexibility Score: inf
ROOT
ATOM      1  C   UNL     1      18.200  35.069  10.245  1.00  0.00     0.008 C 
ENDROOT
BRANCH   1   2
ATOM      2  C   UNL     1      19.102  34.139   9.426  1.00  0.00     0.000 C 
BRANCH   2   3
ATOM      3  C   UNL     1      20.480  33.994  10.081  1.00  0.00    -0.003 C 
ATOM      4  C   UNL     1      21.025  32.578   9.908  1.00  0.00     0.004 C 
ENDBRANCH   2   3
ENDBRANCH   1   2
BRANCH   1   5
ATOM      5  C   UNL     1      18.311  34.766  11.743  1.00  0.00     0.075 C 
BRANCH   5   6
ATOM      6  C   UNL     1      17.050  35.155  12.464  1.00  0.00     0.129 C 
ATOM      7  O   UNL     1      16.488  36.203  12.181  1.00  0.00    -0.300 OA
ATOM      8  C   UNL     1      16.465  34.256  13.510  1.00  0.00     0.087 C 
ENDBRANCH   5   6
ENDBRANCH   1   5
TORSDOF 4
ENDMDL
MODEL 9
REMARK VINA RESULT:    -3.816     11.327     14.238
REMARK INTER + INTRA:          -4.857
REMARK INTER:                  -4.739
REMARK INTRA:                  -0.118
REMARK UNBOUND:                -0.149
REMARK SMILES CCCCCC(C)=O
REMARK SMILES IDX 4 1 3 2 2 3 1 4 5 5 6 6 8 7 7 8
REMARK H PARENT
REMARK Flexibility Score: inf
ROOT
ATOM      1  C   UNL     1      17.481  33.754  25.756  1.00  0.00     0.008 C 
ENDROOT
BRANCH   1   2
ATOM      2  C   UNL     1      17.109  33.882  27.238  1.00  0.00     0.000 C 
BRANCH   2   3
ATOM      3  C   UNL     1      18.126  33.153  28.124  1.00  0.00    -0.003 C 
ATOM      4  C   UNL     1      18.900  32.106  27.327  1.00  0.00     0.004 C 
ENDBRANCH   2   3
ENDBRANCH   1   2
BRANCH   1   5
ATOM      5  C   UNL     1      16.588  34.643  24.884  1.00  0.00     0.075 C 
BRANCH   5   6
ATOM      6  C   UNL     1      17.417  35.550  24.018  1.00  0.00     0.129 C 
ATOM      7  O   UNL     1      18.601  35.716  24.272  1.00  0.00    -0.300 OA
ATOM      8  C   UNL     1      16.808  36.233  22.831  1.00  0.00     0.087 C 
ENDBRANCH   5   6
ENDBRANCH   1   5
TORSDOF 4
ENDMDL
