MODEL 1
REMARK VINA RESULT:     9.655      0.000      0.000
REMARK INTER + INTRA:          24.788
REMARK INTER:                  25.458
REMARK INTRA:                  -0.670
REMARK UNBOUND:                -0.670
REMARK SMILES CCCCCCCCCCCCCCCCCCCCCCCCCCCCCC(=O)[O-]
REMARK SMILES IDX 16 1 17 2 18 3 19 4 20 5 21 6 22 7 23 8 24 9 25 10 26 11
REMARK SMILES IDX 27 12 28 13 29 14 30 15 31 16 32 17 15 18 14 19 13 20 12 21
REMARK SMILES IDX 11 22 10 23 9 24 8 25 7 26 6 27 5 28 4 29 3 30 2 31 1 32
REMARK H PARENT
REMARK Flexibility Score: inf
ROOT
ATOM      1  C   UNL     1      19.851  21.565  16.038  1.00  0.00     0.000 C 
ENDROOT
BRANCH   1   2
ATOM      2  C   UNL     1      18.535  21.077  15.400  1.00  0.00     0.000 C 
BRANCH   2   3
ATOM      3  C   UNL     1      17.580  20.337  16.359  1.00  0.00     0.000 C 
BRANCH   3   4
ATOM      4  C   UNL     1      16.253  19.875  15.729  1.00  0.00     0.000 C 
BRANCH   4   5
ATOM      5  C   UNL     1      14.999  20.630  16.212  1.00  0.00     0.000 C 
BRANCH   5   6
ATOM      6  C   UNL     1      15.125  21.210  17.638  1.00  0.00     0.000 C 
BRANCH   6   7
ATOM      7  C   UNL     1      13.903  20.900  18.517  1.00  0.00     0.000 C 
BRANCH   7   8
ATOM      8  C   UNL     1      12.738  21.849  18.197  1.00  0.00     0.000 C 
BRANCH   8   9
ATOM      9  C   UNL     1      11.873  21.357  17.023  1.00  0.00     0.000 C 
BRANCH   9  10
ATOM     10  C   UNL     1      10.361  21.272  17.315  1.00  0.00     0.000 C 
BRANCH  10  11
ATOM     11  C   UNL     1       9.953  20.167  18.305  1.00  0.00     0.000 C 
BRANCH  11  12
ATOM     12  C   UNL     1      10.757  20.214  19.615  1.00  0.00     0.000 C 
BRANCH  12  13
ATOM     13  C   UNL     1       9.875  20.507  20.839  1.00  0.00     0.006 C 
BRANCH  13  14
ATOM     14  C   UNL     1      10.406  21.673  21.683  1.00  0.00     0.053 C 
BRANCH  14  15
ATOM     15  C   UNL     1      11.115  21.158  22.897  1.00  0.00     0.041 C 
ATOM     16  O   UNL     1      10.604  21.300  24.038  1.00  0.00    -0.550 OA
ATOM     17  O   UNL     1      12.364  20.562  22.770  1.00  0.00    -0.550 OA
ENDBRANCH  14  15
ENDBRANCH  13  14
ENDBRANCH  12  13
ENDBRANCH  11  12
ENDBRANCH  10  11
ENDBRANCH   9  10
ENDBRANCH   8   9
ENDBRANCH   7   8
ENDBRANCH   6   7
ENDBRANCH   5   6
ENDBRANCH   4   5
ENDBRANCH   3   4
ENDBRANCH   2   3
ENDBRANCH   1   2
BRANCH   1  18
ATOM     18  C   UNL     1      21.038  21.685  15.063  1.00  0.00     0.000 C 
BRANCH  18  19
ATOM     19  C   UNL     1      20.736  21.084  13.682  1.00  0.00     0.000 C 
BRANCH  19  20
ATOM     20  C   UNL     1      22.034  20.745  12.932  1.00  0.00     0.000 C 
BRANCH  20  21
ATOM     21  C   UNL     1      23.290  21.233  13.672  1.00  0.00     0.000 C 
BRANCH  21  22
ATOM     22  C   UNL     1      24.255  20.086  14.017  1.00  0.00     0.000 C 
BRANCH  22  23
ATOM     23  C   UNL     1      25.353  19.888  12.955  1.00  0.00     0.000 C 
BRANCH  23  24
ATOM     24  C   UNL     1      26.354  21.051  12.826  1.00  0.00    -0.000 C 
BRANCH  24  25
ATOM     25  C   UNL     1      27.786  20.652  13.221  1.00  0.00    -0.000 C 
BRANCH  25  26
ATOM     26  C   UNL     1      28.729  21.861  13.334  1.00  0.00    -0.000 C 
BRANCH  26  27
ATOM     27  C   UNL     1      30.124  21.484  13.859  1.00  0.00    -0.000 C 
BRANCH  27  28
ATOM     28  C   UNL     1      30.052  20.256  14.779  1.00  0.00    -0.000 C 
BRANCH  28  29
ATOM     29  C   UNL     1      29.554  20.607  16.191  1.00  0.00    -0.000 C 
BRANCH  29  30
ATOM     30  C   UNL     1      28.091  20.199  16.421  1.00  0.00    -0.000 C 
BRANCH  30  31
ATOM     31  C   UNL     1      27.686  20.412  17.885  1.00  0.00    -0.003 C 
ATOM     32  C   UNL     1      26.174  20.314  18.060  1.00  0.00     0.004 C 
ENDBRANCH  30  31
ENDBRANCH  29  30
ENDBRANCH  28  29
ENDBRANCH  27  28
ENDBRANCH  26  27
ENDBRANCH  25  26
ENDBRANCH  24  25
ENDBRANCH  23  24
ENDBRANCH  22  23
ENDBRANCH  21  22
ENDBRANCH  20  21
ENDBRANCH  19  20
ENDBRANCH  18  19
ENDBRANCH   1  18
TORSDOF 28
ENDMDL
MODEL 2
REMARK VINA RESULT:    11.252      1.783      2.116
REMARK INTER + INTRA:          28.999
REMARK INTER:                  27.270
REMARK INTRA:                   1.730
REMARK UNBOUND:                -0.670
REMARK SMILES CCCCCCCCCCCCCCCCCCCCCCCCCCCCCC(=O)[O-]
REMARK SMILES IDX 16 1 17 2 18 3 19 4 20 5 21 6 22 7 23 8 24 9 25 10 26 11
REMARK SMILES IDX 27 12 28 13 29 14 30 15 31 16 32 17 15 18 14 19 13 20 12 21
REMARK SMILES IDX 11 22 10 23 9 24 8 25 7 26 6 27 5 28 4 29 3 30 2 31 1 32
REMARK H PARENT
REMARK Flexibility Score: inf
ROOT
ATOM      1  C   UNL     1      19.844  21.483  16.043  1.00  0.00     0.000 C 
ENDROOT
BRANCH   1   2
ATOM      2  C   UNL     1      18.564  21.027  15.314  1.00  0.00     0.000 C 
BRANCH   2   3
ATOM      3  C   UNL     1      17.532  20.300  16.199  1.00  0.00     0.000 C 
BRANCH   3   4
ATOM      4  C   UNL     1      16.180  20.011  15.519  1.00  0.00     0.000 C 
BRANCH   4   5
ATOM      5  C   UNL     1      14.938  20.458  16.314  1.00  0.00     0.000 C 
BRANCH   5   6
ATOM      6  C   UNL     1      15.206  20.700  17.816  1.00  0.00     0.000 C 
BRANCH   6   7
ATOM      7  C   UNL     1      14.282  19.876  18.726  1.00  0.00     0.000 C 
BRANCH   7   8
ATOM      8  C   UNL     1      13.083  20.713  19.198  1.00  0.00     0.000 C 
BRANCH   8   9
ATOM      9  C   UNL     1      11.760  20.290  18.534  1.00  0.00     0.000 C 
BRANCH   9  10
ATOM     10  C   UNL     1      10.497  20.968  19.102  1.00  0.00     0.000 C 
BRANCH  10  11
ATOM     11  C   UNL     1      10.376  20.932  20.636  1.00  0.00     0.000 C 
BRANCH  11  12
ATOM     12  C   UNL     1      11.633  21.463  21.345  1.00  0.00     0.000 C 
BRANCH  12  13
ATOM     13  C   UNL     1      11.600  22.986  21.545  1.00  0.00     0.006 C 
BRANCH  13  14
ATOM     14  C   UNL     1      12.019  23.756  20.286  1.00  0.00     0.053 C 
BRANCH  14  15
ATOM     15  C   UNL     1      10.818  24.107  19.465  1.00  0.00     0.041 C 
ATOM     16  O   UNL     1      10.667  23.611  18.317  1.00  0.00    -0.550 OA
ATOM     17  O   UNL     1       9.888  25.018  19.949  1.00  0.00    -0.550 OA
ENDBRANCH  14  15
ENDBRANCH  13  14
ENDBRANCH  12  13
ENDBRANCH  11  12
ENDBRANCH  10  11
ENDBRANCH   9  10
ENDBRANCH   8   9
ENDBRANCH   7   8
ENDBRANCH   6   7
ENDBRANCH   5   6
ENDBRANCH   4   5
ENDBRANCH   3   4
ENDBRANCH   2   3
ENDBRANCH   1   2
BRANCH   1  18
ATOM     18  C   UNL     1      21.059  21.730  15.129  1.00  0.00     0.000 C 
BRANCH  18  19
ATOM     19  C   UNL     1      20.764  21.424  13.653  1.00  0.00     0.000 C 
BRANCH  19  20
ATOM     20  C   UNL     1      22.015  20.887  12.940  1.00  0.00     0.000 C 
BRANCH  20  21
ATOM     21  C   UNL     1      23.298  21.090  13.762  1.00  0.00     0.000 C 
BRANCH  21  22
ATOM     22  C   UNL     1      24.240  19.875  13.695  1.00  0.00     0.000 C 
BRANCH  22  23
ATOM     23  C   UNL     1      25.250  19.965  12.536  1.00  0.00     0.000 C 
BRANCH  23  24
ATOM     24  C   UNL     1      26.126  21.231  12.529  1.00  0.00    -0.000 C 
BRANCH  24  25
ATOM     25  C   UNL     1      27.623  20.923  12.705  1.00  0.00    -0.000 C 
BRANCH  25  26
ATOM     26  C   UNL     1      28.485  22.193  12.784  1.00  0.00    -0.000 C 
BRANCH  26  27
ATOM     27  C   UNL     1      29.964  21.894  13.080  1.00  0.00    -0.000 C 
BRANCH  27  28
ATOM     28  C   UNL     1      30.113  20.583  13.866  1.00  0.00    -0.000 C 
BRANCH  28  29
ATOM     29  C   UNL     1      29.589  20.697  15.307  1.00  0.00    -0.000 C 
BRANCH  29  30
ATOM     30  C   UNL     1      28.056  20.754  15.377  1.00  0.00    -0.000 C 
BRANCH  30  31
ATOM     31  C   UNL     1      27.593  21.654  16.529  1.00  0.00    -0.003 C 
ATOM     32  C   UNL     1      26.805  20.861  17.568  1.00  0.00     0.004 C 
ENDBRANCH  30  31
ENDBRANCH  29  30
ENDBRANCH  28  29
ENDBRANCH  27  28
ENDBRANCH  26  27
ENDBRANCH  25  26
ENDBRANCH  24  25
ENDBRANCH  23  24
ENDBRANCH  22  23
ENDBRANCH  21  22
ENDBRANCH  20  21
ENDBRANCH  19  20
ENDBRANCH  18  19
ENDBRANCH   1  18
TORSDOF 28
ENDMDL
