MODEL 1
REMARK VINA RESULT:    -3.743      0.000      0.000
REMARK INTER + INTRA:          -4.725
REMARK INTER:                  -4.508
REMARK INTRA:                  -0.217
REMARK UNBOUND:                -0.217
REMARK SMILES OCC(O)CO
REMARK SMILES IDX 3 1 5 2 6 3 2 5 1 6 4 8
REMARK H PARENT 6 4 1 7 4 9
REMARK Flexibility Score: inf
ROOT
ATOM      1  C   UNL     1      25.238 -11.372  18.854  1.00  0.00     0.165 C 
ENDROOT
BRANCH   1   2
ATOM      2  C   UNL     1      25.659 -11.180  17.391  1.00  0.00     0.190 C 
BRANCH   2   3
ATOM      3  O   UNL     1      25.382 -12.335  16.648  1.00  0.00    -0.394 OA
ATOM      4  H   UNL     1      25.077 -13.017  17.303  1.00  0.00     0.210 HD
ENDBRANCH   2   3
ENDBRANCH   1   2
BRANCH   1   5
ATOM      5  C   UNL     1      24.770 -12.813  19.130  1.00  0.00     0.190 C 
BRANCH   5   6
ATOM      6  O   UNL     1      23.403 -12.964  18.850  1.00  0.00    -0.394 OA
ATOM      7  H   UNL     1      23.081 -13.719  19.408  1.00  0.00     0.210 HD
ENDBRANCH   5   6
ENDBRANCH   1   5
BRANCH   1   8
ATOM      8  O   UNL     1      24.190 -10.481  19.137  1.00  0.00    -0.388 OA
ATOM      9  H   UNL     1      24.375 -10.095  20.033  1.00  0.00     0.211 HD
ENDBRANCH   1   8
TORSDOF 5
ENDMDL
MODEL 2
REMARK VINA RESULT:    -3.606      0.617      2.608
REMARK INTER + INTRA:          -4.560
REMARK INTER:                  -4.339
REMARK INTRA:                  -0.222
REMARK UNBOUND:                -0.217
REMARK SMILES OCC(O)CO
REMARK SMILES IDX 3 1 5 2 6 3 2 5 1 6 4 8
REMARK H PARENT 6 4 1 7 4 9
REMARK Flexibility Score: inf
ROOT
ATOM      1  C   UNL     1      25.601 -11.913  18.217  1.00  0.00     0.165 C 
ENDROOT
BRANCH   1   2
ATOM      2  C   UNL     1      24.829 -12.815  19.188  1.00  0.00     0.190 C 
BRANCH   2   3
ATOM      3  O   UNL     1      23.495 -12.943  18.779  1.00  0.00    -0.394 OA
ATOM      4  H   UNL     1      23.524 -13.339  17.868  1.00  0.00     0.210 HD
ENDBRANCH   2   3
ENDBRANCH   1   2
BRANCH   1   5
ATOM      5  C   UNL     1      25.139 -10.447  18.307  1.00  0.00     0.190 C 
BRANCH   5   6
ATOM      6  O   UNL     1      24.292 -10.250  19.408  1.00  0.00    -0.394 OA
ATOM      7  H   UNL     1      23.371 -10.169  19.047  1.00  0.00     0.210 HD
ENDBRANCH   5   6
ENDBRANCH   1   5
BRANCH   1   8
ATOM      8  O   UNL     1      25.396 -12.385  16.911  1.00  0.00    -0.388 OA
ATOM      9  H   UNL     1      25.941 -11.813  16.309  1.00  0.00     0.211 HD
ENDBRANCH   1   8
TORSDOF 5
ENDMDL
MODEL 3
REMARK VINA RESULT:    -3.570      0.931      2.432
REMARK INTER + INTRA:          -4.517
REMARK INTER:                  -4.301
REMARK INTRA:                  -0.216
REMARK UNBOUND:                -0.217
REMARK SMILES OCC(O)CO
REMARK SMILES IDX 3 1 5 2 6 3 2 5 1 6 4 8
REMARK H PARENT 6 4 1 7 4 9
REMARK Flexibility Score: inf
ROOT
ATOM      1  C   UNL     1      24.831 -12.796  19.234  1.00  0.00     0.165 C 
ENDROOT
BRANCH   1   2
ATOM      2  C   UNL     1      25.059 -11.353  19.701  1.00  0.00     0.190 C 
BRANCH   2   3
ATOM      3  O   UNL     1      24.225 -10.475  18.996  1.00  0.00    -0.394 OA
ATOM      4  H   UNL     1      24.479  -9.560  19.287  1.00  0.00     0.210 HD
ENDBRANCH   2   3
ENDBRANCH   1   2
BRANCH   1   5
ATOM      5  C   UNL     1      25.723 -13.156  18.031  1.00  0.00     0.190 C 
BRANCH   5   6
ATOM      6  O   UNL     1      25.448 -12.330  16.932  1.00  0.00    -0.394 OA
ATOM      7  H   UNL     1      25.784 -11.426  17.165  1.00  0.00     0.210 HD
ENDBRANCH   5   6
ENDBRANCH   1   5
BRANCH   1   8
ATOM      8  O   UNL     1      23.482 -12.941  18.873  1.00  0.00    -0.388 OA
ATOM      9  H   UNL     1      23.376 -13.861  18.515  1.00  0.00     0.211 HD
ENDBRANCH   1   8
TORSDOF 5
ENDMDL
MODEL 4
REMARK VINA RESULT:    -3.472      0.986      2.144
REMARK INTER + INTRA:          -4.399
REMARK INTER:                  -4.182
REMARK INTRA:                  -0.217
REMARK UNBOUND:                -0.217
REMARK SMILES OCC(O)CO
REMARK SMILES IDX 3 1 5 2 6 3 2 5 1 6 4 8
REMARK H PARENT 6 4 1 7 4 9
REMARK Flexibility Score: inf
ROOT
ATOM      1  C   UNL     1      25.267 -11.743  18.037  1.00  0.00     0.165 C 
ENDROOT
BRANCH   1   2
ATOM      2  C   UNL     1      25.005 -10.290  18.454  1.00  0.00     0.190 C 
BRANCH   2   3
ATOM      3  O   UNL     1      24.344 -10.249  19.689  1.00  0.00    -0.394 OA
ATOM      4  H   UNL     1      25.052 -10.127  20.375  1.00  0.00     0.210 HD
ENDBRANCH   2   3
ENDBRANCH   1   2
BRANCH   1   5
ATOM      5  C   UNL     1      24.764 -12.742  19.096  1.00  0.00     0.190 C 
BRANCH   5   6
ATOM      6  O   UNL     1      23.400 -13.020  18.923  1.00  0.00    -0.394 OA
ATOM      7  H   UNL     1      23.215 -12.941  17.952  1.00  0.00     0.210 HD
ENDBRANCH   5   6
ENDBRANCH   1   5
BRANCH   1   8
ATOM      8  O   UNL     1      26.649 -11.914  17.856  1.00  0.00    -0.388 OA
ATOM      9  H   UNL     1      26.779 -12.816  17.462  1.00  0.00     0.211 HD
ENDBRANCH   1   8
TORSDOF 5
ENDMDL
MODEL 5
REMARK VINA RESULT:    -3.400      1.578      2.280
REMARK INTER + INTRA:          -4.312
REMARK INTER:                  -4.088
REMARK INTRA:                  -0.223
REMARK UNBOUND:                -0.217
REMARK SMILES OCC(O)CO
REMARK SMILES IDX 3 1 5 2 6 3 2 5 1 6 4 8
REMARK H PARENT 6 4 1 7 4 9
REMARK Flexibility Score: inf
ROOT
ATOM      1  C   UNL     1      25.125 -11.241  19.530  1.00  0.00     0.165 C 
ENDROOT
BRANCH   1   2
ATOM      2  C   UNL     1      24.827 -12.653  19.011  1.00  0.00     0.190 C 
BRANCH   2   3
ATOM      3  O   UNL     1      23.443 -12.862  18.934  1.00  0.00    -0.394 OA
ATOM      4  H   UNL     1      23.128 -12.331  18.155  1.00  0.00     0.210 HD
ENDBRANCH   2   3
ENDBRANCH   1   2
BRANCH   1   5
ATOM      5  C   UNL     1      25.081 -11.175  21.068  1.00  0.00     0.190 C 
BRANCH   5   6
ATOM      6  O   UNL     1      24.586 -12.370  21.612  1.00  0.00    -0.394 OA
ATOM      7  H   UNL     1      25.274 -12.700  22.246  1.00  0.00     0.210 HD
ENDBRANCH   5   6
ENDBRANCH   1   5
BRANCH   1   8
ATOM      8  O   UNL     1      24.170 -10.359  18.999  1.00  0.00    -0.388 OA
ATOM      9  H   UNL     1      24.577  -9.945  18.194  1.00  0.00     0.211 HD
ENDBRANCH   1   8
TORSDOF 5
ENDMDL
MODEL 6
REMARK VINA RESULT:    -3.382      0.704      2.402
REMARK INTER + INTRA:          -4.291
REMARK INTER:                  -4.088
REMARK INTRA:                  -0.203
REMARK UNBOUND:                -0.217
REMARK SMILES OCC(O)CO
REMARK SMILES IDX 3 1 5 2 6 3 2 5 1 6 4 8
REMARK H PARENT 6 4 1 7 4 9
REMARK Flexibility Score: inf
ROOT
ATOM      1  C   UNL     1      24.967 -11.224  18.785  1.00  0.00     0.165 C 
ENDROOT
BRANCH   1   2
ATOM      2  C   UNL     1      24.723 -12.682  19.196  1.00  0.00     0.190 C 
BRANCH   2   3
ATOM      3  O   UNL     1      23.429 -13.079  18.836  1.00  0.00    -0.394 OA
ATOM      4  H   UNL     1      23.538 -13.879  18.257  1.00  0.00     0.210 HD
ENDBRANCH   2   3
ENDBRANCH   1   2
BRANCH   1   5
ATOM      5  C   UNL     1      25.706 -11.125  17.437  1.00  0.00     0.190 C 
BRANCH   5   6
ATOM      6  O   UNL     1      25.391 -12.210  16.606  1.00  0.00    -0.394 OA
ATOM      7  H   UNL     1      25.517 -11.898  15.672  1.00  0.00     0.210 HD
ENDBRANCH   5   6
ENDBRANCH   1   5
BRANCH   1   8
ATOM      8  O   UNL     1      25.734 -10.601  19.782  1.00  0.00    -0.388 OA
ATOM      9  H   UNL     1      25.323  -9.713  19.949  1.00  0.00     0.211 HD
ENDBRANCH   1   8
TORSDOF 5
ENDMDL
MODEL 7
REMARK VINA RESULT:    -3.379     11.781     12.246
REMARK INTER + INTRA:          -4.287
REMARK INTER:                  -4.065
REMARK INTRA:                  -0.222
REMARK UNBOUND:                -0.217
REMARK SMILES OCC(O)CO
REMARK SMILES IDX 3 1 5 2 6 3 2 5 1 6 4 8
REMARK H PARENT 6 4 1 7 4 9
REMARK Flexibility Score: inf
ROOT
ATOM      1  C   UNL     1      33.940 -11.748  24.996  1.00  0.00     0.165 C 
ENDROOT
BRANCH   1   2
ATOM      2  C   UNL     1      34.165 -11.071  26.355  1.00  0.00     0.190 C 
BRANCH   2   3
ATOM      3  O   UNL     1      35.005  -9.958  26.211  1.00  0.00    -0.394 OA
ATOM      4  H   UNL     1      35.310  -9.724  27.127  1.00  0.00     0.210 HD
ENDBRANCH   2   3
ENDBRANCH   1   2
BRANCH   1   5
ATOM      5  C   UNL     1      35.182 -12.535  24.536  1.00  0.00     0.190 C 
BRANCH   5   6
ATOM      6  O   UNL     1      36.188 -11.671  24.079  1.00  0.00    -0.394 OA
ATOM      7  H   UNL     1      36.160 -11.702  23.088  1.00  0.00     0.210 HD
ENDBRANCH   5   6
ENDBRANCH   1   5
BRANCH   1   8
ATOM      8  O   UNL     1      33.641 -10.757  24.048  1.00  0.00    -0.388 OA
ATOM      9  H   UNL     1      33.891  -9.885  24.453  1.00  0.00     0.211 HD
ENDBRANCH   1   8
TORSDOF 5
ENDMDL
MODEL 8
REMARK VINA RESULT:    -3.376      6.156      6.769
REMARK INTER + INTRA:          -4.283
REMARK INTER:                  -4.281
REMARK INTRA:                  -0.003
REMARK UNBOUND:                -0.217
REMARK SMILES OCC(O)CO
REMARK SMILES IDX 3 1 5 2 6 3 2 5 1 6 4 8
REMARK H PARENT 6 4 1 7 4 9
REMARK Flexibility Score: inf
ROOT
ATOM      1  C   UNL     1      25.025 -18.086  19.497  1.00  0.00     0.165 C 
ENDROOT
BRANCH   1   2
ATOM      2  C   UNL     1      25.267 -18.899  18.219  1.00  0.00     0.190 C 
BRANCH   2   3
ATOM      3  O   UNL     1      24.194 -18.743  17.332  1.00  0.00    -0.394 OA
ATOM      4  H   UNL     1      23.370 -18.801  17.883  1.00  0.00     0.210 HD
ENDBRANCH   2   3
ENDBRANCH   1   2
BRANCH   1   5
ATOM      5  C   UNL     1      24.886 -18.991  20.735  1.00  0.00     0.190 C 
BRANCH   5   6
ATOM      6  O   UNL     1      24.070 -18.396  21.708  1.00  0.00    -0.394 OA
ATOM      7  H   UNL     1      24.678 -17.970  22.367  1.00  0.00     0.210 HD
ENDBRANCH   5   6
ENDBRANCH   1   5
BRANCH   1   8
ATOM      8  O   UNL     1      23.848 -17.338  19.334  1.00  0.00    -0.388 OA
ATOM      9  H   UNL     1      23.148 -17.778  19.883  1.00  0.00     0.211 HD
ENDBRANCH   1   8
TORSDOF 5
ENDMDL
MODEL 9
REMARK VINA RESULT:    -3.279     12.040     12.351
REMARK INTER + INTRA:          -4.166
REMARK INTER:                  -3.946
REMARK INTRA:                  -0.220
REMARK UNBOUND:                -0.217
REMARK SMILES OCC(O)CO
REMARK SMILES IDX 3 1 5 2 6 3 2 5 1 6 4 8
REMARK H PARENT 6 4 1 7 4 9
REMARK Flexibility Score: inf
ROOT
ATOM      1  C   UNL     1      35.279 -11.322  26.224  1.00  0.00     0.165 C 
ENDROOT
BRANCH   1   2
ATOM      2  C   UNL     1      35.184 -11.695  24.739  1.00  0.00     0.190 C 
BRANCH   2   3
ATOM      3  O   UNL     1      34.095 -11.046  24.143  1.00  0.00    -0.394 OA
ATOM      4  H   UNL     1      33.919 -10.239  24.695  1.00  0.00     0.210 HD
ENDBRANCH   2   3
ENDBRANCH   1   2
BRANCH   1   5
ATOM      5  C   UNL     1      34.238 -12.077  27.072  1.00  0.00     0.190 C 
BRANCH   5   6
ATOM      6  O   UNL     1      32.950 -11.561  26.869  1.00  0.00    -0.394 OA
ATOM      7  H   UNL     1      32.341 -12.076  27.460  1.00  0.00     0.210 HD
ENDBRANCH   5   6
ENDBRANCH   1   5
BRANCH   1   8
ATOM      8  O   UNL     1      35.068  -9.940  26.352  1.00  0.00    -0.388 OA
ATOM      9  H   UNL     1      34.096  -9.810  26.507  1.00  0.00     0.211 HD
ENDBRANCH   1   8
TORSDOF 5
ENDMDL
