MODEL 1
REMARK VINA RESULT:    -3.204      0.000      0.000
REMARK INTER + INTRA:          -9.957
REMARK INTER:                  -6.949
REMARK INTRA:                  -3.008
REMARK UNBOUND:                -3.008
REMARK SMILES CCCCCCCCCCCCCCCCCCCCCC(=O)[O-]
REMARK SMILES IDX 12 1 11 2 10 3 9 4 8 5 7 6 6 7 5 8 4 9 3 10 2 11 1 12 13 13
REMARK SMILES IDX 14 14 15 15 16 16 17 17 18 18 19 19 20 20 21 21 22 22 23 23
REMARK SMILES IDX 24 24
REMARK H PARENT
REMARK Flexibility Score: inf
ROOT
ATOM      1  C   UNL     1      26.655 159.511 115.838  1.00  0.00     0.000 C 
ENDROOT
BRANCH   1   2
ATOM      2  C   UNL     1      27.764 160.541 116.120  1.00  0.00     0.000 C 
BRANCH   2   3
ATOM      3  C   UNL     1      27.311 161.814 116.860  1.00  0.00     0.000 C 
BRANCH   3   4
ATOM      4  C   UNL     1      28.041 162.022 118.198  1.00  0.00    -0.000 C 
BRANCH   4   5
ATOM      5  C   UNL     1      28.849 160.786 118.623  1.00  0.00    -0.000 C 
BRANCH   5   6
ATOM      6  C   UNL     1      30.348 161.084 118.791  1.00  0.00    -0.000 C 
BRANCH   6   7
ATOM      7  C   UNL     1      31.226 160.287 117.813  1.00  0.00    -0.000 C 
BRANCH   7   8
ATOM      8  C   UNL     1      32.430 159.597 118.488  1.00  0.00    -0.000 C 
BRANCH   8   9
ATOM      9  C   UNL     1      32.755 160.208 119.862  1.00  0.00    -0.000 C 
BRANCH   9  10
ATOM     10  C   UNL     1      32.973 159.132 120.947  1.00  0.00    -0.000 C 
BRANCH  10  11
ATOM     11  C   UNL     1      32.427 157.746 120.563  1.00  0.00    -0.003 C 
ATOM     12  C   UNL     1      31.152 157.375 121.320  1.00  0.00     0.004 C 
ENDBRANCH  10  11
ENDBRANCH   9  10
ENDBRANCH   8   9
ENDBRANCH   7   8
ENDBRANCH   6   7
ENDBRANCH   5   6
ENDBRANCH   4   5
ENDBRANCH   3   4
ENDBRANCH   2   3
ENDBRANCH   1   2
BRANCH   1  13
ATOM     13  C   UNL     1      26.077 158.887 117.121  1.00  0.00     0.000 C 
BRANCH  13  14
ATOM     14  C   UNL     1      25.076 159.811 117.839  1.00  0.00     0.000 C 
BRANCH  14  15
ATOM     15  C   UNL     1      24.999 159.638 119.371  1.00  0.00     0.000 C 
BRANCH  15  16
ATOM     16  C   UNL     1      25.226 160.922 120.189  1.00  0.00     0.000 C 
BRANCH  16  17
ATOM     17  C   UNL     1      25.745 160.697 121.622  1.00  0.00     0.000 C 
BRANCH  17  18
ATOM     18  C   UNL     1      27.198 161.173 121.841  1.00  0.00     0.000 C 
BRANCH  18  19
ATOM     19  C   UNL     1      28.185 160.006 121.991  1.00  0.00     0.000 C 
BRANCH  19  20
ATOM     20  C   UNL     1      27.445 158.660 122.037  1.00  0.00     0.006 C 
BRANCH  20  21
ATOM     21  C   UNL     1      27.667 157.834 120.763  1.00  0.00     0.053 C 
BRANCH  21  22
ATOM     22  C   UNL     1      26.882 156.556 120.788  1.00  0.00     0.041 C 
ATOM     23  O   UNL     1      26.702 155.944 121.874  1.00  0.00    -0.550 OA
ATOM     24  O   UNL     1      26.326 156.061 119.616  1.00  0.00    -0.550 OA
ENDBRANCH  21  22
ENDBRANCH  20  21
ENDBRANCH  19  20
ENDBRANCH  18  19
ENDBRANCH  17  18
ENDBRANCH  16  17
ENDBRANCH  15  16
ENDBRANCH  14  15
ENDBRANCH  13  14
ENDBRANCH   1  13
TORSDOF 20
ENDMDL
MODEL 2
REMARK VINA RESULT:    -3.042      2.089      5.025
REMARK INTER + INTRA:          -9.607
REMARK INTER:                  -7.334
REMARK INTRA:                  -2.273
REMARK UNBOUND:                -3.008
REMARK SMILES CCCCCCCCCCCCCCCCCCCCCC(=O)[O-]
REMARK SMILES IDX 12 1 11 2 10 3 9 4 8 5 7 6 6 7 5 8 4 9 3 10 2 11 1 12 13 13
REMARK SMILES IDX 14 14 15 15 16 16 17 17 18 18 19 19 20 20 21 21 22 22 23 23
REMARK SMILES IDX 24 24
REMARK H PARENT
REMARK Flexibility Score: inf
ROOT
ATOM      1  C   UNL     1      26.272 160.578 116.169  1.00  0.00     0.000 C 
ENDROOT
BRANCH   1   2
ATOM      2  C   UNL     1      25.567 160.447 117.531  1.00  0.00     0.000 C 
BRANCH   2   3
ATOM      3  C   UNL     1      25.584 161.714 118.408  1.00  0.00     0.000 C 
BRANCH   3   4
ATOM      4  C   UNL     1      25.636 161.401 119.914  1.00  0.00    -0.000 C 
BRANCH   4   5
ATOM      5  C   UNL     1      24.876 160.114 120.271  1.00  0.00    -0.000 C 
BRANCH   5   6
ATOM      6  C   UNL     1      25.512 159.355 121.448  1.00  0.00    -0.000 C 
BRANCH   6   7
ATOM      7  C   UNL     1      27.047 159.445 121.453  1.00  0.00    -0.000 C 
BRANCH   7   8
ATOM      8  C   UNL     1      27.732 158.333 120.630  1.00  0.00    -0.000 C 
BRANCH   8   9
ATOM      9  C   UNL     1      27.635 156.958 121.316  1.00  0.00    -0.000 C 
BRANCH   9  10
ATOM     10  C   UNL     1      26.289 156.257 121.038  1.00  0.00    -0.000 C 
BRANCH  10  11
ATOM     11  C   UNL     1      26.164 155.701 119.608  1.00  0.00    -0.003 C 
ATOM     12  C   UNL     1      25.678 156.744 118.602  1.00  0.00     0.004 C 
ENDBRANCH  10  11
ENDBRANCH   9  10
ENDBRANCH   8   9
ENDBRANCH   7   8
ENDBRANCH   6   7
ENDBRANCH   5   6
ENDBRANCH   4   5
ENDBRANCH   3   4
ENDBRANCH   2   3
ENDBRANCH   1   2
BRANCH   1  13
ATOM     13  C   UNL     1      27.787 160.320 116.251  1.00  0.00     0.000 C 
BRANCH  13  14
ATOM     14  C   UNL     1      28.245 159.871 117.651  1.00  0.00     0.000 C 
BRANCH  14  15
ATOM     15  C   UNL     1      29.396 160.695 118.266  1.00  0.00     0.000 C 
BRANCH  15  16
ATOM     16  C   UNL     1      30.805 160.332 117.765  1.00  0.00     0.000 C 
BRANCH  16  17
ATOM     17  C   UNL     1      31.962 160.916 118.597  1.00  0.00     0.000 C 
BRANCH  17  18
ATOM     18  C   UNL     1      31.514 161.966 119.637  1.00  0.00     0.000 C 
BRANCH  18  19
ATOM     19  C   UNL     1      31.693 161.480 121.083  1.00  0.00     0.000 C 
BRANCH  19  20
ATOM     20  C   UNL     1      31.119 160.067 121.264  1.00  0.00     0.006 C 
BRANCH  20  21
ATOM     21  C   UNL     1      32.188 159.059 121.706  1.00  0.00     0.053 C 
BRANCH  21  22
ATOM     22  C   UNL     1      32.065 157.761 120.967  1.00  0.00     0.041 C 
ATOM     23  O   UNL     1      31.049 157.033 121.128  1.00  0.00    -0.550 OA
ATOM     24  O   UNL     1      33.057 157.372 120.077  1.00  0.00    -0.550 OA
ENDBRANCH  21  22
ENDBRANCH  20  21
ENDBRANCH  19  20
ENDBRANCH  18  19
ENDBRANCH  17  18
ENDBRANCH  16  17
ENDBRANCH  15  16
ENDBRANCH  14  15
ENDBRANCH  13  14
ENDBRANCH   1  13
TORSDOF 20
ENDMDL
MODEL 3
REMARK VINA RESULT:    -3.034      2.952      5.437
REMARK INTER + INTRA:          -9.589
REMARK INTER:                  -6.771
REMARK INTRA:                  -2.819
REMARK UNBOUND:                -3.008
REMARK SMILES CCCCCCCCCCCCCCCCCCCCCC(=O)[O-]
REMARK SMILES IDX 12 1 11 2 10 3 9 4 8 5 7 6 6 7 5 8 4 9 3 10 2 11 1 12 13 13
REMARK SMILES IDX 14 14 15 15 16 16 17 17 18 18 19 19 20 20 21 21 22 22 23 23
REMARK SMILES IDX 24 24
REMARK H PARENT
REMARK Flexibility Score: inf
ROOT
ATOM      1  C   UNL     1      26.202 155.770 120.464  1.00  0.00     0.000 C 
ENDROOT
BRANCH   1   2
ATOM      2  C   UNL     1      26.380 155.799 118.936  1.00  0.00     0.000 C 
BRANCH   2   3
ATOM      3  C   UNL     1      25.235 156.466 118.150  1.00  0.00     0.000 C 
BRANCH   3   4
ATOM      4  C   UNL     1      25.698 157.687 117.335  1.00  0.00    -0.000 C 
BRANCH   4   5
ATOM      5  C   UNL     1      25.311 159.016 118.003  1.00  0.00    -0.000 C 
BRANCH   5   6
ATOM      6  C   UNL     1      25.935 160.235 117.303  1.00  0.00    -0.000 C 
BRANCH   6   7
ATOM      7  C   UNL     1      26.998 159.845 116.262  1.00  0.00    -0.000 C 
BRANCH   7   8
ATOM      8  C   UNL     1      28.414 160.351 116.607  1.00  0.00    -0.000 C 
BRANCH   8   9
ATOM      9  C   UNL     1      28.560 160.699 118.099  1.00  0.00    -0.000 C 
BRANCH   9  10
ATOM     10  C   UNL     1      29.890 160.188 118.695  1.00  0.00    -0.000 C 
BRANCH  10  11
ATOM     11  C   UNL     1      31.122 160.981 118.226  1.00  0.00    -0.003 C 
ATOM     12  C   UNL     1      32.175 160.105 117.550  1.00  0.00     0.004 C 
ENDBRANCH  10  11
ENDBRANCH   9  10
ENDBRANCH   8   9
ENDBRANCH   7   8
ENDBRANCH   6   7
ENDBRANCH   5   6
ENDBRANCH   4   5
ENDBRANCH   3   4
ENDBRANCH   2   3
ENDBRANCH   1   2
BRANCH   1  13
ATOM     13  C   UNL     1      25.341 156.933 120.990  1.00  0.00     0.000 C 
BRANCH  13  14
ATOM     14  C   UNL     1      26.032 157.732 122.111  1.00  0.00     0.000 C 
BRANCH  14  15
ATOM     15  C   UNL     1      26.595 159.107 121.692  1.00  0.00     0.000 C 
BRANCH  15  16
ATOM     16  C   UNL     1      28.095 159.314 121.967  1.00  0.00     0.000 C 
BRANCH  16  17
ATOM     17  C   UNL     1      29.027 158.281 121.306  1.00  0.00     0.000 C 
BRANCH  17  18
ATOM     18  C   UNL     1      30.487 158.348 121.805  1.00  0.00     0.000 C 
BRANCH  18  19
ATOM     19  C   UNL     1      31.465 157.622 120.871  1.00  0.00     0.000 C 
BRANCH  19  20
ATOM     20  C   UNL     1      32.805 158.369 120.788  1.00  0.00     0.006 C 
BRANCH  20  21
ATOM     21  C   UNL     1      32.812 159.644 121.641  1.00  0.00     0.053 C 
BRANCH  21  22
ATOM     22  C   UNL     1      33.845 160.622 121.168  1.00  0.00     0.041 C 
ATOM     23  O   UNL     1      33.499 161.652 120.529  1.00  0.00    -0.550 OA
ATOM     24  O   UNL     1      35.186 160.411 121.460  1.00  0.00    -0.550 OA
ENDBRANCH  21  22
ENDBRANCH  20  21
ENDBRANCH  19  20
ENDBRANCH  18  19
ENDBRANCH  17  18
ENDBRANCH  16  17
ENDBRANCH  15  16
ENDBRANCH  14  15
ENDBRANCH  13  14
ENDBRANCH   1  13
TORSDOF 20
ENDMDL
MODEL 4
REMARK VINA RESULT:    -2.959      1.221      5.381
REMARK INTER + INTRA:          -9.426
REMARK INTER:                  -6.625
REMARK INTRA:                  -2.802
REMARK UNBOUND:                -3.008
REMARK SMILES CCCCCCCCCCCCCCCCCCCCCC(=O)[O-]
REMARK SMILES IDX 12 1 11 2 10 3 9 4 8 5 7 6 6 7 5 8 4 9 3 10 2 11 1 12 13 13
REMARK SMILES IDX 14 14 15 15 16 16 17 17 18 18 19 19 20 20 21 21 22 22 23 23
REMARK SMILES IDX 24 24
REMARK H PARENT
REMARK Flexibility Score: inf
ROOT
ATOM      1  C   UNL     1      31.137 161.022 118.638  1.00  0.00     0.000 C 
ENDROOT
BRANCH   1   2
ATOM      2  C   UNL     1      29.647 160.968 118.253  1.00  0.00     0.000 C 
BRANCH   2   3
ATOM      3  C   UNL     1      28.735 161.955 119.006  1.00  0.00     0.000 C 
BRANCH   3   4
ATOM      4  C   UNL     1      29.008 161.991 120.520  1.00  0.00    -0.000 C 
BRANCH   4   5
ATOM      5  C   UNL     1      28.013 161.130 121.316  1.00  0.00    -0.000 C 
BRANCH   5   6
ATOM      6  C   UNL     1      26.766 161.916 121.753  1.00  0.00    -0.000 C 
BRANCH   6   7
ATOM      7  C   UNL     1      25.566 161.695 120.818  1.00  0.00    -0.000 C 
BRANCH   7   8
ATOM      8  C   UNL     1      25.700 160.442 119.927  1.00  0.00    -0.000 C 
BRANCH   8   9
ATOM      9  C   UNL     1      25.180 160.686 118.499  1.00  0.00    -0.000 C 
BRANCH   9  10
ATOM     10  C   UNL     1      25.933 159.843 117.448  1.00  0.00    -0.000 C 
BRANCH  10  11
ATOM     11  C   UNL     1      26.368 160.644 116.208  1.00  0.00    -0.003 C 
ATOM     12  C   UNL     1      27.503 159.977 115.433  1.00  0.00     0.004 C 
ENDBRANCH  10  11
ENDBRANCH   9  10
ENDBRANCH   8   9
ENDBRANCH   7   8
ENDBRANCH   6   7
ENDBRANCH   5   6
ENDBRANCH   4   5
ENDBRANCH   3   4
ENDBRANCH   2   3
ENDBRANCH   1   2
BRANCH   1  13
ATOM     13  C   UNL     1      31.811 159.639 118.621  1.00  0.00     0.000 C 
BRANCH  13  14
ATOM     14  C   UNL     1      32.533 159.307 119.941  1.00  0.00     0.000 C 
BRANCH  14  15
ATOM     15  C   UNL     1      32.126 157.971 120.598  1.00  0.00     0.000 C 
BRANCH  15  16
ATOM     16  C   UNL     1      31.570 158.085 122.029  1.00  0.00     0.000 C 
BRANCH  16  17
ATOM     17  C   UNL     1      30.088 158.496 122.121  1.00  0.00     0.000 C 
BRANCH  17  18
ATOM     18  C   UNL     1      29.114 157.454 121.530  1.00  0.00     0.000 C 
BRANCH  18  19
ATOM     19  C   UNL     1      27.687 157.602 122.078  1.00  0.00     0.000 C 
BRANCH  19  20
ATOM     20  C   UNL     1      26.761 156.519 121.503  1.00  0.00     0.006 C 
BRANCH  20  21
ATOM     21  C   UNL     1      25.997 157.007 120.265  1.00  0.00     0.053 C 
BRANCH  21  22
ATOM     22  C   UNL     1      25.926 155.950 119.205  1.00  0.00     0.041 C 
ATOM     23  O   UNL     1      25.509 156.235 118.051  1.00  0.00    -0.550 OA
ATOM     24  O   UNL     1      26.352 154.657 119.484  1.00  0.00    -0.550 OA
ENDBRANCH  21  22
ENDBRANCH  20  21
ENDBRANCH  19  20
ENDBRANCH  18  19
ENDBRANCH  17  18
ENDBRANCH  16  17
ENDBRANCH  15  16
ENDBRANCH  14  15
ENDBRANCH  13  14
ENDBRANCH   1  13
TORSDOF 20
ENDMDL
MODEL 5
REMARK VINA RESULT:    -2.864      2.192      6.562
REMARK INTER + INTRA:          -9.221
REMARK INTER:                  -5.771
REMARK INTRA:                  -3.450
REMARK UNBOUND:                -3.008
REMARK SMILES CCCCCCCCCCCCCCCCCCCCCC(=O)[O-]
REMARK SMILES IDX 12 1 11 2 10 3 9 4 8 5 7 6 6 7 5 8 4 9 3 10 2 11 1 12 13 13
REMARK SMILES IDX 14 14 15 15 16 16 17 17 18 18 19 19 20 20 21 21 22 22 23 23
REMARK SMILES IDX 24 24
REMARK H PARENT
REMARK Flexibility Score: inf
ROOT
ATOM      1  C   UNL     1      30.826 157.486 120.617  1.00  0.00     0.000 C 
ENDROOT
BRANCH   1   2
ATOM      2  C   UNL     1      30.232 156.774 121.846  1.00  0.00     0.000 C 
BRANCH   2   3
ATOM      3  C   UNL     1      28.746 157.067 122.125  1.00  0.00     0.000 C 
BRANCH   3   4
ATOM      4  C   UNL     1      28.252 158.359 121.451  1.00  0.00    -0.000 C 
BRANCH   4   5
ATOM      5  C   UNL     1      26.878 158.182 120.784  1.00  0.00    -0.000 C 
BRANCH   5   6
ATOM      6  C   UNL     1      26.485 156.705 120.615  1.00  0.00    -0.000 C 
BRANCH   6   7
ATOM      7  C   UNL     1      26.037 156.369 119.183  1.00  0.00    -0.000 C 
BRANCH   7   8
ATOM      8  C   UNL     1      25.130 157.446 118.552  1.00  0.00    -0.000 C 
BRANCH   8   9
ATOM      9  C   UNL     1      25.591 157.838 117.137  1.00  0.00    -0.000 C 
BRANCH   9  10
ATOM     10  C   UNL     1      26.685 158.926 117.156  1.00  0.00    -0.000 C 
BRANCH  10  11
ATOM     11  C   UNL     1      26.434 160.074 116.163  1.00  0.00    -0.003 C 
ATOM     12  C   UNL     1      27.661 160.412 115.316  1.00  0.00     0.004 C 
ENDBRANCH  10  11
ENDBRANCH   9  10
ENDBRANCH   8   9
ENDBRANCH   7   8
ENDBRANCH   6   7
ENDBRANCH   5   6
ENDBRANCH   4   5
ENDBRANCH   3   4
ENDBRANCH   2   3
ENDBRANCH   1   2
BRANCH   1  13
ATOM     13  C   UNL     1      32.164 158.184 120.916  1.00  0.00     0.000 C 
BRANCH  13  14
ATOM     14  C   UNL     1      32.020 159.363 121.898  1.00  0.00     0.000 C 
BRANCH  14  15
ATOM     15  C   UNL     1      31.965 160.761 121.248  1.00  0.00     0.000 C 
BRANCH  15  16
ATOM     16  C   UNL     1      32.795 160.921 119.961  1.00  0.00     0.000 C 
BRANCH  16  17
ATOM     17  C   UNL     1      31.998 161.386 118.727  1.00  0.00     0.000 C 
BRANCH  17  18
ATOM     18  C   UNL     1      31.172 160.266 118.060  1.00  0.00     0.000 C 
BRANCH  18  19
ATOM     19  C   UNL     1      29.681 160.336 118.420  1.00  0.00     0.000 C 
BRANCH  19  20
ATOM     20  C   UNL     1      29.278 161.763 118.824  1.00  0.00     0.006 C 
BRANCH  20  21
ATOM     21  C   UNL     1      27.776 161.879 119.118  1.00  0.00     0.053 C 
BRANCH  21  22
ATOM     22  C   UNL     1      27.500 161.901 120.591  1.00  0.00     0.041 C 
ATOM     23  O   UNL     1      28.453 161.943 121.415  1.00  0.00    -0.550 OA
ATOM     24  O   UNL     1      26.190 161.904 121.052  1.00  0.00    -0.550 OA
ENDBRANCH  21  22
ENDBRANCH  20  21
ENDBRANCH  19  20
ENDBRANCH  18  19
ENDBRANCH  17  18
ENDBRANCH  16  17
ENDBRANCH  15  16
ENDBRANCH  14  15
ENDBRANCH  13  14
ENDBRANCH   1  13
TORSDOF 20
ENDMDL
MODEL 6
REMARK VINA RESULT:    -2.709      2.743      6.033
REMARK INTER + INTRA:          -8.885
REMARK INTER:                  -5.852
REMARK INTRA:                  -3.033
REMARK UNBOUND:                -3.008
REMARK SMILES CCCCCCCCCCCCCCCCCCCCCC(=O)[O-]
REMARK SMILES IDX 12 1 11 2 10 3 9 4 8 5 7 6 6 7 5 8 4 9 3 10 2 11 1 12 13 13
REMARK SMILES IDX 14 14 15 15 16 16 17 17 18 18 19 19 20 20 21 21 22 22 23 23
REMARK SMILES IDX 24 24
REMARK H PARENT
REMARK Flexibility Score: inf
ROOT
ATOM      1  C   UNL     1      29.022 159.614 118.774  1.00  0.00     0.000 C 
ENDROOT
BRANCH   1   2
ATOM      2  C   UNL     1      28.047 159.871 117.611  1.00  0.00     0.000 C 
BRANCH   2   3
ATOM      3  C   UNL     1      27.810 161.352 117.263  1.00  0.00     0.000 C 
BRANCH   3   4
ATOM      4  C   UNL     1      26.489 161.588 116.509  1.00  0.00    -0.000 C 
BRANCH   4   5
ATOM      5  C   UNL     1      25.362 162.067 117.438  1.00  0.00    -0.000 C 
BRANCH   5   6
ATOM      6  C   UNL     1      24.875 160.967 118.396  1.00  0.00    -0.000 C 
BRANCH   6   7
ATOM      7  C   UNL     1      24.980 161.376 119.874  1.00  0.00    -0.000 C 
BRANCH   7   8
ATOM      8  C   UNL     1      25.017 160.177 120.845  1.00  0.00    -0.000 C 
BRANCH   8   9
ATOM      9  C   UNL     1      25.321 158.853 120.122  1.00  0.00    -0.000 C 
BRANCH   9  10
ATOM     10  C   UNL     1      25.747 157.735 121.097  1.00  0.00    -0.000 C 
BRANCH  10  11
ATOM     11  C   UNL     1      26.332 156.495 120.399  1.00  0.00    -0.003 C 
ATOM     12  C   UNL     1      25.712 156.233 119.027  1.00  0.00     0.004 C 
ENDBRANCH  10  11
ENDBRANCH   9  10
ENDBRANCH   8   9
ENDBRANCH   7   8
ENDBRANCH   6   7
ENDBRANCH   5   6
ENDBRANCH   4   5
ENDBRANCH   3   4
ENDBRANCH   2   3
ENDBRANCH   1   2
BRANCH   1  13
ATOM     13  C   UNL     1      28.496 160.134 120.124  1.00  0.00     0.000 C 
BRANCH  13  14
ATOM     14  C   UNL     1      29.378 159.714 121.314  1.00  0.00     0.000 C 
BRANCH  14  15
ATOM     15  C   UNL     1      30.213 158.434 121.099  1.00  0.00     0.000 C 
BRANCH  15  16
ATOM     16  C   UNL     1      31.736 158.646 121.035  1.00  0.00     0.000 C 
BRANCH  16  17
ATOM     17  C   UNL     1      32.264 159.834 121.861  1.00  0.00     0.000 C 
BRANCH  17  18
ATOM     18  C   UNL     1      32.957 160.923 121.015  1.00  0.00     0.000 C 
BRANCH  18  19
ATOM     19  C   UNL     1      32.009 162.069 120.633  1.00  0.00     0.000 C 
BRANCH  19  20
ATOM     20  C   UNL     1      31.537 161.932 119.177  1.00  0.00     0.006 C 
BRANCH  20  21
ATOM     21  C   UNL     1      32.710 161.918 118.188  1.00  0.00     0.053 C 
BRANCH  21  22
ATOM     22  C   UNL     1      32.727 160.664 117.368  1.00  0.00     0.041 C 
ATOM     23  O   UNL     1      32.382 159.566 117.880  1.00  0.00    -0.550 OA
ATOM     24  O   UNL     1      33.096 160.714 116.029  1.00  0.00    -0.550 OA
ENDBRANCH  21  22
ENDBRANCH  20  21
ENDBRANCH  19  20
ENDBRANCH  18  19
ENDBRANCH  17  18
ENDBRANCH  16  17
ENDBRANCH  15  16
ENDBRANCH  14  15
ENDBRANCH  13  14
ENDBRANCH   1  13
TORSDOF 20
ENDMDL
MODEL 7
REMARK VINA RESULT:    -2.681      2.943      6.517
REMARK INTER + INTRA:          -8.823
REMARK INTER:                  -5.994
REMARK INTRA:                  -2.829
REMARK UNBOUND:                -3.008
REMARK SMILES CCCCCCCCCCCCCCCCCCCCCC(=O)[O-]
REMARK SMILES IDX 12 1 11 2 10 3 9 4 8 5 7 6 6 7 5 8 4 9 3 10 2 11 1 12 13 13
REMARK SMILES IDX 14 14 15 15 16 16 17 17 18 18 19 19 20 20 21 21 22 22 23 23
REMARK SMILES IDX 24 24
REMARK H PARENT
REMARK Flexibility Score: inf
ROOT
ATOM      1  C   UNL     1      29.587 157.945 121.308  1.00  0.00     0.000 C 
ENDROOT
BRANCH   1   2
ATOM      2  C   UNL     1      28.722 156.799 121.863  1.00  0.00     0.000 C 
BRANCH   2   3
ATOM      3  C   UNL     1      27.368 156.594 121.159  1.00  0.00     0.000 C 
BRANCH   3   4
ATOM      4  C   UNL     1      26.165 156.808 122.096  1.00  0.00    -0.000 C 
BRANCH   4   5
ATOM      5  C   UNL     1      25.280 157.984 121.653  1.00  0.00    -0.000 C 
BRANCH   5   6
ATOM      6  C   UNL     1      25.349 158.241 120.139  1.00  0.00    -0.000 C 
BRANCH   6   7
ATOM      7  C   UNL     1      25.027 159.698 119.767  1.00  0.00    -0.000 C 
BRANCH   7   8
ATOM      8  C   UNL     1      26.181 160.417 119.036  1.00  0.00    -0.000 C 
BRANCH   8   9
ATOM      9  C   UNL     1      27.033 159.447 118.198  1.00  0.00    -0.000 C 
BRANCH   9  10
ATOM     10  C   UNL     1      28.117 160.176 117.377  1.00  0.00    -0.000 C 
BRANCH  10  11
ATOM     11  C   UNL     1      27.631 160.654 115.998  1.00  0.00    -0.003 C 
ATOM     12  C   UNL     1      27.314 159.503 115.044  1.00  0.00     0.004 C 
ENDBRANCH  10  11
ENDBRANCH   9  10
ENDBRANCH   8   9
ENDBRANCH   7   8
ENDBRANCH   6   7
ENDBRANCH   5   6
ENDBRANCH   4   5
ENDBRANCH   3   4
ENDBRANCH   2   3
ENDBRANCH   1   2
BRANCH   1  13
ATOM     13  C   UNL     1      29.460 159.243 122.124  1.00  0.00     0.000 C 
BRANCH  13  14
ATOM     14  C   UNL     1      28.672 160.342 121.386  1.00  0.00     0.000 C 
BRANCH  14  15
ATOM     15  C   UNL     1      29.484 161.600 121.013  1.00  0.00     0.000 C 
BRANCH  15  16
ATOM     16  C   UNL     1      30.590 161.989 122.010  1.00  0.00     0.000 C 
BRANCH  16  17
ATOM     17  C   UNL     1      32.019 161.979 121.435  1.00  0.00     0.000 C 
BRANCH  17  18
ATOM     18  C   UNL     1      32.833 160.722 121.810  1.00  0.00     0.000 C 
BRANCH  18  19
ATOM     19  C   UNL     1      33.223 159.882 120.584  1.00  0.00     0.000 C 
BRANCH  19  20
ATOM     20  C   UNL     1      32.035 159.727 119.622  1.00  0.00     0.006 C 
BRANCH  20  21
ATOM     21  C   UNL     1      32.488 159.472 118.179  1.00  0.00     0.053 C 
BRANCH  21  22
ATOM     22  C   UNL     1      32.614 160.749 117.404  1.00  0.00     0.041 C 
ATOM     23  O   UNL     1      32.274 161.844 117.925  1.00  0.00    -0.550 OA
ATOM     24  O   UNL     1      33.138 160.732 116.117  1.00  0.00    -0.550 OA
ENDBRANCH  21  22
ENDBRANCH  20  21
ENDBRANCH  19  20
ENDBRANCH  18  19
ENDBRANCH  17  18
ENDBRANCH  16  17
ENDBRANCH  15  16
ENDBRANCH  14  15
ENDBRANCH  13  14
ENDBRANCH   1  13
TORSDOF 20
ENDMDL
MODEL 8
REMARK VINA RESULT:    -2.623      4.645      7.095
REMARK INTER + INTRA:          -8.697
REMARK INTER:                  -7.868
REMARK INTRA:                  -0.830
REMARK UNBOUND:                -3.008
REMARK SMILES CCCCCCCCCCCCCCCCCCCCCC(=O)[O-]
REMARK SMILES IDX 12 1 11 2 10 3 9 4 8 5 7 6 6 7 5 8 4 9 3 10 2 11 1 12 13 13
REMARK SMILES IDX 14 14 15 15 16 16 17 17 18 18 19 19 20 20 21 21 22 22 23 23
REMARK SMILES IDX 24 24
REMARK H PARENT
REMARK Flexibility Score: inf
ROOT
ATOM      1  C   UNL     1      31.982 159.499 120.110  1.00  0.00     0.000 C 
ENDROOT
BRANCH   1   2
ATOM      2  C   UNL     1      33.251 160.348 120.302  1.00  0.00     0.000 C 
BRANCH   2   3
ATOM      3  C   UNL     1      33.917 160.236 121.686  1.00  0.00     0.000 C 
BRANCH   3   4
ATOM      4  C   UNL     1      34.901 161.384 121.974  1.00  0.00    -0.000 C 
BRANCH   4   5
ATOM      5  C   UNL     1      36.366 160.964 121.769  1.00  0.00    -0.000 C 
BRANCH   5   6
ATOM      6  C   UNL     1      37.227 162.089 121.171  1.00  0.00    -0.000 C 
BRANCH   6   7
ATOM      7  C   UNL     1      38.656 161.629 120.834  1.00  0.00    -0.000 C 
BRANCH   7   8
ATOM      8  C   UNL     1      39.155 162.124 119.460  1.00  0.00    -0.000 C 
BRANCH   8   9
ATOM      9  C   UNL     1      39.785 160.994 118.628  1.00  0.00    -0.000 C 
BRANCH   9  10
ATOM     10  C   UNL     1      40.705 161.529 117.510  1.00  0.00    -0.000 C 
BRANCH  10  11
ATOM     11  C   UNL     1      41.777 160.523 117.056  1.00  0.00    -0.003 C 
ATOM     12  C   UNL     1      42.460 160.925 115.750  1.00  0.00     0.004 C 
ENDBRANCH  10  11
ENDBRANCH   9  10
ENDBRANCH   8   9
ENDBRANCH   7   8
ENDBRANCH   6   7
ENDBRANCH   5   6
ENDBRANCH   4   5
ENDBRANCH   3   4
ENDBRANCH   2   3
ENDBRANCH   1   2
BRANCH   1  13
ATOM     13  C   UNL     1      32.023 158.173 120.889  1.00  0.00     0.000 C 
BRANCH  13  14
ATOM     14  C   UNL     1      30.939 158.082 121.979  1.00  0.00     0.000 C 
BRANCH  14  15
ATOM     15  C   UNL     1      29.484 158.160 121.471  1.00  0.00     0.000 C 
BRANCH  15  16
ATOM     16  C   UNL     1      28.663 156.867 121.627  1.00  0.00     0.000 C 
BRANCH  16  17
ATOM     17  C   UNL     1      27.147 157.028 121.405  1.00  0.00     0.000 C 
BRANCH  17  18
ATOM     18  C   UNL     1      26.438 155.726 120.971  1.00  0.00     0.000 C 
BRANCH  18  19
ATOM     19  C   UNL     1      25.830 155.825 119.564  1.00  0.00     0.000 C 
BRANCH  19  20
ATOM     20  C   UNL     1      25.537 157.286 119.192  1.00  0.00     0.006 C 
BRANCH  20  21
ATOM     21  C   UNL     1      25.689 157.542 117.686  1.00  0.00     0.053 C 
BRANCH  21  22
ATOM     22  C   UNL     1      25.909 158.995 117.390  1.00  0.00     0.041 C 
ATOM     23  O   UNL     1      25.410 159.877 118.137  1.00  0.00    -0.550 OA
ATOM     24  O   UNL     1      26.692 159.371 116.306  1.00  0.00    -0.550 OA
ENDBRANCH  21  22
ENDBRANCH  20  21
ENDBRANCH  19  20
ENDBRANCH  18  19
ENDBRANCH  17  18
ENDBRANCH  16  17
ENDBRANCH  15  16
ENDBRANCH  14  15
ENDBRANCH  13  14
ENDBRANCH   1  13
TORSDOF 20
ENDMDL
