MODEL 1
REMARK VINA RESULT:    -6.304      0.000      0.000
REMARK INTER + INTRA:          -7.548
REMARK INTER:                  -7.409
REMARK INTRA:                  -0.139
REMARK UNBOUND:                -0.139
REMARK SMILES O=C([O-])C=Cc1ccc(O)c(O)c1
REMARK SMILES IDX 6 1 13 2 7 3 11 4 8 5 9 6 5 7 4 8 2 9 1 10 3 11 12 12 10 14
REMARK H PARENT 12 13 10 15
REMARK Flexibility Score: inf
ROOT
ATOM      1  C   UNL     1      12.949 -12.094  28.780  1.00  0.00    -0.022 A 
ATOM      2  C   UNL     1      11.596 -12.030  29.167  1.00  0.00     0.058 A 
ATOM      3  C   UNL     1      13.761 -10.963  28.963  1.00  0.00     0.012 A 
ATOM      4  C   UNL     1      11.075 -10.864  29.748  1.00  0.00     0.157 A 
ATOM      5  C   UNL     1      13.243  -9.803  29.543  1.00  0.00     0.051 A 
ATOM      6  C   UNL     1      11.904  -9.747  29.939  1.00  0.00     0.157 A 
ENDROOT
BRANCH   1   7
ATOM      7  C   UNL     1      13.544 -13.300  28.152  1.00  0.00     0.010 C 
ATOM      8  C   UNL     1      14.710 -13.840  28.535  1.00  0.00     0.025 C 
BRANCH   8   9
ATOM      9  C   UNL     1      15.277 -15.032  27.881  1.00  0.00     0.064 C 
ATOM     10  O   UNL     1      15.756 -14.971  26.717  1.00  0.00    -0.545 OA
ATOM     11  O   UNL     1      15.280 -16.244  28.556  1.00  0.00    -0.545 OA
ENDBRANCH   8   9
ENDBRANCH   1   7
BRANCH   4  12
ATOM     12  O   UNL     1       9.734 -10.811  30.130  1.00  0.00    -0.504 OA
ATOM     13  H   UNL     1       8.991 -10.711  29.449  1.00  0.00     0.293 HD
ENDBRANCH   4  12
BRANCH   6  14
ATOM     14  O   UNL     1      11.416  -8.576  30.517  1.00  0.00    -0.504 OA
ATOM     15  H   UNL     1      11.456  -8.410  31.516  1.00  0.00     0.293 HD
ENDBRANCH   6  14
TORSDOF 4
ENDMDL
MODEL 2
REMARK VINA RESULT:    -6.033      1.241      1.599
REMARK INTER + INTRA:          -7.230
REMARK INTER:                  -7.108
REMARK INTRA:                  -0.122
REMARK UNBOUND:                -0.139
REMARK SMILES O=C([O-])C=Cc1ccc(O)c(O)c1
REMARK SMILES IDX 6 1 13 2 7 3 11 4 8 5 9 6 5 7 4 8 2 9 1 10 3 11 12 12 10 14
REMARK H PARENT 12 13 10 15
REMARK Flexibility Score: inf
ROOT
ATOM      1  C   UNL     1      13.363 -12.188  28.960  1.00  0.00    -0.022 A 
ATOM      2  C   UNL     1      13.570 -11.931  30.329  1.00  0.00     0.058 A 
ATOM      3  C   UNL     1      12.648 -11.252  28.194  1.00  0.00     0.012 A 
ATOM      4  C   UNL     1      13.091 -10.748  30.913  1.00  0.00     0.157 A 
ATOM      5  C   UNL     1      12.172 -10.074  28.775  1.00  0.00     0.051 A 
ATOM      6  C   UNL     1      12.392  -9.815  30.130  1.00  0.00     0.157 A 
ENDROOT
BRANCH   1   7
ATOM      7  C   UNL     1      13.840 -13.428  28.299  1.00  0.00     0.010 C 
ATOM      8  C   UNL     1      14.913 -14.122  28.704  1.00  0.00     0.025 C 
BRANCH   8   9
ATOM      9  C   UNL     1      15.365 -15.344  28.016  1.00  0.00     0.064 C 
ATOM     10  O   UNL     1      15.758 -15.311  26.819  1.00  0.00    -0.545 OA
ATOM     11  O   UNL     1      15.356 -16.553  28.697  1.00  0.00    -0.545 OA
ENDBRANCH   8   9
ENDBRANCH   1   7
BRANCH   4  12
ATOM     12  O   UNL     1      13.303 -10.501  32.269  1.00  0.00    -0.504 OA
ATOM     13  H   UNL     1      14.200 -10.181  32.617  1.00  0.00     0.293 HD
ENDBRANCH   4  12
BRANCH   6  14
ATOM     14  O   UNL     1      11.907  -8.630  30.681  1.00  0.00    -0.504 OA
ATOM     15  H   UNL     1      12.189  -7.720  30.336  1.00  0.00     0.293 HD
ENDBRANCH   6  14
TORSDOF 4
ENDMDL
MODEL 3
REMARK VINA RESULT:    -5.974      1.579      5.988
REMARK INTER + INTRA:          -7.160
REMARK INTER:                  -7.036
REMARK INTRA:                  -0.124
REMARK UNBOUND:                -0.139
REMARK SMILES O=C([O-])C=Cc1ccc(O)c(O)c1
REMARK SMILES IDX 6 1 13 2 7 3 11 4 8 5 9 6 5 7 4 8 2 9 1 10 3 11 12 12 10 14
REMARK H PARENT 12 13 10 15
REMARK Flexibility Score: inf
ROOT
ATOM      1  C   UNL     1      14.719 -13.086  28.520  1.00  0.00    -0.022 A 
ATOM      2  C   UNL     1      14.772 -13.978  29.610  1.00  0.00     0.058 A 
ATOM      3  C   UNL     1      15.033 -13.563  27.237  1.00  0.00     0.012 A 
ATOM      4  C   UNL     1      15.109 -15.325  29.413  1.00  0.00     0.157 A 
ATOM      5  C   UNL     1      15.367 -14.905  27.040  1.00  0.00     0.051 A 
ATOM      6  C   UNL     1      15.405 -15.790  28.120  1.00  0.00     0.157 A 
ENDROOT
BRANCH   1   7
ATOM      7  C   UNL     1      14.378 -11.650  28.679  1.00  0.00     0.010 C 
ATOM      8  C   UNL     1      13.157 -11.207  29.014  1.00  0.00     0.025 C 
BRANCH   8   9
ATOM      9  C   UNL     1      12.852  -9.773  29.152  1.00  0.00     0.064 C 
ATOM     10  O   UNL     1      12.972  -8.984  28.176  1.00  0.00    -0.545 OA
ATOM     11  O   UNL     1      12.428  -9.281  30.378  1.00  0.00    -0.545 OA
ENDBRANCH   8   9
ENDBRANCH   1   7
BRANCH   4  12
ATOM     12  O   UNL     1      15.157 -16.201  30.496  1.00  0.00    -0.504 OA
ATOM     13  H   UNL     1      15.342 -15.874  31.437  1.00  0.00     0.293 HD
ENDBRANCH   4  12
BRANCH   6  14
ATOM     14  O   UNL     1      15.740 -17.124  27.892  1.00  0.00    -0.504 OA
ATOM     15  H   UNL     1      15.160 -17.889  28.218  1.00  0.00     0.293 HD
ENDBRANCH   6  14
TORSDOF 4
ENDMDL
MODEL 4
REMARK VINA RESULT:    -5.750     10.972     13.825
REMARK INTER + INTRA:          -6.897
REMARK INTER:                  -6.771
REMARK INTRA:                  -0.127
REMARK UNBOUND:                -0.139
REMARK SMILES O=C([O-])C=Cc1ccc(O)c(O)c1
REMARK SMILES IDX 6 1 13 2 7 3 11 4 8 5 9 6 5 7 4 8 2 9 1 10 3 11 12 12 10 14
REMARK H PARENT 12 13 10 15
REMARK Flexibility Score: inf
ROOT
ATOM      1  C   UNL     1      16.857  -0.585  26.061  1.00  0.00    -0.022 A 
ATOM      2  C   UNL     1      16.640  -1.491  27.119  1.00  0.00     0.058 A 
ATOM      3  C   UNL     1      18.076  -0.634  25.365  1.00  0.00     0.012 A 
ATOM      4  C   UNL     1      17.616  -2.441  27.454  1.00  0.00     0.157 A 
ATOM      5  C   UNL     1      19.046  -1.582  25.697  1.00  0.00     0.051 A 
ATOM      6  C   UNL     1      18.823  -2.488  26.737  1.00  0.00     0.157 A 
ENDROOT
BRANCH   1   7
ATOM      7  C   UNL     1      15.861   0.445  25.675  1.00  0.00     0.010 C 
ATOM      8  C   UNL     1      15.724   1.621  26.304  1.00  0.00     0.025 C 
BRANCH   8   9
ATOM      9  C   UNL     1      14.716   2.616  25.899  1.00  0.00     0.064 C 
ATOM     10  O   UNL     1      13.928   3.125  26.741  1.00  0.00    -0.545 OA
ATOM     11  O   UNL     1      14.631   2.999  24.568  1.00  0.00    -0.545 OA
ENDBRANCH   8   9
ENDBRANCH   1   7
BRANCH   4  12
ATOM     12  O   UNL     1      17.392  -3.335  28.501  1.00  0.00    -0.504 OA
ATOM     13  H   UNL     1      17.903  -4.207  28.574  1.00  0.00     0.293 HD
ENDBRANCH   4  12
BRANCH   6  14
ATOM     14  O   UNL     1      19.810  -3.423  27.045  1.00  0.00    -0.504 OA
ATOM     15  H   UNL     1      20.366  -3.876  26.329  1.00  0.00     0.293 HD
ENDBRANCH   6  14
TORSDOF 4
ENDMDL
MODEL 5
REMARK VINA RESULT:    -5.527     10.170     12.456
REMARK INTER + INTRA:          -6.635
REMARK INTER:                  -6.511
REMARK INTRA:                  -0.124
REMARK UNBOUND:                -0.139
REMARK SMILES O=C([O-])C=Cc1ccc(O)c(O)c1
REMARK SMILES IDX 6 1 13 2 7 3 11 4 8 5 9 6 5 7 4 8 2 9 1 10 3 11 12 12 10 14
REMARK H PARENT 12 13 10 15
REMARK Flexibility Score: inf
ROOT
ATOM      1  C   UNL     1      15.823  -0.745  27.288  1.00  0.00    -0.022 A 
ATOM      2  C   UNL     1      15.826   0.578  27.773  1.00  0.00     0.058 A 
ATOM      3  C   UNL     1      15.334  -0.991  25.994  1.00  0.00     0.012 A 
ATOM      4  C   UNL     1      15.371   1.633  26.970  1.00  0.00     0.157 A 
ATOM      5  C   UNL     1      14.882   0.060  25.193  1.00  0.00     0.051 A 
ATOM      6  C   UNL     1      14.900   1.372  25.672  1.00  0.00     0.157 A 
ENDROOT
BRANCH   1   7
ATOM      7  C   UNL     1      16.285  -1.896  28.102  1.00  0.00     0.010 C 
ATOM      8  C   UNL     1      16.265  -1.915  29.443  1.00  0.00     0.025 C 
BRANCH   8   9
ATOM      9  C   UNL     1      16.742  -3.073  30.220  1.00  0.00     0.064 C 
ATOM     10  O   UNL     1      17.770  -3.713  29.871  1.00  0.00    -0.545 OA
ATOM     11  O   UNL     1      16.046  -3.466  31.354  1.00  0.00    -0.545 OA
ENDBRANCH   8   9
ENDBRANCH   1   7
BRANCH   4  12
ATOM     12  O   UNL     1      15.379   2.940  27.458  1.00  0.00    -0.504 OA
ATOM     13  H   UNL     1      15.218   3.142  28.438  1.00  0.00     0.293 HD
ENDBRANCH   4  12
BRANCH   6  14
ATOM     14  O   UNL     1      14.444   2.400  24.849  1.00  0.00    -0.504 OA
ATOM     15  H   UNL     1      14.390   2.301  23.842  1.00  0.00     0.293 HD
ENDBRANCH   6  14
TORSDOF 4
ENDMDL
MODEL 6
REMARK VINA RESULT:    -5.323     11.145     12.959
REMARK INTER + INTRA:          -6.395
REMARK INTER:                  -6.268
REMARK INTRA:                  -0.127
REMARK UNBOUND:                -0.139
REMARK SMILES O=C([O-])C=Cc1ccc(O)c(O)c1
REMARK SMILES IDX 6 1 13 2 7 3 11 4 8 5 9 6 5 7 4 8 2 9 1 10 3 11 12 12 10 14
REMARK H PARENT 12 13 10 15
REMARK Flexibility Score: inf
ROOT
ATOM      1  C   UNL     1      16.180  -0.274  26.511  1.00  0.00    -0.022 A 
ATOM      2  C   UNL     1      16.111   0.861  27.343  1.00  0.00     0.058 A 
ATOM      3  C   UNL     1      15.504  -0.256  25.280  1.00  0.00     0.012 A 
ATOM      4  C   UNL     1      15.398   1.999  26.938  1.00  0.00     0.157 A 
ATOM      5  C   UNL     1      14.796   0.878  24.876  1.00  0.00     0.051 A 
ATOM      6  C   UNL     1      14.740   2.008  25.696  1.00  0.00     0.157 A 
ENDROOT
BRANCH   1   7
ATOM      7  C   UNL     1      16.912  -1.506  26.899  1.00  0.00     0.010 C 
ATOM      8  C   UNL     1      18.240  -1.650  26.785  1.00  0.00     0.025 C 
BRANCH   8   9
ATOM      9  C   UNL     1      18.932  -2.892  27.170  1.00  0.00     0.064 C 
ATOM     10  O   UNL     1      18.350  -4.008  27.111  1.00  0.00    -0.545 OA
ATOM     11  O   UNL     1      20.248  -2.832  27.608  1.00  0.00    -0.545 OA
ENDBRANCH   8   9
ENDBRANCH   1   7
BRANCH   4  12
ATOM     12  O   UNL     1      15.337   3.119  27.766  1.00  0.00    -0.504 OA
ATOM     13  H   UNL     1      14.462   3.440  28.163  1.00  0.00     0.293 HD
ENDBRANCH   4  12
BRANCH   6  14
ATOM     14  O   UNL     1      14.027   3.125  25.265  1.00  0.00    -0.504 OA
ATOM     15  H   UNL     1      14.453   3.852  24.702  1.00  0.00     0.293 HD
ENDBRANCH   6  14
TORSDOF 4
ENDMDL
MODEL 7
REMARK VINA RESULT:    -5.308     10.092     12.111
REMARK INTER + INTRA:          -6.377
REMARK INTER:                  -6.227
REMARK INTRA:                  -0.149
REMARK UNBOUND:                -0.139
REMARK SMILES O=C([O-])C=Cc1ccc(O)c(O)c1
REMARK SMILES IDX 6 1 13 2 7 3 11 4 8 5 9 6 5 7 4 8 2 9 1 10 3 11 12 12 10 14
REMARK H PARENT 12 13 10 15
REMARK Flexibility Score: inf
ROOT
ATOM      1  C   UNL     1      15.766  -0.960  27.589  1.00  0.00    -0.022 A 
ATOM      2  C   UNL     1      15.384  -1.156  26.247  1.00  0.00     0.058 A 
ATOM      3  C   UNL     1      15.764   0.343  28.112  1.00  0.00     0.012 A 
ATOM      4  C   UNL     1      14.987  -0.070  25.454  1.00  0.00     0.157 A 
ATOM      5  C   UNL     1      15.367   1.425  27.323  1.00  0.00     0.051 A 
ATOM      6  C   UNL     1      14.975   1.226  25.996  1.00  0.00     0.157 A 
ENDROOT
BRANCH   1   7
ATOM      7  C   UNL     1      16.204  -2.075  28.466  1.00  0.00     0.010 C 
ATOM      8  C   UNL     1      16.147  -2.036  29.805  1.00  0.00     0.025 C 
BRANCH   8   9
ATOM      9  C   UNL     1      16.602  -3.158  30.644  1.00  0.00     0.064 C 
ATOM     10  O   UNL     1      17.600  -3.855  30.316  1.00  0.00    -0.545 OA
ATOM     11  O   UNL     1      15.919  -3.455  31.815  1.00  0.00    -0.545 OA
ENDBRANCH   8   9
ENDBRANCH   1   7
BRANCH   4  12
ATOM     12  O   UNL     1      14.608  -0.273  24.127  1.00  0.00    -0.504 OA
ATOM     13  H   UNL     1      14.487  -1.204  23.745  1.00  0.00     0.293 HD
ENDBRANCH   4  12
BRANCH   6  14
ATOM     14  O   UNL     1      14.582   2.324  25.234  1.00  0.00    -0.504 OA
ATOM     15  H   UNL     1      14.343   3.215  25.654  1.00  0.00     0.293 HD
ENDBRANCH   6  14
TORSDOF 4
ENDMDL
MODEL 8
REMARK VINA RESULT:    -5.223      1.116      6.061
REMARK INTER + INTRA:          -6.278
REMARK INTER:                  -6.130
REMARK INTRA:                  -0.147
REMARK UNBOUND:                -0.139
REMARK SMILES O=C([O-])C=Cc1ccc(O)c(O)c1
REMARK SMILES IDX 6 1 13 2 7 3 11 4 8 5 9 6 5 7 4 8 2 9 1 10 3 11 12 12 10 14
REMARK H PARENT 12 13 10 15
REMARK Flexibility Score: inf
ROOT
ATOM      1  C   UNL     1      14.204 -12.755  28.792  1.00  0.00    -0.022 A 
ATOM      2  C   UNL     1      14.690 -13.178  27.539  1.00  0.00     0.058 A 
ATOM      3  C   UNL     1      14.359 -13.602  29.901  1.00  0.00     0.012 A 
ATOM      4  C   UNL     1      15.340 -14.414  27.407  1.00  0.00     0.157 A 
ATOM      5  C   UNL     1      15.007 -14.833  29.771  1.00  0.00     0.051 A 
ATOM      6  C   UNL     1      15.501 -15.243  28.530  1.00  0.00     0.157 A 
ENDROOT
BRANCH   1   7
ATOM      7  C   UNL     1      13.501 -11.461  28.981  1.00  0.00     0.010 C 
ATOM      8  C   UNL     1      12.627 -11.226  29.970  1.00  0.00     0.025 C 
BRANCH   8   9
ATOM      9  C   UNL     1      11.939  -9.932  30.120  1.00  0.00     0.064 C 
ATOM     10  O   UNL     1      10.825  -9.719  29.571  1.00  0.00    -0.545 OA
ATOM     11  O   UNL     1      12.529  -8.930  30.877  1.00  0.00    -0.545 OA
ENDBRANCH   8   9
ENDBRANCH   1   7
BRANCH   4  12
ATOM     12  O   UNL     1      15.821 -14.824  26.164  1.00  0.00    -0.504 OA
ATOM     13  H   UNL     1      16.502 -15.569  26.076  1.00  0.00     0.293 HD
ENDBRANCH   4  12
BRANCH   6  14
ATOM     14  O   UNL     1      16.145 -16.476  28.431  1.00  0.00    -0.504 OA
ATOM     15  H   UNL     1      15.852 -17.185  27.769  1.00  0.00     0.293 HD
ENDBRANCH   6  14
TORSDOF 4
ENDMDL
MODEL 9
REMARK VINA RESULT:    -5.201     11.148     14.060
REMARK INTER + INTRA:          -6.252
REMARK INTER:                  -6.129
REMARK INTRA:                  -0.123
REMARK UNBOUND:                -0.139
REMARK SMILES O=C([O-])C=Cc1ccc(O)c(O)c1
REMARK SMILES IDX 6 1 13 2 7 3 11 4 8 5 9 6 5 7 4 8 2 9 1 10 3 11 12 12 10 14
REMARK H PARENT 12 13 10 15
REMARK Flexibility Score: inf
ROOT
ATOM      1  C   UNL     1      16.664  -0.583  26.586  1.00  0.00    -0.022 A 
ATOM      2  C   UNL     1      17.950  -0.394  26.042  1.00  0.00     0.058 A 
ATOM      3  C   UNL     1      16.375  -1.792  27.240  1.00  0.00     0.012 A 
ATOM      4  C   UNL     1      18.932  -1.387  26.173  1.00  0.00     0.157 A 
ATOM      5  C   UNL     1      17.353  -2.780  27.372  1.00  0.00     0.051 A 
ATOM      6  C   UNL     1      18.632  -2.584  26.845  1.00  0.00     0.157 A 
ENDROOT
BRANCH   1   7
ATOM      7  C   UNL     1      15.588   0.432  26.465  1.00  0.00     0.010 C 
ATOM      8  C   UNL     1      15.782   1.668  25.982  1.00  0.00     0.025 C 
BRANCH   8   9
ATOM      9  C   UNL     1      14.691   2.654  25.887  1.00  0.00     0.064 C 
ATOM     10  O   UNL     1      14.292   3.079  24.770  1.00  0.00    -0.545 OA
ATOM     11  O   UNL     1      14.095   3.125  27.048  1.00  0.00    -0.545 OA
ENDBRANCH   8   9
ENDBRANCH   1   7
BRANCH   4  12
ATOM     12  O   UNL     1      20.203  -1.190  25.634  1.00  0.00    -0.504 OA
ATOM     13  H   UNL     1      20.630  -0.272  25.600  1.00  0.00     0.293 HD
ENDBRANCH   4  12
BRANCH   6  14
ATOM     14  O   UNL     1      19.588  -3.587  26.993  1.00  0.00    -0.504 OA
ATOM     15  H   UNL     1      19.469  -4.353  27.647  1.00  0.00     0.293 HD
ENDBRANCH   6  14
TORSDOF 4
ENDMDL
