MODEL 1
REMARK VINA RESULT:    -2.992      0.000      0.000
REMARK INTER + INTRA:          -3.693
REMARK INTER:                  -3.517
REMARK INTRA:                  -0.176
REMARK UNBOUND:                -0.176
REMARK SMILES [NH3+][C@@H](CO)C(=O)[O-]
REMARK SMILES IDX 3 1 2 2 1 3 5 7 6 8 7 9 4 10
REMARK H PARENT 1 4 1 5 1 6 4 11
REMARK Flexibility Score: inf
ROOT
ATOM      1  C   UNL     1      11.405   3.981 -18.070  1.00  0.00     0.227 C 
ENDROOT
BRANCH   1   2
ATOM      2  C   UNL     1      10.679   3.063 -19.070  1.00  0.00     0.253 C 
BRANCH   2   3
ATOM      3  N   UNL     1       9.932   2.017 -18.364  1.00  0.00    -0.348 N 
ATOM      4  H   UNL     1       9.008   2.380 -18.032  1.00  0.00     0.345 HD
ATOM      5  H   UNL     1      10.485   1.680 -17.540  1.00  0.00     0.345 HD
ATOM      6  H   UNL     1       9.770   1.205 -19.003  1.00  0.00     0.345 HD
ENDBRANCH   2   3
BRANCH   2   7
ATOM      7  C   UNL     1      11.657   2.449 -20.037  1.00  0.00     0.102 C 
ATOM      8  O   UNL     1      12.869   2.314 -19.722  1.00  0.00    -0.544 OA
ATOM      9  O   UNL     1      11.226   2.041 -21.293  1.00  0.00    -0.544 OA
ENDBRANCH   2   7
ENDBRANCH   1   2
BRANCH   1  10
ATOM     10  O   UNL     1      11.749   3.275 -16.907  1.00  0.00    -0.390 OA
ATOM     11  H   UNL     1      12.651   3.594 -16.637  1.00  0.00     0.210 HD
ENDBRANCH   1  10
TORSDOF 4
ENDMDL
MODEL 2
REMARK VINA RESULT:    -2.899      1.881      2.317
REMARK INTER + INTRA:          -3.584
REMARK INTER:                  -3.205
REMARK INTRA:                  -0.379
REMARK UNBOUND:                -0.176
REMARK SMILES [NH3+][C@@H](CO)C(=O)[O-]
REMARK SMILES IDX 3 1 2 2 1 3 5 7 6 8 7 9 4 10
REMARK H PARENT 1 4 1 5 1 6 4 11
REMARK Flexibility Score: inf
ROOT
ATOM      1  C   UNL     1      12.416   2.764 -19.467  1.00  0.00     0.227 C 
ENDROOT
BRANCH   1   2
ATOM      2  C   UNL     1      10.898   2.939 -19.649  1.00  0.00     0.253 C 
BRANCH   2   3
ATOM      3  N   UNL     1      10.166   2.230 -18.593  1.00  0.00    -0.348 N 
ATOM      4  H   UNL     1      10.797   1.566 -18.086  1.00  0.00     0.345 HD
ATOM      5  H   UNL     1       9.369   1.695 -19.011  1.00  0.00     0.345 HD
ATOM      6  H   UNL     1       9.775   2.918 -17.910  1.00  0.00     0.345 HD
ENDBRANCH   2   3
BRANCH   2   7
ATOM      7  C   UNL     1      10.463   2.454 -21.007  1.00  0.00     0.102 C 
ATOM      8  O   UNL     1      10.165   1.244 -21.189  1.00  0.00    -0.544 OA
ATOM      9  O   UNL     1      10.403   3.342 -22.073  1.00  0.00    -0.544 OA
ENDBRANCH   2   7
ENDBRANCH   1   2
BRANCH   1  10
ATOM     10  O   UNL     1      13.039   2.513 -20.700  1.00  0.00    -0.390 OA
ATOM     11  H   UNL     1      12.570   3.072 -21.374  1.00  0.00     0.210 HD
ENDBRANCH   1  10
TORSDOF 4
ENDMDL
MODEL 3
REMARK VINA RESULT:    -2.874      4.818      5.941
REMARK INTER + INTRA:          -3.554
REMARK INTER:                  -3.329
REMARK INTRA:                  -0.225
REMARK UNBOUND:                -0.176
REMARK SMILES [NH3+][C@@H](CO)C(=O)[O-]
REMARK SMILES IDX 3 1 2 2 1 3 5 7 6 8 7 9 4 10
REMARK H PARENT 1 4 1 5 1 6 4 11
REMARK Flexibility Score: inf
ROOT
ATOM      1  C   UNL     1      16.579  -0.670 -21.026  1.00  0.00     0.227 C 
ENDROOT
BRANCH   1   2
ATOM      2  C   UNL     1      16.158   0.315 -19.921  1.00  0.00     0.253 C 
BRANCH   2   3
ATOM      3  N   UNL     1      15.149  -0.291 -19.046  1.00  0.00    -0.348 N 
ATOM      4  H   UNL     1      15.384  -1.291 -18.844  1.00  0.00     0.345 HD
ATOM      5  H   UNL     1      14.208  -0.244 -19.503  1.00  0.00     0.345 HD
ATOM      6  H   UNL     1      15.100   0.237 -18.144  1.00  0.00     0.345 HD
ENDBRANCH   2   3
BRANCH   2   7
ATOM      7  C   UNL     1      15.635   1.595 -20.519  1.00  0.00     0.102 C 
ATOM      8  O   UNL     1      14.439   1.944 -20.337  1.00  0.00    -0.544 OA
ATOM      9  O   UNL     1      16.471   2.392 -21.291  1.00  0.00    -0.544 OA
ENDBRANCH   2   7
ENDBRANCH   1   2
BRANCH   1  10
ATOM     10  O   UNL     1      17.791  -0.273 -21.612  1.00  0.00    -0.390 OA
ATOM     11  H   UNL     1      18.483  -0.332 -20.901  1.00  0.00     0.210 HD
ENDBRANCH   1  10
TORSDOF 4
ENDMDL
MODEL 4
REMARK VINA RESULT:    -2.826      2.194      2.344
REMARK INTER + INTRA:          -3.498
REMARK INTER:                  -3.259
REMARK INTRA:                  -0.240
REMARK UNBOUND:                -0.176
REMARK SMILES [NH3+][C@@H](CO)C(=O)[O-]
REMARK SMILES IDX 3 1 2 2 1 3 5 7 6 8 7 9 4 10
REMARK H PARENT 1 4 1 5 1 6 4 11
REMARK Flexibility Score: inf
ROOT
ATOM      1  C   UNL     1      10.959   3.061 -18.566  1.00  0.00     0.227 C 
ENDROOT
BRANCH   1   2
ATOM      2  C   UNL     1      11.726   2.712 -19.854  1.00  0.00     0.253 C 
BRANCH   2   3
ATOM      3  N   UNL     1      12.685   3.771 -20.186  1.00  0.00    -0.348 N 
ATOM      4  H   UNL     1      12.967   3.715 -21.193  1.00  0.00     0.345 HD
ATOM      5  H   UNL     1      13.538   3.680 -19.585  1.00  0.00     0.345 HD
ATOM      6  H   UNL     1      12.256   4.708 -20.004  1.00  0.00     0.345 HD
ENDBRANCH   2   3
BRANCH   2   7
ATOM      7  C   UNL     1      10.773   2.488 -20.999  1.00  0.00     0.102 C 
ATOM      8  O   UNL     1      10.243   1.360 -21.178  1.00  0.00    -0.544 OA
ATOM      9  O   UNL     1      10.485   3.526 -21.875  1.00  0.00    -0.544 OA
ENDBRANCH   2   7
ENDBRANCH   1   2
BRANCH   1  10
ATOM     10  O   UNL     1       9.938   2.127 -18.327  1.00  0.00    -0.390 OA
ATOM     11  H   UNL     1       9.625   2.281 -17.397  1.00  0.00     0.210 HD
ENDBRANCH   1  10
TORSDOF 4
ENDMDL
MODEL 5
REMARK VINA RESULT:    -2.813      6.219      6.584
REMARK INTER + INTRA:          -3.482
REMARK INTER:                  -3.092
REMARK INTRA:                  -0.390
REMARK UNBOUND:                -0.176
REMARK SMILES [NH3+][C@@H](CO)C(=O)[O-]
REMARK SMILES IDX 3 1 2 2 1 3 5 7 6 8 7 9 4 10
REMARK H PARENT 1 4 1 5 1 6 4 11
REMARK Flexibility Score: inf
ROOT
ATOM      1  C   UNL     1      16.111  -0.718 -19.910  1.00  0.00     0.227 C 
ENDROOT
BRANCH   1   2
ATOM      2  C   UNL     1      16.646  -0.758 -21.353  1.00  0.00     0.253 C 
BRANCH   2   3
ATOM      3  N   UNL     1      17.950  -1.431 -21.402  1.00  0.00    -0.348 N 
ATOM      4  H   UNL     1      18.625  -0.889 -21.990  1.00  0.00     0.345 HD
ATOM      5  H   UNL     1      17.838  -2.392 -21.802  1.00  0.00     0.345 HD
ATOM      6  H   UNL     1      18.337  -1.522 -20.434  1.00  0.00     0.345 HD
ENDBRANCH   2   3
BRANCH   2   7
ATOM      7  C   UNL     1      16.751   0.633 -21.922  1.00  0.00     0.102 C 
ATOM      8  O   UNL     1      17.836   1.269 -21.861  1.00  0.00    -0.544 OA
ATOM      9  O   UNL     1      15.641   1.228 -22.507  1.00  0.00    -0.544 OA
ENDBRANCH   2   7
ENDBRANCH   1   2
BRANCH   1  10
ATOM     10  O   UNL     1      15.767   0.592 -19.543  1.00  0.00    -0.390 OA
ATOM     11  H   UNL     1      16.214   1.196 -20.193  1.00  0.00     0.210 HD
ENDBRANCH   1  10
TORSDOF 4
ENDMDL
MODEL 6
REMARK VINA RESULT:    -2.791      1.729      2.969
REMARK INTER + INTRA:          -3.457
REMARK INTER:                  -3.064
REMARK INTRA:                  -0.393
REMARK UNBOUND:                -0.176
REMARK SMILES [NH3+][C@@H](CO)C(=O)[O-]
REMARK SMILES IDX 3 1 2 2 1 3 5 7 6 8 7 9 4 10
REMARK H PARENT 1 4 1 5 1 6 4 11
REMARK Flexibility Score: inf
ROOT
ATOM      1  C   UNL     1      10.260   2.284 -21.229  1.00  0.00     0.227 C 
ENDROOT
BRANCH   1   2
ATOM      2  C   UNL     1      11.066   2.447 -19.928  1.00  0.00     0.253 C 
BRANCH   2   3
ATOM      3  N   UNL     1      10.202   2.251 -18.758  1.00  0.00    -0.348 N 
ATOM      4  H   UNL     1       9.279   1.847 -19.041  1.00  0.00     0.345 HD
ATOM      5  H   UNL     1      10.044   3.167 -18.276  1.00  0.00     0.345 HD
ATOM      6  H   UNL     1      10.665   1.601 -18.081  1.00  0.00     0.345 HD
ENDBRANCH   2   3
BRANCH   2   7
ATOM      7  C   UNL     1      11.725   3.800 -19.874  1.00  0.00     0.102 C 
ATOM      8  O   UNL     1      11.187   4.749 -19.243  1.00  0.00    -0.544 OA
ATOM      9  O   UNL     1      12.928   4.013 -20.535  1.00  0.00    -0.544 OA
ENDBRANCH   2   7
ENDBRANCH   1   2
BRANCH   1  10
ATOM     10  O   UNL     1      10.225   3.490 -21.946  1.00  0.00    -0.390 OA
ATOM     11  H   UNL     1      11.161   3.819 -21.996  1.00  0.00     0.210 HD
ENDBRANCH   1  10
TORSDOF 4
ENDMDL
MODEL 7
REMARK VINA RESULT:    -2.791      1.494      1.753
REMARK INTER + INTRA:          -3.456
REMARK INTER:                  -3.082
REMARK INTRA:                  -0.375
REMARK UNBOUND:                -0.176
REMARK SMILES [NH3+][C@@H](CO)C(=O)[O-]
REMARK SMILES IDX 3 1 2 2 1 3 5 7 6 8 7 9 4 10
REMARK H PARENT 1 4 1 5 1 6 4 11
REMARK Flexibility Score: inf
ROOT
ATOM      1  C   UNL     1      10.580   2.806 -18.480  1.00  0.00     0.227 C 
ENDROOT
BRANCH   1   2
ATOM      2  C   UNL     1      10.914   3.060 -19.961  1.00  0.00     0.253 C 
BRANCH   2   3
ATOM      3  N   UNL     1      10.412   1.965 -20.799  1.00  0.00    -0.348 N 
ATOM      4  H   UNL     1       9.627   2.292 -21.408  1.00  0.00     0.345 HD
ATOM      5  H   UNL     1      10.074   1.180 -20.193  1.00  0.00     0.345 HD
ATOM      6  H   UNL     1      11.184   1.600 -21.404  1.00  0.00     0.345 HD
ENDBRANCH   2   3
BRANCH   2   7
ATOM      7  C   UNL     1      12.399   3.230 -20.152  1.00  0.00     0.102 C 
ATOM      8  O   UNL     1      13.154   2.225 -20.216  1.00  0.00    -0.544 OA
ATOM      9  O   UNL     1      12.944   4.504 -20.244  1.00  0.00    -0.544 OA
ENDBRANCH   2   7
ENDBRANCH   1   2
BRANCH   1  10
ATOM     10  O   UNL     1      11.701   3.044 -17.670  1.00  0.00    -0.390 OA
ATOM     11  H   UNL     1      12.154   2.169 -17.548  1.00  0.00     0.210 HD
ENDBRANCH   1  10
TORSDOF 4
ENDMDL
MODEL 8
REMARK VINA RESULT:    -2.773     16.085     16.703
REMARK INTER + INTRA:          -3.436
REMARK INTER:                  -3.258
REMARK INTRA:                  -0.178
REMARK UNBOUND:                -0.176
REMARK SMILES [NH3+][C@@H](CO)C(=O)[O-]
REMARK SMILES IDX 3 1 2 2 1 3 5 7 6 8 7 9 4 10
REMARK H PARENT 1 4 1 5 1 6 4 11
REMARK Flexibility Score: inf
ROOT
ATOM      1  C   UNL     1      27.284  -0.643 -21.859  1.00  0.00     0.227 C 
ENDROOT
BRANCH   1   2
ATOM      2  C   UNL     1      26.439  -1.902 -21.594  1.00  0.00     0.253 C 
BRANCH   2   3
ATOM      3  N   UNL     1      26.853  -2.547 -20.343  1.00  0.00    -0.348 N 
ATOM      4  H   UNL     1      27.888  -2.707 -20.332  1.00  0.00     0.345 HD
ATOM      5  H   UNL     1      26.362  -3.466 -20.237  1.00  0.00     0.345 HD
ATOM      6  H   UNL     1      26.593  -1.942 -19.530  1.00  0.00     0.345 HD
ENDBRANCH   2   3
BRANCH   2   7
ATOM      7  C   UNL     1      26.545  -2.869 -22.744  1.00  0.00     0.102 C 
ATOM      8  O   UNL     1      27.643  -3.423 -23.014  1.00  0.00    -0.544 OA
ATOM      9  O   UNL     1      25.430  -3.142 -23.525  1.00  0.00    -0.544 OA
ENDBRANCH   2   7
ENDBRANCH   1   2
BRANCH   1  10
ATOM     10  O   UNL     1      28.610  -0.837 -21.444  1.00  0.00    -0.390 OA
ATOM     11  H   UNL     1      28.736  -0.283 -20.628  1.00  0.00     0.210 HD
ENDBRANCH   1  10
TORSDOF 4
ENDMDL
MODEL 9
REMARK VINA RESULT:    -2.744      1.798      2.089
REMARK INTER + INTRA:          -3.402
REMARK INTER:                  -3.147
REMARK INTRA:                  -0.255
REMARK UNBOUND:                -0.176
REMARK SMILES [NH3+][C@@H](CO)C(=O)[O-]
REMARK SMILES IDX 3 1 2 2 1 3 5 7 6 8 7 9 4 10
REMARK H PARENT 1 4 1 5 1 6 4 11
REMARK Flexibility Score: inf
ROOT
ATOM      1  C   UNL     1      11.336   4.582 -17.254  1.00  0.00     0.227 C 
ENDROOT
BRANCH   1   2
ATOM      2  C   UNL     1      11.858   4.395 -18.690  1.00  0.00     0.253 C 
BRANCH   2   3
ATOM      3  N   UNL     1      11.179   5.313 -19.610  1.00  0.00    -0.348 N 
ATOM      4  H   UNL     1      10.242   5.590 -19.235  1.00  0.00     0.345 HD
ATOM      5  H   UNL     1      11.054   4.853 -20.543  1.00  0.00     0.345 HD
ATOM      6  H   UNL     1      11.759   6.173 -19.746  1.00  0.00     0.345 HD
ENDBRANCH   2   3
BRANCH   2   7
ATOM      7  C   UNL     1      11.679   2.969 -19.141  1.00  0.00     0.102 C 
ATOM      8  O   UNL     1      10.555   2.408 -19.056  1.00  0.00    -0.544 OA
ATOM      9  O   UNL     1      12.762   2.259 -19.643  1.00  0.00    -0.544 OA
ENDBRANCH   2   7
ENDBRANCH   1   2
BRANCH   1  10
ATOM     10  O   UNL     1      11.595   3.442 -16.478  1.00  0.00    -0.390 OA
ATOM     11  H   UNL     1      11.324   3.663 -15.548  1.00  0.00     0.210 HD
ENDBRANCH   1  10
TORSDOF 4
ENDMDL
