MODEL 1
REMARK VINA RESULT:    -2.175      0.000      0.000
REMARK INTER + INTRA:          -2.054
REMARK INTER:                  -2.620
REMARK INTRA:                   0.566
REMARK UNBOUND:                 0.566
REMARK SMILES CC[C@H](C)[C@H]([NH3+])C(=O)[O-]
REMARK SMILES IDX 3 1 4 2 5 3 6 4 7 8 8 9 9 10 2 11 1 12
REMARK H PARENT 6 5 6 6 6 7
REMARK Flexibility Score: inf
ROOT
ATOM      1  C   UNL     1       9.483  40.601  34.382  1.00  0.00     0.050 C 
ATOM      2  C   UNL     1       9.774  42.110  34.465  1.00  0.00     0.014 C 
ENDROOT
BRANCH   1   3
ATOM      3  C   UNL     1       7.998  40.289  34.007  1.00  0.00     0.230 C 
BRANCH   3   4
ATOM      4  N   UNL     1       7.624  40.878  32.712  1.00  0.00    -0.350 N 
ATOM      5  H   UNL     1       6.656  40.573  32.457  1.00  0.00     0.345 HD
ATOM      6  H   UNL     1       8.275  40.546  31.965  1.00  0.00     0.345 HD
ATOM      7  H   UNL     1       7.641  41.923  32.745  1.00  0.00     0.345 HD
ENDBRANCH   3   4
BRANCH   3   8
ATOM      8  C   UNL     1       7.024  40.709  35.082  1.00  0.00     0.099 C 
ATOM      9  O   UNL     1       7.311  41.662  35.853  1.00  0.00    -0.544 OA
ATOM     10  O   UNL     1       5.797  40.070  35.216  1.00  0.00    -0.544 OA
ENDBRANCH   3   8
ENDBRANCH   1   3
BRANCH   1  11
ATOM     11  C   UNL     1       9.932  39.917  35.698  1.00  0.00     0.006 C 
ATOM     12  C   UNL     1      10.844  38.709  35.475  1.00  0.00     0.004 C 
ENDBRANCH   1  11
TORSDOF 4
ENDMDL
MODEL 2
REMARK VINA RESULT:    -2.103      2.030      2.576
REMARK INTER + INTRA:          -1.967
REMARK INTER:                  -1.993
REMARK INTRA:                   0.026
REMARK UNBOUND:                 0.566
REMARK SMILES CC[C@H](C)[C@H]([NH3+])C(=O)[O-]
REMARK SMILES IDX 3 1 4 2 5 3 6 4 7 8 8 9 9 10 2 11 1 12
REMARK H PARENT 6 5 6 6 6 7
REMARK Flexibility Score: inf
ROOT
ATOM      1  C   UNL     1      10.015  39.386  35.506  1.00  0.00     0.050 C 
ATOM      2  C   UNL     1      10.308  38.524  34.265  1.00  0.00     0.014 C 
ENDROOT
BRANCH   1   3
ATOM      3  C   UNL     1       9.371  40.765  35.150  1.00  0.00     0.230 C 
BRANCH   3   4
ATOM      4  N   UNL     1       8.945  41.498  36.351  1.00  0.00    -0.350 N 
ATOM      5  H   UNL     1       9.783  41.916  36.819  1.00  0.00     0.345 HD
ATOM      6  H   UNL     1       8.490  40.844  37.028  1.00  0.00     0.345 HD
ATOM      7  H   UNL     1       8.281  42.270  36.117  1.00  0.00     0.345 HD
ENDBRANCH   3   4
BRANCH   3   8
ATOM      8  C   UNL     1       8.226  40.639  34.172  1.00  0.00     0.099 C 
ATOM      9  O   UNL     1       7.055  40.455  34.595  1.00  0.00    -0.544 OA
ATOM     10  O   UNL     1       8.447  40.747  32.804  1.00  0.00    -0.544 OA
ENDBRANCH   3   8
ENDBRANCH   1   3
BRANCH   1  11
ATOM     11  C   UNL     1      11.306  39.521  36.354  1.00  0.00     0.006 C 
ATOM     12  C   UNL     1      11.678  38.240  37.103  1.00  0.00     0.004 C 
ENDBRANCH   1  11
TORSDOF 4
ENDMDL
MODEL 3
REMARK VINA RESULT:    -1.665      2.082      2.460
REMARK INTER + INTRA:          -1.440
REMARK INTER:                  -1.529
REMARK INTRA:                   0.089
REMARK UNBOUND:                 0.566
REMARK SMILES CC[C@H](C)[C@H]([NH3+])C(=O)[O-]
REMARK SMILES IDX 3 1 4 2 5 3 6 4 7 8 8 9 9 10 2 11 1 12
REMARK H PARENT 6 5 6 6 6 7
REMARK Flexibility Score: inf
ROOT
ATOM      1  C   UNL     1       9.598  39.360  35.151  1.00  0.00     0.050 C 
ATOM      2  C   UNL     1      10.090  38.855  33.783  1.00  0.00     0.014 C 
ENDROOT
BRANCH   1   3
ATOM      3  C   UNL     1       8.609  40.566  35.032  1.00  0.00     0.230 C 
BRANCH   3   4
ATOM      4  N   UNL     1       7.231  40.121  34.778  1.00  0.00    -0.350 N 
ATOM      5  H   UNL     1       6.601  40.492  35.527  1.00  0.00     0.345 HD
ATOM      6  H   UNL     1       7.180  39.077  34.801  1.00  0.00     0.345 HD
ATOM      7  H   UNL     1       6.879  40.464  33.855  1.00  0.00     0.345 HD
ENDBRANCH   3   4
BRANCH   3   8
ATOM      8  C   UNL     1       9.041  41.574  33.994  1.00  0.00     0.099 C 
ATOM      9  O   UNL     1       9.749  42.560  34.330  1.00  0.00    -0.544 OA
ATOM     10  O   UNL     1       8.685  41.415  32.660  1.00  0.00    -0.544 OA
ENDBRANCH   3   8
ENDBRANCH   1   3
BRANCH   1  11
ATOM     11  C   UNL     1      10.818  39.665  36.057  1.00  0.00     0.006 C 
ATOM     12  C   UNL     1      11.430  38.415  36.692  1.00  0.00     0.004 C 
ENDBRANCH   1  11
TORSDOF 4
ENDMDL
MODEL 4
REMARK VINA RESULT:    -1.562      1.741      2.363
REMARK INTER + INTRA:          -1.316
REMARK INTER:                  -1.426
REMARK INTRA:                   0.110
REMARK UNBOUND:                 0.566
REMARK SMILES CC[C@H](C)[C@H]([NH3+])C(=O)[O-]
REMARK SMILES IDX 3 1 4 2 5 3 6 4 7 8 8 9 9 10 2 11 1 12
REMARK H PARENT 6 5 6 6 6 7
REMARK Flexibility Score: inf
ROOT
ATOM      1  C   UNL     1      10.620  39.195  35.067  1.00  0.00     0.050 C 
ATOM      2  C   UNL     1      11.638  40.277  35.474  1.00  0.00     0.014 C 
ENDROOT
BRANCH   1   3
ATOM      3  C   UNL     1       9.216  39.785  34.718  1.00  0.00     0.230 C 
BRANCH   3   4
ATOM      4  N   UNL     1       8.910  39.661  33.284  1.00  0.00    -0.350 N 
ATOM      5  H   UNL     1       8.014  39.136  33.164  1.00  0.00     0.345 HD
ATOM      6  H   UNL     1       9.667  39.125  32.801  1.00  0.00     0.345 HD
ATOM      7  H   UNL     1       8.806  40.597  32.830  1.00  0.00     0.345 HD
ENDBRANCH   3   4
BRANCH   3   8
ATOM      8  C   UNL     1       9.054  41.217  35.172  1.00  0.00     0.099 C 
ATOM      9  O   UNL     1       8.572  41.466  36.308  1.00  0.00    -0.544 OA
ATOM     10  O   UNL     1       9.456  42.269  34.358  1.00  0.00    -0.544 OA
ENDBRANCH   3   8
ENDBRANCH   1   3
BRANCH   1  11
ATOM     11  C   UNL     1      10.563  38.104  36.167  1.00  0.00     0.006 C 
ATOM     12  C   UNL     1      11.753  38.145  37.127  1.00  0.00     0.004 C 
ENDBRANCH   1  11
TORSDOF 4
ENDMDL
MODEL 5
REMARK VINA RESULT:    -1.436      2.760      3.794
REMARK INTER + INTRA:          -1.164
REMARK INTER:                  -1.097
REMARK INTRA:                  -0.067
REMARK UNBOUND:                 0.566
REMARK SMILES CC[C@H](C)[C@H]([NH3+])C(=O)[O-]
REMARK SMILES IDX 3 1 4 2 5 3 6 4 7 8 8 9 9 10 2 11 1 12
REMARK H PARENT 6 5 6 6 6 7
REMARK Flexibility Score: inf
ROOT
ATOM      1  C   UNL     1       9.259  40.636  35.275  1.00  0.00     0.050 C 
ATOM      2  C   UNL     1       9.596  42.111  34.994  1.00  0.00     0.014 C 
ENDROOT
BRANCH   1   3
ATOM      3  C   UNL     1      10.483  39.685  35.075  1.00  0.00     0.230 C 
BRANCH   3   4
ATOM      4  N   UNL     1      10.284  38.765  33.944  1.00  0.00    -0.350 N 
ATOM      5  H   UNL     1      10.119  39.318  33.071  1.00  0.00     0.345 HD
ATOM      6  H   UNL     1       9.443  38.167  34.112  1.00  0.00     0.345 HD
ATOM      7  H   UNL     1      11.118  38.154  33.792  1.00  0.00     0.345 HD
ENDBRANCH   3   4
BRANCH   3   8
ATOM      8  C   UNL     1      10.836  38.916  36.327  1.00  0.00     0.099 C 
ATOM      9  O   UNL     1      11.065  37.680  36.263  1.00  0.00    -0.544 OA
ATOM     10  O   UNL     1      10.935  39.564  37.552  1.00  0.00    -0.544 OA
ENDBRANCH   3   8
ENDBRANCH   1   3
BRANCH   1  11
ATOM     11  C   UNL     1       8.025  40.221  34.432  1.00  0.00     0.006 C 
ATOM     12  C   UNL     1       6.692  40.560  35.100  1.00  0.00     0.004 C 
ENDBRANCH   1  11
TORSDOF 4
ENDMDL
MODEL 6
REMARK VINA RESULT:    -1.332      2.548      3.730
REMARK INTER + INTRA:          -1.039
REMARK INTER:                  -0.904
REMARK INTRA:                  -0.135
REMARK UNBOUND:                 0.566
REMARK SMILES CC[C@H](C)[C@H]([NH3+])C(=O)[O-]
REMARK SMILES IDX 3 1 4 2 5 3 6 4 7 8 8 9 9 10 2 11 1 12
REMARK H PARENT 6 5 6 6 6 7
REMARK Flexibility Score: inf
ROOT
ATOM      1  C   UNL     1       7.935  40.392  34.329  1.00  0.00     0.050 C 
ATOM      2  C   UNL     1       6.572  40.452  35.043  1.00  0.00     0.014 C 
ENDROOT
BRANCH   1   3
ATOM      3  C   UNL     1       9.135  40.690  35.285  1.00  0.00     0.230 C 
BRANCH   3   4
ATOM      4  N   UNL     1       9.732  42.008  35.022  1.00  0.00    -0.350 N 
ATOM      5  H   UNL     1      10.743  41.992  35.289  1.00  0.00     0.345 HD
ATOM      6  H   UNL     1       9.257  42.739  35.599  1.00  0.00     0.345 HD
ATOM      7  H   UNL     1       9.664  42.267  34.012  1.00  0.00     0.345 HD
ENDBRANCH   3   4
BRANCH   3   8
ATOM      8  C   UNL     1      10.192  39.612  35.249  1.00  0.00     0.099 C 
ATOM      9  O   UNL     1      10.229  38.799  34.289  1.00  0.00    -0.544 OA
ATOM     10  O   UNL     1      11.147  39.520  36.255  1.00  0.00    -0.544 OA
ENDBRANCH   3   8
ENDBRANCH   1   3
BRANCH   1  11
ATOM     11  C   UNL     1       7.906  41.320  33.087  1.00  0.00     0.006 C 
ATOM     12  C   UNL     1       8.632  40.734  31.875  1.00  0.00     0.004 C 
ENDBRANCH   1  11
TORSDOF 4
ENDMDL
MODEL 7
REMARK VINA RESULT:    -1.135      2.346      2.560
REMARK INTER + INTRA:          -0.801
REMARK INTER:                  -1.071
REMARK INTRA:                   0.270
REMARK UNBOUND:                 0.566
REMARK SMILES CC[C@H](C)[C@H]([NH3+])C(=O)[O-]
REMARK SMILES IDX 3 1 4 2 5 3 6 4 7 8 8 9 9 10 2 11 1 12
REMARK H PARENT 6 5 6 6 6 7
REMARK Flexibility Score: inf
ROOT
ATOM      1  C   UNL     1       9.246  40.995  35.350  1.00  0.00     0.050 C 
ATOM      2  C   UNL     1       8.827  41.651  36.679  1.00  0.00     0.014 C 
ENDROOT
BRANCH   1   3
ATOM      3  C   UNL     1       8.106  41.009  34.281  1.00  0.00     0.230 C 
BRANCH   3   4
ATOM      4  N   UNL     1       6.946  40.212  34.706  1.00  0.00    -0.350 N 
ATOM      5  H   UNL     1       6.614  40.551  35.639  1.00  0.00     0.345 HD
ATOM      6  H   UNL     1       7.218  39.207  34.806  1.00  0.00     0.345 HD
ATOM      7  H   UNL     1       6.155  40.289  34.028  1.00  0.00     0.345 HD
ENDBRANCH   3   4
BRANCH   3   8
ATOM      8  C   UNL     1       8.581  40.568  32.916  1.00  0.00     0.099 C 
ATOM      9  O   UNL     1       9.092  39.428  32.766  1.00  0.00    -0.544 OA
ATOM     10  O   UNL     1       8.437  41.401  31.812  1.00  0.00    -0.544 OA
ENDBRANCH   3   8
ENDBRANCH   1   3
BRANCH   1  11
ATOM     11  C   UNL     1       9.798  39.574  35.629  1.00  0.00     0.006 C 
ATOM     12  C   UNL     1      11.314  39.539  35.827  1.00  0.00     0.004 C 
ENDBRANCH   1  11
TORSDOF 4
ENDMDL
MODEL 8
REMARK VINA RESULT:    -0.870      3.795      4.817
REMARK INTER + INTRA:          -0.482
REMARK INTER:                  -0.608
REMARK INTRA:                   0.125
REMARK UNBOUND:                 0.566
REMARK SMILES CC[C@H](C)[C@H]([NH3+])C(=O)[O-]
REMARK SMILES IDX 3 1 4 2 5 3 6 4 7 8 8 9 9 10 2 11 1 12
REMARK H PARENT 6 5 6 6 6 7
REMARK Flexibility Score: inf
ROOT
ATOM      1  C   UNL     1      10.798  39.699  35.211  1.00  0.00     0.050 C 
ATOM      2  C   UNL     1      10.243  38.338  34.754  1.00  0.00     0.014 C 
ENDROOT
BRANCH   1   3
ATOM      3  C   UNL     1      11.880  39.567  36.332  1.00  0.00     0.230 C 
BRANCH   3   4
ATOM      4  N   UNL     1      13.244  39.683  35.794  1.00  0.00    -0.350 N 
ATOM      5  H   UNL     1      13.558  40.679  35.854  1.00  0.00     0.345 HD
ATOM      6  H   UNL     1      13.258  39.399  34.787  1.00  0.00     0.345 HD
ATOM      7  H   UNL     1      13.921  39.093  36.328  1.00  0.00     0.345 HD
ENDBRANCH   3   4
BRANCH   3   8
ATOM      8  C   UNL     1      11.734  38.296  37.137  1.00  0.00     0.099 C 
ATOM      9  O   UNL     1      11.073  38.302  38.208  1.00  0.00    -0.544 OA
ATOM     10  O   UNL     1      12.304  37.108  36.695  1.00  0.00    -0.544 OA
ENDBRANCH   3   8
ENDBRANCH   1   3
BRANCH   1  11
ATOM     11  C   UNL     1       9.622  40.626  35.610  1.00  0.00     0.006 C 
ATOM     12  C   UNL     1       8.580  40.796  34.504  1.00  0.00     0.004 C 
ENDBRANCH   1  11
TORSDOF 4
ENDMDL
MODEL 9
REMARK VINA RESULT:    -0.762      2.413      3.384
REMARK INTER + INTRA:          -0.352
REMARK INTER:                  -0.241
REMARK INTRA:                  -0.111
REMARK UNBOUND:                 0.566
REMARK SMILES CC[C@H](C)[C@H]([NH3+])C(=O)[O-]
REMARK SMILES IDX 3 1 4 2 5 3 6 4 7 8 8 9 9 10 2 11 1 12
REMARK H PARENT 6 5 6 6 6 7
REMARK Flexibility Score: inf
ROOT
ATOM      1  C   UNL     1      11.516  39.282  36.322  1.00  0.00     0.050 C 
ATOM      2  C   UNL     1      11.488  38.494  37.644  1.00  0.00     0.014 C 
ENDROOT
BRANCH   1   3
ATOM      3  C   UNL     1      10.285  38.977  35.408  1.00  0.00     0.230 C 
BRANCH   3   4
ATOM      4  N   UNL     1      10.687  38.355  34.137  1.00  0.00    -0.350 N 
ATOM      5  H   UNL     1      11.421  38.943  33.679  1.00  0.00     0.345 HD
ATOM      6  H   UNL     1       9.867  38.301  33.490  1.00  0.00     0.345 HD
ATOM      7  H   UNL     1      11.076  37.397  34.283  1.00  0.00     0.345 HD
ENDBRANCH   3   4
BRANCH   3   8
ATOM      8  C   UNL     1       9.430  40.197  35.155  1.00  0.00     0.099 C 
ATOM      9  O   UNL     1       9.474  41.172  35.949  1.00  0.00    -0.544 OA
ATOM     10  O   UNL     1       8.608  40.266  34.036  1.00  0.00    -0.544 OA
ENDBRANCH   3   8
ENDBRANCH   1   3
BRANCH   1  11
ATOM     11  C   UNL     1      12.873  39.045  35.610  1.00  0.00     0.006 C 
ATOM     12  C   UNL     1      13.721  40.311  35.483  1.00  0.00     0.004 C 
ENDBRANCH   1  11
TORSDOF 4
ENDMDL
