MODEL 1
REMARK VINA RESULT:    -1.477      0.000      0.000
REMARK INTER + INTRA:          -1.814
REMARK INTER:                  -1.736
REMARK INTRA:                  -0.078
REMARK UNBOUND:                -0.078
REMARK SMILES O=C([O-])CCC(=O)[O-]
REMARK SMILES IDX 4 1 2 2 1 3 3 4 5 5 6 6 7 7 8 8
REMARK H PARENT
REMARK Flexibility Score: inf
ROOT
ATOM      1  C   UNL     1      -9.019  29.769 -17.200  1.00  0.00     0.059 C 
ENDROOT
BRANCH   1   2
ATOM      2  C   UNL     1      -7.741  28.992 -17.225  1.00  0.00     0.042 C 
ATOM      3  O   UNL     1      -7.230  28.579 -16.152  1.00  0.00    -0.550 OA
ATOM      4  O   UNL     1      -7.088  28.764 -18.430  1.00  0.00    -0.550 OA
ENDBRANCH   1   2
BRANCH   1   5
ATOM      5  C   UNL     1      -9.172  30.502 -15.867  1.00  0.00     0.059 C 
BRANCH   5   6
ATOM      6  C   UNL     1      -9.027  31.978 -16.062  1.00  0.00     0.042 C 
ATOM      7  O   UNL     1      -9.230  32.490 -17.194  1.00  0.00    -0.550 OA
ATOM      8  O   UNL     1      -8.713  32.795 -14.983  1.00  0.00    -0.550 OA
ENDBRANCH   5   6
ENDBRANCH   1   5
TORSDOF 3
ENDMDL
MODEL 2
REMARK VINA RESULT:    -1.437      1.038      1.484
REMARK INTER + INTRA:          -1.767
REMARK INTER:                  -1.817
REMARK INTRA:                   0.050
REMARK UNBOUND:                -0.078
REMARK SMILES O=C([O-])CCC(=O)[O-]
REMARK SMILES IDX 4 1 2 2 1 3 3 4 5 5 6 6 7 7 8 8
REMARK H PARENT
REMARK Flexibility Score: inf
ROOT
ATOM      1  C   UNL     1      -8.569  29.766 -18.123  1.00  0.00     0.059 C 
ENDROOT
BRANCH   1   2
ATOM      2  C   UNL     1      -7.406  28.875 -17.821  1.00  0.00     0.042 C 
ATOM      3  O   UNL     1      -7.181  28.506 -16.639  1.00  0.00    -0.550 OA
ATOM      4  O   UNL     1      -6.541  28.490 -18.838  1.00  0.00    -0.550 OA
ENDBRANCH   1   2
BRANCH   1   5
ATOM      5  C   UNL     1      -9.552  29.778 -16.951  1.00  0.00     0.059 C 
BRANCH   5   6
ATOM      6  C   UNL     1      -9.191  30.855 -15.977  1.00  0.00     0.042 C 
ATOM      7  O   UNL     1      -8.967  30.569 -14.772  1.00  0.00    -0.550 OA
ATOM      8  O   UNL     1      -9.056  32.168 -16.410  1.00  0.00    -0.550 OA
ENDBRANCH   5   6
ENDBRANCH   1   5
TORSDOF 3
ENDMDL
MODEL 3
REMARK VINA RESULT:    -1.424      1.036      3.803
REMARK INTER + INTRA:          -1.751
REMARK INTER:                  -1.815
REMARK INTRA:                   0.063
REMARK UNBOUND:                -0.078
REMARK SMILES O=C([O-])CCC(=O)[O-]
REMARK SMILES IDX 4 1 2 2 1 3 3 4 5 5 6 6 7 7 8 8
REMARK H PARENT
REMARK Flexibility Score: inf
ROOT
ATOM      1  C   UNL     1      -9.546  29.778 -16.981  1.00  0.00     0.059 C 
ENDROOT
BRANCH   1   2
ATOM      2  C   UNL     1      -9.187  30.854 -16.005  1.00  0.00     0.042 C 
ATOM      3  O   UNL     1      -9.038  30.579 -14.786  1.00  0.00    -0.550 OA
ATOM      4  O   UNL     1      -9.064  32.170 -16.434  1.00  0.00    -0.550 OA
ENDBRANCH   1   2
BRANCH   1   5
ATOM      5  C   UNL     1      -8.545  29.750 -18.137  1.00  0.00     0.059 C 
BRANCH   5   6
ATOM      6  C   UNL     1      -7.369  28.894 -17.789  1.00  0.00     0.042 C 
ATOM      7  O   UNL     1      -7.199  28.502 -16.605  1.00  0.00    -0.550 OA
ATOM      8  O   UNL     1      -6.485  28.488 -18.782  1.00  0.00    -0.550 OA
ENDBRANCH   5   6
ENDBRANCH   1   5
TORSDOF 3
ENDMDL
MODEL 4
REMARK VINA RESULT:    -1.416      0.160      4.023
REMARK INTER + INTRA:          -1.742
REMARK INTER:                  -1.661
REMARK INTRA:                  -0.082
REMARK UNBOUND:                -0.078
REMARK SMILES O=C([O-])CCC(=O)[O-]
REMARK SMILES IDX 4 1 2 2 1 3 3 4 5 5 6 6 7 7 8 8
REMARK H PARENT
REMARK Flexibility Score: inf
ROOT
ATOM      1  C   UNL     1      -9.340  30.610 -15.933  1.00  0.00     0.059 C 
ENDROOT
BRANCH   1   2
ATOM      2  C   UNL     1      -9.062  32.071 -16.098  1.00  0.00     0.042 C 
ATOM      3  O   UNL     1      -9.170  32.612 -17.229  1.00  0.00    -0.550 OA
ATOM      4  O   UNL     1      -8.636  32.824 -15.011  1.00  0.00    -0.550 OA
ENDBRANCH   1   2
BRANCH   1   5
ATOM      5  C   UNL     1      -9.060  29.862 -17.238  1.00  0.00     0.059 C 
BRANCH   5   6
ATOM      6  C   UNL     1      -7.799  29.066 -17.124  1.00  0.00     0.042 C 
ATOM      7  O   UNL     1      -7.408  28.658 -15.999  1.00  0.00    -0.550 OA
ATOM      8  O   UNL     1      -7.080  28.733 -18.265  1.00  0.00    -0.550 OA
ENDBRANCH   5   6
ENDBRANCH   1   5
TORSDOF 3
ENDMDL
MODEL 5
REMARK VINA RESULT:    -0.941      3.334      5.746
REMARK INTER + INTRA:          -1.184
REMARK INTER:                  -1.136
REMARK INTRA:                  -0.048
REMARK UNBOUND:                -0.078
REMARK SMILES O=C([O-])CCC(=O)[O-]
REMARK SMILES IDX 4 1 2 2 1 3 3 4 5 5 6 6 7 7 8 8
REMARK H PARENT
REMARK Flexibility Score: inf
ROOT
ATOM      1  C   UNL     1      -6.287  28.195 -19.393  1.00  0.00     0.059 C 
ENDROOT
BRANCH   1   2
ATOM      2  C   UNL     1      -7.182  28.754 -18.333  1.00  0.00     0.042 C 
ATOM      3  O   UNL     1      -8.222  29.388 -18.652  1.00  0.00    -0.550 OA
ATOM      4  O   UNL     1      -6.844  28.616 -16.992  1.00  0.00    -0.550 OA
ENDBRANCH   1   2
BRANCH   1   5
ATOM      5  C   UNL     1      -6.362  29.048 -20.660  1.00  0.00     0.059 C 
BRANCH   5   6
ATOM      6  C   UNL     1      -6.112  28.207 -21.872  1.00  0.00     0.042 C 
ATOM      7  O   UNL     1      -7.034  27.495 -22.350  1.00  0.00    -0.550 OA
ATOM      8  O   UNL     1      -4.875  28.244 -22.502  1.00  0.00    -0.550 OA
ENDBRANCH   5   6
ENDBRANCH   1   5
TORSDOF 3
ENDMDL
MODEL 6
REMARK VINA RESULT:    -0.156      1.984      4.480
REMARK INTER + INTRA:          -0.261
REMARK INTER:                  -0.227
REMARK INTRA:                  -0.035
REMARK UNBOUND:                -0.078
REMARK SMILES O=C([O-])CCC(=O)[O-]
REMARK SMILES IDX 4 1 2 2 1 3 3 4 5 5 6 6 7 7 8 8
REMARK H PARENT
REMARK Flexibility Score: inf
ROOT
ATOM      1  C   UNL     1      -8.103  29.356 -18.309  1.00  0.00     0.059 C 
ENDROOT
BRANCH   1   2
ATOM      2  C   UNL     1      -8.397  29.639 -16.870  1.00  0.00     0.042 C 
ATOM      3  O   UNL     1      -7.781  29.018 -15.964  1.00  0.00    -0.550 OA
ATOM      4  O   UNL     1      -9.385  30.553 -16.528  1.00  0.00    -0.550 OA
ENDBRANCH   1   2
BRANCH   1   5
ATOM      5  C   UNL     1      -6.783  28.595 -18.446  1.00  0.00     0.059 C 
BRANCH   5   6
ATOM      6  C   UNL     1      -6.413  28.445 -19.887  1.00  0.00     0.042 C 
ATOM      7  O   UNL     1      -6.293  27.299 -20.394  1.00  0.00    -0.550 OA
ATOM      8  O   UNL     1      -6.248  29.570 -20.685  1.00  0.00    -0.550 OA
ENDBRANCH   5   6
ENDBRANCH   1   5
TORSDOF 3
ENDMDL
MODEL 7
REMARK VINA RESULT:     1.448      1.946      3.061
REMARK INTER + INTRA:           1.625
REMARK INTER:                   1.409
REMARK INTRA:                   0.215
REMARK UNBOUND:                -0.078
REMARK SMILES O=C([O-])CCC(=O)[O-]
REMARK SMILES IDX 4 1 2 2 1 3 3 4 5 5 6 6 7 7 8 8
REMARK H PARENT
REMARK Flexibility Score: inf
ROOT
ATOM      1  C   UNL     1      -9.532  30.484 -15.406  1.00  0.00     0.059 C 
ENDROOT
BRANCH   1   2
ATOM      2  C   UNL     1      -8.446  29.735 -14.699  1.00  0.00     0.042 C 
ATOM      3  O   UNL     1      -8.284  29.877 -13.459  1.00  0.00    -0.550 OA
ATOM      4  O   UNL     1      -7.583  28.918 -15.418  1.00  0.00    -0.550 OA
ENDBRANCH   1   2
BRANCH   1   5
ATOM      5  C   UNL     1      -9.045  30.967 -16.773  1.00  0.00     0.059 C 
BRANCH   5   6
ATOM      6  C   UNL     1      -9.158  29.871 -17.785  1.00  0.00     0.042 C 
ATOM      7  O   UNL     1     -10.272  29.331 -18.012  1.00  0.00    -0.550 OA
ATOM      8  O   UNL     1      -8.042  29.478 -18.513  1.00  0.00    -0.550 OA
ENDBRANCH   5   6
ENDBRANCH   1   5
TORSDOF 3
ENDMDL
