MODEL 1
REMARK VINA RESULT:    -4.959      0.000      0.000
REMARK INTER + INTRA:          -6.280
REMARK INTER:                  -5.974
REMARK INTRA:                  -0.306
REMARK UNBOUND:                -0.306
REMARK SMILES [NH3+][C@@H](Cc1c[nH]c2ccccc12)C(=O)[O-]
REMARK SMILES IDX 3 1 2 2 1 3 13 7 14 8 15 9 4 10 12 11 5 12 7 13 11 14 6 15
REMARK SMILES IDX 8 16 10 17 9 19
REMARK H PARENT 1 4 1 5 1 6 6 18
REMARK Flexibility Score: inf
ROOT
ATOM      1  C   UNL     1      -7.264  34.138 -10.940  1.00  0.00     0.109 C 
ENDROOT
BRANCH   1   2
ATOM      2  C   UNL     1      -6.606  34.670 -12.229  1.00  0.00     0.232 C 
BRANCH   2   3
ATOM      3  N   UNL     1      -5.243  34.142 -12.363  1.00  0.00    -0.350 N 
ATOM      4  H   UNL     1      -4.831  34.452 -13.273  1.00  0.00     0.345 HD
ATOM      5  H   UNL     1      -4.642  34.511 -11.590  1.00  0.00     0.345 HD
ATOM      6  H   UNL     1      -5.246  33.097 -12.329  1.00  0.00     0.345 HD
ENDBRANCH   2   3
BRANCH   2   7
ATOM      7  C   UNL     1      -6.582  36.177 -12.236  1.00  0.00     0.099 C 
ATOM      8  O   UNL     1      -7.207  36.814 -13.125  1.00  0.00    -0.544 OA
ATOM      9  O   UNL     1      -5.899  36.874 -11.248  1.00  0.00    -0.544 OA
ENDBRANCH   2   7
ENDBRANCH   1   2
BRANCH   1  10
ATOM     10  C   UNL     1      -8.758  34.041 -11.080  1.00  0.00    -0.016 A 
ATOM     11  C   UNL     1      -9.700  35.014 -10.804  1.00  0.00     0.003 A 
ATOM     12  C   UNL     1      -9.468  32.969 -11.613  1.00  0.00     0.087 A 
ATOM     13  C   UNL     1     -10.920  34.495 -11.161  1.00  0.00     0.046 A 
ATOM     14  C   UNL     1      -9.575  36.302 -10.283  1.00  0.00     0.010 A 
ATOM     15  N   UNL     1     -10.790  33.251 -11.654  1.00  0.00    -0.361 N 
ATOM     16  C   UNL     1     -12.097  35.229 -11.020  1.00  0.00     0.026 A 
ATOM     17  C   UNL     1     -10.747  37.064 -10.128  1.00  0.00     0.001 A 
ATOM     18  H   UNL     1     -11.550  32.631 -12.009  1.00  0.00     0.166 HD
ATOM     19  C   UNL     1     -12.002  36.530 -10.494  1.00  0.00     0.002 A 
ENDBRANCH   1  10
TORSDOF 4
ENDMDL
MODEL 2
REMARK VINA RESULT:    -4.346      3.357      5.104
REMARK INTER + INTRA:          -5.541
REMARK INTER:                  -5.329
REMARK INTRA:                  -0.212
REMARK UNBOUND:                -0.306
REMARK SMILES [NH3+][C@@H](Cc1c[nH]c2ccccc12)C(=O)[O-]
REMARK SMILES IDX 3 1 2 2 1 3 13 7 14 8 15 9 4 10 12 11 5 12 7 13 11 14 6 15
REMARK SMILES IDX 8 16 10 17 9 19
REMARK H PARENT 1 4 1 5 1 6 6 18
REMARK Flexibility Score: inf
ROOT
ATOM      1  C   UNL     1      -8.854  33.268  -9.751  1.00  0.00     0.109 C 
ENDROOT
BRANCH   1   2
ATOM      2  C   UNL     1      -9.656  32.406 -10.747  1.00  0.00     0.232 C 
BRANCH   2   3
ATOM      3  N   UNL     1     -11.041  32.882 -10.837  1.00  0.00    -0.350 N 
ATOM      4  H   UNL     1     -11.055  33.928 -10.851  1.00  0.00     0.345 HD
ATOM      5  H   UNL     1     -11.478  32.537 -11.723  1.00  0.00     0.345 HD
ATOM      6  H   UNL     1     -11.603  32.545 -10.022  1.00  0.00     0.345 HD
ENDBRANCH   2   3
BRANCH   2   7
ATOM      7  C   UNL     1      -9.630  30.954 -10.341  1.00  0.00     0.099 C 
ATOM      8  O   UNL     1      -9.609  30.053 -11.220  1.00  0.00    -0.544 OA
ATOM      9  O   UNL     1      -9.599  30.601  -8.998  1.00  0.00    -0.544 OA
ENDBRANCH   2   7
ENDBRANCH   1   2
BRANCH   1  10
ATOM     10  C   UNL     1      -8.522  34.616 -10.328  1.00  0.00    -0.016 A 
ATOM     11  C   UNL     1      -7.558  34.921 -11.270  1.00  0.00     0.003 A 
ATOM     12  C   UNL     1      -9.200  35.806 -10.083  1.00  0.00     0.087 A 
ATOM     13  C   UNL     1      -7.681  36.261 -11.542  1.00  0.00     0.046 A 
ATOM     14  C   UNL     1      -6.604  34.127 -11.908  1.00  0.00     0.010 A 
ATOM     15  N   UNL     1      -8.677  36.809 -10.824  1.00  0.00    -0.361 N 
ATOM     16  C   UNL     1      -6.857  36.898 -12.468  1.00  0.00     0.026 A 
ATOM     17  C   UNL     1      -5.758  34.746 -12.846  1.00  0.00     0.001 A 
ATOM     18  H   UNL     1      -8.993  37.804 -10.843  1.00  0.00     0.166 HD
ATOM     19  C   UNL     1      -5.883  36.125 -13.125  1.00  0.00     0.002 A 
ENDBRANCH   1  10
TORSDOF 4
ENDMDL
MODEL 3
REMARK VINA RESULT:    -4.227      1.823      2.907
REMARK INTER + INTRA:          -5.398
REMARK INTER:                  -5.390
REMARK INTRA:                  -0.008
REMARK UNBOUND:                -0.306
REMARK SMILES [NH3+][C@@H](Cc1c[nH]c2ccccc12)C(=O)[O-]
REMARK SMILES IDX 3 1 2 2 1 3 13 7 14 8 15 9 4 10 12 11 5 12 7 13 11 14 6 15
REMARK SMILES IDX 8 16 10 17 9 19
REMARK H PARENT 1 4 1 5 1 6 6 18
REMARK Flexibility Score: inf
ROOT
ATOM      1  C   UNL     1      -7.699  36.480 -10.713  1.00  0.00     0.109 C 
ENDROOT
BRANCH   1   2
ATOM      2  C   UNL     1      -6.729  36.397 -11.910  1.00  0.00     0.232 C 
BRANCH   2   3
ATOM      3  N   UNL     1      -7.364  36.929 -13.122  1.00  0.00    -0.350 N 
ATOM      4  H   UNL     1      -8.263  37.403 -12.871  1.00  0.00     0.345 HD
ATOM      5  H   UNL     1      -6.736  37.636 -13.570  1.00  0.00     0.345 HD
ATOM      6  H   UNL     1      -7.562  36.162 -13.804  1.00  0.00     0.345 HD
ENDBRANCH   2   3
BRANCH   2   7
ATOM      7  C   UNL     1      -6.280  34.977 -12.139  1.00  0.00     0.099 C 
ATOM      8  O   UNL     1      -5.377  34.477 -11.419  1.00  0.00    -0.544 OA
ATOM      9  O   UNL     1      -6.878  34.201 -13.124  1.00  0.00    -0.544 OA
ENDBRANCH   2   7
ENDBRANCH   1   2
BRANCH   1  10
ATOM     10  C   UNL     1      -9.032  35.865 -11.037  1.00  0.00    -0.016 A 
ATOM     11  C   UNL     1      -9.450  34.571 -10.794  1.00  0.00     0.003 A 
ATOM     12  C   UNL     1     -10.138  36.526 -11.563  1.00  0.00     0.087 A 
ATOM     13  C   UNL     1     -10.763  34.499 -11.188  1.00  0.00     0.046 A 
ATOM     14  C   UNL     1      -8.785  33.470 -10.253  1.00  0.00     0.010 A 
ATOM     15  N   UNL     1     -11.191  35.683 -11.658  1.00  0.00    -0.361 N 
ATOM     16  C   UNL     1     -11.500  33.321 -11.070  1.00  0.00     0.026 A 
ATOM     17  C   UNL     1      -9.504  32.268 -10.123  1.00  0.00     0.001 A 
ATOM     18  H   UNL     1     -12.146  35.912 -12.013  1.00  0.00     0.166 HD
ATOM     19  C   UNL     1     -10.855  32.193 -10.530  1.00  0.00     0.002 A 
ENDBRANCH   1  10
TORSDOF 4
ENDMDL
MODEL 4
REMARK VINA RESULT:    -4.224      2.630      4.548
REMARK INTER + INTRA:          -5.393
REMARK INTER:                  -6.224
REMARK INTRA:                   0.830
REMARK UNBOUND:                -0.306
REMARK SMILES [NH3+][C@@H](Cc1c[nH]c2ccccc12)C(=O)[O-]
REMARK SMILES IDX 3 1 2 2 1 3 13 7 14 8 15 9 4 10 12 11 5 12 7 13 11 14 6 15
REMARK SMILES IDX 8 16 10 17 9 19
REMARK H PARENT 1 4 1 5 1 6 6 18
REMARK Flexibility Score: inf
ROOT
ATOM      1  C   UNL     1      -8.678  33.090  -9.841  1.00  0.00     0.109 C 
ENDROOT
BRANCH   1   2
ATOM      2  C   UNL     1      -9.887  32.486 -10.584  1.00  0.00     0.232 C 
BRANCH   2   3
ATOM      3  N   UNL     1      -9.505  31.236 -11.252  1.00  0.00    -0.350 N 
ATOM      4  H   UNL     1     -10.347  30.626 -11.371  1.00  0.00     0.345 HD
ATOM      5  H   UNL     1      -9.115  31.444 -12.200  1.00  0.00     0.345 HD
ATOM      6  H   UNL     1      -8.788  30.720 -10.691  1.00  0.00     0.345 HD
ENDBRANCH   2   3
BRANCH   2   7
ATOM      7  C   UNL     1     -10.442  33.463 -11.589  1.00  0.00     0.099 C 
ATOM      8  O   UNL     1      -9.959  33.518 -12.750  1.00  0.00    -0.544 OA
ATOM      9  O   UNL     1     -11.510  34.286 -11.252  1.00  0.00    -0.544 OA
ENDBRANCH   2   7
ENDBRANCH   1   2
BRANCH   1  10
ATOM     10  C   UNL     1      -8.373  34.482 -10.319  1.00  0.00    -0.016 A 
ATOM     11  C   UNL     1      -7.462  34.865 -11.286  1.00  0.00     0.003 A 
ATOM     12  C   UNL     1      -9.029  35.648  -9.937  1.00  0.00     0.087 A 
ATOM     13  C   UNL     1      -7.593  36.223 -11.436  1.00  0.00     0.046 A 
ATOM     14  C   UNL     1      -6.550  34.128 -12.042  1.00  0.00     0.010 A 
ATOM     15  N   UNL     1      -8.544  36.709 -10.619  1.00  0.00    -0.361 N 
ATOM     16  C   UNL     1      -6.820  36.937 -12.351  1.00  0.00     0.026 A 
ATOM     17  C   UNL     1      -5.755  34.823 -12.972  1.00  0.00     0.001 A 
ATOM     18  H   UNL     1      -8.856  37.702 -10.535  1.00  0.00     0.166 HD
ATOM     19  C   UNL     1      -5.889  36.221 -13.125  1.00  0.00     0.002 A 
ENDBRANCH   1  10
TORSDOF 4
ENDMDL
MODEL 5
REMARK VINA RESULT:    -3.859      1.679      3.019
REMARK INTER + INTRA:          -4.954
REMARK INTER:                  -4.845
REMARK INTRA:                  -0.109
REMARK UNBOUND:                -0.306
REMARK SMILES [NH3+][C@@H](Cc1c[nH]c2ccccc12)C(=O)[O-]
REMARK SMILES IDX 3 1 2 2 1 3 13 7 14 8 15 9 4 10 12 11 5 12 7 13 11 14 6 15
REMARK SMILES IDX 8 16 10 17 9 19
REMARK H PARENT 1 4 1 5 1 6 6 18
REMARK Flexibility Score: inf
ROOT
ATOM      1  C   UNL     1      -8.677  36.936 -10.674  1.00  0.00     0.109 C 
ENDROOT
BRANCH   1   2
ATOM      2  C   UNL     1      -7.853  37.125 -11.963  1.00  0.00     0.232 C 
BRANCH   2   3
ATOM      3  N   UNL     1      -8.561  36.549 -13.113  1.00  0.00    -0.350 N 
ATOM      4  H   UNL     1      -9.412  37.119 -13.326  1.00  0.00     0.345 HD
ATOM      5  H   UNL     1      -7.940  36.561 -13.955  1.00  0.00     0.345 HD
ATOM      6  H   UNL     1      -8.852  35.564 -12.914  1.00  0.00     0.345 HD
ENDBRANCH   2   3
BRANCH   2   7
ATOM      7  C   UNL     1      -6.489  36.498 -11.826  1.00  0.00     0.099 C 
ATOM      8  O   UNL     1      -5.674  36.940 -10.974  1.00  0.00    -0.544 OA
ATOM      9  O   UNL     1      -6.134  35.410 -12.613  1.00  0.00    -0.544 OA
ENDBRANCH   2   7
ENDBRANCH   1   2
BRANCH   1  10
ATOM     10  C   UNL     1      -9.734  35.880 -10.841  1.00  0.00    -0.016 A 
ATOM     11  C   UNL     1      -9.609  34.517 -10.649  1.00  0.00     0.003 A 
ATOM     12  C   UNL     1     -11.077  36.097 -11.133  1.00  0.00     0.087 A 
ATOM     13  C   UNL     1     -10.855  33.974 -10.842  1.00  0.00     0.046 A 
ATOM     14  C   UNL     1      -8.509  33.728 -10.311  1.00  0.00     0.010 A 
ATOM     15  N   UNL     1     -11.755  34.927 -11.138  1.00  0.00    -0.361 N 
ATOM     16  C   UNL     1     -11.085  32.605 -10.713  1.00  0.00     0.026 A 
ATOM     17  C   UNL     1      -8.712  32.342 -10.176  1.00  0.00     0.001 A 
ATOM     18  H   UNL     1     -12.774  34.796 -11.322  1.00  0.00     0.166 HD
ATOM     19  C   UNL     1      -9.994  31.784 -10.377  1.00  0.00     0.002 A 
ENDBRANCH   1  10
TORSDOF 4
ENDMDL
MODEL 6
REMARK VINA RESULT:    -3.095      1.719      2.437
REMARK INTER + INTRA:          -4.034
REMARK INTER:                  -4.603
REMARK INTRA:                   0.569
REMARK UNBOUND:                -0.306
REMARK SMILES [NH3+][C@@H](Cc1c[nH]c2ccccc12)C(=O)[O-]
REMARK SMILES IDX 3 1 2 2 1 3 13 7 14 8 15 9 4 10 12 11 5 12 7 13 11 14 6 15
REMARK SMILES IDX 8 16 10 17 9 19
REMARK H PARENT 1 4 1 5 1 6 6 18
REMARK Flexibility Score: inf
ROOT
ATOM      1  C   UNL     1      -7.212  33.581 -12.940  1.00  0.00     0.109 C 
ENDROOT
BRANCH   1   2
ATOM      2  C   UNL     1      -6.192  34.735 -12.852  1.00  0.00     0.232 C 
BRANCH   2   3
ATOM      3  N   UNL     1      -4.838  34.207 -12.650  1.00  0.00    -0.350 N 
ATOM      4  H   UNL     1      -4.331  34.171 -13.565  1.00  0.00     0.345 HD
ATOM      5  H   UNL     1      -4.304  34.835 -12.006  1.00  0.00     0.345 HD
ATOM      6  H   UNL     1      -4.872  33.244 -12.242  1.00  0.00     0.345 HD
ENDBRANCH   2   3
BRANCH   2   7
ATOM      7  C   UNL     1      -6.551  35.685 -11.739  1.00  0.00     0.099 C 
ATOM      8  O   UNL     1      -6.533  36.928 -11.939  1.00  0.00    -0.544 OA
ATOM      9  O   UNL     1      -6.935  35.198 -10.496  1.00  0.00    -0.544 OA
ENDBRANCH   2   7
ENDBRANCH   1   2
BRANCH   1  10
ATOM     10  C   UNL     1      -8.611  34.056 -12.662  1.00  0.00    -0.016 A 
ATOM     11  C   UNL     1      -9.552  33.478 -11.831  1.00  0.00     0.003 A 
ATOM     12  C   UNL     1      -9.188  35.235 -13.124  1.00  0.00     0.087 A 
ATOM     13  C   UNL     1     -10.645  34.309 -11.835  1.00  0.00     0.046 A 
ATOM     14  C   UNL     1      -9.524  32.307 -11.073  1.00  0.00     0.010 A 
ATOM     15  N   UNL     1     -10.435  35.379 -12.620  1.00  0.00    -0.361 N 
ATOM     16  C   UNL     1     -11.785  34.023 -11.084  1.00  0.00     0.026 A 
ATOM     17  C   UNL     1     -10.661  31.993 -10.307  1.00  0.00     0.001 A 
ATOM     18  H   UNL     1     -11.092  36.171 -12.796  1.00  0.00     0.166 HD
ATOM     19  C   UNL     1     -11.786  32.846 -10.313  1.00  0.00     0.002 A 
ENDBRANCH   1  10
TORSDOF 4
ENDMDL
MODEL 7
REMARK VINA RESULT:    -2.166      3.447      4.223
REMARK INTER + INTRA:          -2.915
REMARK INTER:                  -2.923
REMARK INTRA:                   0.008
REMARK UNBOUND:                -0.306
REMARK SMILES [NH3+][C@@H](Cc1c[nH]c2ccccc12)C(=O)[O-]
REMARK SMILES IDX 3 1 2 2 1 3 13 7 14 8 15 9 4 10 12 11 5 12 7 13 11 14 6 15
REMARK SMILES IDX 8 16 10 17 9 19
REMARK H PARENT 1 4 1 5 1 6 6 18
REMARK Flexibility Score: inf
ROOT
ATOM      1  C   UNL     1      -9.620  32.140 -11.725  1.00  0.00     0.109 C 
ENDROOT
BRANCH   1   2
ATOM      2  C   UNL     1      -9.692  32.064 -10.187  1.00  0.00     0.232 C 
BRANCH   2   3
ATOM      3  N   UNL     1      -8.678  32.936  -9.582  1.00  0.00    -0.350 N 
ATOM      4  H   UNL     1      -8.198  33.491 -10.328  1.00  0.00     0.345 HD
ATOM      5  H   UNL     1      -9.134  33.605  -8.920  1.00  0.00     0.345 HD
ATOM      6  H   UNL     1      -7.965  32.372  -9.065  1.00  0.00     0.345 HD
ENDBRANCH   2   3
BRANCH   2   7
ATOM      7  C   UNL     1      -9.509  30.646  -9.710  1.00  0.00     0.099 C 
ATOM      8  O   UNL     1      -9.824  29.683 -10.458  1.00  0.00    -0.544 OA
ATOM      9  O   UNL     1      -8.964  30.390  -8.458  1.00  0.00    -0.544 OA
ENDBRANCH   2   7
ENDBRANCH   1   2
BRANCH   1  10
ATOM     10  C   UNL     1      -9.466  33.557 -12.203  1.00  0.00    -0.016 A 
ATOM     11  C   UNL     1     -10.296  34.632 -11.948  1.00  0.00     0.003 A 
ATOM     12  C   UNL     1      -8.392  34.072 -12.922  1.00  0.00     0.087 A 
ATOM     13  C   UNL     1      -9.708  35.731 -12.524  1.00  0.00     0.046 A 
ATOM     14  C   UNL     1     -11.501  34.726 -11.251  1.00  0.00     0.010 A 
ATOM     15  N   UNL     1      -8.550  35.401 -13.120  1.00  0.00    -0.361 N 
ATOM     16  C   UNL     1     -10.286  36.997 -12.445  1.00  0.00     0.026 A 
ATOM     17  C   UNL     1     -12.108  35.992 -11.157  1.00  0.00     0.001 A 
ATOM     18  H   UNL     1      -7.895  36.040 -13.623  1.00  0.00     0.166 HD
ATOM     19  C   UNL     1     -11.504  37.122 -11.752  1.00  0.00     0.002 A 
ENDBRANCH   1  10
TORSDOF 4
ENDMDL
