MODEL 1
REMARK VINA RESULT:    -4.683      0.000      0.000
REMARK INTER + INTRA:         -10.603
REMARK INTER:                  -8.242
REMARK INTRA:                  -2.361
REMARK UNBOUND:                -2.361
REMARK SMILES CCCCCCC=CCCCCCCCC(=O)[O-]
REMARK SMILES IDX 10 1 11 2 12 3 13 4 14 5 15 6 16 7 17 8 18 9 9 10 8 11 7 12
REMARK SMILES IDX 6 13 5 14 4 15 3 16 2 17 1 18
REMARK H PARENT
REMARK Flexibility Score: inf
ROOT
ATOM      1  C   UNL     1      24.449  10.077  44.681  1.00  0.00     0.004 C 
ENDROOT
BRANCH   1   2
ATOM      2  C   UNL     1      23.993   9.789  43.240  1.00  0.00     0.000 C 
BRANCH   2   3
ATOM      3  C   UNL     1      24.882   8.800  42.464  1.00  0.00     0.000 C 
BRANCH   3   4
ATOM      4  C   UNL     1      26.374   8.947  42.800  1.00  0.00     0.000 C 
BRANCH   4   5
ATOM      5  C   UNL     1      27.022   7.573  43.031  1.00  0.00     0.006 C 
BRANCH   5   6
ATOM      6  C   UNL     1      28.459   7.690  43.557  1.00  0.00     0.053 C 
BRANCH   6   7
ATOM      7  C   UNL     1      29.373   6.700  42.903  1.00  0.00     0.041 C 
ATOM      8  O   UNL     1      29.529   6.711  41.653  1.00  0.00    -0.550 OA
ATOM      9  O   UNL     1      30.026   5.742  43.669  1.00  0.00    -0.550 OA
ENDBRANCH   6   7
ENDBRANCH   5   6
ENDBRANCH   4   5
ENDBRANCH   3   4
ENDBRANCH   2   3
ENDBRANCH   1   2
BRANCH   1  10
ATOM     10  C   UNL     1      23.373  10.782  45.519  1.00  0.00     0.027 C 
BRANCH  10  11
ATOM     11  C   UNL     1      23.008   9.953  46.725  1.00  0.00    -0.031 C 
ATOM     12  C   UNL     1      21.960   9.112  46.783  1.00  0.00    -0.031 C 
BRANCH  12  13
ATOM     13  C   UNL     1      20.936   8.938  45.686  1.00  0.00     0.027 C 
BRANCH  13  14
ATOM     14  C   UNL     1      21.284   7.767  44.758  1.00  0.00     0.004 C 
BRANCH  14  15
ATOM     15  C   UNL     1      22.151   6.709  45.457  1.00  0.00     0.000 C 
BRANCH  15  16
ATOM     16  C   UNL     1      23.380   6.359  44.612  1.00  0.00    -0.000 C 
BRANCH  16  17
ATOM     17  C   UNL     1      24.513   5.813  45.489  1.00  0.00    -0.003 C 
ATOM     18  C   UNL     1      25.164   6.926  46.306  1.00  0.00     0.004 C 
ENDBRANCH  16  17
ENDBRANCH  15  16
ENDBRANCH  14  15
ENDBRANCH  13  14
ENDBRANCH  12  13
ENDBRANCH  10  11
ENDBRANCH   1  10
TORSDOF 13
ENDMDL
MODEL 2
REMARK VINA RESULT:    -4.651     11.546     14.141
REMARK INTER + INTRA:         -10.547
REMARK INTER:                  -9.663
REMARK INTRA:                  -0.884
REMARK UNBOUND:                -2.361
REMARK SMILES CCCCCCC=CCCCCCCCC(=O)[O-]
REMARK SMILES IDX 10 1 11 2 12 3 13 4 14 5 15 6 16 7 17 8 18 9 9 10 8 11 7 12
REMARK SMILES IDX 6 13 5 14 4 15 3 16 2 17 1 18
REMARK H PARENT
REMARK Flexibility Score: inf
ROOT
ATOM      1  C   UNL     1      11.853   0.502  40.932  1.00  0.00     0.004 C 
ENDROOT
BRANCH   1   2
ATOM      2  C   UNL     1      12.574   1.490  39.998  1.00  0.00     0.000 C 
BRANCH   2   3
ATOM      3  C   UNL     1      11.753   2.733  39.611  1.00  0.00     0.000 C 
BRANCH   3   4
ATOM      4  C   UNL     1      12.615   3.858  39.019  1.00  0.00     0.000 C 
BRANCH   4   5
ATOM      5  C   UNL     1      11.739   4.923  38.343  1.00  0.00     0.006 C 
BRANCH   5   6
ATOM      6  C   UNL     1      10.882   5.697  39.354  1.00  0.00     0.053 C 
BRANCH   6   7
ATOM      7  C   UNL     1      11.563   6.949  39.818  1.00  0.00     0.041 C 
ATOM      8  O   UNL     1      11.070   7.626  40.757  1.00  0.00    -0.550 OA
ATOM      9  O   UNL     1      12.722   7.386  39.188  1.00  0.00    -0.550 OA
ENDBRANCH   6   7
ENDBRANCH   5   6
ENDBRANCH   4   5
ENDBRANCH   3   4
ENDBRANCH   2   3
ENDBRANCH   1   2
BRANCH   1  10
ATOM     10  C   UNL     1      12.644   0.205  42.214  1.00  0.00     0.027 C 
BRANCH  10  11
ATOM     11  C   UNL     1      13.470   1.399  42.620  1.00  0.00    -0.031 C 
ATOM     12  C   UNL     1      14.811   1.398  42.730  1.00  0.00    -0.031 C 
BRANCH  12  13
ATOM     13  C   UNL     1      15.685   0.179  42.555  1.00  0.00     0.027 C 
BRANCH  13  14
ATOM     14  C   UNL     1      15.743  -0.673  43.830  1.00  0.00     0.004 C 
BRANCH  14  15
ATOM     15  C   UNL     1      16.446   0.056  44.984  1.00  0.00     0.000 C 
BRANCH  15  16
ATOM     16  C   UNL     1      17.682  -0.719  45.453  1.00  0.00    -0.000 C 
BRANCH  16  17
ATOM     17  C   UNL     1      18.550  -1.143  44.263  1.00  0.00    -0.003 C 
ATOM     18  C   UNL     1      19.789  -0.261  44.141  1.00  0.00     0.004 C 
ENDBRANCH  16  17
ENDBRANCH  15  16
ENDBRANCH  14  15
ENDBRANCH  13  14
ENDBRANCH  12  13
ENDBRANCH  10  11
ENDBRANCH   1  10
TORSDOF 13
ENDMDL
MODEL 3
REMARK VINA RESULT:    -4.635     16.044     17.733
REMARK INTER + INTRA:         -10.518
REMARK INTER:                  -8.376
REMARK INTRA:                  -2.142
REMARK UNBOUND:                -2.361
REMARK SMILES CCCCCCC=CCCCCCCCC(=O)[O-]
REMARK SMILES IDX 10 1 11 2 12 3 13 4 14 5 15 6 16 7 17 8 18 9 9 10 8 11 7 12
REMARK SMILES IDX 6 13 5 14 4 15 3 16 2 17 1 18
REMARK H PARENT
REMARK Flexibility Score: inf
ROOT
ATOM      1  C   UNL     1      21.890  -6.604  33.277  1.00  0.00     0.004 C 
ENDROOT
BRANCH   1   2
ATOM      2  C   UNL     1      21.395  -5.717  34.432  1.00  0.00     0.000 C 
BRANCH   2   3
ATOM      3  C   UNL     1      21.921  -4.270  34.411  1.00  0.00     0.000 C 
BRANCH   3   4
ATOM      4  C   UNL     1      22.421  -3.796  35.783  1.00  0.00     0.000 C 
BRANCH   4   5
ATOM      5  C   UNL     1      23.387  -2.610  35.635  1.00  0.00     0.006 C 
BRANCH   5   6
ATOM      6  C   UNL     1      22.871  -1.349  36.341  1.00  0.00     0.053 C 
BRANCH   6   7
ATOM      7  C   UNL     1      22.179  -0.422  35.389  1.00  0.00     0.041 C 
ATOM      8  O   UNL     1      21.063  -0.735  34.897  1.00  0.00    -0.550 OA
ATOM      9  O   UNL     1      22.784   0.773  35.016  1.00  0.00    -0.550 OA
ENDBRANCH   6   7
ENDBRANCH   5   6
ENDBRANCH   4   5
ENDBRANCH   3   4
ENDBRANCH   2   3
ENDBRANCH   1   2
BRANCH   1  10
ATOM     10  C   UNL     1      22.383  -5.793  32.070  1.00  0.00     0.027 C 
BRANCH  10  11
ATOM     11  C   UNL     1      21.598  -6.147  30.832  1.00  0.00    -0.031 C 
ATOM     12  C   UNL     1      20.586  -5.413  30.335  1.00  0.00    -0.031 C 
BRANCH  12  13
ATOM     13  C   UNL     1      20.020  -4.176  30.990  1.00  0.00     0.027 C 
BRANCH  13  14
ATOM     14  C   UNL     1      18.538  -4.344  31.350  1.00  0.00     0.004 C 
BRANCH  14  15
ATOM     15  C   UNL     1      18.338  -4.725  32.825  1.00  0.00     0.000 C 
BRANCH  15  16
ATOM     16  C   UNL     1      17.427  -5.950  32.958  1.00  0.00    -0.000 C 
BRANCH  16  17
ATOM     17  C   UNL     1      18.231  -7.192  33.359  1.00  0.00    -0.003 C 
ATOM     18  C   UNL     1      18.547  -8.060  32.145  1.00  0.00     0.004 C 
ENDBRANCH  16  17
ENDBRANCH  15  16
ENDBRANCH  14  15
ENDBRANCH  13  14
ENDBRANCH  12  13
ENDBRANCH  10  11
ENDBRANCH   1  10
TORSDOF 13
ENDMDL
MODEL 4
REMARK VINA RESULT:    -4.633     15.374     17.104
REMARK INTER + INTRA:         -10.515
REMARK INTER:                  -8.704
REMARK INTRA:                  -1.811
REMARK UNBOUND:                -2.361
REMARK SMILES CCCCCCC=CCCCCCCCC(=O)[O-]
REMARK SMILES IDX 10 1 11 2 12 3 13 4 14 5 15 6 16 7 17 8 18 9 9 10 8 11 7 12
REMARK SMILES IDX 6 13 5 14 4 15 3 16 2 17 1 18
REMARK H PARENT
REMARK Flexibility Score: inf
ROOT
ATOM      1  C   UNL     1      22.272  -5.065  33.155  1.00  0.00     0.004 C 
ENDROOT
BRANCH   1   2
ATOM      2  C   UNL     1      22.227  -4.898  34.684  1.00  0.00     0.000 C 
BRANCH   2   3
ATOM      3  C   UNL     1      21.950  -3.464  35.172  1.00  0.00     0.000 C 
BRANCH   3   4
ATOM      4  C   UNL     1      23.228  -2.709  35.563  1.00  0.00     0.000 C 
BRANCH   4   5
ATOM      5  C   UNL     1      22.910  -1.256  35.949  1.00  0.00     0.006 C 
BRANCH   5   6
ATOM      6  C   UNL     1      21.763  -0.671  35.115  1.00  0.00     0.053 C 
BRANCH   6   7
ATOM      7  C   UNL     1      21.832   0.823  35.042  1.00  0.00     0.041 C 
ATOM      8  O   UNL     1      22.895   1.391  34.676  1.00  0.00    -0.550 OA
ATOM      9  O   UNL     1      20.735   1.591  35.415  1.00  0.00    -0.550 OA
ENDBRANCH   6   7
ENDBRANCH   5   6
ENDBRANCH   4   5
ENDBRANCH   3   4
ENDBRANCH   2   3
ENDBRANCH   1   2
BRANCH   1  10
ATOM     10  C   UNL     1      22.050  -6.516  32.706  1.00  0.00     0.027 C 
BRANCH  10  11
ATOM     11  C   UNL     1      21.081  -7.217  33.624  1.00  0.00    -0.031 C 
ATOM     12  C   UNL     1      19.780  -7.421  33.347  1.00  0.00    -0.031 C 
BRANCH  12  13
ATOM     13  C   UNL     1      19.071  -6.900  32.120  1.00  0.00     0.027 C 
BRANCH  13  14
ATOM     14  C   UNL     1      17.702  -6.297  32.462  1.00  0.00     0.004 C 
BRANCH  14  15
ATOM     15  C   UNL     1      17.644  -4.789  32.176  1.00  0.00     0.000 C 
BRANCH  15  16
ATOM     16  C   UNL     1      18.388  -3.995  33.255  1.00  0.00    -0.000 C 
BRANCH  16  17
ATOM     17  C   UNL     1      19.396  -3.025  32.628  1.00  0.00    -0.003 C 
ATOM     18  C   UNL     1      19.583  -3.309  31.141  1.00  0.00     0.004 C 
ENDBRANCH  16  17
ENDBRANCH  15  16
ENDBRANCH  14  15
ENDBRANCH  13  14
ENDBRANCH  12  13
ENDBRANCH  10  11
ENDBRANCH   1  10
TORSDOF 13
ENDMDL
MODEL 5
REMARK VINA RESULT:    -4.599     16.212     17.891
REMARK INTER + INTRA:         -10.454
REMARK INTER:                  -8.099
REMARK INTRA:                  -2.355
REMARK UNBOUND:                -2.361
REMARK SMILES CCCCCCC=CCCCCCCCC(=O)[O-]
REMARK SMILES IDX 10 1 11 2 12 3 13 4 14 5 15 6 16 7 17 8 18 9 9 10 8 11 7 12
REMARK SMILES IDX 6 13 5 14 4 15 3 16 2 17 1 18
REMARK H PARENT
REMARK Flexibility Score: inf
ROOT
ATOM      1  C   UNL     1      21.991  -6.228  31.111  1.00  0.00     0.004 C 
ENDROOT
BRANCH   1   2
ATOM      2  C   UNL     1      22.715  -6.079  32.460  1.00  0.00     0.000 C 
BRANCH   2   3
ATOM      3  C   UNL     1      22.201  -4.931  33.348  1.00  0.00     0.000 C 
BRANCH   3   4
ATOM      4  C   UNL     1      22.038  -5.341  34.820  1.00  0.00     0.000 C 
BRANCH   4   5
ATOM      5  C   UNL     1      21.913  -4.105  35.723  1.00  0.00     0.006 C 
BRANCH   5   6
ATOM      6  C   UNL     1      23.030  -3.084  35.468  1.00  0.00     0.053 C 
BRANCH   6   7
ATOM      7  C   UNL     1      22.556  -1.677  35.671  1.00  0.00     0.041 C 
ATOM      8  O   UNL     1      21.650  -1.203  34.937  1.00  0.00    -0.550 OA
ATOM      9  O   UNL     1      23.141  -0.878  36.646  1.00  0.00    -0.550 OA
ENDBRANCH   6   7
ENDBRANCH   5   6
ENDBRANCH   4   5
ENDBRANCH   3   4
ENDBRANCH   2   3
ENDBRANCH   1   2
BRANCH   1  10
ATOM     10  C   UNL     1      20.669  -5.449  31.053  1.00  0.00     0.027 C 
BRANCH  10  11
ATOM     11  C   UNL     1      19.531  -6.358  30.661  1.00  0.00    -0.031 C 
ATOM     12  C   UNL     1      18.916  -7.214  31.497  1.00  0.00    -0.031 C 
BRANCH  12  13
ATOM     13  C   UNL     1      19.330  -7.464  32.928  1.00  0.00     0.027 C 
BRANCH  13  14
ATOM     14  C   UNL     1      18.691  -6.457  33.893  1.00  0.00     0.004 C 
BRANCH  14  15
ATOM     15  C   UNL     1      17.339  -5.938  33.380  1.00  0.00     0.000 C 
BRANCH  15  16
ATOM     16  C   UNL     1      17.279  -4.408  33.437  1.00  0.00    -0.000 C 
BRANCH  16  17
ATOM     17  C   UNL     1      18.610  -3.823  33.923  1.00  0.00    -0.003 C 
ATOM     18  C   UNL     1      19.134  -2.766  32.955  1.00  0.00     0.004 C 
ENDBRANCH  16  17
ENDBRANCH  15  16
ENDBRANCH  14  15
ENDBRANCH  13  14
ENDBRANCH  12  13
ENDBRANCH  10  11
ENDBRANCH   1  10
TORSDOF 13
ENDMDL
MODEL 6
REMARK VINA RESULT:    -4.576      3.871      6.360
REMARK INTER + INTRA:         -10.414
REMARK INTER:                  -7.725
REMARK INTRA:                  -2.689
REMARK UNBOUND:                -2.361
REMARK SMILES CCCCCCC=CCCCCCCCC(=O)[O-]
REMARK SMILES IDX 10 1 11 2 12 3 13 4 14 5 15 6 16 7 17 8 18 9 9 10 8 11 7 12
REMARK SMILES IDX 6 13 5 14 4 15 3 16 2 17 1 18
REMARK H PARENT
REMARK Flexibility Score: inf
ROOT
ATOM      1  C   UNL     1      28.219   7.651  43.395  1.00  0.00     0.004 C 
ENDROOT
BRANCH   1   2
ATOM      2  C   UNL     1      27.875   7.345  44.863  1.00  0.00     0.000 C 
BRANCH   2   3
ATOM      3  C   UNL     1      26.388   7.504  45.228  1.00  0.00     0.000 C 
BRANCH   3   4
ATOM      4  C   UNL     1      25.932   6.523  46.318  1.00  0.00     0.000 C 
BRANCH   4   5
ATOM      5  C   UNL     1      27.139   5.881  47.018  1.00  0.00     0.006 C 
BRANCH   5   6
ATOM      6  C   UNL     1      26.770   4.572  47.729  1.00  0.00     0.053 C 
BRANCH   6   7
ATOM      7  C   UNL     1      27.979   3.733  48.014  1.00  0.00     0.041 C 
ATOM      8  O   UNL     1      28.981   4.239  48.584  1.00  0.00    -0.550 OA
ATOM      9  O   UNL     1      28.012   2.401  47.617  1.00  0.00    -0.550 OA
ENDBRANCH   6   7
ENDBRANCH   5   6
ENDBRANCH   4   5
ENDBRANCH   3   4
ENDBRANCH   2   3
ENDBRANCH   1   2
BRANCH   1  10
ATOM     10  C   UNL     1      29.607   7.138  42.987  1.00  0.00     0.027 C 
BRANCH  10  11
ATOM     11  C   UNL     1      29.491   6.069  41.929  1.00  0.00    -0.031 C 
ATOM     12  C   UNL     1      29.415   4.750  42.183  1.00  0.00    -0.031 C 
BRANCH  12  13
ATOM     13  C   UNL     1      29.529   4.132  43.556  1.00  0.00     0.027 C 
BRANCH  13  14
ATOM     14  C   UNL     1      28.166   3.673  44.093  1.00  0.00     0.004 C 
BRANCH  14  15
ATOM     15  C   UNL     1      27.057   3.790  43.036  1.00  0.00     0.000 C 
BRANCH  15  16
ATOM     16  C   UNL     1      25.700   4.068  43.692  1.00  0.00    -0.000 C 
BRANCH  16  17
ATOM     17  C   UNL     1      24.887   5.072  42.867  1.00  0.00    -0.003 C 
ATOM     18  C   UNL     1      25.673   5.553  41.651  1.00  0.00     0.004 C 
ENDBRANCH  16  17
ENDBRANCH  15  16
ENDBRANCH  14  15
ENDBRANCH  13  14
ENDBRANCH  12  13
ENDBRANCH  10  11
ENDBRANCH   1  10
TORSDOF 13
ENDMDL
MODEL 7
REMARK VINA RESULT:    -4.559     15.293     17.091
REMARK INTER + INTRA:         -10.385
REMARK INTER:                  -8.572
REMARK INTRA:                  -1.813
REMARK UNBOUND:                -2.361
REMARK SMILES CCCCCCC=CCCCCCCCC(=O)[O-]
REMARK SMILES IDX 10 1 11 2 12 3 13 4 14 5 15 6 16 7 17 8 18 9 9 10 8 11 7 12
REMARK SMILES IDX 6 13 5 14 4 15 3 16 2 17 1 18
REMARK H PARENT
REMARK Flexibility Score: inf
ROOT
ATOM      1  C   UNL     1      21.361  -5.859  34.264  1.00  0.00     0.004 C 
ENDROOT
BRANCH   1   2
ATOM      2  C   UNL     1      22.324  -4.660  34.325  1.00  0.00     0.000 C 
BRANCH   2   3
ATOM      3  C   UNL     1      21.830  -3.475  35.175  1.00  0.00     0.000 C 
BRANCH   3   4
ATOM      4  C   UNL     1      22.946  -2.839  36.018  1.00  0.00     0.000 C 
BRANCH   4   5
ATOM      5  C   UNL     1      22.998  -1.319  35.802  1.00  0.00     0.006 C 
BRANCH   5   6
ATOM      6  C   UNL     1      21.746  -0.791  35.087  1.00  0.00     0.053 C 
BRANCH   6   7
ATOM      7  C   UNL     1      21.643   0.701  35.174  1.00  0.00     0.041 C 
ATOM      8  O   UNL     1      21.053   1.239  36.147  1.00  0.00    -0.550 OA
ATOM      9  O   UNL     1      22.167   1.496  34.162  1.00  0.00    -0.550 OA
ENDBRANCH   6   7
ENDBRANCH   5   6
ENDBRANCH   4   5
ENDBRANCH   3   4
ENDBRANCH   2   3
ENDBRANCH   1   2
BRANCH   1  10
ATOM     10  C   UNL     1      21.729  -6.865  33.164  1.00  0.00     0.027 C 
BRANCH  10  11
ATOM     11  C   UNL     1      22.310  -6.158  31.966  1.00  0.00    -0.031 C 
ATOM     12  C   UNL     1      21.623  -5.863  30.847  1.00  0.00    -0.031 C 
BRANCH  12  13
ATOM     13  C   UNL     1      20.195  -6.276  30.582  1.00  0.00     0.027 C 
BRANCH  13  14
ATOM     14  C   UNL     1      19.191  -5.331  31.256  1.00  0.00     0.004 C 
BRANCH  14  15
ATOM     15  C   UNL     1      19.494  -3.854  30.959  1.00  0.00     0.000 C 
BRANCH  15  16
ATOM     16  C   UNL     1      19.763  -3.077  32.252  1.00  0.00    -0.000 C 
BRANCH  16  17
ATOM     17  C   UNL     1      18.451  -2.660  32.926  1.00  0.00    -0.003 C 
ATOM     18  C   UNL     1      18.253  -3.394  34.249  1.00  0.00     0.004 C 
ENDBRANCH  16  17
ENDBRANCH  15  16
ENDBRANCH  14  15
ENDBRANCH  13  14
ENDBRANCH  12  13
ENDBRANCH  10  11
ENDBRANCH   1  10
TORSDOF 13
ENDMDL
MODEL 8
REMARK VINA RESULT:    -4.541      3.597      6.476
REMARK INTER + INTRA:         -10.353
REMARK INTER:                  -7.648
REMARK INTRA:                  -2.705
REMARK UNBOUND:                -2.361
REMARK SMILES CCCCCCC=CCCCCCCCC(=O)[O-]
REMARK SMILES IDX 10 1 11 2 12 3 13 4 14 5 15 6 16 7 17 8 18 9 9 10 8 11 7 12
REMARK SMILES IDX 6 13 5 14 4 15 3 16 2 17 1 18
REMARK H PARENT
REMARK Flexibility Score: inf
ROOT
ATOM      1  C   UNL     1      27.911   7.935  43.131  1.00  0.00     0.004 C 
ENDROOT
BRANCH   1   2
ATOM      2  C   UNL     1      27.175   7.770  44.473  1.00  0.00     0.000 C 
BRANCH   2   3
ATOM      3  C   UNL     1      27.869   6.837  45.482  1.00  0.00     0.000 C 
BRANCH   3   4
ATOM      4  C   UNL     1      26.912   5.802  46.093  1.00  0.00     0.000 C 
BRANCH   4   5
ATOM      5  C   UNL     1      25.464   6.312  46.069  1.00  0.00     0.006 C 
BRANCH   5   6
ATOM      6  C   UNL     1      24.457   5.188  45.787  1.00  0.00     0.053 C 
BRANCH   6   7
ATOM      7  C   UNL     1      23.192   5.713  45.179  1.00  0.00     0.041 C 
ATOM      8  O   UNL     1      22.577   5.036  44.315  1.00  0.00    -0.550 OA
ATOM      9  O   UNL     1      22.713   6.967  45.540  1.00  0.00    -0.550 OA
ENDBRANCH   6   7
ENDBRANCH   5   6
ENDBRANCH   4   5
ENDBRANCH   3   4
ENDBRANCH   2   3
ENDBRANCH   1   2
BRANCH   1  10
ATOM     10  C   UNL     1      29.360   7.432  43.179  1.00  0.00     0.027 C 
BRANCH  10  11
ATOM     11  C   UNL     1      29.672   6.585  41.971  1.00  0.00    -0.031 C 
ATOM     12  C   UNL     1      29.598   5.242  41.941  1.00  0.00    -0.031 C 
BRANCH  12  13
ATOM     13  C   UNL     1      29.284   4.373  43.136  1.00  0.00     0.027 C 
BRANCH  13  14
ATOM     14  C   UNL     1      27.844   3.845  43.097  1.00  0.00     0.004 C 
BRANCH  14  15
ATOM     15  C   UNL     1      27.032   4.456  41.945  1.00  0.00     0.000 C 
BRANCH  15  16
ATOM     16  C   UNL     1      25.681   4.981  42.442  1.00  0.00    -0.000 C 
BRANCH  16  17
ATOM     17  C   UNL     1      24.993   5.831  41.368  1.00  0.00    -0.003 C 
ATOM     18  C   UNL     1      24.457   7.134  41.954  1.00  0.00     0.004 C 
ENDBRANCH  16  17
ENDBRANCH  15  16
ENDBRANCH  14  15
ENDBRANCH  13  14
ENDBRANCH  12  13
ENDBRANCH  10  11
ENDBRANCH   1  10
TORSDOF 13
ENDMDL
MODEL 9
REMARK VINA RESULT:    -4.527     15.698     17.398
REMARK INTER + INTRA:         -10.328
REMARK INTER:                  -8.535
REMARK INTRA:                  -1.792
REMARK UNBOUND:                -2.361
REMARK SMILES CCCCCCC=CCCCCCCCC(=O)[O-]
REMARK SMILES IDX 10 1 11 2 12 3 13 4 14 5 15 6 16 7 17 8 18 9 9 10 8 11 7 12
REMARK SMILES IDX 6 13 5 14 4 15 3 16 2 17 1 18
REMARK H PARENT
REMARK Flexibility Score: inf
ROOT
ATOM      1  C   UNL     1      21.942  -2.574  35.607  1.00  0.00     0.004 C 
ENDROOT
BRANCH   1   2
ATOM      2  C   UNL     1      23.285  -3.259  35.914  1.00  0.00     0.000 C 
BRANCH   2   3
ATOM      3  C   UNL     1      23.420  -3.812  37.344  1.00  0.00     0.000 C 
BRANCH   3   4
ATOM      4  C   UNL     1      23.688  -5.324  37.377  1.00  0.00     0.000 C 
BRANCH   4   5
ATOM      5  C   UNL     1      22.406  -6.102  37.708  1.00  0.00     0.006 C 
BRANCH   5   6
ATOM      6  C   UNL     1      22.691  -7.567  38.065  1.00  0.00     0.053 C 
BRANCH   6   7
ATOM      7  C   UNL     1      22.876  -7.755  39.540  1.00  0.00     0.041 C 
ATOM      8  O   UNL     1      21.886  -8.003  40.276  1.00  0.00    -0.550 OA
ATOM      9  O   UNL     1      24.138  -7.620  40.106  1.00  0.00    -0.550 OA
ENDBRANCH   6   7
ENDBRANCH   5   6
ENDBRANCH   4   5
ENDBRANCH   3   4
ENDBRANCH   2   3
ENDBRANCH   1   2
BRANCH   1  10
ATOM     10  C   UNL     1      21.210  -3.201  34.413  1.00  0.00     0.027 C 
BRANCH  10  11
ATOM     11  C   UNL     1      21.009  -4.680  34.626  1.00  0.00    -0.031 C 
ATOM     12  C   UNL     1      21.607  -5.644  33.903  1.00  0.00    -0.031 C 
BRANCH  12  13
ATOM     13  C   UNL     1      22.497  -5.394  32.709  1.00  0.00     0.027 C 
BRANCH  13  14
ATOM     14  C   UNL     1      22.057  -6.209  31.486  1.00  0.00     0.004 C 
BRANCH  14  15
ATOM     15  C   UNL     1      20.534  -6.397  31.431  1.00  0.00     0.000 C 
BRANCH  15  16
ATOM     16  C   UNL     1      19.898  -5.440  30.416  1.00  0.00    -0.000 C 
BRANCH  16  17
ATOM     17  C   UNL     1      18.856  -4.539  31.088  1.00  0.00    -0.003 C 
ATOM     18  C   UNL     1      19.412  -3.139  31.332  1.00  0.00     0.004 C 
ENDBRANCH  16  17
ENDBRANCH  15  16
ENDBRANCH  14  15
ENDBRANCH  13  14
ENDBRANCH  12  13
ENDBRANCH  10  11
ENDBRANCH   1  10
TORSDOF 13
ENDMDL
