MODEL 1
REMARK VINA RESULT:     6.311      0.000      0.000
REMARK INTER + INTRA:           6.918
REMARK INTER:                   7.234
REMARK INTRA:                  -0.316
REMARK UNBOUND:                -0.316
REMARK SMILES O=C1C[C@H](c2ccc(O)cc2)Oc2cc(O)cc(O)c21
REMARK SMILES IDX 3 1 4 2 12 3 13 4 14 5 15 6 17 7 18 8 20 9 2 10 1 11 5 12
REMARK SMILES IDX 6 13 11 14 7 15 10 16 8 17 9 18 19 20 16 22
REMARK H PARENT 9 19 19 21 16 23
REMARK Flexibility Score: inf
ROOT
ATOM      1  C   UNL     1      32.698  24.241  27.806  1.00  0.00     0.131 C 
ATOM      2  C   UNL     1      31.981  23.766  29.078  1.00  0.00     0.211 C 
ATOM      3  O   UNL     1      32.604  24.319  30.242  1.00  0.00    -0.484 OA
ATOM      4  C   UNL     1      33.993  24.456  30.363  1.00  0.00     0.138 A 
ATOM      5  C   UNL     1      34.538  24.738  31.617  1.00  0.00     0.093 A 
ATOM      6  C   UNL     1      35.922  24.865  31.771  1.00  0.00     0.123 A 
ATOM      7  C   UNL     1      36.758  24.740  30.661  1.00  0.00     0.093 A 
ATOM      8  C   UNL     1      36.231  24.498  29.387  1.00  0.00     0.133 A 
ATOM      9  C   UNL     1      34.831  24.319  29.234  1.00  0.00     0.102 A 
ATOM     10  C   UNL     1      34.169  23.989  27.947  1.00  0.00     0.174 C 
ATOM     11  O   UNL     1      34.798  23.454  26.995  1.00  0.00    -0.294 OA
ENDROOT
BRANCH   2  12
ATOM     12  C   UNL     1      30.521  24.148  29.042  1.00  0.00    -0.007 A 
ATOM     13  C   UNL     1      29.750  23.920  27.888  1.00  0.00     0.011 A 
ATOM     14  C   UNL     1      29.903  24.685  30.184  1.00  0.00     0.011 A 
ATOM     15  C   UNL     1      28.391  24.248  27.871  1.00  0.00     0.046 A 
ATOM     16  C   UNL     1      28.543  25.011  30.164  1.00  0.00     0.046 A 
ATOM     17  C   UNL     1      27.784  24.795  29.007  1.00  0.00     0.115 A 
BRANCH  17  18
ATOM     18  O   UNL     1      26.430  25.117  28.974  1.00  0.00    -0.508 OA
ATOM     19  H   UNL     1      25.980  25.595  29.748  1.00  0.00     0.293 HD
ENDBRANCH  17  18
ENDBRANCH   2  12
BRANCH   8  20
ATOM     20  O   UNL     1      37.125  24.477  28.314  1.00  0.00    -0.507 OA
ATOM     21  H   UNL     1      37.136  23.762  27.603  1.00  0.00     0.293 HD
ENDBRANCH   8  20
BRANCH   6  22
ATOM     22  O   UNL     1      36.475  25.124  33.024  1.00  0.00    -0.508 OA
ATOM     23  H   UNL     1      35.935  25.016  33.874  1.00  0.00     0.293 HD
ENDBRANCH   6  22
TORSDOF 4
ENDMDL
MODEL 2
REMARK VINA RESULT:     6.624     16.669     19.369
REMARK INTER + INTRA:           7.276
REMARK INTER:                   7.594
REMARK INTRA:                  -0.318
REMARK UNBOUND:                -0.316
REMARK SMILES O=C1C[C@H](c2ccc(O)cc2)Oc2cc(O)cc(O)c21
REMARK SMILES IDX 3 1 4 2 12 3 13 4 14 5 15 6 17 7 18 8 20 9 2 10 1 11 5 12
REMARK SMILES IDX 6 13 11 14 7 15 10 16 8 17 9 18 19 20 16 22
REMARK H PARENT 9 19 19 21 16 23
REMARK Flexibility Score: inf
ROOT
ATOM      1  C   UNL     1      17.511  24.116  42.988  1.00  0.00     0.131 C 
ATOM      2  C   UNL     1      18.598  24.968  42.319  1.00  0.00     0.211 C 
ATOM      3  O   UNL     1      19.898  24.438  42.601  1.00  0.00    -0.484 OA
ATOM      4  C   UNL     1      20.244  23.914  43.854  1.00  0.00     0.138 A 
ATOM      5  C   UNL     1      21.590  23.675  44.138  1.00  0.00     0.093 A 
ATOM      6  C   UNL     1      21.967  23.167  45.385  1.00  0.00     0.123 A 
ATOM      7  C   UNL     1      20.991  22.871  46.338  1.00  0.00     0.093 A 
ATOM      8  C   UNL     1      19.633  23.064  46.060  1.00  0.00     0.133 A 
ATOM      9  C   UNL     1      19.249  23.625  44.813  1.00  0.00     0.102 A 
ATOM     10  C   UNL     1      17.847  23.938  44.438  1.00  0.00     0.174 C 
ATOM     11  O   UNL     1      16.951  24.113  45.306  1.00  0.00    -0.294 OA
ENDROOT
BRANCH   2  12
ATOM     12  C   UNL     1      18.381  25.036  40.827  1.00  0.00    -0.007 A 
ATOM     13  C   UNL     1      19.476  25.091  39.946  1.00  0.00     0.011 A 
ATOM     14  C   UNL     1      17.079  24.989  40.300  1.00  0.00     0.011 A 
ATOM     15  C   UNL     1      19.269  25.123  38.564  1.00  0.00     0.046 A 
ATOM     16  C   UNL     1      16.875  25.022  38.917  1.00  0.00     0.046 A 
ATOM     17  C   UNL     1      17.970  25.090  38.045  1.00  0.00     0.115 A 
BRANCH  17  18
ATOM     18  O   UNL     1      17.779  25.124  36.666  1.00  0.00    -0.508 OA
ATOM     19  H   UNL     1      18.524  25.398  36.035  1.00  0.00     0.293 HD
ENDBRANCH  17  18
ENDBRANCH   2  12
BRANCH   8  20
ATOM     20  O   UNL     1      18.714  22.656  47.029  1.00  0.00    -0.507 OA
ATOM     21  H   UNL     1      17.713  22.676  46.902  1.00  0.00     0.293 HD
ENDBRANCH   8  20
BRANCH   6  22
ATOM     22  O   UNL     1      23.310  22.947  45.685  1.00  0.00    -0.508 OA
ATOM     23  H   UNL     1      24.050  23.434  45.191  1.00  0.00     0.293 HD
ENDBRANCH   6  22
TORSDOF 4
ENDMDL
MODEL 3
REMARK VINA RESULT:     7.168      2.559      4.317
REMARK INTER + INTRA:           7.900
REMARK INTER:                   8.208
REMARK INTRA:                  -0.308
REMARK UNBOUND:                -0.316
REMARK SMILES O=C1C[C@H](c2ccc(O)cc2)Oc2cc(O)cc(O)c21
REMARK SMILES IDX 3 1 4 2 12 3 13 4 14 5 15 6 17 7 18 8 20 9 2 10 1 11 5 12
REMARK SMILES IDX 6 13 11 14 7 15 10 16 8 17 9 18 19 20 16 22
REMARK H PARENT 9 19 19 21 16 23
REMARK Flexibility Score: inf
ROOT
ATOM      1  C   UNL     1      30.689  24.298  32.851  1.00  0.00     0.131 C 
ATOM      2  C   UNL     1      31.239  25.072  31.644  1.00  0.00     0.211 C 
ATOM      3  O   UNL     1      32.654  24.892  31.533  1.00  0.00    -0.484 OA
ATOM      4  C   UNL     1      33.501  24.859  32.649  1.00  0.00     0.138 A 
ATOM      5  C   UNL     1      34.880  24.960  32.454  1.00  0.00     0.093 A 
ATOM      6  C   UNL     1      35.749  24.944  33.550  1.00  0.00     0.123 A 
ATOM      7  C   UNL     1      35.237  24.797  34.840  1.00  0.00     0.093 A 
ATOM      8  C   UNL     1      33.862  24.653  35.055  1.00  0.00     0.133 A 
ATOM      9  C   UNL     1      32.972  24.717  33.951  1.00  0.00     0.102 A 
ATOM     10  C   UNL     1      31.494  24.647  34.067  1.00  0.00     0.174 C 
ATOM     11  O   UNL     1      30.898  24.927  35.141  1.00  0.00    -0.294 OA
ENDROOT
BRANCH   2  12
ATOM     12  C   UNL     1      30.560  24.628  30.371  1.00  0.00    -0.007 A 
ATOM     13  C   UNL     1      31.163  23.673  29.534  1.00  0.00     0.011 A 
ATOM     14  C   UNL     1      29.288  25.125  30.038  1.00  0.00     0.011 A 
ATOM     15  C   UNL     1      30.516  23.243  28.372  1.00  0.00     0.046 A 
ATOM     16  C   UNL     1      28.643  24.693  28.875  1.00  0.00     0.046 A 
ATOM     17  C   UNL     1      29.256  23.752  28.038  1.00  0.00     0.115 A 
BRANCH  17  18
ATOM     18  O   UNL     1      28.624  23.315  26.877  1.00  0.00    -0.508 OA
ATOM     19  H   UNL     1      27.617  23.368  26.770  1.00  0.00     0.293 HD
ENDBRANCH  17  18
ENDBRANCH   2  12
BRANCH   8  20
ATOM     20  O   UNL     1      33.437  24.418  36.365  1.00  0.00    -0.507 OA
ATOM     21  H   UNL     1      33.067  25.131  36.975  1.00  0.00     0.293 HD
ENDBRANCH   8  20
BRANCH   6  22
ATOM     22  O   UNL     1      37.125  25.067  33.365  1.00  0.00    -0.508 OA
ATOM     23  H   UNL     1      37.605  25.945  33.529  1.00  0.00     0.293 HD
ENDBRANCH   6  22
TORSDOF 4
ENDMDL
MODEL 4
REMARK VINA RESULT:     7.564      3.006      5.675
REMARK INTER + INTRA:           8.354
REMARK INTER:                   8.657
REMARK INTRA:                  -0.304
REMARK UNBOUND:                -0.316
REMARK SMILES O=C1C[C@H](c2ccc(O)cc2)Oc2cc(O)cc(O)c21
REMARK SMILES IDX 3 1 4 2 12 3 13 4 14 5 15 6 17 7 18 8 20 9 2 10 1 11 5 12
REMARK SMILES IDX 6 13 11 14 7 15 10 16 8 17 9 18 19 20 16 22
REMARK H PARENT 9 19 19 21 16 23
REMARK Flexibility Score: inf
ROOT
ATOM      1  C   UNL     1      30.435  24.718  31.320  1.00  0.00     0.131 C 
ATOM      2  C   UNL     1      31.714  24.039  31.833  1.00  0.00     0.211 C 
ATOM      3  O   UNL     1      32.849  24.463  31.072  1.00  0.00    -0.484 OA
ATOM      4  C   UNL     1      32.798  24.657  29.684  1.00  0.00     0.138 A 
ATOM      5  C   UNL     1      33.994  24.797  28.977  1.00  0.00     0.093 A 
ATOM      6  C   UNL     1      33.976  24.976  27.591  1.00  0.00     0.123 A 
ATOM      7  C   UNL     1      32.756  25.044  26.916  1.00  0.00     0.093 A 
ATOM      8  C   UNL     1      31.544  24.947  27.610  1.00  0.00     0.133 A 
ATOM      9  C   UNL     1      31.559  24.717  29.011  1.00  0.00     0.102 A 
ATOM     10  C   UNL     1      30.339  24.528  29.836  1.00  0.00     0.174 C 
ATOM     11  O   UNL     1      29.246  24.159  29.331  1.00  0.00    -0.294 OA
ENDROOT
BRANCH   2  12
ATOM     12  C   UNL     1      31.930  24.344  33.296  1.00  0.00    -0.007 A 
ATOM     13  C   UNL     1      30.887  24.872  34.078  1.00  0.00     0.011 A 
ATOM     14  C   UNL     1      33.162  24.050  33.905  1.00  0.00     0.011 A 
ATOM     15  C   UNL     1      31.084  25.124  35.439  1.00  0.00     0.046 A 
ATOM     16  C   UNL     1      33.355  24.303  35.266  1.00  0.00     0.046 A 
ATOM     17  C   UNL     1      32.317  24.842  36.037  1.00  0.00     0.115 A 
BRANCH  17  18
ATOM     18  O   UNL     1      32.499  25.100  37.393  1.00  0.00    -0.508 OA
ATOM     19  H   UNL     1      31.916  24.662  38.098  1.00  0.00     0.293 HD
ENDBRANCH  17  18
ENDBRANCH   2  12
BRANCH   8  20
ATOM     20  O   UNL     1      30.368  25.118  26.876  1.00  0.00    -0.507 OA
ATOM     21  H   UNL     1      29.930  24.389  26.333  1.00  0.00     0.293 HD
ENDBRANCH   8  20
BRANCH   6  22
ATOM     22  O   UNL     1      35.165  25.094  26.875  1.00  0.00    -0.508 OA
ATOM     23  H   UNL     1      35.176  25.414  25.914  1.00  0.00     0.293 HD
ENDBRANCH   6  22
TORSDOF 4
ENDMDL
MODEL 5
REMARK VINA RESULT:     9.012      3.171      5.451
REMARK INTER + INTRA:          10.013
REMARK INTER:                  10.311
REMARK INTRA:                  -0.298
REMARK UNBOUND:                -0.316
REMARK SMILES O=C1C[C@H](c2ccc(O)cc2)Oc2cc(O)cc(O)c21
REMARK SMILES IDX 3 1 4 2 12 3 13 4 14 5 15 6 17 7 18 8 20 9 2 10 1 11 5 12
REMARK SMILES IDX 6 13 11 14 7 15 10 16 8 17 9 18 19 20 16 22
REMARK H PARENT 9 19 19 21 16 23
REMARK Flexibility Score: inf
ROOT
ATOM      1  C   UNL     1      35.137  24.263  32.816  1.00  0.00     0.131 C 
ATOM      2  C   UNL     1      33.819  25.046  32.897  1.00  0.00     0.211 C 
ATOM      3  O   UNL     1      33.063  24.884  31.692  1.00  0.00    -0.484 OA
ATOM      4  C   UNL     1      33.659  24.860  30.424  1.00  0.00     0.138 A 
ATOM      5  C   UNL     1      32.848  24.978  29.293  1.00  0.00     0.093 A 
ATOM      6  C   UNL     1      33.416  24.972  28.016  1.00  0.00     0.123 A 
ATOM      7  C   UNL     1      34.795  24.818  27.870  1.00  0.00     0.093 A 
ATOM      8  C   UNL     1      35.623  24.656  28.987  1.00  0.00     0.133 A 
ATOM      9  C   UNL     1      35.057  24.710  30.288  1.00  0.00     0.102 A 
ATOM     10  C   UNL     1      35.844  24.622  31.543  1.00  0.00     0.174 C 
ATOM     11  O   UNL     1      37.074  24.893  31.576  1.00  0.00    -0.294 OA
ENDROOT
BRANCH   2  12
ATOM     12  C   UNL     1      33.002  24.594  34.084  1.00  0.00    -0.007 A 
ATOM     13  C   UNL     1      33.535  23.684  35.014  1.00  0.00     0.011 A 
ATOM     14  C   UNL     1      31.719  25.125  34.301  1.00  0.00     0.011 A 
ATOM     15  C   UNL     1      32.786  23.293  36.127  1.00  0.00     0.046 A 
ATOM     16  C   UNL     1      30.972  24.731  35.416  1.00  0.00     0.046 A 
ATOM     17  C   UNL     1      31.503  23.813  36.331  1.00  0.00     0.115 A 
BRANCH  17  18
ATOM     18  O   UNL     1      30.768  23.414  37.445  1.00  0.00    -0.508 OA
ATOM     19  H   UNL     1      29.886  23.854  37.683  1.00  0.00     0.293 HD
ENDBRANCH  17  18
ENDBRANCH   2  12
BRANCH   8  20
ATOM     20  O   UNL     1      36.978  24.414  28.754  1.00  0.00    -0.507 OA
ATOM     21  H   UNL     1      37.716  24.675  29.391  1.00  0.00     0.293 HD
ENDBRANCH   8  20
BRANCH   6  22
ATOM     22  O   UNL     1      32.616  25.113  26.884  1.00  0.00    -0.508 OA
ATOM     23  H   UNL     1      32.970  25.537  26.034  1.00  0.00     0.293 HD
ENDBRANCH   6  22
TORSDOF 4
ENDMDL
