MODEL 1
REMARK VINA RESULT:    -4.256      0.000      0.000
REMARK INTER + INTRA:          -7.543
REMARK INTER:                  -6.495
REMARK INTRA:                  -1.048
REMARK UNBOUND:                -1.048
REMARK SMILES O=C([O-])CCCCCCCCC(=O)[O-]
REMARK SMILES IDX 7 1 6 2 5 3 4 4 2 5 1 6 3 7 8 8 9 9 10 10 11 11 12 12 13 13
REMARK SMILES IDX 14 14
REMARK H PARENT
REMARK Flexibility Score: inf
ROOT
ATOM      1  C   UNL     1      57.908  -4.123  30.099  1.00  0.00     0.000 C 
ENDROOT
BRANCH   1   2
ATOM      2  C   UNL     1      56.514  -4.172  30.735  1.00  0.00     0.000 C 
BRANCH   2   3
ATOM      3  C   UNL     1      55.737  -2.879  30.461  1.00  0.00     0.006 C 
BRANCH   3   4
ATOM      4  C   UNL     1      55.655  -2.596  28.958  1.00  0.00     0.053 C 
BRANCH   4   5
ATOM      5  C   UNL     1      54.677  -1.497  28.685  1.00  0.00     0.041 C 
ATOM      6  O   UNL     1      54.893  -0.672  27.758  1.00  0.00    -0.550 OA
ATOM      7  O   UNL     1      53.551  -1.354  29.486  1.00  0.00    -0.550 OA
ENDBRANCH   4   5
ENDBRANCH   3   4
ENDBRANCH   2   3
ENDBRANCH   1   2
BRANCH   1   8
ATOM      8  C   UNL     1      58.915  -3.433  31.027  1.00  0.00     0.000 C 
BRANCH   8   9
ATOM      9  C   UNL     1      59.625  -2.278  30.310  1.00  0.00     0.000 C 
BRANCH   9  10
ATOM     10  C   UNL     1      58.970  -0.935  30.649  1.00  0.00     0.006 C 
BRANCH  10  11
ATOM     11  C   UNL     1      58.650  -0.143  29.378  1.00  0.00     0.053 C 
BRANCH  11  12
ATOM     12  C   UNL     1      57.467   0.746  29.598  1.00  0.00     0.041 C 
ATOM     13  O   UNL     1      56.742   0.595  30.616  1.00  0.00    -0.550 OA
ATOM     14  O   UNL     1      57.137   1.709  28.654  1.00  0.00    -0.550 OA
ENDBRANCH  11  12
ENDBRANCH  10  11
ENDBRANCH   9  10
ENDBRANCH   8   9
ENDBRANCH   1   8
TORSDOF 9
ENDMDL
MODEL 2
REMARK VINA RESULT:    -4.191      1.730      3.990
REMARK INTER + INTRA:          -7.443
REMARK INTER:                  -6.581
REMARK INTRA:                  -0.862
REMARK UNBOUND:                -1.048
REMARK SMILES O=C([O-])CCCCCCCCC(=O)[O-]
REMARK SMILES IDX 7 1 6 2 5 3 4 4 2 5 1 6 3 7 8 8 9 9 10 10 11 11 12 12 13 13
REMARK SMILES IDX 14 14
REMARK H PARENT
REMARK Flexibility Score: inf
ROOT
ATOM      1  C   UNL     1      60.107  -1.650  30.779  1.00  0.00     0.000 C 
ENDROOT
BRANCH   1   2
ATOM      2  C   UNL     1      59.370  -0.785  31.809  1.00  0.00     0.000 C 
BRANCH   2   3
ATOM      3  C   UNL     1      58.256   0.034  31.147  1.00  0.00     0.006 C 
BRANCH   3   4
ATOM      4  C   UNL     1      58.368  -0.020  29.620  1.00  0.00     0.053 C 
BRANCH   4   5
ATOM      5  C   UNL     1      57.119   0.502  28.985  1.00  0.00     0.041 C 
ATOM      6  O   UNL     1      57.008   1.727  28.717  1.00  0.00    -0.550 OA
ATOM      7  O   UNL     1      56.055  -0.356  28.734  1.00  0.00    -0.550 OA
ENDBRANCH   4   5
ENDBRANCH   3   4
ENDBRANCH   2   3
ENDBRANCH   1   2
BRANCH   1   8
ATOM      8  C   UNL     1      59.925  -3.142  31.081  1.00  0.00     0.000 C 
BRANCH   8   9
ATOM      9  C   UNL     1      59.222  -3.857  29.920  1.00  0.00     0.000 C 
BRANCH   9  10
ATOM     10  C   UNL     1      57.699  -3.733  30.040  1.00  0.00     0.006 C 
BRANCH  10  11
ATOM     11  C   UNL     1      57.244  -3.929  31.488  1.00  0.00     0.053 C 
BRANCH  11  12
ATOM     12  C   UNL     1      55.751  -3.975  31.567  1.00  0.00     0.041 C 
ATOM     13  O   UNL     1      55.160  -5.070  31.750  1.00  0.00    -0.550 OA
ATOM     14  O   UNL     1      55.010  -2.813  31.391  1.00  0.00    -0.550 OA
ENDBRANCH  11  12
ENDBRANCH  10  11
ENDBRANCH   9  10
ENDBRANCH   8   9
ENDBRANCH   1   8
TORSDOF 9
ENDMDL
MODEL 3
REMARK VINA RESULT:    -4.189      0.698      3.523
REMARK INTER + INTRA:          -7.440
REMARK INTER:                  -6.380
REMARK INTRA:                  -1.060
REMARK UNBOUND:                -1.048
REMARK SMILES O=C([O-])CCCCCCCCC(=O)[O-]
REMARK SMILES IDX 7 1 6 2 5 3 4 4 2 5 1 6 3 7 8 8 9 9 10 10 11 11 12 12 13 13
REMARK SMILES IDX 14 14
REMARK H PARENT
REMARK Flexibility Score: inf
ROOT
ATOM      1  C   UNL     1      59.033  -3.883  29.723  1.00  0.00     0.000 C 
ENDROOT
BRANCH   1   2
ATOM      2  C   UNL     1      59.906  -2.631  29.580  1.00  0.00     0.000 C 
BRANCH   2   3
ATOM      3  C   UNL     1      59.326  -1.458  30.379  1.00  0.00     0.006 C 
BRANCH   3   4
ATOM      4  C   UNL     1      58.673  -0.430  29.451  1.00  0.00     0.053 C 
BRANCH   4   5
ATOM      5  C   UNL     1      57.605   0.325  30.175  1.00  0.00     0.041 C 
ATOM      6  O   UNL     1      57.135   1.387  29.686  1.00  0.00    -0.550 OA
ATOM      7  O   UNL     1      57.161  -0.115  31.416  1.00  0.00    -0.550 OA
ENDBRANCH   4   5
ENDBRANCH   3   4
ENDBRANCH   2   3
ENDBRANCH   1   2
BRANCH   1   8
ATOM      8  C   UNL     1      58.105  -3.771  30.940  1.00  0.00     0.000 C 
BRANCH   8   9
ATOM      9  C   UNL     1      56.688  -4.249  30.598  1.00  0.00     0.000 C 
BRANCH   9  10
ATOM     10  C   UNL     1      55.747  -3.061  30.370  1.00  0.00     0.006 C 
BRANCH  10  11
ATOM     11  C   UNL     1      55.643  -2.721  28.881  1.00  0.00     0.053 C 
BRANCH  11  12
ATOM     12  C   UNL     1      54.765  -1.527  28.676  1.00  0.00     0.041 C 
ATOM     13  O   UNL     1      53.674  -1.429  29.295  1.00  0.00    -0.550 OA
ATOM     14  O   UNL     1      55.130  -0.545  27.764  1.00  0.00    -0.550 OA
ENDBRANCH  11  12
ENDBRANCH  10  11
ENDBRANCH   9  10
ENDBRANCH   8   9
ENDBRANCH   1   8
TORSDOF 9
ENDMDL
MODEL 4
REMARK VINA RESULT:    -4.096      1.519      3.995
REMARK INTER + INTRA:          -7.299
REMARK INTER:                  -6.291
REMARK INTRA:                  -1.008
REMARK UNBOUND:                -1.048
REMARK SMILES O=C([O-])CCCCCCCCC(=O)[O-]
REMARK SMILES IDX 7 1 6 2 5 3 4 4 2 5 1 6 3 7 8 8 9 9 10 10 11 11 12 12 13 13
REMARK SMILES IDX 14 14
REMARK H PARENT
REMARK Flexibility Score: inf
ROOT
ATOM      1  C   UNL     1      57.394  -3.903  30.666  1.00  0.00     0.000 C 
ENDROOT
BRANCH   1   2
ATOM      2  C   UNL     1      57.970  -3.378  31.986  1.00  0.00     0.000 C 
BRANCH   2   3
ATOM      3  C   UNL     1      58.734  -2.066  31.771  1.00  0.00     0.006 C 
BRANCH   3   4
ATOM      4  C   UNL     1      57.777  -0.871  31.732  1.00  0.00     0.053 C 
BRANCH   4   5
ATOM      5  C   UNL     1      57.894  -0.149  30.428  1.00  0.00     0.041 C 
ATOM      6  O   UNL     1      58.563  -0.648  29.484  1.00  0.00    -0.550 OA
ATOM      7  O   UNL     1      57.307   1.100  30.269  1.00  0.00    -0.550 OA
ENDBRANCH   4   5
ENDBRANCH   3   4
ENDBRANCH   2   3
ENDBRANCH   1   2
BRANCH   1   8
ATOM      8  C   UNL     1      56.034  -4.576  30.886  1.00  0.00     0.000 C 
BRANCH   8   9
ATOM      9  C   UNL     1      55.331  -4.006  32.125  1.00  0.00     0.000 C 
BRANCH   9  10
ATOM     10  C   UNL     1      54.088  -3.202  31.730  1.00  0.00     0.006 C 
BRANCH  10  11
ATOM     11  C   UNL     1      54.464  -1.779  31.307  1.00  0.00     0.053 C 
BRANCH  11  12
ATOM     12  C   UNL     1      54.155  -1.563  29.860  1.00  0.00     0.041 C 
ATOM     13  O   UNL     1      52.991  -1.249  29.500  1.00  0.00    -0.550 OA
ATOM     14  O   UNL     1      55.143  -1.756  28.902  1.00  0.00    -0.550 OA
ENDBRANCH  11  12
ENDBRANCH  10  11
ENDBRANCH   9  10
ENDBRANCH   8   9
ENDBRANCH   1   8
TORSDOF 9
ENDMDL
MODEL 5
REMARK VINA RESULT:    -4.094      2.167      3.974
REMARK INTER + INTRA:          -7.296
REMARK INTER:                  -6.179
REMARK INTRA:                  -1.116
REMARK UNBOUND:                -1.048
REMARK SMILES O=C([O-])CCCCCCCCC(=O)[O-]
REMARK SMILES IDX 7 1 6 2 5 3 4 4 2 5 1 6 3 7 8 8 9 9 10 10 11 11 12 12 13 13
REMARK SMILES IDX 14 14
REMARK H PARENT
REMARK Flexibility Score: inf
ROOT
ATOM      1  C   UNL     1      59.671  -1.131  30.132  1.00  0.00     0.000 C 
ENDROOT
BRANCH   1   2
ATOM      2  C   UNL     1      59.288  -1.612  31.536  1.00  0.00     0.000 C 
BRANCH   2   3
ATOM      3  C   UNL     1      59.022  -3.122  31.549  1.00  0.00     0.006 C 
BRANCH   3   4
ATOM      4  C   UNL     1      57.537  -3.416  31.785  1.00  0.00     0.053 C 
BRANCH   4   5
ATOM      5  C   UNL     1      56.914  -3.983  30.549  1.00  0.00     0.041 C 
ATOM      6  O   UNL     1      57.208  -3.515  29.418  1.00  0.00    -0.550 OA
ATOM      7  O   UNL     1      55.968  -4.996  30.650  1.00  0.00    -0.550 OA
ENDBRANCH   4   5
ENDBRANCH   3   4
ENDBRANCH   2   3
ENDBRANCH   1   2
BRANCH   1   8
ATOM      8  C   UNL     1      58.640  -0.132  29.591  1.00  0.00     0.000 C 
BRANCH   8   9
ATOM      9  C   UNL     1      57.567   0.176  30.643  1.00  0.00     0.000 C 
BRANCH   9  10
ATOM     10  C   UNL     1      56.186  -0.294  30.173  1.00  0.00     0.006 C 
BRANCH  10  11
ATOM     11  C   UNL     1      55.262  -0.560  31.365  1.00  0.00     0.053 C 
BRANCH  11  12
ATOM     12  C   UNL     1      54.149  -1.478  30.970  1.00  0.00     0.041 C 
ATOM     13  O   UNL     1      53.437  -1.217  29.966  1.00  0.00    -0.550 OA
ATOM     14  O   UNL     1      53.867  -2.600  31.740  1.00  0.00    -0.550 OA
ENDBRANCH  11  12
ENDBRANCH  10  11
ENDBRANCH   9  10
ENDBRANCH   8   9
ENDBRANCH   1   8
TORSDOF 9
ENDMDL
MODEL 6
REMARK VINA RESULT:    -4.013      2.153      3.999
REMARK INTER + INTRA:          -7.172
REMARK INTER:                  -6.315
REMARK INTRA:                  -0.857
REMARK UNBOUND:                -1.048
REMARK SMILES O=C([O-])CCCCCCCCC(=O)[O-]
REMARK SMILES IDX 7 1 6 2 5 3 4 4 2 5 1 6 3 7 8 8 9 9 10 10 11 11 12 12 13 13
REMARK SMILES IDX 14 14
REMARK H PARENT
REMARK Flexibility Score: inf
ROOT
ATOM      1  C   UNL     1      58.814  -0.436  29.615  1.00  0.00     0.000 C 
ENDROOT
BRANCH   1   2
ATOM      2  C   UNL     1      57.829   0.306  30.526  1.00  0.00     0.000 C 
BRANCH   2   3
ATOM      3  C   UNL     1      56.378  -0.015  30.148  1.00  0.00     0.006 C 
BRANCH   3   4
ATOM      4  C   UNL     1      55.612  -0.586  31.345  1.00  0.00     0.053 C 
BRANCH   4   5
ATOM      5  C   UNL     1      54.421  -1.363  30.882  1.00  0.00     0.041 C 
ATOM      6  O   UNL     1      54.018  -1.257  29.694  1.00  0.00    -0.550 OA
ATOM      7  O   UNL     1      53.725  -2.166  31.776  1.00  0.00    -0.550 OA
ENDBRANCH   4   5
ENDBRANCH   3   4
ENDBRANCH   2   3
ENDBRANCH   1   2
BRANCH   1   8
ATOM      8  C   UNL     1      59.741  -1.345  30.430  1.00  0.00     0.000 C 
BRANCH   8   9
ATOM      9  C   UNL     1      58.980  -2.024  31.576  1.00  0.00     0.000 C 
BRANCH   9  10
ATOM     10  C   UNL     1      58.590  -3.458  31.203  1.00  0.00     0.006 C 
BRANCH  10  11
ATOM     11  C   UNL     1      57.486  -3.985  32.125  1.00  0.00     0.053 C 
BRANCH  11  12
ATOM     12  C   UNL     1      56.306  -4.436  31.324  1.00  0.00     0.041 C 
ATOM     13  O   UNL     1      56.220  -4.146  30.103  1.00  0.00    -0.550 OA
ATOM     14  O   UNL     1      55.276  -5.137  31.939  1.00  0.00    -0.550 OA
ENDBRANCH  11  12
ENDBRANCH  10  11
ENDBRANCH   9  10
ENDBRANCH   8   9
ENDBRANCH   1   8
TORSDOF 9
ENDMDL
MODEL 7
REMARK VINA RESULT:    -3.977      1.857      2.391
REMARK INTER + INTRA:          -7.118
REMARK INTER:                  -6.392
REMARK INTRA:                  -0.725
REMARK UNBOUND:                -1.048
REMARK SMILES O=C([O-])CCCCCCCCC(=O)[O-]
REMARK SMILES IDX 7 1 6 2 5 3 4 4 2 5 1 6 3 7 8 8 9 9 10 10 11 11 12 12 13 13
REMARK SMILES IDX 14 14
REMARK H PARENT
REMARK Flexibility Score: inf
ROOT
ATOM      1  C   UNL     1      59.220  -3.847  29.781  1.00  0.00     0.000 C 
ENDROOT
BRANCH   1   2
ATOM      2  C   UNL     1      57.758  -4.168  30.111  1.00  0.00     0.000 C 
BRANCH   2   3
ATOM      3  C   UNL     1      57.460  -3.921  31.595  1.00  0.00     0.006 C 
BRANCH   3   4
ATOM      4  C   UNL     1      56.298  -2.938  31.766  1.00  0.00     0.053 C 
BRANCH   4   5
ATOM      5  C   UNL     1      54.998  -3.672  31.844  1.00  0.00     0.041 C 
ATOM      6  O   UNL     1      53.911  -3.036  31.878  1.00  0.00    -0.550 OA
ATOM      7  O   UNL     1      54.986  -5.059  31.928  1.00  0.00    -0.550 OA
ENDBRANCH   4   5
ENDBRANCH   3   4
ENDBRANCH   2   3
ENDBRANCH   1   2
BRANCH   1   8
ATOM      8  C   UNL     1      59.896  -3.102  30.938  1.00  0.00     0.000 C 
BRANCH   8   9
ATOM      9  C   UNL     1      60.249  -1.664  30.535  1.00  0.00     0.000 C 
BRANCH   9  10
ATOM     10  C   UNL     1      59.042  -0.734  30.705  1.00  0.00     0.006 C 
BRANCH  10  11
ATOM     11  C   UNL     1      58.657  -0.085  29.373  1.00  0.00     0.053 C 
BRANCH  11  12
ATOM     12  C   UNL     1      57.581   0.934  29.578  1.00  0.00     0.041 C 
ATOM     13  O   UNL     1      57.060   1.086  30.713  1.00  0.00    -0.550 OA
ATOM     14  O   UNL     1      57.120   1.683  28.502  1.00  0.00    -0.550 OA
ENDBRANCH  11  12
ENDBRANCH  10  11
ENDBRANCH   9  10
ENDBRANCH   8   9
ENDBRANCH   1   8
TORSDOF 9
ENDMDL
MODEL 8
REMARK VINA RESULT:    -3.795      2.533      3.304
REMARK INTER + INTRA:          -6.839
REMARK INTER:                  -6.379
REMARK INTRA:                  -0.460
REMARK UNBOUND:                -1.048
REMARK SMILES O=C([O-])CCCCCCCCC(=O)[O-]
REMARK SMILES IDX 7 1 6 2 5 3 4 4 2 5 1 6 3 7 8 8 9 9 10 10 11 11 12 12 13 13
REMARK SMILES IDX 14 14
REMARK H PARENT
REMARK Flexibility Score: inf
ROOT
ATOM      1  C   UNL     1      56.199  -4.304  31.032  1.00  0.00     0.000 C 
ENDROOT
BRANCH   1   2
ATOM      2  C   UNL     1      54.921  -4.312  31.880  1.00  0.00     0.000 C 
BRANCH   2   3
ATOM      3  C   UNL     1      54.192  -2.967  31.793  1.00  0.00     0.006 C 
BRANCH   3   4
ATOM      4  C   UNL     1      54.996  -1.958  30.966  1.00  0.00     0.053 C 
BRANCH   4   5
ATOM      5  C   UNL     1      54.225  -1.542  29.754  1.00  0.00     0.041 C 
ATOM      6  O   UNL     1      53.060  -1.077  29.872  1.00  0.00    -0.550 OA
ATOM      7  O   UNL     1      54.772  -1.714  28.489  1.00  0.00    -0.550 OA
ENDBRANCH   4   5
ENDBRANCH   3   4
ENDBRANCH   2   3
ENDBRANCH   1   2
BRANCH   1   8
ATOM      8  C   UNL     1      57.448  -4.224  31.918  1.00  0.00     0.000 C 
BRANCH   8   9
ATOM      9  C   UNL     1      58.538  -3.372  31.257  1.00  0.00     0.000 C 
BRANCH   9  10
ATOM     10  C   UNL     1      58.764  -3.800  29.803  1.00  0.00     0.006 C 
BRANCH  10  11
ATOM     11  C   UNL     1      60.258  -3.934  29.495  1.00  0.00     0.053 C 
BRANCH  11  12
ATOM     12  C   UNL     1      60.687  -2.891  28.513  1.00  0.00     0.041 C 
ATOM     13  O   UNL     1      61.451  -3.194  27.559  1.00  0.00    -0.550 OA
ATOM     14  O   UNL     1      60.282  -1.572  28.677  1.00  0.00    -0.550 OA
ENDBRANCH  11  12
ENDBRANCH  10  11
ENDBRANCH   9  10
ENDBRANCH   8   9
ENDBRANCH   1   8
TORSDOF 9
ENDMDL
MODEL 9
REMARK VINA RESULT:    -3.665      2.669      3.139
REMARK INTER + INTRA:          -6.641
REMARK INTER:                  -5.615
REMARK INTRA:                  -1.026
REMARK UNBOUND:                -1.048
REMARK SMILES O=C([O-])CCCCCCCCC(=O)[O-]
REMARK SMILES IDX 7 1 6 2 5 3 4 4 2 5 1 6 3 7 8 8 9 9 10 10 11 11 12 12 13 13
REMARK SMILES IDX 14 14
REMARK H PARENT
REMARK Flexibility Score: inf
ROOT
ATOM      1  C   UNL     1      58.200  -3.909  30.281  1.00  0.00     0.000 C 
ENDROOT
BRANCH   1   2
ATOM      2  C   UNL     1      56.733  -4.285  30.520  1.00  0.00     0.000 C 
BRANCH   2   3
ATOM      3  C   UNL     1      56.191  -3.616  31.788  1.00  0.00     0.006 C 
BRANCH   3   4
ATOM      4  C   UNL     1      54.977  -2.738  31.471  1.00  0.00     0.053 C 
BRANCH   4   5
ATOM      5  C   UNL     1      55.413  -1.445  30.858  1.00  0.00     0.041 C 
ATOM      6  O   UNL     1      55.899  -0.534  31.578  1.00  0.00    -0.550 OA
ATOM      7  O   UNL     1      55.236  -1.226  29.497  1.00  0.00    -0.550 OA
ENDBRANCH   4   5
ENDBRANCH   3   4
ENDBRANCH   2   3
ENDBRANCH   1   2
BRANCH   1   8
ATOM      8  C   UNL     1      58.780  -3.158  31.486  1.00  0.00     0.000 C 
BRANCH   8   9
ATOM      9  C   UNL     1      59.285  -1.769  31.078  1.00  0.00     0.000 C 
BRANCH   9  10
ATOM     10  C   UNL     1      58.962  -1.475  29.609  1.00  0.00     0.006 C 
BRANCH  10  11
ATOM     11  C   UNL     1      60.171  -0.871  28.891  1.00  0.00     0.053 C 
BRANCH  11  12
ATOM     12  C   UNL     1      61.172  -1.933  28.564  1.00  0.00     0.041 C 
ATOM     13  O   UNL     1      60.797  -3.024  28.060  1.00  0.00    -0.550 OA
ATOM     14  O   UNL     1      62.515  -1.737  28.860  1.00  0.00    -0.550 OA
ENDBRANCH  11  12
ENDBRANCH  10  11
ENDBRANCH   9  10
ENDBRANCH   8   9
ENDBRANCH   1   8
TORSDOF 9
ENDMDL
