MODEL 1
REMARK VINA RESULT:    -2.534      0.000      0.000
REMARK INTER + INTRA:          -4.173
REMARK INTER:                  -3.867
REMARK INTRA:                  -0.306
REMARK UNBOUND:                -0.306
REMARK SMILES O=C([O-])CCCCCCCCC(=O)[O-]
REMARK SMILES IDX 7 1 6 2 5 3 4 4 2 5 1 6 3 7 8 8 9 9 10 10 11 11 12 12 13 13
REMARK SMILES IDX 14 14
REMARK H PARENT
REMARK Flexibility Score: inf
ROOT
ATOM      1  C   UNL     1      22.190  54.914  31.415  1.00  0.00     0.000 C 
ENDROOT
BRANCH   1   2
ATOM      2  C   UNL     1      21.474  54.299  32.627  1.00  0.00     0.000 C 
BRANCH   2   3
ATOM      3  C   UNL     1      21.764  55.056  33.936  1.00  0.00     0.006 C 
BRANCH   3   4
ATOM      4  C   UNL     1      22.434  54.160  34.985  1.00  0.00     0.053 C 
BRANCH   4   5
ATOM      5  C   UNL     1      23.918  54.364  35.020  1.00  0.00     0.041 C 
ATOM      6  O   UNL     1      24.535  54.351  36.118  1.00  0.00    -0.550 OA
ATOM      7  O   UNL     1      24.615  54.603  33.842  1.00  0.00    -0.550 OA
ENDBRANCH   4   5
ENDBRANCH   3   4
ENDBRANCH   2   3
ENDBRANCH   1   2
BRANCH   1   8
ATOM      8  C   UNL     1      21.247  55.125  30.217  1.00  0.00     0.000 C 
BRANCH   8   9
ATOM      9  C   UNL     1      21.964  54.998  28.860  1.00  0.00     0.000 C 
BRANCH   9  10
ATOM     10  C   UNL     1      23.028  53.883  28.783  1.00  0.00     0.006 C 
BRANCH  10  11
ATOM     11  C   UNL     1      23.646  53.685  27.389  1.00  0.00     0.053 C 
BRANCH  11  12
ATOM     12  C   UNL     1      23.850  52.237  27.067  1.00  0.00     0.041 C 
ATOM     13  O   UNL     1      23.534  51.351  27.904  1.00  0.00    -0.550 OA
ATOM     14  O   UNL     1      24.421  51.867  25.856  1.00  0.00    -0.550 OA
ENDBRANCH  11  12
ENDBRANCH  10  11
ENDBRANCH   9  10
ENDBRANCH   8   9
ENDBRANCH   1   8
TORSDOF 9
ENDMDL
MODEL 2
REMARK VINA RESULT:    -2.520      0.922      6.646
REMARK INTER + INTRA:          -4.151
REMARK INTER:                  -3.763
REMARK INTRA:                  -0.388
REMARK UNBOUND:                -0.306
REMARK SMILES O=C([O-])CCCCCCCCC(=O)[O-]
REMARK SMILES IDX 7 1 6 2 5 3 4 4 2 5 1 6 3 7 8 8 9 9 10 10 11 11 12 12 13 13
REMARK SMILES IDX 14 14
REMARK H PARENT
REMARK Flexibility Score: inf
ROOT
ATOM      1  C   UNL     1      22.331  55.125  31.171  1.00  0.00     0.000 C 
ENDROOT
BRANCH   1   2
ATOM      2  C   UNL     1      22.128  54.755  29.693  1.00  0.00     0.000 C 
BRANCH   2   3
ATOM      3  C   UNL     1      23.237  53.831  29.155  1.00  0.00     0.006 C 
BRANCH   3   4
ATOM      4  C   UNL     1      22.670  52.677  28.317  1.00  0.00     0.053 C 
BRANCH   4   5
ATOM      5  C   UNL     1      23.688  52.140  27.357  1.00  0.00     0.041 C 
ATOM      6  O   UNL     1      24.101  50.955  27.468  1.00  0.00    -0.550 OA
ATOM      7  O   UNL     1      24.203  52.958  26.360  1.00  0.00    -0.550 OA
ENDBRANCH   4   5
ENDBRANCH   3   4
ENDBRANCH   2   3
ENDBRANCH   1   2
BRANCH   1   8
ATOM      8  C   UNL     1      21.509  54.234  32.119  1.00  0.00     0.000 C 
BRANCH   8   9
ATOM      9  C   UNL     1      21.458  54.778  33.559  1.00  0.00     0.000 C 
BRANCH   9  10
ATOM     10  C   UNL     1      22.465  54.137  34.538  1.00  0.00     0.006 C 
BRANCH  10  11
ATOM     11  C   UNL     1      23.456  55.125  35.173  1.00  0.00     0.053 C 
BRANCH  11  12
ATOM     12  C   UNL     1      24.835  54.977  34.609  1.00  0.00     0.041 C 
ATOM     13  O   UNL     1      25.841  55.091  35.358  1.00  0.00    -0.550 OA
ATOM     14  O   UNL     1      25.011  54.749  33.250  1.00  0.00    -0.550 OA
ENDBRANCH  11  12
ENDBRANCH  10  11
ENDBRANCH   9  10
ENDBRANCH   8   9
ENDBRANCH   1   8
TORSDOF 9
ENDMDL
MODEL 3
REMARK VINA RESULT:    -2.302      1.657      6.834
REMARK INTER + INTRA:          -3.819
REMARK INTER:                  -3.462
REMARK INTRA:                  -0.357
REMARK UNBOUND:                -0.306
REMARK SMILES O=C([O-])CCCCCCCCC(=O)[O-]
REMARK SMILES IDX 7 1 6 2 5 3 4 4 2 5 1 6 3 7 8 8 9 9 10 10 11 11 12 12 13 13
REMARK SMILES IDX 14 14
REMARK H PARENT
REMARK Flexibility Score: inf
ROOT
ATOM      1  C   UNL     1      23.703  54.364  30.623  1.00  0.00     0.000 C 
ENDROOT
BRANCH   1   2
ATOM      2  C   UNL     1      22.388  54.585  29.860  1.00  0.00     0.000 C 
BRANCH   2   3
ATOM      3  C   UNL     1      22.295  53.737  28.578  1.00  0.00     0.006 C 
BRANCH   3   4
ATOM      4  C   UNL     1      23.623  53.700  27.812  1.00  0.00     0.053 C 
BRANCH   4   5
ATOM      5  C   UNL     1      23.838  52.379  27.140  1.00  0.00     0.041 C 
ATOM      6  O   UNL     1      24.225  52.331  25.942  1.00  0.00    -0.550 OA
ATOM      7  O   UNL     1      23.580  51.199  27.827  1.00  0.00    -0.550 OA
ENDBRANCH   4   5
ENDBRANCH   3   4
ENDBRANCH   2   3
ENDBRANCH   1   2
BRANCH   1   8
ATOM      8  C   UNL     1      23.726  55.088  31.980  1.00  0.00     0.000 C 
BRANCH   8   9
ATOM      9  C   UNL     1      24.642  54.402  33.011  1.00  0.00     0.000 C 
BRANCH   9  10
ATOM     10  C   UNL     1      24.206  54.558  34.483  1.00  0.00     0.006 C 
BRANCH  10  11
ATOM     11  C   UNL     1      22.790  55.123  34.674  1.00  0.00     0.053 C 
BRANCH  11  12
ATOM     12  C   UNL     1      21.757  54.041  34.732  1.00  0.00     0.041 C 
ATOM     13  O   UNL     1      21.499  53.471  35.825  1.00  0.00    -0.550 OA
ATOM     14  O   UNL     1      21.104  53.638  33.575  1.00  0.00    -0.550 OA
ENDBRANCH  11  12
ENDBRANCH  10  11
ENDBRANCH   9  10
ENDBRANCH   8   9
ENDBRANCH   1   8
TORSDOF 9
ENDMDL
MODEL 4
REMARK VINA RESULT:    -2.275      1.890      2.418
REMARK INTER + INTRA:          -3.778
REMARK INTER:                  -3.242
REMARK INTRA:                  -0.536
REMARK UNBOUND:                -0.306
REMARK SMILES O=C([O-])CCCCCCCCC(=O)[O-]
REMARK SMILES IDX 7 1 6 2 5 3 4 4 2 5 1 6 3 7 8 8 9 9 10 10 11 11 12 12 13 13
REMARK SMILES IDX 14 14
REMARK H PARENT
REMARK Flexibility Score: inf
ROOT
ATOM      1  C   UNL     1      24.549  54.110  32.521  1.00  0.00     0.000 C 
ENDROOT
BRANCH   1   2
ATOM      2  C   UNL     1      24.500  55.125  33.674  1.00  0.00     0.000 C 
BRANCH   2   3
ATOM      3  C   UNL     1      23.875  54.540  34.954  1.00  0.00     0.006 C 
BRANCH   3   4
ATOM      4  C   UNL     1      22.450  55.057  35.188  1.00  0.00     0.053 C 
BRANCH   4   5
ATOM      5  C   UNL     1      21.428  53.986  34.955  1.00  0.00     0.041 C 
ATOM      6  O   UNL     1      20.954  53.339  35.925  1.00  0.00    -0.550 OA
ATOM      7  O   UNL     1      21.024  53.681  33.661  1.00  0.00    -0.550 OA
ENDBRANCH   4   5
ENDBRANCH   3   4
ENDBRANCH   2   3
ENDBRANCH   1   2
BRANCH   1   8
ATOM      8  C   UNL     1      24.231  54.750  31.158  1.00  0.00     0.000 C 
BRANCH   8   9
ATOM      9  C   UNL     1      22.734  54.696  30.805  1.00  0.00     0.000 C 
BRANCH   9  10
ATOM     10  C   UNL     1      22.417  54.301  29.347  1.00  0.00     0.006 C 
BRANCH  10  11
ATOM     11  C   UNL     1      23.581  53.632  28.598  1.00  0.00     0.053 C 
BRANCH  11  12
ATOM     12  C   UNL     1      23.180  52.323  27.993  1.00  0.00     0.041 C 
ATOM     13  O   UNL     1      22.014  51.878  28.163  1.00  0.00    -0.550 OA
ATOM     14  O   UNL     1      24.103  51.577  27.271  1.00  0.00    -0.550 OA
ENDBRANCH  11  12
ENDBRANCH  10  11
ENDBRANCH   9  10
ENDBRANCH   8   9
ENDBRANCH   1   8
TORSDOF 9
ENDMDL
MODEL 5
REMARK VINA RESULT:    -2.103      1.177      7.010
REMARK INTER + INTRA:          -3.515
REMARK INTER:                  -3.271
REMARK INTRA:                  -0.244
REMARK UNBOUND:                -0.306
REMARK SMILES O=C([O-])CCCCCCCCC(=O)[O-]
REMARK SMILES IDX 7 1 6 2 5 3 4 4 2 5 1 6 3 7 8 8 9 9 10 10 11 11 12 12 13 13
REMARK SMILES IDX 14 14
REMARK H PARENT
REMARK Flexibility Score: inf
ROOT
ATOM      1  C   UNL     1      22.004  55.124  29.716  1.00  0.00     0.000 C 
ENDROOT
BRANCH   1   2
ATOM      2  C   UNL     1      21.834  53.788  28.976  1.00  0.00     0.000 C 
BRANCH   2   3
ATOM      3  C   UNL     1      23.175  53.076  28.720  1.00  0.00     0.006 C 
BRANCH   3   4
ATOM      4  C   UNL     1      23.693  53.314  27.296  1.00  0.00     0.053 C 
BRANCH   4   5
ATOM      5  C   UNL     1      24.081  52.031  26.627  1.00  0.00     0.041 C 
ATOM      6  O   UNL     1      24.024  50.943  27.259  1.00  0.00    -0.550 OA
ATOM      7  O   UNL     1      24.538  52.042  25.315  1.00  0.00    -0.550 OA
ENDBRANCH   4   5
ENDBRANCH   3   4
ENDBRANCH   2   3
ENDBRANCH   1   2
BRANCH   1   8
ATOM      8  C   UNL     1      22.196  54.938  31.232  1.00  0.00     0.000 C 
BRANCH   8   9
ATOM      9  C   UNL     1      23.674  54.778  31.633  1.00  0.00     0.000 C 
BRANCH   9  10
ATOM     10  C   UNL     1      23.939  54.724  33.153  1.00  0.00     0.006 C 
BRANCH  10  11
ATOM     11  C   UNL     1      22.672  54.721  34.023  1.00  0.00     0.053 C 
BRANCH  11  12
ATOM     12  C   UNL     1      22.903  54.062  35.347  1.00  0.00     0.041 C 
ATOM     13  O   UNL     1      22.011  53.332  35.855  1.00  0.00    -0.550 OA
ATOM     14  O   UNL     1      24.089  54.280  36.037  1.00  0.00    -0.550 OA
ENDBRANCH  11  12
ENDBRANCH  10  11
ENDBRANCH   9  10
ENDBRANCH   8   9
ENDBRANCH   1   8
TORSDOF 9
ENDMDL
MODEL 6
REMARK VINA RESULT:    -0.084      1.502      2.473
REMARK INTER + INTRA:          -0.434
REMARK INTER:                  -1.237
REMARK INTRA:                   0.804
REMARK UNBOUND:                -0.306
REMARK SMILES O=C([O-])CCCCCCCCC(=O)[O-]
REMARK SMILES IDX 7 1 6 2 5 3 4 4 2 5 1 6 3 7 8 8 9 9 10 10 11 11 12 12 13 13
REMARK SMILES IDX 14 14
REMARK H PARENT
REMARK Flexibility Score: inf
ROOT
ATOM      1  C   UNL     1      22.772  53.806  29.557  1.00  0.00     0.000 C 
ENDROOT
BRANCH   1   2
ATOM      2  C   UNL     1      21.622  54.527  30.279  1.00  0.00     0.000 C 
BRANCH   2   3
ATOM      3  C   UNL     1      22.031  55.057  31.665  1.00  0.00     0.006 C 
BRANCH   3   4
ATOM      4  C   UNL     1      23.443  54.607  32.062  1.00  0.00     0.053 C 
BRANCH   4   5
ATOM      5  C   UNL     1      23.583  54.473  33.548  1.00  0.00     0.041 C 
ATOM      6  O   UNL     1      24.706  54.220  34.059  1.00  0.00    -0.550 OA
ATOM      7  O   UNL     1      22.467  54.596  34.365  1.00  0.00    -0.550 OA
ENDBRANCH   4   5
ENDBRANCH   3   4
ENDBRANCH   2   3
ENDBRANCH   1   2
BRANCH   1   8
ATOM      8  C   UNL     1      23.100  54.438  28.193  1.00  0.00     0.000 C 
BRANCH   8   9
ATOM      9  C   UNL     1      23.570  53.406  27.152  1.00  0.00     0.000 C 
BRANCH   9  10
ATOM     10  C   UNL     1      23.424  51.930  27.578  1.00  0.00     0.006 C 
BRANCH  10  11
ATOM     11  C   UNL     1      24.448  50.977  26.942  1.00  0.00     0.053 C 
BRANCH  11  12
ATOM     12  C   UNL     1      25.020  51.531  25.675  1.00  0.00     0.041 C 
ATOM     13  O   UNL     1      26.063  51.029  25.178  1.00  0.00    -0.550 OA
ATOM     14  O   UNL     1      24.423  52.625  25.061  1.00  0.00    -0.550 OA
ENDBRANCH  11  12
ENDBRANCH  10  11
ENDBRANCH   9  10
ENDBRANCH   8   9
ENDBRANCH   1   8
TORSDOF 9
ENDMDL
MODEL 7
REMARK VINA RESULT:     0.161     15.551     18.683
REMARK INTER + INTRA:          -0.060
REMARK INTER:                   0.167
REMARK INTRA:                  -0.227
REMARK UNBOUND:                -0.306
REMARK SMILES O=C([O-])CCCCCCCCC(=O)[O-]
REMARK SMILES IDX 7 1 6 2 5 3 4 4 2 5 1 6 3 7 8 8 9 9 10 10 11 11 12 12 13 13
REMARK SMILES IDX 14 14
REMARK H PARENT
REMARK Flexibility Score: inf
ROOT
ATOM      1  C   UNL     1      36.939  45.881  24.615  1.00  0.00     0.000 C 
ENDROOT
BRANCH   1   2
ATOM      2  C   UNL     1      35.910  46.859  24.026  1.00  0.00     0.000 C 
BRANCH   2   3
ATOM      3  C   UNL     1      34.676  47.038  24.931  1.00  0.00     0.006 C 
BRANCH   3   4
ATOM      4  C   UNL     1      33.880  45.737  25.084  1.00  0.00     0.053 C 
BRANCH   4   5
ATOM      5  C   UNL     1      32.863  45.579  23.995  1.00  0.00     0.041 C 
ATOM      6  O   UNL     1      31.639  45.490  24.277  1.00  0.00    -0.550 OA
ATOM      7  O   UNL     1      33.271  45.497  22.670  1.00  0.00    -0.550 OA
ENDBRANCH   4   5
ENDBRANCH   3   4
ENDBRANCH   2   3
ENDBRANCH   1   2
BRANCH   1   8
ATOM      8  C   UNL     1      38.259  45.868  23.823  1.00  0.00     0.000 C 
BRANCH   8   9
ATOM      9  C   UNL     1      39.336  44.977  24.468  1.00  0.00     0.000 C 
BRANCH   9  10
ATOM     10  C   UNL     1      40.646  44.843  23.663  1.00  0.00     0.006 C 
BRANCH  10  11
ATOM     11  C   UNL     1      40.942  46.022  22.723  1.00  0.00     0.053 C 
BRANCH  11  12
ATOM     12  C   UNL     1      41.078  45.583  21.298  1.00  0.00     0.041 C 
ATOM     13  O   UNL     1      41.119  46.438  20.373  1.00  0.00    -0.550 OA
ATOM     14  O   UNL     1      41.125  44.230  20.987  1.00  0.00    -0.550 OA
ENDBRANCH  11  12
ENDBRANCH  10  11
ENDBRANCH   9  10
ENDBRANCH   8   9
ENDBRANCH   1   8
TORSDOF 9
ENDMDL
MODEL 8
REMARK VINA RESULT:     0.165     15.330     18.716
REMARK INTER + INTRA:          -0.054
REMARK INTER:                   0.423
REMARK INTRA:                  -0.476
REMARK UNBOUND:                -0.306
REMARK SMILES O=C([O-])CCCCCCCCC(=O)[O-]
REMARK SMILES IDX 7 1 6 2 5 3 4 4 2 5 1 6 3 7 8 8 9 9 10 10 11 11 12 12 13 13
REMARK SMILES IDX 14 14
REMARK H PARENT
REMARK Flexibility Score: inf
ROOT
ATOM      1  C   UNL     1      37.414  45.753  24.638  1.00  0.00     0.000 C 
ENDROOT
BRANCH   1   2
ATOM      2  C   UNL     1      38.930  45.757  24.888  1.00  0.00     0.000 C 
BRANCH   2   3
ATOM      3  C   UNL     1      39.668  44.672  24.081  1.00  0.00     0.006 C 
BRANCH   3   4
ATOM      4  C   UNL     1      41.046  45.145  23.603  1.00  0.00     0.053 C 
BRANCH   4   5
ATOM      5  C   UNL     1      41.009  45.609  22.178  1.00  0.00     0.041 C 
ATOM      6  O   UNL     1      41.125  44.780  21.238  1.00  0.00    -0.550 OA
ATOM      7  O   UNL     1      40.878  46.962  21.891  1.00  0.00    -0.550 OA
ENDBRANCH   4   5
ENDBRANCH   3   4
ENDBRANCH   2   3
ENDBRANCH   1   2
BRANCH   1   8
ATOM      8  C   UNL     1      37.023  46.533  23.371  1.00  0.00     0.000 C 
BRANCH   8   9
ATOM      9  C   UNL     1      35.617  47.156  23.460  1.00  0.00     0.000 C 
BRANCH   9  10
ATOM     10  C   UNL     1      34.468  46.257  22.956  1.00  0.00     0.006 C 
BRANCH  10  11
ATOM     11  C   UNL     1      33.281  46.135  23.923  1.00  0.00     0.053 C 
BRANCH  11  12
ATOM     12  C   UNL     1      33.725  46.063  25.351  1.00  0.00     0.041 C 
ATOM     13  O   UNL     1      34.183  44.987  25.819  1.00  0.00    -0.550 OA
ATOM     14  O   UNL     1      33.602  47.174  26.176  1.00  0.00    -0.550 OA
ENDBRANCH  11  12
ENDBRANCH  10  11
ENDBRANCH   9  10
ENDBRANCH   8   9
ENDBRANCH   1   8
TORSDOF 9
ENDMDL
