MODEL 1
REMARK VINA RESULT:    -8.033      0.000      0.000
REMARK INTER + INTRA:         -10.937
REMARK INTER:                 -10.147
REMARK INTRA:                  -0.790
REMARK UNBOUND:                -0.790
REMARK SMILES CC(C)[C@@H](C)C=C[C@@H](C)[C@H]1CC[C@@H]2C3=CC=C4C[C@H](O)CC[C@@]4(C)[C@@H]3CC[C@@]21C
REMARK SMILES IDX 8 1 9 2 7 3 6 4 4 5 5 6 2 7 1 8 3 9 10 10 11 11 28 12 12 13
REMARK SMILES IDX 13 14 27 15 29 16 14 17 26 18 25 19 15 20 23 21 16 22 17 23
REMARK SMILES IDX 22 24 24 25 18 26 21 27 19 28 20 29
REMARK H PARENT 20 30
REMARK Flexibility Score: inf
ROOT
ATOM      1  C   UNL     1     118.714 128.277 130.872  1.00  0.00     0.012 C 
ATOM      2  C   UNL     1     117.496 128.877 131.586  1.00  0.00     0.012 C 
ENDROOT
BRANCH   1   3
ATOM      3  C   UNL     1     119.386 129.369 130.065  1.00  0.00    -0.028 C 
ATOM      4  C   UNL     1     119.427 130.642 130.495  1.00  0.00    -0.028 C 
BRANCH   4   5
ATOM      5  C   UNL     1     120.129 131.718 129.693  1.00  0.00     0.011 C 
ATOM      6  C   UNL     1     121.654 131.540 129.802  1.00  0.00     0.012 C 
BRANCH   5   7
ATOM      7  C   UNL     1     119.641 133.142 130.105  1.00  0.00    -0.011 C 
ATOM      8  C   UNL     1     118.372 133.551 129.339  1.00  0.00     0.008 C 
ATOM      9  C   UNL     1     120.724 134.223 129.976  1.00  0.00     0.008 C 
ENDBRANCH   5   7
ENDBRANCH   4   5
ENDBRANCH   1   3
BRANCH   1  10
ATOM     10  C   UNL     1     118.318 127.005 130.048  1.00  0.00     0.002 C 
ATOM     11  C   UNL     1     118.780 126.986 128.590  1.00  0.00     0.005 C 
ATOM     12  C   UNL     1     118.689 125.597 130.634  1.00  0.00    -0.023 C 
ATOM     13  C   UNL     1     118.550 125.556 128.154  1.00  0.00     0.009 C 
ATOM     14  C   UNL     1     118.923 124.699 129.364  1.00  0.00     0.021 C 
ATOM     15  C   UNL     1     117.544 125.087 131.561  1.00  0.00     0.008 C 
ATOM     16  C   UNL     1     119.996 125.621 131.467  1.00  0.00     0.012 C 
ATOM     17  C   UNL     1     118.191 123.365 129.312  1.00  0.00    -0.063 C 
ATOM     18  C   UNL     1     116.432 124.372 130.792  1.00  0.00     0.009 C 
ATOM     19  C   UNL     1     116.986 123.065 130.187  1.00  0.00     0.025 C 
ATOM     20  C   UNL     1     118.627 122.419 128.469  1.00  0.00    -0.000 C 
ATOM     21  C   UNL     1     115.918 122.181 129.433  1.00  0.00    -0.005 C 
ATOM     22  C   UNL     1     117.895 121.157 128.297  1.00  0.00    -0.000 C 
ATOM     23  C   UNL     1     116.646 120.997 128.767  1.00  0.00    -0.061 C 
ATOM     24  C   UNL     1     114.814 121.697 130.454  1.00  0.00     0.014 C 
ATOM     25  C   UNL     1     115.252 123.001 128.297  1.00  0.00     0.017 C 
ATOM     26  C   UNL     1     115.979 119.657 128.524  1.00  0.00     0.063 C 
ATOM     27  C   UNL     1     114.568 120.181 130.515  1.00  0.00     0.033 C 
ATOM     28  C   UNL     1     114.578 119.544 129.127  1.00  0.00     0.118 C 
BRANCH  28  29
ATOM     29  O   UNL     1     113.641 120.154 128.283  1.00  0.00    -0.393 OA
ATOM     30  H   UNL     1     114.150 120.749 127.671  1.00  0.00     0.210 HD
ENDBRANCH  28  29
ENDBRANCH   1  10
TORSDOF 5
ENDMDL
MODEL 2
REMARK VINA RESULT:    -7.708      1.547      2.649
REMARK INTER + INTRA:         -10.525
REMARK INTER:                  -9.694
REMARK INTRA:                  -0.831
REMARK UNBOUND:                -0.790
REMARK SMILES CC(C)[C@@H](C)C=C[C@@H](C)[C@H]1CC[C@@H]2C3=CC=C4C[C@H](O)CC[C@@]4(C)[C@@H]3CC[C@@]21C
REMARK SMILES IDX 8 1 9 2 7 3 6 4 4 5 5 6 2 7 1 8 3 9 10 10 11 11 28 12 12 13
REMARK SMILES IDX 13 14 27 15 29 16 14 17 26 18 25 19 15 20 23 21 16 22 17 23
REMARK SMILES IDX 22 24 24 25 18 26 21 27 19 28 20 29
REMARK H PARENT 20 30
REMARK Flexibility Score: inf
ROOT
ATOM      1  C   UNL     1     119.664 128.332 130.177  1.00  0.00     0.012 C 
ATOM      2  C   UNL     1     120.864 127.701 130.892  1.00  0.00     0.012 C 
ENDROOT
BRANCH   1   3
ATOM      3  C   UNL     1     119.492 129.751 130.682  1.00  0.00    -0.028 C 
ATOM      4  C   UNL     1     119.988 130.804 130.009  1.00  0.00    -0.028 C 
BRANCH   4   5
ATOM      5  C   UNL     1     119.782 132.219 130.508  1.00  0.00     0.011 C 
ATOM      6  C   UNL     1     118.721 132.928 129.650  1.00  0.00     0.012 C 
BRANCH   5   7
ATOM      7  C   UNL     1     121.135 132.995 130.587  1.00  0.00    -0.011 C 
ATOM      8  C   UNL     1     120.983 134.451 130.119  1.00  0.00     0.008 C 
ATOM      9  C   UNL     1     122.283 132.302 129.839  1.00  0.00     0.008 C 
ENDBRANCH   5   7
ENDBRANCH   4   5
ENDBRANCH   1   3
BRANCH   1  10
ATOM     10  C   UNL     1     118.387 127.433 130.309  1.00  0.00     0.002 C 
ATOM     11  C   UNL     1     117.064 128.179 130.487  1.00  0.00     0.005 C 
ATOM     12  C   UNL     1     118.125 126.351 129.203  1.00  0.00    -0.023 C 
ATOM     13  C   UNL     1     116.013 127.112 130.267  1.00  0.00     0.009 C 
ATOM     14  C   UNL     1     116.558 126.234 129.140  1.00  0.00     0.021 C 
ATOM     15  C   UNL     1     118.839 125.018 129.581  1.00  0.00     0.008 C 
ATOM     16  C   UNL     1     118.642 126.783 127.807  1.00  0.00     0.012 C 
ATOM     17  C   UNL     1     115.961 124.837 129.224  1.00  0.00    -0.063 C 
ATOM     18  C   UNL     1     118.000 124.139 130.511  1.00  0.00     0.009 C 
ATOM     19  C   UNL     1     116.745 123.650 129.759  1.00  0.00     0.025 C 
ATOM     20  C   UNL     1     114.702 124.643 128.809  1.00  0.00    -0.000 C 
ATOM     21  C   UNL     1     115.827 122.660 130.577  1.00  0.00    -0.005 C 
ATOM     22  C   UNL     1     114.039 123.342 128.969  1.00  0.00    -0.000 C 
ATOM     23  C   UNL     1     114.555 122.380 129.754  1.00  0.00    -0.061 C 
ATOM     24  C   UNL     1     116.628 121.336 130.896  1.00  0.00     0.014 C 
ATOM     25  C   UNL     1     115.373 123.326 131.903  1.00  0.00     0.017 C 
ATOM     26  C   UNL     1     113.782 121.079 129.856  1.00  0.00     0.063 C 
ATOM     27  C   UNL     1     115.960 120.022 130.461  1.00  0.00     0.033 C 
ATOM     28  C   UNL     1     114.458 120.025 130.735  1.00  0.00     0.118 C 
BRANCH  28  29
ATOM     29  O   UNL     1     114.190 120.281 132.086  1.00  0.00    -0.393 OA
ATOM     30  H   UNL     1     113.203 120.252 132.194  1.00  0.00     0.210 HD
ENDBRANCH  28  29
ENDBRANCH   1  10
TORSDOF 5
ENDMDL
MODEL 3
REMARK VINA RESULT:    -7.386      2.808      9.298
REMARK INTER + INTRA:         -10.119
REMARK INTER:                  -9.346
REMARK INTRA:                  -0.774
REMARK UNBOUND:                -0.790
REMARK SMILES CC(C)[C@@H](C)C=C[C@@H](C)[C@H]1CC[C@@H]2C3=CC=C4C[C@H](O)CC[C@@]4(C)[C@@H]3CC[C@@]21C
REMARK SMILES IDX 8 1 9 2 7 3 6 4 4 5 5 6 2 7 1 8 3 9 10 10 11 11 28 12 12 13
REMARK SMILES IDX 13 14 27 15 29 16 14 17 26 18 25 19 15 20 23 21 16 22 17 23
REMARK SMILES IDX 22 24 24 25 18 26 21 27 19 28 20 29
REMARK H PARENT 20 30
REMARK Flexibility Score: inf
ROOT
ATOM      1  C   UNL     1     115.094 120.646 129.912  1.00  0.00     0.012 C 
ATOM      2  C   UNL     1     114.811 120.395 131.398  1.00  0.00     0.012 C 
ENDROOT
BRANCH   1   3
ATOM      3  C   UNL     1     115.402 119.319 129.248  1.00  0.00    -0.028 C 
ATOM      4  C   UNL     1     115.515 119.207 127.913  1.00  0.00    -0.028 C 
BRANCH   4   5
ATOM      5  C   UNL     1     115.855 117.881 127.265  1.00  0.00     0.011 C 
ATOM      6  C   UNL     1     116.007 116.795 128.344  1.00  0.00     0.012 C 
BRANCH   5   7
ATOM      7  C   UNL     1     117.101 118.008 126.334  1.00  0.00    -0.011 C 
ATOM      8  C   UNL     1     117.405 116.687 125.608  1.00  0.00     0.008 C 
ATOM      9  C   UNL     1     118.353 118.532 127.052  1.00  0.00     0.008 C 
ENDBRANCH   5   7
ENDBRANCH   4   5
ENDBRANCH   1   3
BRANCH   1  10
ATOM     10  C   UNL     1     116.196 121.744 129.722  1.00  0.00     0.002 C 
ATOM     11  C   UNL     1     117.463 121.294 128.993  1.00  0.00     0.005 C 
ATOM     12  C   UNL     1     115.780 123.105 129.061  1.00  0.00    -0.023 C 
ATOM     13  C   UNL     1     118.180 122.589 128.677  1.00  0.00     0.009 C 
ATOM     14  C   UNL     1     117.077 123.582 128.311  1.00  0.00     0.021 C 
ATOM     15  C   UNL     1     115.285 124.099 130.154  1.00  0.00     0.008 C 
ATOM     16  C   UNL     1     114.642 122.943 128.020  1.00  0.00     0.012 C 
ATOM     17  C   UNL     1     117.544 125.008 128.569  1.00  0.00    -0.063 C 
ATOM     18  C   UNL     1     116.428 124.873 130.813  1.00  0.00     0.009 C 
ATOM     19  C   UNL     1     117.079 125.809 129.773  1.00  0.00     0.025 C 
ATOM     20  C   UNL     1     118.392 125.580 127.702  1.00  0.00    -0.000 C 
ATOM     21  C   UNL     1     118.225 126.734 130.342  1.00  0.00    -0.005 C 
ATOM     22  C   UNL     1     118.960 126.910 127.959  1.00  0.00    -0.000 C 
ATOM     23  C   UNL     1     118.867 127.495 129.165  1.00  0.00    -0.061 C 
ATOM     24  C   UNL     1     117.626 127.716 131.425  1.00  0.00     0.014 C 
ATOM     25  C   UNL     1     119.340 125.868 130.985  1.00  0.00     0.017 C 
ATOM     26  C   UNL     1     119.499 128.865 129.323  1.00  0.00     0.063 C 
ATOM     27  C   UNL     1     117.888 129.213 131.198  1.00  0.00     0.033 C 
ATOM     28  C   UNL     1     119.313 129.476 130.712  1.00  0.00     0.118 C 
BRANCH  28  29
ATOM     29  O   UNL     1     120.256 128.947 131.602  1.00  0.00    -0.393 OA
ATOM     30  H   UNL     1     120.464 128.028 131.287  1.00  0.00     0.210 HD
ENDBRANCH  28  29
ENDBRANCH   1  10
TORSDOF 5
ENDMDL
MODEL 4
REMARK VINA RESULT:    -7.270      3.078      8.700
REMARK INTER + INTRA:          -9.973
REMARK INTER:                 -10.086
REMARK INTRA:                   0.113
REMARK UNBOUND:                -0.790
REMARK SMILES CC(C)[C@@H](C)C=C[C@@H](C)[C@H]1CC[C@@H]2C3=CC=C4C[C@H](O)CC[C@@]4(C)[C@@H]3CC[C@@]21C
REMARK SMILES IDX 8 1 9 2 7 3 6 4 4 5 5 6 2 7 1 8 3 9 10 10 11 11 28 12 12 13
REMARK SMILES IDX 13 14 27 15 29 16 14 17 26 18 25 19 15 20 23 21 16 22 17 23
REMARK SMILES IDX 22 24 24 25 18 26 21 27 19 28 20 29
REMARK H PARENT 20 30
REMARK Flexibility Score: inf
ROOT
ATOM      1  C   UNL     1     114.666 121.219 130.467  1.00  0.00     0.012 C 
ATOM      2  C   UNL     1     113.353 122.011 130.484  1.00  0.00     0.012 C 
ENDROOT
BRANCH   1   3
ATOM      3  C   UNL     1     114.784 120.452 131.768  1.00  0.00    -0.028 C 
ATOM      4  C   UNL     1     115.638 120.831 132.736  1.00  0.00    -0.028 C 
BRANCH   4   5
ATOM      5  C   UNL     1     115.723 120.073 134.044  1.00  0.00     0.011 C 
ATOM      6  C   UNL     1     114.622 120.558 135.003  1.00  0.00     0.012 C 
BRANCH   5   7
ATOM      7  C   UNL     1     117.157 120.156 134.655  1.00  0.00    -0.011 C 
ATOM      8  C   UNL     1     118.023 121.202 133.934  1.00  0.00     0.008 C 
ATOM      9  C   UNL     1     117.879 118.802 134.713  1.00  0.00     0.008 C 
ENDBRANCH   5   7
ENDBRANCH   4   5
ENDBRANCH   1   3
BRANCH   1  10
ATOM     10  C   UNL     1     115.885 122.151 130.145  1.00  0.00     0.002 C 
ATOM     11  C   UNL     1     117.058 121.485 129.424  1.00  0.00     0.005 C 
ATOM     12  C   UNL     1     115.611 123.490 129.374  1.00  0.00    -0.023 C 
ATOM     13  C   UNL     1     117.913 122.648 128.970  1.00  0.00     0.009 C 
ATOM     14  C   UNL     1     116.925 123.735 128.546  1.00  0.00     0.021 C 
ATOM     15  C   UNL     1     115.284 124.630 130.384  1.00  0.00     0.008 C 
ATOM     16  C   UNL     1     114.421 123.379 128.386  1.00  0.00     0.012 C 
ATOM     17  C   UNL     1     117.571 125.109 128.658  1.00  0.00    -0.063 C 
ATOM     18  C   UNL     1     116.538 125.311 130.936  1.00  0.00     0.009 C 
ATOM     19  C   UNL     1     117.255 126.064 129.797  1.00  0.00     0.025 C 
ATOM     20  C   UNL     1     118.446 125.493 127.718  1.00  0.00    -0.000 C 
ATOM     21  C   UNL     1     118.526 126.886 130.244  1.00  0.00    -0.005 C 
ATOM     22  C   UNL     1     119.181 126.759 127.835  1.00  0.00    -0.000 C 
ATOM     23  C   UNL     1     119.208 127.455 128.984  1.00  0.00    -0.061 C 
ATOM     24  C   UNL     1     118.094 128.025 131.249  1.00  0.00     0.014 C 
ATOM     25  C   UNL     1     119.553 125.948 130.932  1.00  0.00     0.017 C 
ATOM     26  C   UNL     1     120.008 128.744 128.997  1.00  0.00     0.063 C 
ATOM     27  C   UNL     1     118.527 129.453 130.878  1.00  0.00     0.033 C 
ATOM     28  C   UNL     1     119.953 129.493 130.329  1.00  0.00     0.118 C 
BRANCH  28  29
ATOM     29  O   UNL     1     120.860 128.931 131.236  1.00  0.00    -0.393 OA
ATOM     30  H   UNL     1     121.461 128.338 130.711  1.00  0.00     0.210 HD
ENDBRANCH  28  29
ENDBRANCH   1  10
TORSDOF 5
ENDMDL
MODEL 5
REMARK VINA RESULT:    -7.115      2.794      9.102
REMARK INTER + INTRA:          -9.777
REMARK INTER:                  -8.543
REMARK INTRA:                  -1.235
REMARK UNBOUND:                -0.790
REMARK SMILES CC(C)[C@@H](C)C=C[C@@H](C)[C@H]1CC[C@@H]2C3=CC=C4C[C@H](O)CC[C@@]4(C)[C@@H]3CC[C@@]21C
REMARK SMILES IDX 8 1 9 2 7 3 6 4 4 5 5 6 2 7 1 8 3 9 10 10 11 11 28 12 12 13
REMARK SMILES IDX 13 14 27 15 29 16 14 17 26 18 25 19 15 20 23 21 16 22 17 23
REMARK SMILES IDX 22 24 24 25 18 26 21 27 19 28 20 29
REMARK H PARENT 20 30
REMARK Flexibility Score: inf
ROOT
ATOM      1  C   UNL     1     118.530 121.325 129.084  1.00  0.00     0.012 C 
ATOM      2  C   UNL     1     119.744 121.200 128.156  1.00  0.00     0.012 C 
ENDROOT
BRANCH   1   3
ATOM      3  C   UNL     1     117.450 120.381 128.595  1.00  0.00    -0.028 C 
ATOM      4  C   UNL     1     116.617 119.759 129.448  1.00  0.00    -0.028 C 
BRANCH   4   5
ATOM      5  C   UNL     1     115.522 118.843 128.945  1.00  0.00     0.011 C 
ATOM      6  C   UNL     1     115.939 118.218 127.602  1.00  0.00     0.012 C 
BRANCH   5   7
ATOM      7  C   UNL     1     114.148 119.580 128.885  1.00  0.00    -0.011 C 
ATOM      8  C   UNL     1     113.825 120.067 127.463  1.00  0.00     0.008 C 
ATOM      9  C   UNL     1     114.025 120.732 129.893  1.00  0.00     0.008 C 
ENDBRANCH   5   7
ENDBRANCH   4   5
ENDBRANCH   1   3
BRANCH   1  10
ATOM     10  C   UNL     1     118.077 122.818 129.228  1.00  0.00     0.002 C 
ATOM     11  C   UNL     1     116.629 123.114 128.833  1.00  0.00     0.005 C 
ATOM     12  C   UNL     1     118.299 123.530 130.609  1.00  0.00    -0.023 C 
ATOM     13  C   UNL     1     116.386 124.510 129.363  1.00  0.00     0.009 C 
ATOM     14  C   UNL     1     117.121 124.568 130.703  1.00  0.00     0.021 C 
ATOM     15  C   UNL     1     119.714 124.183 130.650  1.00  0.00     0.008 C 
ATOM     16  C   UNL     1     118.193 122.556 131.810  1.00  0.00     0.012 C 
ATOM     17  C   UNL     1     117.486 126.005 131.043  1.00  0.00    -0.063 C 
ATOM     18  C   UNL     1     119.741 125.580 130.028  1.00  0.00     0.009 C 
ATOM     19  C   UNL     1     118.900 126.542 130.892  1.00  0.00     0.025 C 
ATOM     20  C   UNL     1     116.530 126.828 131.497  1.00  0.00    -0.000 C 
ATOM     21  C   UNL     1     118.910 128.045 130.409  1.00  0.00    -0.005 C 
ATOM     22  C   UNL     1     116.801 128.251 131.736  1.00  0.00    -0.000 C 
ATOM     23  C   UNL     1     117.918 128.843 131.278  1.00  0.00    -0.061 C 
ATOM     24  C   UNL     1     120.377 128.622 130.505  1.00  0.00     0.014 C 
ATOM     25  C   UNL     1     118.408 128.138 128.944  1.00  0.00     0.017 C 
ATOM     26  C   UNL     1     118.091 130.321 131.571  1.00  0.00     0.063 C 
ATOM     27  C   UNL     1     120.541 129.918 131.315  1.00  0.00     0.033 C 
ATOM     28  C   UNL     1     119.405 130.905 131.052  1.00  0.00     0.118 C 
BRANCH  28  29
ATOM     29  O   UNL     1     119.296 131.198 129.686  1.00  0.00    -0.393 OA
ATOM     30  H   UNL     1     118.369 130.964 129.416  1.00  0.00     0.210 HD
ENDBRANCH  28  29
ENDBRANCH   1  10
TORSDOF 5
ENDMDL
MODEL 6
REMARK VINA RESULT:    -7.055      5.777      8.037
REMARK INTER + INTRA:          -9.701
REMARK INTER:                  -8.757
REMARK INTRA:                  -0.945
REMARK UNBOUND:                -0.790
REMARK SMILES CC(C)[C@@H](C)C=C[C@@H](C)[C@H]1CC[C@@H]2C3=CC=C4C[C@H](O)CC[C@@]4(C)[C@@H]3CC[C@@]21C
REMARK SMILES IDX 8 1 9 2 7 3 6 4 4 5 5 6 2 7 1 8 3 9 10 10 11 11 28 12 12 13
REMARK SMILES IDX 13 14 27 15 29 16 14 17 26 18 25 19 15 20 23 21 16 22 17 23
REMARK SMILES IDX 22 24 24 25 18 26 21 27 19 28 20 29
REMARK H PARENT 20 30
REMARK Flexibility Score: inf
ROOT
ATOM      1  C   UNL     1     121.314 121.456 127.459  1.00  0.00     0.012 C 
ATOM      2  C   UNL     1     122.416 122.318 128.086  1.00  0.00     0.012 C 
ENDROOT
BRANCH   1   3
ATOM      3  C   UNL     1     121.275 121.731 125.970  1.00  0.00    -0.028 C 
ATOM      4  C   UNL     1     121.595 120.786 125.069  1.00  0.00    -0.028 C 
BRANCH   4   5
ATOM      5  C   UNL     1     121.522 121.064 123.582  1.00  0.00     0.011 C 
ATOM      6  C   UNL     1     120.053 121.078 123.124  1.00  0.00     0.012 C 
BRANCH   5   7
ATOM      7  C   UNL     1     122.414 120.071 122.774  1.00  0.00    -0.011 C 
ATOM      8  C   UNL     1     123.367 119.288 123.691  1.00  0.00     0.008 C 
ATOM      9  C   UNL     1     123.188 120.736 121.626  1.00  0.00     0.008 C 
ENDBRANCH   5   7
ENDBRANCH   4   5
ENDBRANCH   1   3
BRANCH   1  10
ATOM     10  C   UNL     1     119.947 121.658 128.197  1.00  0.00     0.002 C 
ATOM     11  C   UNL     1     118.947 122.583 127.503  1.00  0.00     0.005 C 
ATOM     12  C   UNL     1     119.134 120.382 128.613  1.00  0.00    -0.023 C 
ATOM     13  C   UNL     1     117.651 122.341 128.244  1.00  0.00     0.009 C 
ATOM     14  C   UNL     1     117.631 120.842 128.544  1.00  0.00     0.021 C 
ATOM     15  C   UNL     1     119.579 119.904 130.028  1.00  0.00     0.008 C 
ATOM     16  C   UNL     1     119.331 119.199 127.631  1.00  0.00     0.012 C 
ATOM     17  C   UNL     1     116.761 120.558 129.760  1.00  0.00    -0.063 C 
ATOM     18  C   UNL     1     118.844 120.628 131.158  1.00  0.00     0.009 C 
ATOM     19  C   UNL     1     117.350 120.245 131.126  1.00  0.00     0.025 C 
ATOM     20  C   UNL     1     115.428 120.580 129.624  1.00  0.00    -0.000 C 
ATOM     21  C   UNL     1     116.485 120.859 132.294  1.00  0.00    -0.005 C 
ATOM     22  C   UNL     1     114.541 120.423 130.784  1.00  0.00    -0.000 C 
ATOM     23  C   UNL     1     115.005 120.508 132.043  1.00  0.00    -0.061 C 
ATOM     24  C   UNL     1     116.997 120.303 133.682  1.00  0.00     0.014 C 
ATOM     25  C   UNL     1     116.593 122.407 132.282  1.00  0.00     0.017 C 
ATOM     26  C   UNL     1     114.000 120.342 133.166  1.00  0.00     0.063 C 
ATOM     27  C   UNL     1     115.937 119.642 134.576  1.00  0.00     0.033 C 
ATOM     28  C   UNL     1     114.617 120.411 134.564  1.00  0.00     0.118 C 
BRANCH  28  29
ATOM     29  O   UNL     1     114.806 121.747 134.941  1.00  0.00    -0.393 OA
ATOM     30  H   UNL     1     115.119 122.232 134.133  1.00  0.00     0.210 HD
ENDBRANCH  28  29
ENDBRANCH   1  10
TORSDOF 5
ENDMDL
MODEL 7
REMARK VINA RESULT:    -6.894      6.289      9.757
REMARK INTER + INTRA:          -9.497
REMARK INTER:                  -8.467
REMARK INTRA:                  -1.030
REMARK UNBOUND:                -0.790
REMARK SMILES CC(C)[C@@H](C)C=C[C@@H](C)[C@H]1CC[C@@H]2C3=CC=C4C[C@H](O)CC[C@@]4(C)[C@@H]3CC[C@@]21C
REMARK SMILES IDX 8 1 9 2 7 3 6 4 4 5 5 6 2 7 1 8 3 9 10 10 11 11 28 12 12 13
REMARK SMILES IDX 13 14 27 15 29 16 14 17 26 18 25 19 15 20 23 21 16 22 17 23
REMARK SMILES IDX 22 24 24 25 18 26 21 27 19 28 20 29
REMARK H PARENT 20 30
REMARK Flexibility Score: inf
ROOT
ATOM      1  C   UNL     1     118.699 120.176 129.774  1.00  0.00     0.012 C 
ATOM      2  C   UNL     1     119.606 119.536 130.832  1.00  0.00     0.012 C 
ENDROOT
BRANCH   1   3
ATOM      3  C   UNL     1     117.280 119.696 129.999  1.00  0.00    -0.028 C 
ATOM      4  C   UNL     1     116.244 120.552 130.048  1.00  0.00    -0.028 C 
BRANCH   4   5
ATOM      5  C   UNL     1     114.827 120.056 130.243  1.00  0.00     0.011 C 
ATOM      6  C   UNL     1     114.105 119.987 128.886  1.00  0.00     0.012 C 
BRANCH   5   7
ATOM      7  C   UNL     1     114.067 120.910 131.306  1.00  0.00    -0.011 C 
ATOM      8  C   UNL     1     114.788 122.238 131.588  1.00  0.00     0.008 C 
ATOM      9  C   UNL     1     113.789 120.156 132.614  1.00  0.00     0.008 C 
ENDBRANCH   5   7
ENDBRANCH   4   5
ENDBRANCH   1   3
BRANCH   1  10
ATOM     10  C   UNL     1     119.252 119.927 128.328  1.00  0.00     0.002 C 
ATOM     11  C   UNL     1     118.384 119.048 127.427  1.00  0.00     0.005 C 
ATOM     12  C   UNL     1     119.646 121.174 127.461  1.00  0.00    -0.023 C 
ATOM     13  C   UNL     1     118.976 119.243 126.049  1.00  0.00     0.009 C 
ATOM     14  C   UNL     1     119.366 120.720 125.981  1.00  0.00     0.021 C 
ATOM     15  C   UNL     1     121.131 121.562 127.728  1.00  0.00     0.008 C 
ATOM     16  C   UNL     1     118.771 122.418 127.767  1.00  0.00     0.012 C 
ATOM     17  C   UNL     1     120.483 120.925 124.968  1.00  0.00    -0.063 C 
ATOM     18  C   UNL     1     122.115 120.766 126.868  1.00  0.00     0.009 C 
ATOM     19  C   UNL     1     121.927 121.151 125.386  1.00  0.00     0.025 C 
ATOM     20  C   UNL     1     120.184 120.912 123.662  1.00  0.00    -0.000 C 
ATOM     21  C   UNL     1     122.940 120.463 124.390  1.00  0.00    -0.005 C 
ATOM     22  C   UNL     1     121.236 120.995 122.640  1.00  0.00    -0.000 C 
ATOM     23  C   UNL     1     122.534 120.830 122.949  1.00  0.00    -0.061 C 
ATOM     24  C   UNL     1     124.412 120.929 124.726  1.00  0.00     0.014 C 
ATOM     25  C   UNL     1     122.843 118.920 124.511  1.00  0.00     0.017 C 
ATOM     26  C   UNL     1     123.536 120.924 121.814  1.00  0.00     0.063 C 
ATOM     27  C   UNL     1     125.212 121.532 123.560  1.00  0.00     0.033 C 
ATOM     28  C   UNL     1     124.991 120.766 122.258  1.00  0.00     0.118 C 
BRANCH  28  29
ATOM     29  O   UNL     1     125.303 119.409 122.410  1.00  0.00    -0.393 OA
ATOM     30  H   UNL     1     124.933 119.126 123.288  1.00  0.00     0.210 HD
ENDBRANCH  28  29
ENDBRANCH   1  10
TORSDOF 5
ENDMDL
MODEL 8
REMARK VINA RESULT:    -6.870      3.965      7.317
REMARK INTER + INTRA:          -9.467
REMARK INTER:                  -9.035
REMARK INTRA:                  -0.432
REMARK UNBOUND:                -0.790
REMARK SMILES CC(C)[C@@H](C)C=C[C@@H](C)[C@H]1CC[C@@H]2C3=CC=C4C[C@H](O)CC[C@@]4(C)[C@@H]3CC[C@@]21C
REMARK SMILES IDX 8 1 9 2 7 3 6 4 4 5 5 6 2 7 1 8 3 9 10 10 11 11 28 12 12 13
REMARK SMILES IDX 13 14 27 15 29 16 14 17 26 18 25 19 15 20 23 21 16 22 17 23
REMARK SMILES IDX 22 24 24 25 18 26 21 27 19 28 20 29
REMARK H PARENT 20 30
REMARK Flexibility Score: inf
ROOT
ATOM      1  C   UNL     1     115.873 125.558 129.203  1.00  0.00     0.012 C 
ATOM      2  C   UNL     1     116.242 126.623 130.243  1.00  0.00     0.012 C 
ENDROOT
BRANCH   1   3
ATOM      3  C   UNL     1     115.099 124.454 129.895  1.00  0.00    -0.028 C 
ATOM      4  C   UNL     1     114.242 123.665 129.224  1.00  0.00    -0.028 C 
BRANCH   4   5
ATOM      5  C   UNL     1     113.498 122.546 129.922  1.00  0.00     0.011 C 
ATOM      6  C   UNL     1     113.014 123.020 131.303  1.00  0.00     0.012 C 
BRANCH   5   7
ATOM      7  C   UNL     1     114.357 121.244 129.980  1.00  0.00    -0.011 C 
ATOM      8  C   UNL     1     114.119 120.351 128.751  1.00  0.00     0.008 C 
ATOM      9  C   UNL     1     114.169 120.442 131.277  1.00  0.00     0.008 C 
ENDBRANCH   5   7
ENDBRANCH   4   5
ENDBRANCH   1   3
BRANCH   1  10
ATOM     10  C   UNL     1     117.138 125.073 128.415  1.00  0.00     0.002 C 
ATOM     11  C   UNL     1     118.028 126.177 127.843  1.00  0.00     0.005 C 
ATOM     12  C   UNL     1     118.108 124.061 129.121  1.00  0.00    -0.023 C 
ATOM     13  C   UNL     1     119.292 125.451 127.436  1.00  0.00     0.009 C 
ATOM     14  C   UNL     1     119.522 124.400 128.522  1.00  0.00     0.021 C 
ATOM     15  C   UNL     1     117.645 122.599 128.847  1.00  0.00     0.008 C 
ATOM     16  C   UNL     1     118.165 124.259 130.658  1.00  0.00     0.012 C 
ATOM     17  C   UNL     1     120.339 123.240 127.970  1.00  0.00    -0.063 C 
ATOM     18  C   UNL     1     118.178 122.045 127.524  1.00  0.00     0.009 C 
ATOM     19  C   UNL     1     119.711 121.904 127.609  1.00  0.00     0.025 C 
ATOM     20  C   UNL     1     121.659 123.399 127.799  1.00  0.00    -0.000 C 
ATOM     21  C   UNL     1     120.388 121.262 126.335  1.00  0.00    -0.005 C 
ATOM     22  C   UNL     1     122.476 122.355 127.168  1.00  0.00    -0.000 C 
ATOM     23  C   UNL     1     121.918 121.323 126.512  1.00  0.00    -0.061 C 
ATOM     24  C   UNL     1     119.872 119.780 126.152  1.00  0.00     0.014 C 
ATOM     25  C   UNL     1     120.043 122.093 125.072  1.00  0.00     0.017 C 
ATOM     26  C   UNL     1     122.855 120.308 125.888  1.00  0.00     0.063 C 
ATOM     27  C   UNL     1     120.957 118.696 126.052  1.00  0.00     0.033 C 
ATOM     28  C   UNL     1     122.139 119.147 125.196  1.00  0.00     0.118 C 
BRANCH  28  29
ATOM     29  O   UNL     1     121.720 119.533 123.917  1.00  0.00    -0.393 OA
ATOM     30  H   UNL     1     121.123 118.814 123.581  1.00  0.00     0.210 HD
ENDBRANCH  28  29
ENDBRANCH   1  10
TORSDOF 5
ENDMDL
MODEL 9
REMARK VINA RESULT:    -6.859      5.869      9.642
REMARK INTER + INTRA:          -9.453
REMARK INTER:                  -8.472
REMARK INTRA:                  -0.981
REMARK UNBOUND:                -0.790
REMARK SMILES CC(C)[C@@H](C)C=C[C@@H](C)[C@H]1CC[C@@H]2C3=CC=C4C[C@H](O)CC[C@@]4(C)[C@@H]3CC[C@@]21C
REMARK SMILES IDX 8 1 9 2 7 3 6 4 4 5 5 6 2 7 1 8 3 9 10 10 11 11 28 12 12 13
REMARK SMILES IDX 13 14 27 15 29 16 14 17 26 18 25 19 15 20 23 21 16 22 17 23
REMARK SMILES IDX 22 24 24 25 18 26 21 27 19 28 20 29
REMARK H PARENT 20 30
REMARK Flexibility Score: inf
ROOT
ATOM      1  C   UNL     1     123.169 120.314 124.280  1.00  0.00     0.012 C 
ATOM      2  C   UNL     1     124.540 120.970 124.486  1.00  0.00     0.012 C 
ENDROOT
BRANCH   1   3
ATOM      3  C   UNL     1     122.948 120.115 122.794  1.00  0.00    -0.028 C 
ATOM      4  C   UNL     1     123.516 120.923 121.882  1.00  0.00    -0.028 C 
BRANCH   4   5
ATOM      5  C   UNL     1     123.311 120.695 120.399  1.00  0.00     0.011 C 
ATOM      6  C   UNL     1     122.646 119.328 120.167  1.00  0.00     0.012 C 
BRANCH   5   7
ATOM      7  C   UNL     1     124.644 120.878 119.608  1.00  0.00    -0.011 C 
ATOM      8  C   UNL     1     125.847 121.042 120.551  1.00  0.00     0.008 C 
ATOM      9  C   UNL     1     124.598 122.023 118.584  1.00  0.00     0.008 C 
ENDBRANCH   5   7
ENDBRANCH   4   5
ENDBRANCH   1   3
BRANCH   1  10
ATOM     10  C   UNL     1     122.039 121.120 125.008  1.00  0.00     0.002 C 
ATOM     11  C   UNL     1     120.757 121.340 124.204  1.00  0.00     0.005 C 
ATOM     12  C   UNL     1     121.578 120.633 126.427  1.00  0.00    -0.023 C 
ATOM     13  C   UNL     1     119.765 121.839 125.231  1.00  0.00     0.009 C 
ATOM     14  C   UNL     1     120.061 121.040 126.501  1.00  0.00     0.021 C 
ATOM     15  C   UNL     1     122.460 121.294 127.529  1.00  0.00     0.008 C 
ATOM     16  C   UNL     1     121.684 119.096 126.597  1.00  0.00     0.012 C 
ATOM     17  C   UNL     1     119.609 121.816 127.730  1.00  0.00    -0.063 C 
ATOM     18  C   UNL     1     121.956 122.679 127.940  1.00  0.00     0.009 C 
ATOM     19  C   UNL     1     120.588 122.539 128.640  1.00  0.00     0.025 C 
ATOM     20  C   UNL     1     118.302 121.860 128.025  1.00  0.00    -0.000 C 
ATOM     21  C   UNL     1     119.987 123.889 129.194  1.00  0.00    -0.005 C 
ATOM     22  C   UNL     1     117.799 122.682 129.133  1.00  0.00    -0.000 C 
ATOM     23  C   UNL     1     118.569 123.611 129.727  1.00  0.00    -0.061 C 
ATOM     24  C   UNL     1     120.937 124.472 130.314  1.00  0.00     0.014 C 
ATOM     25  C   UNL     1     119.845 124.922 128.044  1.00  0.00     0.017 C 
ATOM     26  C   UNL     1     117.945 124.412 130.854  1.00  0.00     0.063 C 
ATOM     27  C   UNL     1     120.276 124.775 131.668  1.00  0.00     0.033 C 
ATOM     28  C   UNL     1     118.899 125.416 131.502  1.00  0.00     0.118 C 
BRANCH  28  29
ATOM     29  O   UNL     1     118.973 126.580 130.726  1.00  0.00    -0.393 OA
ATOM     30  H   UNL     1     119.528 127.229 131.234  1.00  0.00     0.210 HD
ENDBRANCH  28  29
ENDBRANCH   1  10
TORSDOF 5
ENDMDL
