MODEL 1
REMARK VINA RESULT:    -7.111      0.000      0.000
REMARK INTER + INTRA:          -7.615
REMARK INTER:                  -7.527
REMARK INTRA:                  -0.088
REMARK UNBOUND:                -0.088
REMARK SMILES C=C(C)[C@H]1CC=C(C)C(=O)C1
REMARK SMILES IDX 8 1 7 2 6 3 5 4 4 5 11 6 9 7 10 8 2 9 1 10 3 11
REMARK H PARENT
REMARK Flexibility Score: inf
ROOT
ATOM      1  C   UNL     1      15.251  25.235   6.101  1.00  0.00     0.048 C 
ATOM      2  C   UNL     1      16.570  25.596   5.473  1.00  0.00    -0.012 C 
ATOM      3  C   UNL     1      16.670  25.721   4.138  1.00  0.00    -0.019 C 
ATOM      4  C   UNL     1      17.984  26.001   3.457  1.00  0.00     0.036 C 
ATOM      5  C   UNL     1      18.915  26.830   4.364  1.00  0.00     0.025 C 
ATOM      6  C   UNL     1      19.099  26.130   5.724  1.00  0.00     0.089 C 
ATOM      7  C   UNL     1      17.764  25.790   6.331  1.00  0.00     0.158 C 
ATOM      8  O   UNL     1      17.681  25.626   7.577  1.00  0.00    -0.295 OA
ENDROOT
BRANCH   5   9
ATOM      9  C   UNL     1      20.252  27.110   3.693  1.00  0.00    -0.077 C 
ATOM     10  C   UNL     1      20.522  28.307   3.143  1.00  0.00     0.008 C 
ATOM     11  C   UNL     1      21.309  26.037   3.634  1.00  0.00     0.039 C 
ENDBRANCH   5   9
TORSDOF 1
ENDMDL
MODEL 2
REMARK VINA RESULT:    -6.906      1.345      2.261
REMARK INTER + INTRA:          -7.398
REMARK INTER:                  -7.310
REMARK INTRA:                  -0.088
REMARK UNBOUND:                -0.088
REMARK SMILES C=C(C)[C@H]1CC=C(C)C(=O)C1
REMARK SMILES IDX 8 1 7 2 6 3 5 4 4 5 11 6 9 7 10 8 2 9 1 10 3 11
REMARK H PARENT
REMARK Flexibility Score: inf
ROOT
ATOM      1  C   UNL     1      15.932  25.073   6.932  1.00  0.00     0.048 C 
ATOM      2  C   UNL     1      17.073  25.629   6.125  1.00  0.00    -0.012 C 
ATOM      3  C   UNL     1      18.252  25.894   6.714  1.00  0.00    -0.019 C 
ATOM      4  C   UNL     1      19.396  26.524   5.966  1.00  0.00     0.036 C 
ATOM      5  C   UNL     1      19.371  26.133   4.476  1.00  0.00     0.025 C 
ATOM      6  C   UNL     1      18.004  26.481   3.855  1.00  0.00     0.089 C 
ATOM      7  C   UNL     1      16.885  25.905   4.680  1.00  0.00     0.158 C 
ATOM      8  O   UNL     1      15.765  25.702   4.137  1.00  0.00    -0.295 OA
ENDROOT
BRANCH   5   9
ATOM      9  C   UNL     1      20.516  26.774   3.705  1.00  0.00    -0.077 C 
ATOM     10  C   UNL     1      21.618  26.076   3.381  1.00  0.00     0.008 C 
ATOM     11  C   UNL     1      20.430  28.219   3.285  1.00  0.00     0.039 C 
ENDBRANCH   5   9
TORSDOF 1
ENDMDL
MODEL 3
REMARK VINA RESULT:    -6.648      2.148      4.777
REMARK INTER + INTRA:          -7.125
REMARK INTER:                  -7.036
REMARK INTRA:                  -0.089
REMARK UNBOUND:                -0.088
REMARK SMILES C=C(C)[C@H]1CC=C(C)C(=O)C1
REMARK SMILES IDX 8 1 7 2 6 3 5 4 4 5 11 6 9 7 10 8 2 9 1 10 3 11
REMARK H PARENT
REMARK Flexibility Score: inf
ROOT
ATOM      1  C   UNL     1      22.392  27.169   2.807  1.00  0.00     0.048 C 
ATOM      2  C   UNL     1      21.059  26.747   3.363  1.00  0.00    -0.012 C 
ATOM      3  C   UNL     1      20.929  25.557   3.974  1.00  0.00    -0.019 C 
ATOM      4  C   UNL     1      19.600  25.056   4.475  1.00  0.00     0.036 C 
ATOM      5  C   UNL     1      18.689  26.225   4.900  1.00  0.00     0.025 C 
ATOM      6  C   UNL     1      18.536  27.231   3.743  1.00  0.00     0.089 C 
ATOM      7  C   UNL     1      19.884  27.640   3.214  1.00  0.00     0.158 C 
ATOM      8  O   UNL     1      19.995  28.734   2.599  1.00  0.00    -0.295 OA
ENDROOT
BRANCH   5   9
ATOM      9  C   UNL     1      17.336  25.733   5.397  1.00  0.00    -0.077 C 
ATOM     10  C   UNL     1      17.160  25.344   6.672  1.00  0.00     0.008 C 
ATOM     11  C   UNL     1      16.160  25.676   4.457  1.00  0.00     0.039 C 
ENDBRANCH   5   9
TORSDOF 1
ENDMDL
MODEL 4
REMARK VINA RESULT:    -6.158      1.353      4.226
REMARK INTER + INTRA:          -6.606
REMARK INTER:                  -6.511
REMARK INTRA:                  -0.095
REMARK UNBOUND:                -0.088
REMARK SMILES C=C(C)[C@H]1CC=C(C)C(=O)C1
REMARK SMILES IDX 8 1 7 2 6 3 5 4 4 5 11 6 9 7 10 8 2 9 1 10 3 11
REMARK H PARENT
REMARK Flexibility Score: inf
ROOT
ATOM      1  C   UNL     1      21.231  26.464   3.558  1.00  0.00     0.048 C 
ATOM      2  C   UNL     1      19.837  26.271   4.092  1.00  0.00    -0.012 C 
ATOM      3  C   UNL     1      18.801  26.151   3.244  1.00  0.00    -0.019 C 
ATOM      4  C   UNL     1      17.380  26.036   3.730  1.00  0.00     0.036 C 
ATOM      5  C   UNL     1      17.315  25.340   5.104  1.00  0.00     0.025 C 
ATOM      6  C   UNL     1      18.222  26.067   6.115  1.00  0.00     0.089 C 
ATOM      7  C   UNL     1      19.609  26.238   5.557  1.00  0.00     0.158 C 
ATOM      8  O   UNL     1      20.574  26.398   6.351  1.00  0.00    -0.295 OA
ENDROOT
BRANCH   5   9
ATOM      9  C   UNL     1      15.885  25.228   5.613  1.00  0.00    -0.077 C 
ATOM     10  C   UNL     1      14.919  26.053   5.170  1.00  0.00     0.008 C 
ATOM     11  C   UNL     1      15.524  24.177   6.631  1.00  0.00     0.039 C 
ENDBRANCH   5   9
TORSDOF 1
ENDMDL
MODEL 5
REMARK VINA RESULT:    -5.996      1.958      4.565
REMARK INTER + INTRA:          -6.435
REMARK INTER:                  -6.337
REMARK INTRA:                  -0.098
REMARK UNBOUND:                -0.088
REMARK SMILES C=C(C)[C@H]1CC=C(C)C(=O)C1
REMARK SMILES IDX 8 1 7 2 6 3 5 4 4 5 11 6 9 7 10 8 2 9 1 10 3 11
REMARK H PARENT
REMARK Flexibility Score: inf
ROOT
ATOM      1  C   UNL     1      21.970  27.595   2.616  1.00  0.00     0.048 C 
ATOM      2  C   UNL     1      20.723  27.059   3.265  1.00  0.00    -0.012 C 
ATOM      3  C   UNL     1      19.543  27.674   3.071  1.00  0.00    -0.019 C 
ATOM      4  C   UNL     1      18.284  27.223   3.763  1.00  0.00     0.036 C 
ATOM      5  C   UNL     1      18.308  25.706   4.033  1.00  0.00     0.025 C 
ATOM      6  C   UNL     1      19.577  25.323   4.819  1.00  0.00     0.089 C 
ATOM      7  C   UNL     1      20.806  25.865   4.141  1.00  0.00     0.158 C 
ATOM      8  O   UNL     1      21.919  25.318   4.361  1.00  0.00    -0.295 OA
ENDROOT
BRANCH   5   9
ATOM      9  C   UNL     1      17.045  25.239   4.743  1.00  0.00    -0.077 C 
ATOM     10  C   UNL     1      17.080  24.253   5.656  1.00  0.00     0.008 C 
ATOM     11  C   UNL     1      15.720  25.886   4.432  1.00  0.00     0.039 C 
ENDBRANCH   5   9
TORSDOF 1
ENDMDL
MODEL 6
REMARK VINA RESULT:    -5.882      1.888      4.703
REMARK INTER + INTRA:          -6.314
REMARK INTER:                  -6.220
REMARK INTRA:                  -0.094
REMARK UNBOUND:                -0.088
REMARK SMILES C=C(C)[C@H]1CC=C(C)C(=O)C1
REMARK SMILES IDX 8 1 7 2 6 3 5 4 4 5 11 6 9 7 10 8 2 9 1 10 3 11
REMARK H PARENT
REMARK Flexibility Score: inf
ROOT
ATOM      1  C   UNL     1      20.513  27.656   3.373  1.00  0.00     0.048 C 
ATOM      2  C   UNL     1      19.648  27.028   4.431  1.00  0.00    -0.012 C 
ATOM      3  C   UNL     1      20.154  26.762   5.648  1.00  0.00    -0.019 C 
ATOM      4  C   UNL     1      19.352  26.062   6.713  1.00  0.00     0.036 C 
ATOM      5  C   UNL     1      17.849  26.375   6.574  1.00  0.00     0.025 C 
ATOM      6  C   UNL     1      17.361  26.032   5.154  1.00  0.00     0.089 C 
ATOM      7  C   UNL     1      18.240  26.681   4.119  1.00  0.00     0.158 C 
ATOM      8  O   UNL     1      17.779  26.886   2.965  1.00  0.00    -0.295 OA
ENDROOT
BRANCH   5   9
ATOM      9  C   UNL     1      17.025  25.663   7.638  1.00  0.00    -0.077 C 
ATOM     10  C   UNL     1      17.399  25.664   8.929  1.00  0.00     0.008 C 
ATOM     11  C   UNL     1      15.760  24.938   7.255  1.00  0.00     0.039 C 
ENDBRANCH   5   9
TORSDOF 1
ENDMDL
MODEL 7
REMARK VINA RESULT:    -5.680      2.534      4.433
REMARK INTER + INTRA:          -6.100
REMARK INTER:                  -6.006
REMARK INTRA:                  -0.094
REMARK UNBOUND:                -0.088
REMARK SMILES C=C(C)[C@H]1CC=C(C)C(=O)C1
REMARK SMILES IDX 8 1 7 2 6 3 5 4 4 5 11 6 9 7 10 8 2 9 1 10 3 11
REMARK H PARENT
REMARK Flexibility Score: inf
ROOT
ATOM      1  C   UNL     1      16.478  25.739   4.134  1.00  0.00     0.048 C 
ATOM      2  C   UNL     1      17.043  25.988   5.506  1.00  0.00    -0.012 C 
ATOM      3  C   UNL     1      16.225  26.299   6.527  1.00  0.00    -0.019 C 
ATOM      4  C   UNL     1      16.750  26.635   7.898  1.00  0.00     0.036 C 
ATOM      5  C   UNL     1      18.068  25.891   8.188  1.00  0.00     0.025 C 
ATOM      6  C   UNL     1      19.099  26.179   7.080  1.00  0.00     0.089 C 
ATOM      7  C   UNL     1      18.508  25.913   5.722  1.00  0.00     0.158 C 
ATOM      8  O   UNL     1      19.278  25.668   4.755  1.00  0.00    -0.295 OA
ENDROOT
BRANCH   5   9
ATOM      9  C   UNL     1      18.616  26.232   9.567  1.00  0.00    -0.077 C 
ATOM     10  C   UNL     1      19.584  25.493  10.136  1.00  0.00     0.008 C 
ATOM     11  C   UNL     1      18.075  27.418  10.323  1.00  0.00     0.039 C 
ENDBRANCH   5   9
TORSDOF 1
ENDMDL
MODEL 8
REMARK VINA RESULT:    -5.624      2.515      4.351
REMARK INTER + INTRA:          -6.041
REMARK INTER:                  -5.952
REMARK INTRA:                  -0.089
REMARK UNBOUND:                -0.088
REMARK SMILES C=C(C)[C@H]1CC=C(C)C(=O)C1
REMARK SMILES IDX 8 1 7 2 6 3 5 4 4 5 11 6 9 7 10 8 2 9 1 10 3 11
REMARK H PARENT
REMARK Flexibility Score: inf
ROOT
ATOM      1  C   UNL     1      16.626  25.680   4.098  1.00  0.00     0.048 C 
ATOM      2  C   UNL     1      17.136  25.809   5.507  1.00  0.00    -0.012 C 
ATOM      3  C   UNL     1      18.345  26.349   5.741  1.00  0.00    -0.019 C 
ATOM      4  C   UNL     1      18.932  26.427   7.125  1.00  0.00     0.036 C 
ATOM      5  C   UNL     1      17.828  26.561   8.192  1.00  0.00     0.025 C 
ATOM      6  C   UNL     1      16.808  25.415   8.053  1.00  0.00     0.089 C 
ATOM      7  C   UNL     1      16.310  25.317   6.636  1.00  0.00     0.158 C 
ATOM      8  O   UNL     1      15.198  24.767   6.414  1.00  0.00    -0.295 OA
ENDROOT
BRANCH   5   9
ATOM      9  C   UNL     1      18.408  26.628   9.598  1.00  0.00    -0.077 C 
ATOM     10  C   UNL     1      18.021  27.576  10.470  1.00  0.00     0.008 C 
ATOM     11  C   UNL     1      19.436  25.619  10.041  1.00  0.00     0.039 C 
ENDBRANCH   5   9
TORSDOF 1
ENDMDL
MODEL 9
REMARK VINA RESULT:    -5.176     17.925     19.911
REMARK INTER + INTRA:          -5.567
REMARK INTER:                  -5.469
REMARK INTRA:                  -0.098
REMARK UNBOUND:                -0.088
REMARK SMILES C=C(C)[C@H]1CC=C(C)C(=O)C1
REMARK SMILES IDX 8 1 7 2 6 3 5 4 4 5 11 6 9 7 10 8 2 9 1 10 3 11
REMARK H PARENT
REMARK Flexibility Score: inf
ROOT
ATOM      1  C   UNL     1      29.615  18.623  -6.765  1.00  0.00     0.048 C 
ATOM      2  C   UNL     1      30.763  17.779  -6.282  1.00  0.00    -0.012 C 
ATOM      3  C   UNL     1      31.377  16.929  -7.123  1.00  0.00    -0.019 C 
ATOM      4  C   UNL     1      32.476  16.006  -6.666  1.00  0.00     0.036 C 
ATOM      5  C   UNL     1      33.277  16.627  -5.504  1.00  0.00     0.025 C 
ATOM      6  C   UNL     1      32.330  17.023  -4.355  1.00  0.00     0.089 C 
ATOM      7  C   UNL     1      31.199  17.872  -4.868  1.00  0.00     0.158 C 
ATOM      8  O   UNL     1      30.593  18.634  -4.068  1.00  0.00    -0.295 OA
ENDROOT
BRANCH   5   9
ATOM      9  C   UNL     1      34.384  15.699  -5.024  1.00  0.00    -0.077 C 
ATOM     10  C   UNL     1      34.770  15.678  -3.737  1.00  0.00     0.008 C 
ATOM     11  C   UNL     1      35.072  14.776  -5.998  1.00  0.00     0.039 C 
ENDBRANCH   5   9
TORSDOF 1
ENDMDL
