MODEL 1
REMARK VINA RESULT:    -4.408      0.000      0.000
REMARK INTER + INTRA:          -6.753
REMARK INTER:                  -6.728
REMARK INTRA:                  -0.025
REMARK UNBOUND:                -0.025
REMARK SMILES CC1=CCC[C@@H](C)C(=O)C[C@H](C(C)C)C(=O)C1
REMARK SMILES IDX 8 1 9 2 6 3 7 4 5 5 4 6 3 7 2 8 1 9 10 11 11 12 15 13 16 14
REMARK SMILES IDX 17 15 12 17 13 18 14 19
REMARK H PARENT
REMARK Flexibility Score: 70.00
ROOT
ATOM      1  C   UNL     1      16.128 -30.121  22.000  1.00  0.00     0.136 C 
ATOM      2  O   UNL     1      16.467 -30.094  23.175  1.00  0.00    -0.299 OA
ENDROOT
BRANCH   1   3
ATOM      3  C   UNL     1      14.701 -29.790  21.617  1.00  0.00     0.053 C 
ATOM      4  C   UNL     1      13.942 -29.304  22.855  1.00  0.00     0.016 C 
BRANCH   3   5
ATOM      5  C   UNL     1      13.977 -31.002  20.986  1.00  0.00     0.015 C 
BRANCH   5   6
ATOM      6  C   UNL     1      14.257 -32.325  21.715  1.00  0.00     0.028 C 
BRANCH   6   7
ATOM      7  C   UNL     1      14.636 -33.417  20.744  1.00  0.00    -0.028 C 
ATOM      8  C   UNL     1      15.829 -34.051  20.693  1.00  0.00    -0.070 CG0
ATOM      9  C   UNL     1      16.019 -35.116  19.642  1.00  0.00     0.039 C 
ATOM     10  G   UNL     1      16.991 -33.718  21.610  1.00  0.00     0.000 G0
ENDBRANCH   6   7
ENDBRANCH   5   6
ENDBRANCH   3   5
ENDBRANCH   1   3
BRANCH   1  11
ATOM     11  C   UNL     1      17.160 -30.445  20.951  1.00  0.00     0.087 C 
BRANCH  11  12
ATOM     12  C   UNL     1      18.253 -31.404  21.492  1.00  0.00     0.066 C 
BRANCH  12  13
ATOM     13  C   UNL     1      17.997 -32.804  20.958  1.00  0.00     0.140 C 
ATOM     14  O   UNL     1      18.662 -33.219  20.019  1.00  0.00    -0.299 OA
BRANCH  13  15
ATOM     15  C   UNL     1      17.007 -33.730  21.617  1.00  0.00     0.106 CG0
ATOM     16  G   UNL     1      15.844 -34.035  20.692  1.00  0.00     0.000 G0
ENDBRANCH  13  15
ENDBRANCH  12  13
BRANCH  12  17
ATOM     17  C   UNL     1      19.696 -30.933  21.116  1.00  0.00    -0.006 C 
ATOM     18  C   UNL     1      19.824 -29.396  21.108  1.00  0.00     0.008 C 
ATOM     19  C   UNL     1      20.748 -31.504  22.088  1.00  0.00     0.008 C 
ENDBRANCH  12  17
ENDBRANCH  11  12
ENDBRANCH   1  11
TORSDOF 1
ENDMDL
MODEL 2
REMARK VINA RESULT:    -4.279      1.797      4.112
REMARK INTER + INTRA:          -6.555
REMARK INTER:                  -6.446
REMARK INTRA:                  -0.109
REMARK UNBOUND:                -0.025
REMARK SMILES CC1=CCC[C@@H](C)C(=O)C[C@H](C(C)C)C(=O)C1
REMARK SMILES IDX 8 1 9 2 6 3 7 4 5 5 4 6 3 7 2 8 1 9 10 11 11 12 15 13 16 14
REMARK SMILES IDX 17 15 12 17 13 18 14 19
REMARK H PARENT
REMARK Flexibility Score: 70.00
ROOT
ATOM      1  C   UNL     1      18.455 -32.262  20.605  1.00  0.00     0.136 C 
ATOM      2  O   UNL     1      19.651 -32.402  20.392  1.00  0.00    -0.299 OA
ENDROOT
BRANCH   1   3
ATOM      3  C   UNL     1      17.969 -31.101  21.447  1.00  0.00     0.053 C 
ATOM      4  C   UNL     1      18.889 -29.896  21.230  1.00  0.00     0.016 C 
BRANCH   3   5
ATOM      5  C   UNL     1      17.906 -31.463  22.948  1.00  0.00     0.015 C 
BRANCH   5   6
ATOM      6  C   UNL     1      16.531 -31.198  23.581  1.00  0.00     0.028 C 
BRANCH   6   7
ATOM      7  C   UNL     1      15.514 -30.804  22.538  1.00  0.00    -0.028 C 
ATOM      8  C   UNL     1      14.654 -31.642  21.914  1.00  0.00    -0.070 CG0
ATOM      9  C   UNL     1      13.713 -31.056  20.892  1.00  0.00     0.039 C 
ATOM     10  G   UNL     1      14.619 -33.138  22.162  1.00  0.00     0.000 G0
ENDBRANCH   6   7
ENDBRANCH   5   6
ENDBRANCH   3   5
ENDBRANCH   1   3
BRANCH   1  11
ATOM     11  C   UNL     1      17.485 -33.234  19.986  1.00  0.00     0.087 C 
BRANCH  11  12
ATOM     12  C   UNL     1      16.813 -34.138  21.052  1.00  0.00     0.066 C 
BRANCH  12  13
ATOM     13  C   UNL     1      15.312 -33.901  21.035  1.00  0.00     0.140 C 
ATOM     14  O   UNL     1      14.637 -34.389  20.138  1.00  0.00    -0.299 OA
BRANCH  13  15
ATOM     15  C   UNL     1      14.619 -33.155  22.146  1.00  0.00     0.106 CG0
ATOM     16  G   UNL     1      14.659 -31.657  21.907  1.00  0.00     0.000 G0
ENDBRANCH  13  15
ENDBRANCH  12  13
BRANCH  12  17
ATOM     17  C   UNL     1      17.127 -35.655  20.829  1.00  0.00    -0.006 C 
ATOM     18  C   UNL     1      17.462 -35.969  19.357  1.00  0.00     0.008 C 
ATOM     19  C   UNL     1      18.304 -36.123  21.707  1.00  0.00     0.008 C 
ENDBRANCH  12  17
ENDBRANCH  11  12
ENDBRANCH   1  11
TORSDOF 1
ENDMDL
MODEL 3
REMARK VINA RESULT:    -4.270      2.393      4.131
REMARK INTER + INTRA:          -6.542
REMARK INTER:                  -6.366
REMARK INTRA:                  -0.176
REMARK UNBOUND:                -0.025
REMARK SMILES CC1=CCC[C@@H](C)C(=O)C[C@H](C(C)C)C(=O)C1
REMARK SMILES IDX 8 1 9 2 6 3 7 4 5 5 4 6 3 7 2 8 1 9 10 11 11 12 15 13 16 14
REMARK SMILES IDX 17 15 12 17 13 18 14 19
REMARK H PARENT
REMARK Flexibility Score: 70.00
ROOT
ATOM      1  C   UNL     1      14.742 -32.723  21.815  1.00  0.00     0.136 C 
ATOM      2  O   UNL     1      13.880 -32.438  20.996  1.00  0.00    -0.299 OA
ENDROOT
BRANCH   1   3
ATOM      3  C   UNL     1      15.055 -31.766  22.948  1.00  0.00     0.053 C 
ATOM      4  C   UNL     1      13.746 -31.274  23.572  1.00  0.00     0.016 C 
BRANCH   3   5
ATOM      5  C   UNL     1      15.905 -30.567  22.471  1.00  0.00     0.015 C 
BRANCH   5   6
ATOM      6  C   UNL     1      17.400 -30.713  22.796  1.00  0.00     0.028 C 
BRANCH   6   7
ATOM      7  C   UNL     1      17.608 -31.420  24.114  1.00  0.00    -0.028 C 
ATOM      8  C   UNL     1      18.246 -32.600  24.287  1.00  0.00    -0.070 CG0
ATOM      9  C   UNL     1      18.346 -33.150  25.688  1.00  0.00     0.039 C 
ATOM     10  G   UNL     1      18.826 -33.410  23.143  1.00  0.00     0.000 G0
ENDBRANCH   6   7
ENDBRANCH   5   6
ENDBRANCH   3   5
ENDBRANCH   1   3
BRANCH   1  11
ATOM     11  C   UNL     1      15.448 -34.049  21.700  1.00  0.00     0.087 C 
BRANCH  11  12
ATOM     12  C   UNL     1      16.948 -33.875  21.344  1.00  0.00     0.066 C 
BRANCH  12  13
ATOM     13  C   UNL     1      17.797 -34.323  22.522  1.00  0.00     0.140 C 
ATOM     14  O   UNL     1      17.696 -35.471  22.934  1.00  0.00    -0.299 OA
BRANCH  13  15
ATOM     15  C   UNL     1      18.830 -33.415  23.140  1.00  0.00     0.106 CG0
ATOM     16  G   UNL     1      18.235 -32.603  24.275  1.00  0.00     0.000 G0
ENDBRANCH  13  15
ENDBRANCH  12  13
BRANCH  12  17
ATOM     17  C   UNL     1      17.347 -34.665  20.054  1.00  0.00    -0.006 C 
ATOM     18  C   UNL     1      16.352 -35.798  19.733  1.00  0.00     0.008 C 
ATOM     19  C   UNL     1      17.439 -33.734  18.828  1.00  0.00     0.008 C 
ENDBRANCH  12  17
ENDBRANCH  11  12
ENDBRANCH   1  11
TORSDOF 1
ENDMDL
MODEL 4
REMARK VINA RESULT:    -4.256      1.739      4.214
REMARK INTER + INTRA:          -6.519
REMARK INTER:                  -6.275
REMARK INTRA:                  -0.244
REMARK UNBOUND:                -0.025
REMARK SMILES CC1=CCC[C@@H](C)C(=O)C[C@H](C(C)C)C(=O)C1
REMARK SMILES IDX 8 1 9 2 6 3 7 4 5 5 4 6 3 7 2 8 1 9 10 11 11 12 15 13 16 14
REMARK SMILES IDX 17 15 12 17 13 18 14 19
REMARK H PARENT
REMARK Flexibility Score: 70.00
ROOT
ATOM      1  C   UNL     1      17.025 -30.179  22.080  1.00  0.00     0.136 C 
ATOM      2  O   UNL     1      16.909 -29.026  21.690  1.00  0.00    -0.299 OA
ENDROOT
BRANCH   1   3
ATOM      3  C   UNL     1      18.197 -31.020  21.617  1.00  0.00     0.053 C 
ATOM      4  C   UNL     1      19.483 -30.192  21.707  1.00  0.00     0.016 C 
BRANCH   3   5
ATOM      5  C   UNL     1      17.997 -31.543  20.176  1.00  0.00     0.015 C 
BRANCH   5   6
ATOM      6  C   UNL     1      17.527 -33.005  20.119  1.00  0.00     0.028 C 
BRANCH   6   7
ATOM      7  C   UNL     1      17.827 -33.728  21.410  1.00  0.00    -0.028 C 
ATOM      8  C   UNL     1      16.908 -34.225  22.269  1.00  0.00    -0.070 CG0
ATOM      9  C   UNL     1      17.406 -34.913  23.516  1.00  0.00     0.039 C 
ATOM     10  G   UNL     1      15.412 -34.090  22.061  1.00  0.00     0.000 G0
ENDBRANCH   6   7
ENDBRANCH   5   6
ENDBRANCH   3   5
ENDBRANCH   1   3
BRANCH   1  11
ATOM     11  C   UNL     1      16.014 -30.725  23.055  1.00  0.00     0.087 C 
BRANCH  11  12
ATOM     12  C   UNL     1      14.887 -31.512  22.337  1.00  0.00     0.066 C 
BRANCH  12  13
ATOM     13  C   UNL     1      14.856 -32.937  22.865  1.00  0.00     0.140 C 
ATOM     14  O   UNL     1      14.312 -33.168  23.937  1.00  0.00    -0.299 OA
BRANCH  13  15
ATOM     15  C   UNL     1      15.398 -34.089  22.059  1.00  0.00     0.106 CG0
ATOM     16  G   UNL     1      16.891 -34.251  22.273  1.00  0.00     0.000 G0
ENDBRANCH  13  15
ENDBRANCH  12  13
BRANCH  12  17
ATOM     17  C   UNL     1      13.486 -30.836  22.511  1.00  0.00    -0.006 C 
ATOM     18  C   UNL     1      13.602 -29.341  22.868  1.00  0.00     0.008 C 
ATOM     19  C   UNL     1      12.633 -30.968  21.233  1.00  0.00     0.008 C 
ENDBRANCH  12  17
ENDBRANCH  11  12
ENDBRANCH   1  11
TORSDOF 1
ENDMDL
MODEL 5
REMARK VINA RESULT:    -4.235      2.874      3.831
REMARK INTER + INTRA:          -6.488
REMARK INTER:                  -6.306
REMARK INTRA:                  -0.182
REMARK UNBOUND:                -0.025
REMARK SMILES CC1=CCC[C@@H](C)C(=O)C[C@H](C(C)C)C(=O)C1
REMARK SMILES IDX 8 1 9 2 6 3 7 4 5 5 4 6 3 7 2 8 1 9 10 11 11 12 15 13 16 14
REMARK SMILES IDX 17 15 12 17 13 18 14 19
REMARK H PARENT
REMARK Flexibility Score: 70.00
ROOT
ATOM      1  C   UNL     1      15.474 -33.324  22.734  1.00  0.00     0.136 C 
ATOM      2  O   UNL     1      14.631 -33.702  23.535  1.00  0.00    -0.299 OA
ENDROOT
BRANCH   1   3
ATOM      3  C   UNL     1      15.045 -32.674  21.435  1.00  0.00     0.053 C 
ATOM      4  C   UNL     1      13.871 -31.727  21.704  1.00  0.00     0.016 C 
BRANCH   3   5
ATOM      5  C   UNL     1      14.653 -33.722  20.368  1.00  0.00     0.015 C 
BRANCH   5   6
ATOM      6  C   UNL     1      15.763 -33.987  19.339  1.00  0.00     0.028 C 
BRANCH   6   7
ATOM      7  C   UNL     1      16.232 -35.421  19.395  1.00  0.00    -0.028 C 
ATOM      8  C   UNL     1      17.298 -35.878  20.092  1.00  0.00    -0.070 CG0
ATOM      9  C   UNL     1      17.611 -37.351  20.017  1.00  0.00     0.039 C 
ATOM     10  G   UNL     1      18.210 -34.980  20.905  1.00  0.00     0.000 G0
ENDBRANCH   6   7
ENDBRANCH   5   6
ENDBRANCH   3   5
ENDBRANCH   1   3
BRANCH   1  11
ATOM     11  C   UNL     1      16.932 -33.478  23.082  1.00  0.00     0.087 C 
BRANCH  11  12
ATOM     12  C   UNL     1      17.304 -34.956  23.369  1.00  0.00     0.066 C 
BRANCH  12  13
ATOM     13  C   UNL     1      18.325 -35.423  22.343  1.00  0.00     0.140 C 
ATOM     14  O   UNL     1      19.181 -36.233  22.674  1.00  0.00    -0.299 OA
BRANCH  13  15
ATOM     15  C   UNL     1      18.253 -34.983  20.903  1.00  0.00     0.106 CG0
ATOM     16  G   UNL     1      17.310 -35.867  20.109  1.00  0.00     0.000 G0
ENDBRANCH  13  15
ENDBRANCH  12  13
BRANCH  12  17
ATOM     17  C   UNL     1      17.857 -35.159  24.818  1.00  0.00    -0.006 C 
ATOM     18  C   UNL     1      18.064 -33.821  25.555  1.00  0.00     0.008 C 
ATOM     19  C   UNL     1      16.915 -36.040  25.663  1.00  0.00     0.008 C 
ENDBRANCH  12  17
ENDBRANCH  11  12
ENDBRANCH   1  11
TORSDOF 1
ENDMDL
MODEL 6
REMARK VINA RESULT:    -4.216      1.614      4.148
REMARK INTER + INTRA:          -6.459
REMARK INTER:                  -6.469
REMARK INTRA:                   0.010
REMARK UNBOUND:                -0.025
REMARK SMILES CC1=CCC[C@@H](C)C(=O)C[C@H](C(C)C)C(=O)C1
REMARK SMILES IDX 8 1 9 2 6 3 7 4 5 5 4 6 3 7 2 8 1 9 10 11 11 12 15 13 16 14
REMARK SMILES IDX 17 15 12 17 13 18 14 19
REMARK H PARENT
REMARK Flexibility Score: 70.00
ROOT
ATOM      1  C   UNL     1      17.892 -31.114  22.112  1.00  0.00     0.136 C 
ATOM      2  O   UNL     1      17.682 -29.939  21.848  1.00  0.00    -0.299 OA
ENDROOT
BRANCH   1   3
ATOM      3  C   UNL     1      19.304 -31.661  22.058  1.00  0.00     0.053 C 
ATOM      4  C   UNL     1      20.165 -30.755  21.172  1.00  0.00     0.016 C 
BRANCH   3   5
ATOM      5  C   UNL     1      19.339 -33.114  21.533  1.00  0.00     0.015 C 
BRANCH   5   6
ATOM      6  C   UNL     1      18.865 -33.248  20.078  1.00  0.00     0.028 C 
BRANCH   6   7
ATOM      7  C   UNL     1      18.314 -34.626  19.805  1.00  0.00    -0.028 C 
ATOM      8  C   UNL     1      17.016 -34.927  19.565  1.00  0.00    -0.070 CG0
ATOM      9  C   UNL     1      16.659 -36.371  19.320  1.00  0.00     0.039 C 
ATOM     10  G   UNL     1      15.906 -33.893  19.571  1.00  0.00     0.000 G0
ENDBRANCH   6   7
ENDBRANCH   5   6
ENDBRANCH   3   5
ENDBRANCH   1   3
BRANCH   1  11
ATOM     11  C   UNL     1      16.736 -31.986  22.530  1.00  0.00     0.087 C 
BRANCH  11  12
ATOM     12  C   UNL     1      15.640 -32.056  21.435  1.00  0.00     0.066 C 
BRANCH  12  13
ATOM     13  C   UNL     1      15.499 -33.493  20.960  1.00  0.00     0.140 C 
ATOM     14  O   UNL     1      14.993 -34.324  21.702  1.00  0.00    -0.299 OA
BRANCH  13  15
ATOM     15  C   UNL     1      15.884 -33.903  19.561  1.00  0.00     0.106 CG0
ATOM     16  G   UNL     1      16.998 -34.931  19.579  1.00  0.00     0.000 G0
ENDBRANCH  13  15
ENDBRANCH  12  13
BRANCH  12  17
ATOM     17  C   UNL     1      14.262 -31.511  21.936  1.00  0.00    -0.006 C 
ATOM     18  C   UNL     1      14.413 -30.215  22.757  1.00  0.00     0.008 C 
ATOM     19  C   UNL     1      13.302 -31.236  20.762  1.00  0.00     0.008 C 
ENDBRANCH  12  17
ENDBRANCH  11  12
ENDBRANCH   1  11
TORSDOF 1
ENDMDL
MODEL 7
REMARK VINA RESULT:    -4.213      2.499      4.562
REMARK INTER + INTRA:          -6.454
REMARK INTER:                  -6.192
REMARK INTRA:                  -0.261
REMARK UNBOUND:                -0.025
REMARK SMILES CC1=CCC[C@@H](C)C(=O)C[C@H](C(C)C)C(=O)C1
REMARK SMILES IDX 8 1 9 2 6 3 7 4 5 5 4 6 3 7 2 8 1 9 10 11 11 12 15 13 16 14
REMARK SMILES IDX 17 15 12 17 13 18 14 19
REMARK H PARENT
REMARK Flexibility Score: 70.00
ROOT
ATOM      1  C   UNL     1      16.548 -34.055  24.427  1.00  0.00     0.136 C 
ATOM      2  O   UNL     1      16.938 -33.343  25.342  1.00  0.00    -0.299 OA
ENDROOT
BRANCH   1   3
ATOM      3  C   UNL     1      17.202 -35.400  24.185  1.00  0.00     0.053 C 
ATOM      4  C   UNL     1      17.082 -36.258  25.448  1.00  0.00     0.016 C 
BRANCH   3   5
ATOM      5  C   UNL     1      18.685 -35.255  23.776  1.00  0.00     0.015 C 
BRANCH   5   6
ATOM      6  C   UNL     1      18.873 -34.691  22.359  1.00  0.00     0.028 C 
BRANCH   6   7
ATOM      7  C   UNL     1      18.178 -35.549  21.330  1.00  0.00    -0.028 C 
ATOM      8  C   UNL     1      17.316 -35.110  20.385  1.00  0.00    -0.070 CG0
ATOM      9  C   UNL     1      16.716 -36.128  19.448  1.00  0.00     0.039 C 
ATOM     10  G   UNL     1      16.895 -33.659  20.249  1.00  0.00     0.000 G0
ENDBRANCH   6   7
ENDBRANCH   5   6
ENDBRANCH   3   5
ENDBRANCH   1   3
BRANCH   1  11
ATOM     11  C   UNL     1      15.390 -33.591  23.583  1.00  0.00     0.087 C 
BRANCH  11  12
ATOM     12  C   UNL     1      15.849 -32.644  22.443  1.00  0.00     0.066 C 
BRANCH  12  13
ATOM     13  C   UNL     1      15.693 -33.356  21.109  1.00  0.00     0.140 C 
ATOM     14  O   UNL     1      14.571 -33.621  20.697  1.00  0.00    -0.299 OA
BRANCH  13  15
ATOM     15  C   UNL     1      16.883 -33.663  20.236  1.00  0.00     0.106 CG0
ATOM     16  G   UNL     1      17.318 -35.107  20.393  1.00  0.00     0.000 G0
ENDBRANCH  13  15
ENDBRANCH  12  13
BRANCH  12  17
ATOM     17  C   UNL     1      15.057 -31.295  22.436  1.00  0.00    -0.006 C 
ATOM     18  C   UNL     1      13.884 -31.303  23.436  1.00  0.00     0.008 C 
ATOM     19  C   UNL     1      15.974 -30.101  22.769  1.00  0.00     0.008 C 
ENDBRANCH  12  17
ENDBRANCH  11  12
ENDBRANCH   1  11
TORSDOF 1
ENDMDL
MODEL 8
REMARK VINA RESULT:    -4.212      1.445      3.877
REMARK INTER + INTRA:          -6.453
REMARK INTER:                  -6.214
REMARK INTRA:                  -0.239
REMARK UNBOUND:                -0.025
REMARK SMILES CC1=CCC[C@@H](C)C(=O)C[C@H](C(C)C)C(=O)C1
REMARK SMILES IDX 8 1 9 2 6 3 7 4 5 5 4 6 3 7 2 8 1 9 10 11 11 12 15 13 16 14
REMARK SMILES IDX 17 15 12 17 13 18 14 19
REMARK H PARENT
REMARK Flexibility Score: 70.00
ROOT
ATOM      1  C   UNL     1      17.663 -33.858  20.431  1.00  0.00     0.136 C 
ATOM      2  O   UNL     1      18.152 -33.617  19.336  1.00  0.00    -0.299 OA
ENDROOT
BRANCH   1   3
ATOM      3  C   UNL     1      16.656 -34.980  20.578  1.00  0.00     0.053 C 
ATOM      4  C   UNL     1      17.287 -36.294  20.109  1.00  0.00     0.016 C 
BRANCH   3   5
ATOM      5  C   UNL     1      15.358 -34.697  19.787  1.00  0.00     0.015 C 
BRANCH   5   6
ATOM      6  C   UNL     1      14.771 -33.303  20.059  1.00  0.00     0.028 C 
BRANCH   6   7
ATOM      7  C   UNL     1      14.303 -33.174  21.488  1.00  0.00    -0.028 C 
ATOM      8  C   UNL     1      14.547 -32.127  22.309  1.00  0.00    -0.070 CG0
ATOM      9  C   UNL     1      13.997 -32.187  23.712  1.00  0.00     0.039 C 
ATOM     10  G   UNL     1      15.375 -30.924  21.903  1.00  0.00     0.000 G0
ENDBRANCH   6   7
ENDBRANCH   5   6
ENDBRANCH   3   5
ENDBRANCH   1   3
BRANCH   1  11
ATOM     11  C   UNL     1      18.110 -33.053  21.623  1.00  0.00     0.087 C 
BRANCH  11  12
ATOM     12  C   UNL     1      17.889 -31.533  21.410  1.00  0.00     0.066 C 
BRANCH  12  13
ATOM     13  C   UNL     1      16.807 -31.048  22.361  1.00  0.00     0.140 C 
ATOM     14  O   UNL     1      17.116 -30.688  23.489  1.00  0.00    -0.299 OA
BRANCH  13  15
ATOM     15  C   UNL     1      15.372 -30.910  21.918  1.00  0.00     0.106 CG0
ATOM     16  G   UNL     1      14.559 -32.128  22.313  1.00  0.00     0.000 G0
ENDBRANCH  13  15
ENDBRANCH  12  13
BRANCH  12  17
ATOM     17  C   UNL     1      19.201 -30.706  21.611  1.00  0.00    -0.006 C 
ATOM     18  C   UNL     1      20.433 -31.415  21.013  1.00  0.00     0.008 C 
ATOM     19  C   UNL     1      19.089 -29.305  20.978  1.00  0.00     0.008 C 
ENDBRANCH  12  17
ENDBRANCH  11  12
ENDBRANCH   1  11
TORSDOF 1
ENDMDL
MODEL 9
REMARK VINA RESULT:    -4.100      2.081      4.650
REMARK INTER + INTRA:          -6.281
REMARK INTER:                  -6.213
REMARK INTRA:                  -0.068
REMARK UNBOUND:                -0.025
REMARK SMILES CC1=CCC[C@@H](C)C(=O)C[C@H](C(C)C)C(=O)C1
REMARK SMILES IDX 8 1 9 2 6 3 7 4 5 5 4 6 3 7 2 8 1 9 10 11 11 12 15 13 16 14
REMARK SMILES IDX 17 15 12 17 13 18 14 19
REMARK H PARENT
REMARK Flexibility Score: 70.00
ROOT
ATOM      1  C   UNL     1      15.395 -33.198  20.255  1.00  0.00     0.136 C 
ATOM      2  O   UNL     1      14.190 -33.397  20.323  1.00  0.00    -0.299 OA
ENDROOT
BRANCH   1   3
ATOM      3  C   UNL     1      16.255 -34.067  19.361  1.00  0.00     0.053 C 
ATOM      4  C   UNL     1      16.210 -35.513  19.863  1.00  0.00     0.016 C 
BRANCH   3   5
ATOM      5  C   UNL     1      17.716 -33.565  19.302  1.00  0.00     0.015 C 
BRANCH   5   6
ATOM      6  C   UNL     1      18.672 -34.368  20.198  1.00  0.00     0.028 C 
BRANCH   6   7
ATOM      7  C   UNL     1      19.507 -33.456  21.064  1.00  0.00    -0.028 C 
ATOM      8  C   UNL     1      19.211 -33.075  22.328  1.00  0.00    -0.070 CG0
ATOM      9  C   UNL     1      20.173 -32.149  23.030  1.00  0.00     0.039 C 
ATOM     10  G   UNL     1      17.948 -33.499  23.052  1.00  0.00     0.000 G0
ENDBRANCH   6   7
ENDBRANCH   5   6
ENDBRANCH   3   5
ENDBRANCH   1   3
BRANCH   1  11
ATOM     11  C   UNL     1      15.992 -32.057  21.037  1.00  0.00     0.087 C 
BRANCH  11  12
ATOM     12  C   UNL     1      15.705 -32.186  22.556  1.00  0.00     0.066 C 
BRANCH  12  13
ATOM     13  C   UNL     1      17.021 -32.333  23.303  1.00  0.00     0.140 C 
ATOM     14  O   UNL     1      17.310 -31.525  24.175  1.00  0.00    -0.299 OA
BRANCH  13  15
ATOM     15  C   UNL     1      17.938 -33.504  23.060  1.00  0.00     0.106 CG0
ATOM     16  G   UNL     1      19.201 -33.069  22.341  1.00  0.00     0.000 G0
ENDBRANCH  13  15
ENDBRANCH  12  13
BRANCH  12  17
ATOM     17  C   UNL     1      14.895 -30.969  23.114  1.00  0.00    -0.006 C 
ATOM     18  C   UNL     1      14.948 -29.752  22.168  1.00  0.00     0.008 C 
ATOM     19  C   UNL     1      13.417 -31.336  23.354  1.00  0.00     0.008 C 
ENDBRANCH  12  17
ENDBRANCH  11  12
ENDBRANCH   1  11
TORSDOF 1
ENDMDL
