MODEL 1
REMARK VINA RESULT:    29.036      0.000      0.000
REMARK INTER + INTRA:          45.151
REMARK INTER:                  42.615
REMARK INTRA:                   2.536
REMARK UNBOUND:                 2.536
REMARK SMILES Cc1cc2c(C(C)C)c(O)c(O)c(C=O)c2c(O)c1-c1c(C)cc2c(C(C)C)c(O)c(O)c(C=O)c2c1O
REMARK SMILES IDX 1 1 2 2 3 3 4 4 16 5 13 6 11 7 9 8 5 9 17 10 19 11 20 12
REMARK SMILES IDX 37 13 21 14 36 15 23 16 22 17 24 18 33 19 25 20 31 21 29 22
REMARK SMILES IDX 38 23 34 25 35 26 26 27 27 28 28 29 32 30 30 32 18 34 6 36
REMARK SMILES IDX 7 37 8 38 14 39 15 40 10 41 12 43
REMARK H PARENT 38 24 32 31 30 33 18 35 10 42 12 44
REMARK Flexibility Score: inf
ROOT
ATOM      1  C   UNL     1       3.878 -39.962  21.928  1.00  0.00     0.045 C 
ATOM      2  C   UNL     1       4.216 -38.584  22.445  1.00  0.00    -0.039 A 
ATOM      3  C   UNL     1       4.481 -38.418  23.806  1.00  0.00     0.013 A 
ATOM      4  C   UNL     1       4.794 -37.162  24.360  1.00  0.00    -0.006 A 
ATOM      5  C   UNL     1       4.913 -36.040  23.483  1.00  0.00     0.039 A 
ATOM      6  C   UNL     1       5.235 -34.766  24.034  1.00  0.00     0.072 A 
ATOM      7  C   UNL     1       5.633 -34.670  25.378  1.00  0.00     0.169 A 
ATOM      8  C   UNL     1       5.590 -35.787  26.216  1.00  0.00     0.162 A 
ATOM      9  C   UNL     1       5.025 -37.005  25.764  1.00  0.00     0.008 A 
ATOM     10  C   UNL     1       4.756 -36.236  22.078  1.00  0.00     0.132 A 
ATOM     11  C   UNL     1       4.366 -37.495  21.573  1.00  0.00     0.031 A 
ENDROOT
BRANCH  11  12
ATOM     12  C   UNL     1       4.156 -37.682  20.114  1.00  0.00     0.031 A 
ATOM     13  C   UNL     1       3.091 -37.029  19.458  1.00  0.00     0.132 A 
ATOM     14  C   UNL     1       5.020 -38.520  19.390  1.00  0.00    -0.039 A 
ATOM     15  C   UNL     1       2.885 -37.212  18.056  1.00  0.00     0.039 A 
ATOM     16  C   UNL     1       4.876 -38.626  18.006  1.00  0.00     0.013 A 
ATOM     17  C   UNL     1       6.124 -39.283  20.082  1.00  0.00     0.045 C 
ATOM     18  C   UNL     1       3.869 -37.925  17.308  1.00  0.00    -0.006 A 
ATOM     19  C   UNL     1       1.742 -36.696  17.374  1.00  0.00     0.072 A 
ATOM     20  C   UNL     1       3.811 -37.946  15.883  1.00  0.00     0.008 A 
ATOM     21  C   UNL     1       1.604 -36.901  15.984  1.00  0.00     0.169 A 
ATOM     22  C   UNL     1       2.629 -37.509  15.250  1.00  0.00     0.162 A 
BRANCH  13  23
ATOM     23  O   UNL     1       2.253 -36.181  20.191  1.00  0.00    -0.507 OA
ATOM     24  H   UNL     1       1.316 -36.426  20.483  1.00  0.00     0.293 HD
ENDBRANCH  13  23
BRANCH  19  25
ATOM     25  C   UNL     1       0.639 -36.029  18.095  1.00  0.00     0.264 C 
ATOM     26  O   UNL     1      -0.239 -36.707  18.694  1.00  0.00    -0.298 OA
ENDBRANCH  19  25
BRANCH  20  27
ATOM     27  C   UNL     1       5.001 -38.427  15.034  1.00  0.00     0.017 C 
ATOM     28  C   UNL     1       4.774 -39.856  14.532  1.00  0.00     0.012 C 
ATOM     29  C   UNL     1       5.355 -37.475  13.877  1.00  0.00     0.012 C 
ENDBRANCH  20  27
BRANCH  21  30
ATOM     30  O   UNL     1       0.442 -36.526  15.299  1.00  0.00    -0.504 OA
ATOM     31  H   UNL     1       0.365 -36.488  14.291  1.00  0.00     0.293 HD
ENDBRANCH  21  30
BRANCH  22  32
ATOM     32  O   UNL     1       2.463 -37.702  13.876  1.00  0.00    -0.504 OA
ATOM     33  H   UNL     1       1.565 -37.639  13.413  1.00  0.00     0.293 HD
ENDBRANCH  22  32
ENDBRANCH  11  12
BRANCH  10  34
ATOM     34  O   UNL     1       5.035 -35.197  21.183  1.00  0.00    -0.507 OA
ATOM     35  H   UNL     1       4.936 -34.216  21.409  1.00  0.00     0.293 HD
ENDBRANCH  10  34
BRANCH   9  36
ATOM     36  C   UNL     1       4.631 -38.057  26.819  1.00  0.00     0.017 C 
ATOM     37  C   UNL     1       5.582 -38.137  28.032  1.00  0.00     0.012 C 
ATOM     38  C   UNL     1       3.154 -37.956  27.225  1.00  0.00     0.012 C 
ENDBRANCH   9  36
BRANCH   6  39
ATOM     39  C   UNL     1       5.094 -33.510  23.256  1.00  0.00     0.264 C 
ATOM     40  O   UNL     1       4.612 -33.512  22.092  1.00  0.00    -0.298 OA
ENDBRANCH   6  39
BRANCH   8  41
ATOM     41  O   UNL     1       6.117 -35.649  27.506  1.00  0.00    -0.504 OA
ATOM     42  H   UNL     1       6.694 -36.346  27.959  1.00  0.00     0.293 HD
ENDBRANCH   8  41
BRANCH   7  43
ATOM     43  O   UNL     1       6.055 -33.437  25.887  1.00  0.00    -0.504 OA
ATOM     44  H   UNL     1       6.988 -33.071  25.740  1.00  0.00     0.293 HD
ENDBRANCH   7  43
TORSDOF 11
ENDMDL
MODEL 2
REMARK VINA RESULT:    30.557      1.867      9.192
REMARK INTER + INTRA:          47.385
REMARK INTER:                  46.465
REMARK INTRA:                   0.920
REMARK UNBOUND:                 2.536
REMARK SMILES Cc1cc2c(C(C)C)c(O)c(O)c(C=O)c2c(O)c1-c1c(C)cc2c(C(C)C)c(O)c(O)c(C=O)c2c1O
REMARK SMILES IDX 1 1 2 2 3 3 4 4 16 5 13 6 11 7 9 8 5 9 17 10 19 11 20 12
REMARK SMILES IDX 37 13 21 14 36 15 23 16 22 17 24 18 33 19 25 20 31 21 29 22
REMARK SMILES IDX 38 23 34 25 35 26 26 27 27 28 28 29 32 30 30 32 18 34 6 36
REMARK SMILES IDX 7 37 8 38 14 39 15 40 10 41 12 43
REMARK H PARENT 38 24 32 31 30 33 18 35 10 42 12 44
REMARK Flexibility Score: inf
ROOT
ATOM      1  C   UNL     1       6.113 -35.463  19.129  1.00  0.00     0.045 C 
ATOM      2  C   UNL     1       4.711 -35.918  18.801  1.00  0.00    -0.039 A 
ATOM      3  C   UNL     1       4.370 -36.153  17.468  1.00  0.00     0.013 A 
ATOM      4  C   UNL     1       3.080 -36.570  17.086  1.00  0.00    -0.006 A 
ATOM      5  C   UNL     1       2.116 -36.829  18.110  1.00  0.00     0.039 A 
ATOM      6  C   UNL     1       0.810 -37.257  17.734  1.00  0.00     0.072 A 
ATOM      7  C   UNL     1       0.554 -37.617  16.401  1.00  0.00     0.169 A 
ATOM      8  C   UNL     1       1.525 -37.437  15.413  1.00  0.00     0.162 A 
ATOM      9  C   UNL     1       2.739 -36.770  15.711  1.00  0.00     0.008 A 
ATOM     10  C   UNL     1       2.504 -36.699  19.477  1.00  0.00     0.132 A 
ATOM     11  C   UNL     1       3.782 -36.204  19.813  1.00  0.00     0.031 A 
ENDROOT
BRANCH  11  12
ATOM     12  C   UNL     1       4.163 -36.024  21.238  1.00  0.00     0.031 A 
ATOM     13  C   UNL     1       4.477 -37.144  22.038  1.00  0.00     0.132 A 
ATOM     14  C   UNL     1       4.202 -34.733  21.789  1.00  0.00    -0.039 A 
ATOM     15  C   UNL     1       4.838 -36.973  23.409  1.00  0.00     0.039 A 
ATOM     16  C   UNL     1       4.645 -34.557  23.100  1.00  0.00     0.013 A 
ATOM     17  C   UNL     1       3.805 -33.527  20.972  1.00  0.00     0.045 C 
ATOM     18  C   UNL     1       5.040 -35.649  23.903  1.00  0.00    -0.006 A 
ATOM     19  C   UNL     1       5.020 -38.074  24.298  1.00  0.00     0.072 A 
ATOM     20  C   UNL     1       5.606 -35.444  25.197  1.00  0.00     0.008 A 
ATOM     21  C   UNL     1       5.390 -37.838  25.641  1.00  0.00     0.169 A 
ATOM     22  C   UNL     1       5.686 -36.543  26.078  1.00  0.00     0.162 A 
BRANCH  13  23
ATOM     23  O   UNL     1       4.453 -38.421  21.467  1.00  0.00    -0.507 OA
ATOM     24  H   UNL     1       5.120 -38.745  20.778  1.00  0.00     0.293 HD
ENDBRANCH  13  23
BRANCH  19  25
ATOM     25  C   UNL     1       4.740 -39.465  23.885  1.00  0.00     0.264 C 
ATOM     26  O   UNL     1       5.363 -39.986  22.922  1.00  0.00    -0.298 OA
ENDBRANCH  19  25
BRANCH  20  27
ATOM     27  C   UNL     1       6.125 -34.067  25.641  1.00  0.00     0.017 C 
ATOM     28  C   UNL     1       6.124 -33.076  24.472  1.00  0.00     0.012 C 
ATOM     29  C   UNL     1       5.382 -33.494  26.861  1.00  0.00     0.012 C 
ENDBRANCH  20  27
BRANCH  21  30
ATOM     30  O   UNL     1       5.454 -38.877  26.578  1.00  0.00    -0.504 OA
ATOM     31  H   UNL     1       5.428 -39.860  26.338  1.00  0.00     0.293 HD
ENDBRANCH  21  30
BRANCH  22  32
ATOM     32  O   UNL     1       6.047 -36.338  27.413  1.00  0.00    -0.504 OA
ATOM     33  H   UNL     1       6.986 -36.483  27.761  1.00  0.00     0.293 HD
ENDBRANCH  22  32
ENDBRANCH  11  12
BRANCH  10  34
ATOM     34  O   UNL     1       1.639 -37.108  20.499  1.00  0.00    -0.507 OA
ATOM     35  H   UNL     1       0.694 -37.433  20.342  1.00  0.00     0.293 HD
ENDBRANCH  10  34
BRANCH   9  36
ATOM     36  C   UNL     1       3.581 -36.239  14.535  1.00  0.00     0.017 C 
ATOM     37  C   UNL     1       3.925 -34.737  14.616  1.00  0.00     0.012 C 
ATOM     38  C   UNL     1       4.809 -37.117  14.250  1.00  0.00     0.012 C 
ENDBRANCH   9  36
BRANCH   6  39
ATOM     39  C   UNL     1      -0.324 -37.266  18.691  1.00  0.00     0.264 C 
ATOM     40  O   UNL     1      -1.440 -36.764  18.387  1.00  0.00    -0.298 OA
ENDBRANCH   6  39
BRANCH   8  41
ATOM     41  O   UNL     1       1.247 -37.932  14.133  1.00  0.00    -0.504 OA
ATOM     42  H   UNL     1       1.839 -38.586  13.638  1.00  0.00     0.293 HD
ENDBRANCH   8  41
BRANCH   7  43
ATOM     43  O   UNL     1      -0.697 -38.143  16.056  1.00  0.00    -0.504 OA
ATOM     44  H   UNL     1      -0.835 -39.114  15.804  1.00  0.00     0.293 HD
ENDBRANCH   7  43
TORSDOF 11
ENDMDL
