MODEL 1
REMARK VINA RESULT:    -3.336      0.000      0.000
REMARK INTER + INTRA:          -4.969
REMARK INTER:                  -4.506
REMARK INTRA:                  -0.463
REMARK UNBOUND:                -0.463
REMARK SMILES CCCCCCCC(=O)[O-]
REMARK SMILES IDX 5 1 6 2 7 3 8 4 9 5 10 6 4 7 3 8 2 9 1 10
REMARK H PARENT
REMARK Flexibility Score: inf
ROOT
ATOM      1  C   UNL     1       6.259  10.392  33.059  1.00  0.00     0.000 C 
ENDROOT
BRANCH   1   2
ATOM      2  C   UNL     1       5.249  10.975  34.070  1.00  0.00     0.006 C 
BRANCH   2   3
ATOM      3  C   UNL     1       5.057  10.101  35.320  1.00  0.00     0.053 C 
BRANCH   3   4
ATOM      4  C   UNL     1       6.020  10.449  36.412  1.00  0.00     0.041 C 
ATOM      5  O   UNL     1       5.918  11.548  37.019  1.00  0.00    -0.550 OA
ATOM      6  O   UNL     1       7.044   9.571  36.743  1.00  0.00    -0.550 OA
ENDBRANCH   3   4
ENDBRANCH   2   3
ENDBRANCH   1   2
BRANCH   1   7
ATOM      7  C   UNL     1       6.467   8.879  33.244  1.00  0.00     0.000 C 
BRANCH   7   8
ATOM      8  C   UNL     1       7.941   8.507  33.471  1.00  0.00    -0.000 C 
BRANCH   8   9
ATOM      9  C   UNL     1       8.113   7.091  34.040  1.00  0.00    -0.003 C 
ATOM     10  C   UNL     1       6.760   6.461  34.359  1.00  0.00     0.004 C 
ENDBRANCH   8   9
ENDBRANCH   7   8
ENDBRANCH   1   7
TORSDOF 6
ENDMDL
MODEL 2
REMARK VINA RESULT:    -3.331      2.376      4.689
REMARK INTER + INTRA:          -4.961
REMARK INTER:                  -4.676
REMARK INTRA:                  -0.285
REMARK UNBOUND:                -0.463
REMARK SMILES CCCCCCCC(=O)[O-]
REMARK SMILES IDX 5 1 6 2 7 3 8 4 9 5 10 6 4 7 3 8 2 9 1 10
REMARK H PARENT
REMARK Flexibility Score: inf
ROOT
ATOM      1  C   UNL     1       6.020   9.620  34.727  1.00  0.00     0.000 C 
ENDROOT
BRANCH   1   2
ATOM      2  C   UNL     1       6.725   9.475  33.363  1.00  0.00     0.006 C 
BRANCH   2   3
ATOM      3  C   UNL     1       7.902   8.486  33.381  1.00  0.00     0.053 C 
BRANCH   3   4
ATOM      4  C   UNL     1       7.507   7.140  33.902  1.00  0.00     0.041 C 
ATOM      5  O   UNL     1       6.508   6.542  33.421  1.00  0.00    -0.550 OA
ATOM      6  O   UNL     1       8.225   6.556  34.938  1.00  0.00    -0.550 OA
ENDBRANCH   3   4
ENDBRANCH   2   3
ENDBRANCH   1   2
BRANCH   1   7
ATOM      7  C   UNL     1       5.182  10.907  34.820  1.00  0.00     0.000 C 
BRANCH   7   8
ATOM      8  C   UNL     1       5.216  11.732  33.524  1.00  0.00    -0.000 C 
BRANCH   8   9
ATOM      9  C   UNL     1       5.176  13.245  33.785  1.00  0.00    -0.003 C 
ATOM     10  C   UNL     1       5.448  13.555  35.255  1.00  0.00     0.004 C 
ENDBRANCH   8   9
ENDBRANCH   7   8
ENDBRANCH   1   7
TORSDOF 6
ENDMDL
MODEL 3
REMARK VINA RESULT:    -3.328      1.882      2.619
REMARK INTER + INTRA:          -4.957
REMARK INTER:                  -4.783
REMARK INTRA:                  -0.174
REMARK UNBOUND:                -0.463
REMARK SMILES CCCCCCCC(=O)[O-]
REMARK SMILES IDX 5 1 6 2 7 3 8 4 9 5 10 6 4 7 3 8 2 9 1 10
REMARK H PARENT
REMARK Flexibility Score: inf
ROOT
ATOM      1  C   UNL     1       6.082  10.562  33.018  1.00  0.00     0.000 C 
ENDROOT
BRANCH   1   2
ATOM      2  C   UNL     1       4.990  11.360  33.760  1.00  0.00     0.006 C 
BRANCH   2   3
ATOM      3  C   UNL     1       5.022  12.868  33.463  1.00  0.00     0.053 C 
BRANCH   3   4
ATOM      4  C   UNL     1       5.259  13.686  34.694  1.00  0.00     0.041 C 
ATOM      5  O   UNL     1       5.641  13.131  35.759  1.00  0.00    -0.550 OA
ATOM      6  O   UNL     1       5.034  15.056  34.674  1.00  0.00    -0.550 OA
ENDBRANCH   3   4
ENDBRANCH   2   3
ENDBRANCH   1   2
BRANCH   1   7
ATOM      7  C   UNL     1       6.380   9.211  33.691  1.00  0.00     0.000 C 
BRANCH   7   8
ATOM      8  C   UNL     1       7.799   8.701  33.393  1.00  0.00    -0.000 C 
BRANCH   8   9
ATOM      9  C   UNL     1       8.013   7.249  33.846  1.00  0.00    -0.003 C 
ATOM     10  C   UNL     1       6.678   6.541  34.066  1.00  0.00     0.004 C 
ENDBRANCH   8   9
ENDBRANCH   7   8
ENDBRANCH   1   7
TORSDOF 6
ENDMDL
MODEL 4
REMARK VINA RESULT:    -3.312      3.051      4.746
REMARK INTER + INTRA:          -4.936
REMARK INTER:                  -4.697
REMARK INTRA:                  -0.239
REMARK UNBOUND:                -0.463
REMARK SMILES CCCCCCCC(=O)[O-]
REMARK SMILES IDX 5 1 6 2 7 3 8 4 9 5 10 6 4 7 3 8 2 9 1 10
REMARK H PARENT
REMARK Flexibility Score: inf
ROOT
ATOM      1  C   UNL     1       7.927   8.474  33.421  1.00  0.00     0.000 C 
ENDROOT
BRANCH   1   2
ATOM      2  C   UNL     1       7.420   7.108  33.927  1.00  0.00     0.006 C 
BRANCH   2   3
ATOM      3  C   UNL     1       7.913   6.755  35.339  1.00  0.00     0.053 C 
BRANCH   3   4
ATOM      4  C   UNL     1       8.878   5.611  35.336  1.00  0.00     0.041 C 
ATOM      5  O   UNL     1       9.946   5.686  34.673  1.00  0.00    -0.550 OA
ATOM      6  O   UNL     1       8.587   4.452  36.044  1.00  0.00    -0.550 OA
ENDBRANCH   3   4
ENDBRANCH   2   3
ENDBRANCH   1   2
BRANCH   1   7
ATOM      7  C   UNL     1       6.781   9.466  33.161  1.00  0.00     0.000 C 
BRANCH   7   8
ATOM      8  C   UNL     1       5.760   9.507  34.309  1.00  0.00    -0.000 C 
BRANCH   8   9
ATOM      9  C   UNL     1       5.155  10.904  34.513  1.00  0.00    -0.003 C 
ATOM     10  C   UNL     1       5.107  11.678  33.199  1.00  0.00     0.004 C 
ENDBRANCH   8   9
ENDBRANCH   7   8
ENDBRANCH   1   7
TORSDOF 6
ENDMDL
MODEL 5
REMARK VINA RESULT:    -3.310      2.487      4.472
REMARK INTER + INTRA:          -4.933
REMARK INTER:                  -4.538
REMARK INTRA:                  -0.396
REMARK UNBOUND:                -0.463
REMARK SMILES CCCCCCCC(=O)[O-]
REMARK SMILES IDX 5 1 6 2 7 3 8 4 9 5 10 6 4 7 3 8 2 9 1 10
REMARK H PARENT
REMARK Flexibility Score: inf
ROOT
ATOM      1  C   UNL     1       7.736   8.775  33.379  1.00  0.00     0.000 C 
ENDROOT
BRANCH   1   2
ATOM      2  C   UNL     1       7.568   7.952  34.673  1.00  0.00     0.006 C 
BRANCH   2   3
ATOM      3  C   UNL     1       7.325   6.455  34.423  1.00  0.00     0.053 C 
BRANCH   3   4
ATOM      4  C   UNL     1       5.884   6.148  34.162  1.00  0.00     0.041 C 
ATOM      5  O   UNL     1       5.479   5.960  32.984  1.00  0.00    -0.550 OA
ATOM      6  O   UNL     1       4.981   6.092  35.217  1.00  0.00    -0.550 OA
ENDBRANCH   3   4
ENDBRANCH   2   3
ENDBRANCH   1   2
BRANCH   1   7
ATOM      7  C   UNL     1       6.516   9.667  33.089  1.00  0.00     0.000 C 
BRANCH   7   8
ATOM      8  C   UNL     1       5.644   9.902  34.332  1.00  0.00    -0.000 C 
BRANCH   8   9
ATOM      9  C   UNL     1       5.192  11.363  34.470  1.00  0.00    -0.003 C 
ATOM     10  C   UNL     1       4.898  11.977  33.105  1.00  0.00     0.004 C 
ENDBRANCH   8   9
ENDBRANCH   7   8
ENDBRANCH   1   7
TORSDOF 6
ENDMDL
MODEL 6
REMARK VINA RESULT:    -3.279      1.863      2.699
REMARK INTER + INTRA:          -4.892
REMARK INTER:                  -4.543
REMARK INTRA:                  -0.349
REMARK UNBOUND:                -0.463
REMARK SMILES CCCCCCCC(=O)[O-]
REMARK SMILES IDX 5 1 6 2 7 3 8 4 9 5 10 6 4 7 3 8 2 9 1 10
REMARK H PARENT
REMARK Flexibility Score: inf
ROOT
ATOM      1  C   UNL     1       7.765   8.721  33.376  1.00  0.00     0.000 C 
ENDROOT
BRANCH   1   2
ATOM      2  C   UNL     1       6.677   9.749  33.003  1.00  0.00     0.006 C 
BRANCH   2   3
ATOM      3  C   UNL     1       5.720  10.079  34.160  1.00  0.00     0.053 C 
BRANCH   3   4
ATOM      4  C   UNL     1       5.239  11.495  34.115  1.00  0.00     0.041 C 
ATOM      5  O   UNL     1       5.141  12.165  35.177  1.00  0.00    -0.550 OA
ATOM      6  O   UNL     1       4.875  12.069  32.903  1.00  0.00    -0.550 OA
ENDBRANCH   3   4
ENDBRANCH   2   3
ENDBRANCH   1   2
BRANCH   1   7
ATOM      7  C   UNL     1       7.363   7.853  34.582  1.00  0.00     0.000 C 
BRANCH   7   8
ATOM      8  C   UNL     1       6.859   6.462  34.169  1.00  0.00    -0.000 C 
BRANCH   8   9
ATOM      9  C   UNL     1       5.327   6.387  34.092  1.00  0.00    -0.003 C 
ATOM     10  C   UNL     1       4.880   5.347  33.067  1.00  0.00     0.004 C 
ENDBRANCH   8   9
ENDBRANCH   7   8
ENDBRANCH   1   7
TORSDOF 6
ENDMDL
MODEL 7
REMARK VINA RESULT:    -3.265      2.450      4.610
REMARK INTER + INTRA:          -4.873
REMARK INTER:                  -4.674
REMARK INTRA:                  -0.199
REMARK UNBOUND:                -0.463
REMARK SMILES CCCCCCCC(=O)[O-]
REMARK SMILES IDX 5 1 6 2 7 3 8 4 9 5 10 6 4 7 3 8 2 9 1 10
REMARK H PARENT
REMARK Flexibility Score: inf
ROOT
ATOM      1  C   UNL     1       7.844   8.741  33.462  1.00  0.00     0.000 C 
ENDROOT
BRANCH   1   2
ATOM      2  C   UNL     1       8.079   7.266  33.847  1.00  0.00     0.006 C 
BRANCH   2   3
ATOM      3  C   UNL     1       6.781   6.475  34.074  1.00  0.00     0.053 C 
BRANCH   3   4
ATOM      4  C   UNL     1       6.847   5.608  35.292  1.00  0.00     0.041 C 
ATOM      5  O   UNL     1       7.578   5.936  36.264  1.00  0.00    -0.550 OA
ATOM      6  O   UNL     1       6.122   4.425  35.345  1.00  0.00    -0.550 OA
ENDBRANCH   3   4
ENDBRANCH   2   3
ENDBRANCH   1   2
BRANCH   1   7
ATOM      7  C   UNL     1       6.359   9.138  33.539  1.00  0.00     0.000 C 
BRANCH   7   8
ATOM      8  C   UNL     1       6.102  10.571  33.046  1.00  0.00    -0.000 C 
BRANCH   8   9
ATOM      9  C   UNL     1       5.163  11.355  33.974  1.00  0.00    -0.003 C 
ATOM     10  C   UNL     1       5.337  12.860  33.786  1.00  0.00     0.004 C 
ENDBRANCH   8   9
ENDBRANCH   7   8
ENDBRANCH   1   7
TORSDOF 6
ENDMDL
MODEL 8
REMARK VINA RESULT:    -3.104      3.099      4.853
REMARK INTER + INTRA:          -4.655
REMARK INTER:                  -4.289
REMARK INTRA:                  -0.366
REMARK UNBOUND:                -0.463
REMARK SMILES CCCCCCCC(=O)[O-]
REMARK SMILES IDX 5 1 6 2 7 3 8 4 9 5 10 6 4 7 3 8 2 9 1 10
REMARK H PARENT
REMARK Flexibility Score: inf
ROOT
ATOM      1  C   UNL     1       6.589   6.558  34.581  1.00  0.00     0.000 C 
ENDROOT
BRANCH   1   2
ATOM      2  C   UNL     1       7.690   7.027  35.554  1.00  0.00     0.006 C 
BRANCH   2   3
ATOM      3  C   UNL     1       8.219   5.909  36.468  1.00  0.00     0.053 C 
BRANCH   3   4
ATOM      4  C   UNL     1       9.273   5.081  35.804  1.00  0.00     0.041 C 
ATOM      5  O   UNL     1       9.972   5.569  34.876  1.00  0.00    -0.550 OA
ATOM      6  O   UNL     1       9.467   3.760  36.190  1.00  0.00    -0.550 OA
ENDBRANCH   3   4
ENDBRANCH   2   3
ENDBRANCH   1   2
BRANCH   1   7
ATOM      7  C   UNL     1       6.547   7.400  33.294  1.00  0.00     0.000 C 
BRANCH   7   8
ATOM      8  C   UNL     1       7.372   8.692  33.403  1.00  0.00    -0.000 C 
BRANCH   8   9
ATOM      9  C   UNL     1       6.532   9.953  33.152  1.00  0.00    -0.003 C 
ATOM     10  C   UNL     1       5.501  10.155  34.259  1.00  0.00     0.004 C 
ENDBRANCH   8   9
ENDBRANCH   7   8
ENDBRANCH   1   7
TORSDOF 6
ENDMDL
MODEL 9
REMARK VINA RESULT:    -3.069      2.387      4.096
REMARK INTER + INTRA:          -4.608
REMARK INTER:                  -4.134
REMARK INTRA:                  -0.474
REMARK UNBOUND:                -0.463
REMARK SMILES CCCCCCCC(=O)[O-]
REMARK SMILES IDX 5 1 6 2 7 3 8 4 9 5 10 6 4 7 3 8 2 9 1 10
REMARK H PARENT
REMARK Flexibility Score: inf
ROOT
ATOM      1  C   UNL     1       7.720   8.756  33.295  1.00  0.00     0.000 C 
ENDROOT
BRANCH   1   2
ATOM      2  C   UNL     1       7.329   7.323  33.711  1.00  0.00     0.006 C 
BRANCH   2   3
ATOM      3  C   UNL     1       8.468   6.548  34.392  1.00  0.00     0.053 C 
BRANCH   3   4
ATOM      4  C   UNL     1       8.098   6.082  35.766  1.00  0.00     0.041 C 
ATOM      5  O   UNL     1       8.988   5.929  36.644  1.00  0.00    -0.550 OA
ATOM      6  O   UNL     1       6.774   5.792  36.070  1.00  0.00    -0.550 OA
ENDBRANCH   3   4
ENDBRANCH   2   3
ENDBRANCH   1   2
BRANCH   1   7
ATOM      7  C   UNL     1       6.516   9.713  33.284  1.00  0.00     0.000 C 
BRANCH   7   8
ATOM      8  C   UNL     1       5.534   9.445  34.436  1.00  0.00    -0.000 C 
BRANCH   8   9
ATOM      9  C   UNL     1       5.872  10.250  35.699  1.00  0.00    -0.003 C 
ATOM     10  C   UNL     1       6.554   9.370  36.743  1.00  0.00     0.004 C 
ENDBRANCH   8   9
ENDBRANCH   7   8
ENDBRANCH   1   7
TORSDOF 6
ENDMDL
