MODEL 1
REMARK VINA RESULT:    -3.948      0.000      0.000
REMARK INTER + INTRA:          -4.311
REMARK INTER:                  -4.294
REMARK INTRA:                  -0.017
REMARK UNBOUND:                -0.017
REMARK SMILES OCc1ccco1
REMARK SMILES IDX 2 1 3 2 5 3 6 4 4 5 7 6 1 7
REMARK H PARENT 1 8
REMARK Flexibility Score: inf
ROOT
ATOM      1  C   UNL     1     -20.699 -13.498  21.223  1.00  0.00     0.231 C 
ENDROOT
BRANCH   1   2
ATOM      2  C   UNL     1     -20.434 -12.154  20.622  1.00  0.00     0.129 A 
ATOM      3  C   UNL     1     -20.478 -10.398  19.304  1.00  0.00     0.042 A 
ATOM      4  C   UNL     1     -19.544 -10.242  20.309  1.00  0.00     0.195 A 
ATOM      5  C   UNL     1     -21.052 -11.635  19.503  1.00  0.00     0.048 A 
ATOM      6  O   UNL     1     -19.539 -11.308  21.078  1.00  0.00    -0.467 OA
ENDBRANCH   1   2
BRANCH   1   7
ATOM      7  O   UNL     1     -19.514 -14.243  21.274  1.00  0.00    -0.388 OA
ATOM      8  H   UNL     1     -18.854 -13.766  20.706  1.00  0.00     0.211 HD
ENDBRANCH   1   7
TORSDOF 2
ENDMDL
MODEL 2
REMARK VINA RESULT:    -3.697     13.304     14.386
REMARK INTER + INTRA:          -4.039
REMARK INTER:                  -4.026
REMARK INTRA:                  -0.013
REMARK UNBOUND:                -0.017
REMARK SMILES OCc1ccco1
REMARK SMILES IDX 2 1 3 2 5 3 6 4 4 5 7 6 1 7
REMARK H PARENT 1 8
REMARK Flexibility Score: inf
ROOT
ATOM      1  C   UNL     1     -11.831  -5.657   9.266  1.00  0.00     0.231 C 
ENDROOT
BRANCH   1   2
ATOM      2  C   UNL     1     -12.479  -5.219  10.541  1.00  0.00     0.129 A 
ATOM      3  C   UNL     1     -13.059  -5.055  12.652  1.00  0.00     0.042 A 
ATOM      4  C   UNL     1     -13.783  -4.180  11.868  1.00  0.00     0.195 A 
ATOM      5  C   UNL     1     -12.217  -5.731  11.795  1.00  0.00     0.048 A 
ATOM      6  O   UNL     1     -13.417  -4.304  10.613  1.00  0.00    -0.467 OA
ENDBRANCH   1   2
BRANCH   1   7
ATOM      7  O   UNL     1     -10.667  -4.911   9.038  1.00  0.00    -0.388 OA
ATOM      8  H   UNL     1     -10.530  -4.893   8.055  1.00  0.00     0.211 HD
ENDBRANCH   1   7
TORSDOF 2
ENDMDL
MODEL 3
REMARK VINA RESULT:    -3.687     12.955     13.890
REMARK INTER + INTRA:          -4.028
REMARK INTER:                  -4.012
REMARK INTRA:                  -0.015
REMARK UNBOUND:                -0.017
REMARK SMILES OCc1ccco1
REMARK SMILES IDX 2 1 3 2 5 3 6 4 4 5 7 6 1 7
REMARK H PARENT 1 8
REMARK Flexibility Score: inf
ROOT
ATOM      1  C   UNL     1     -12.873  -5.713  12.820  1.00  0.00     0.231 C 
ENDROOT
BRANCH   1   2
ATOM      2  C   UNL     1     -12.030  -5.632  11.586  1.00  0.00     0.129 A 
ATOM      3  C   UNL     1     -11.380  -5.510   9.492  1.00  0.00     0.042 A 
ATOM      4  C   UNL     1     -10.299  -5.618  10.344  1.00  0.00     0.195 A 
ATOM      5  C   UNL     1     -12.501  -5.522  10.294  1.00  0.00     0.048 A 
ATOM      6  O   UNL     1     -10.719  -5.692  11.586  1.00  0.00    -0.467 OA
ENDBRANCH   1   2
BRANCH   1   7
ATOM      7  O   UNL     1     -12.914  -7.032  13.288  1.00  0.00    -0.388 OA
ATOM      8  H   UNL     1     -12.213  -7.531  12.792  1.00  0.00     0.211 HD
ENDBRANCH   1   7
TORSDOF 2
ENDMDL
MODEL 4
REMARK VINA RESULT:    -3.682     12.525     13.484
REMARK INTER + INTRA:          -4.022
REMARK INTER:                  -4.007
REMARK INTRA:                  -0.015
REMARK UNBOUND:                -0.017
REMARK SMILES OCc1ccco1
REMARK SMILES IDX 2 1 3 2 5 3 6 4 4 5 7 6 1 7
REMARK H PARENT 1 8
REMARK Flexibility Score: inf
ROOT
ATOM      1  C   UNL     1      -9.731  -2.643  17.241  1.00  0.00     0.231 C 
ENDROOT
BRANCH   1   2
ATOM      2  C   UNL     1     -10.736  -3.318  16.363  1.00  0.00     0.129 A 
ATOM      3  C   UNL     1     -12.607  -4.145  15.565  1.00  0.00     0.042 A 
ATOM      4  C   UNL     1     -11.542  -4.432  14.735  1.00  0.00     0.195 A 
ATOM      5  C   UNL     1     -12.087  -3.427  16.621  1.00  0.00     0.048 A 
ATOM      6  O   UNL     1     -10.439  -3.929  15.239  1.00  0.00    -0.467 OA
ENDBRANCH   1   2
BRANCH   1   7
ATOM      7  O   UNL     1     -10.317  -1.550  17.891  1.00  0.00    -0.388 OA
ATOM      8  H   UNL     1      -9.617  -0.850  17.957  1.00  0.00     0.211 HD
ENDBRANCH   1   7
TORSDOF 2
ENDMDL
MODEL 5
REMARK VINA RESULT:    -3.664     13.499     13.864
REMARK INTER + INTRA:          -4.002
REMARK INTER:                  -3.988
REMARK INTRA:                  -0.014
REMARK UNBOUND:                -0.017
REMARK SMILES OCc1ccco1
REMARK SMILES IDX 2 1 3 2 5 3 6 4 4 5 7 6 1 7
REMARK H PARENT 1 8
REMARK Flexibility Score: inf
ROOT
ATOM      1  C   UNL     1      -9.181  -5.121  15.438  1.00  0.00     0.231 C 
ENDROOT
BRANCH   1   2
ATOM      2  C   UNL     1      -9.522  -4.074  16.450  1.00  0.00     0.129 A 
ATOM      3  C   UNL     1      -9.408  -2.651  18.120  1.00  0.00     0.042 A 
ATOM      4  C   UNL     1     -10.676  -2.679  17.575  1.00  0.00     0.195 A 
ATOM      5  C   UNL     1      -8.660  -3.555  17.395  1.00  0.00     0.048 A 
ATOM      6  O   UNL     1     -10.713  -3.539  16.583  1.00  0.00    -0.467 OA
ENDBRANCH   1   2
BRANCH   1   7
ATOM      7  O   UNL     1      -9.065  -6.371  16.060  1.00  0.00    -0.388 OA
ATOM      8  H   UNL     1      -9.594  -7.009  15.515  1.00  0.00     0.211 HD
ENDBRANCH   1   7
TORSDOF 2
ENDMDL
MODEL 6
REMARK VINA RESULT:    -3.663     11.280     12.219
REMARK INTER + INTRA:          -4.001
REMARK INTER:                  -3.988
REMARK INTRA:                  -0.013
REMARK UNBOUND:                -0.017
REMARK SMILES OCc1ccco1
REMARK SMILES IDX 2 1 3 2 5 3 6 4 4 5 7 6 1 7
REMARK H PARENT 1 8
REMARK Flexibility Score: inf
ROOT
ATOM      1  C   UNL     1     -11.386  -7.505  15.538  1.00  0.00     0.231 C 
ENDROOT
BRANCH   1   2
ATOM      2  C   UNL     1     -11.379  -6.884  14.177  1.00  0.00     0.129 A 
ATOM      3  C   UNL     1     -10.733  -5.919  12.313  1.00  0.00     0.042 A 
ATOM      4  C   UNL     1     -12.103  -6.083  12.340  1.00  0.00     0.195 A 
ATOM      5  C   UNL     1     -10.262  -6.434  13.503  1.00  0.00     0.048 A 
ATOM      6  O   UNL     1     -12.459  -6.658  13.466  1.00  0.00    -0.467 OA
ENDBRANCH   1   2
BRANCH   1   7
ATOM      7  O   UNL     1     -11.329  -8.901  15.430  1.00  0.00    -0.388 OA
ATOM      8  H   UNL     1     -11.885  -9.147  14.645  1.00  0.00     0.211 HD
ENDBRANCH   1   7
TORSDOF 2
ENDMDL
MODEL 7
REMARK VINA RESULT:    -3.617     14.264     15.126
REMARK INTER + INTRA:          -3.952
REMARK INTER:                  -3.939
REMARK INTRA:                  -0.012
REMARK UNBOUND:                -0.017
REMARK SMILES OCc1ccco1
REMARK SMILES IDX 2 1 3 2 5 3 6 4 4 5 7 6 1 7
REMARK H PARENT 1 8
REMARK Flexibility Score: inf
ROOT
ATOM      1  C   UNL     1      -9.325  -2.680  18.287  1.00  0.00     0.231 C 
ENDROOT
BRANCH   1   2
ATOM      2  C   UNL     1      -8.623  -3.255  17.098  1.00  0.00     0.129 A 
ATOM      3  C   UNL     1      -8.085  -4.524  15.388  1.00  0.00     0.042 A 
ATOM      4  C   UNL     1      -7.130  -3.551  15.606  1.00  0.00     0.195 A 
ATOM      5  C   UNL     1      -9.050  -4.336  16.354  1.00  0.00     0.048 A 
ATOM      6  O   UNL     1      -7.478  -2.812  16.634  1.00  0.00    -0.467 OA
ENDBRANCH   1   2
BRANCH   1   7
ATOM      7  O   UNL     1     -10.421  -1.912  17.872  1.00  0.00    -0.388 OA
ATOM      8  H   UNL     1     -11.111  -1.997  18.582  1.00  0.00     0.211 HD
ENDBRANCH   1   7
TORSDOF 2
ENDMDL
MODEL 8
REMARK VINA RESULT:    -3.615     16.144     16.926
REMARK INTER + INTRA:          -3.949
REMARK INTER:                  -3.934
REMARK INTRA:                  -0.015
REMARK UNBOUND:                -0.017
REMARK SMILES OCc1ccco1
REMARK SMILES IDX 2 1 3 2 5 3 6 4 4 5 7 6 1 7
REMARK H PARENT 1 8
REMARK Flexibility Score: inf
ROOT
ATOM      1  C   UNL     1     -11.495  -0.987  12.203  1.00  0.00     0.231 C 
ENDROOT
BRANCH   1   2
ATOM      2  C   UNL     1     -10.175  -1.453  12.730  1.00  0.00     0.129 A 
ATOM      3  C   UNL     1      -8.118  -1.499  13.498  1.00  0.00     0.042 A 
ATOM      4  C   UNL     1      -8.613  -2.776  13.324  1.00  0.00     0.195 A 
ATOM      5  C   UNL     1      -9.126  -0.642  13.111  1.00  0.00     0.048 A 
ATOM      6  O   UNL     1      -9.841  -2.716  12.862  1.00  0.00    -0.467 OA
ENDBRANCH   1   2
BRANCH   1   7
ATOM      7  O   UNL     1     -11.309   0.092  11.329  1.00  0.00    -0.388 OA
ATOM      8  H   UNL     1     -11.721   0.884  11.764  1.00  0.00     0.211 HD
ENDBRANCH   1   7
TORSDOF 2
ENDMDL
MODEL 9
REMARK VINA RESULT:    -3.587     11.629     12.394
REMARK INTER + INTRA:          -3.919
REMARK INTER:                  -3.905
REMARK INTRA:                  -0.014
REMARK UNBOUND:                -0.017
REMARK SMILES OCc1ccco1
REMARK SMILES IDX 2 1 3 2 5 3 6 4 4 5 7 6 1 7
REMARK H PARENT 1 8
REMARK Flexibility Score: inf
ROOT
ATOM      1  C   UNL     1     -10.684  -7.833  14.650  1.00  0.00     0.231 C 
ENDROOT
BRANCH   1   2
ATOM      2  C   UNL     1     -10.472  -6.458  15.198  1.00  0.00     0.129 A 
ATOM      3  C   UNL     1      -9.605  -4.710  16.206  1.00  0.00     0.042 A 
ATOM      4  C   UNL     1     -10.872  -4.434  15.733  1.00  0.00     0.195 A 
ATOM      5  C   UNL     1      -9.345  -6.020  15.864  1.00  0.00     0.048 A 
ATOM      6  O   UNL     1     -11.364  -5.497  15.139  1.00  0.00    -0.467 OA
ENDBRANCH   1   2
BRANCH   1   7
ATOM      7  O   UNL     1     -11.303  -8.643  15.611  1.00  0.00    -0.388 OA
ATOM      8  H   UNL     1     -11.223  -8.166  16.478  1.00  0.00     0.211 HD
ENDBRANCH   1   7
TORSDOF 2
ENDMDL
