MODEL 1
REMARK VINA RESULT:    -5.535      0.000      0.000
REMARK INTER + INTRA:          -6.409
REMARK INTER:                  -6.506
REMARK INTRA:                   0.097
REMARK UNBOUND:                 0.097
REMARK SMILES C=C(C)[C@@H]1CC[C@@]2(CO)CC[C@]3(C)[C@@H](CC[C@@H]4[C@]5(C)CC[C@@H](O)C(C)(C)[C@@H]5CC[C@@]43C)[C@@H]12
REMARK SMILES IDX 4 1 5 2 6 3 7 4 32 5 14 6 15 7 16 8 17 9 18 10 20 11 21 12
REMARK SMILES IDX 22 13 24 14 27 15 28 16 29 17 30 18 12 19 11 20 10 21 13 22
REMARK SMILES IDX 31 23 25 24 26 25 19 26 2 27 3 28 1 29 8 30 9 31 23 33
REMARK H PARENT 9 32 23 34
REMARK Flexibility Score: inf
ROOT
ATOM      1  C   UNL     1      22.518   1.107  25.344  1.00  0.00     0.018 C 
ATOM      2  C   UNL     1      21.696   2.405  25.380  1.00  0.00     0.009 C 
ATOM      3  C   UNL     1      21.410   2.766  23.936  1.00  0.00     0.010 C 
ATOM      4  C   UNL     1      22.523   2.094  23.100  1.00  0.00    -0.003 C 
ATOM      5  C   UNL     1      22.776   0.765  23.837  1.00  0.00     0.008 C 
ATOM      6  C   UNL     1      24.122   0.022  23.417  1.00  0.00    -0.000 C 
ATOM      7  C   UNL     1      24.437  -1.120  24.392  1.00  0.00     0.005 C 
ATOM      8  C   UNL     1      25.426  -0.701  25.477  1.00  0.00     0.005 C 
ATOM      9  C   UNL     1      26.832  -0.586  24.892  1.00  0.00     0.002 C 
ATOM     10  C   UNL     1      28.023  -0.337  25.945  1.00  0.00    -0.026 C 
ATOM     11  C   UNL     1      27.708  -0.982  27.342  1.00  0.00     0.010 C 
ATOM     12  C   UNL     1      28.663  -0.541  28.453  1.00  0.00     0.033 C 
ATOM     13  C   UNL     1      28.701   0.990  28.686  1.00  0.00     0.120 C 
ATOM     14  C   UNL     1      28.106   1.860  27.513  1.00  0.00    -0.006 C 
ATOM     15  C   UNL     1      28.439   1.187  26.117  1.00  0.00     0.003 C 
ATOM     16  C   UNL     1      28.087   2.087  24.910  1.00  0.00     0.005 C 
ATOM     17  C   UNL     1      27.972   1.348  23.577  1.00  0.00     0.008 C 
ATOM     18  C   UNL     1      26.846   0.258  23.522  1.00  0.00    -0.024 C 
ATOM     19  C   UNL     1      25.395   0.914  23.038  1.00  0.00    -0.024 C 
ATOM     20  C   UNL     1      25.118   2.337  23.614  1.00  0.00     0.008 C 
ATOM     21  C   UNL     1      23.803   3.009  23.133  1.00  0.00     0.010 C 
ATOM     22  C   UNL     1      25.460   1.103  21.476  1.00  0.00     0.012 C 
ATOM     23  C   UNL     1      27.325  -0.767  22.430  1.00  0.00     0.012 C 
ATOM     24  C   UNL     1      26.582   2.090  27.754  1.00  0.00     0.014 C 
ATOM     25  C   UNL     1      28.750   3.277  27.571  1.00  0.00     0.014 C 
ATOM     26  C   UNL     1      29.277  -1.125  25.419  1.00  0.00     0.012 C 
ENDROOT
BRANCH   1  27
ATOM     27  C   UNL     1      21.811  -0.002  26.121  1.00  0.00    -0.077 C 
ATOM     28  C   UNL     1      22.595  -1.058  26.859  1.00  0.00     0.039 C 
ATOM     29  C   UNL     1      20.471  -0.083  26.116  1.00  0.00     0.008 C 
ENDBRANCH   1  27
BRANCH   4  30
ATOM     30  C   UNL     1      22.008   1.857  21.645  1.00  0.00     0.163 C 
BRANCH  30  31
ATOM     31  O   UNL     1      22.436   2.870  20.772  1.00  0.00    -0.396 OA
ATOM     32  H   UNL     1      21.825   2.841  19.990  1.00  0.00     0.210 HD
ENDBRANCH  30  31
ENDBRANCH   4  30
BRANCH  13  33
ATOM     33  O   UNL     1      30.036   1.357  28.946  1.00  0.00    -0.393 OA
ATOM     34  H   UNL     1      30.223   1.124  29.894  1.00  0.00     0.210 HD
ENDBRANCH  13  33
TORSDOF 4
ENDMDL
MODEL 2
REMARK VINA RESULT:    -3.333      1.414      2.277
REMARK INTER + INTRA:          -3.820
REMARK INTER:                  -4.464
REMARK INTRA:                   0.644
REMARK UNBOUND:                 0.097
REMARK SMILES C=C(C)[C@@H]1CC[C@@]2(CO)CC[C@]3(C)[C@@H](CC[C@@H]4[C@]5(C)CC[C@@H](O)C(C)(C)[C@@H]5CC[C@@]43C)[C@@H]12
REMARK SMILES IDX 4 1 5 2 6 3 7 4 32 5 14 6 15 7 16 8 17 9 18 10 20 11 21 12
REMARK SMILES IDX 22 13 24 14 27 15 28 16 29 17 30 18 12 19 11 20 10 21 13 22
REMARK SMILES IDX 31 23 25 24 26 25 19 26 2 27 3 28 1 29 8 30 9 31 23 33
REMARK H PARENT 9 32 23 34
REMARK Flexibility Score: inf
ROOT
ATOM      1  C   UNL     1      23.673   1.244  24.919  1.00  0.00     0.018 C 
ATOM      2  C   UNL     1      23.034   2.537  24.386  1.00  0.00     0.009 C 
ATOM      3  C   UNL     1      23.464   2.655  22.937  1.00  0.00     0.010 C 
ATOM      4  C   UNL     1      24.774   1.844  22.814  1.00  0.00    -0.003 C 
ATOM      5  C   UNL     1      24.555   0.655  23.767  1.00  0.00     0.008 C 
ATOM      6  C   UNL     1      25.879  -0.158  24.126  1.00  0.00    -0.000 C 
ATOM      7  C   UNL     1      25.622  -1.124  25.289  1.00  0.00     0.005 C 
ATOM      8  C   UNL     1      26.044  -0.539  26.635  1.00  0.00     0.005 C 
ATOM      9  C   UNL     1      27.566  -0.533  26.752  1.00  0.00     0.002 C 
ATOM     10  C   UNL     1      28.169  -0.122  28.187  1.00  0.00    -0.026 C 
ATOM     11  C   UNL     1      27.203  -0.524  29.358  1.00  0.00     0.010 C 
ATOM     12  C   UNL     1      27.584   0.088  30.708  1.00  0.00     0.033 C 
ATOM     13  C   UNL     1      27.640   1.637  30.709  1.00  0.00     0.120 C 
ATOM     14  C   UNL     1      27.715   2.304  29.282  1.00  0.00    -0.006 C 
ATOM     15  C   UNL     1      28.587   1.406  28.309  1.00  0.00     0.003 C 
ATOM     16  C   UNL     1      28.895   2.095  26.960  1.00  0.00     0.005 C 
ATOM     17  C   UNL     1      29.335   1.146  25.846  1.00  0.00     0.008 C 
ATOM     18  C   UNL     1      28.269   0.071  25.436  1.00  0.00    -0.024 C 
ATOM     19  C   UNL     1      27.254   0.648  24.251  1.00  0.00    -0.024 C 
ATOM     20  C   UNL     1      26.867   2.150  24.423  1.00  0.00     0.008 C 
ATOM     21  C   UNL     1      25.972   2.742  23.299  1.00  0.00     0.010 C 
ATOM     22  C   UNL     1      28.035   0.575  22.884  1.00  0.00     0.012 C 
ATOM     23  C   UNL     1      29.103  -1.125  24.848  1.00  0.00     0.012 C 
ATOM     24  C   UNL     1      26.273   2.583  28.759  1.00  0.00     0.014 C 
ATOM     25  C   UNL     1      28.379   3.706  29.425  1.00  0.00     0.014 C 
ATOM     26  C   UNL     1      29.454  -0.996  28.416  1.00  0.00     0.012 C 
ENDROOT
BRANCH   1  27
ATOM     27  C   UNL     1      22.602   0.286  25.435  1.00  0.00    -0.077 C 
ATOM     28  C   UNL     1      21.180   0.746  25.645  1.00  0.00     0.039 C 
ATOM     29  C   UNL     1      22.922  -0.976  25.760  1.00  0.00     0.008 C 
ENDBRANCH   1  27
BRANCH   4  30
ATOM     30  C   UNL     1      24.956   1.373  21.336  1.00  0.00     0.163 C 
BRANCH  30  31
ATOM     31  O   UNL     1      25.581   2.356  20.551  1.00  0.00    -0.396 OA
ATOM     32  H   UNL     1      26.526   2.070  20.447  1.00  0.00     0.210 HD
ENDBRANCH  30  31
ENDBRANCH   4  30
BRANCH  13  33
ATOM     33  O   UNL     1      28.739   2.032  31.498  1.00  0.00    -0.393 OA
ATOM     34  H   UNL     1      29.265   2.680  30.960  1.00  0.00     0.210 HD
ENDBRANCH  13  33
TORSDOF 4
ENDMDL
