MODEL 1
REMARK VINA RESULT:    -7.085      0.000      0.000
REMARK INTER + INTRA:          -8.582
REMARK INTER:                  -8.327
REMARK INTRA:                  -0.255
REMARK UNBOUND:                -0.255
REMARK SMILES O=c1c(O)c(-c2ccc(O)cc2)oc2cc(O)cc(O)c12
REMARK SMILES IDX 5 1 3 2 2 3 1 4 21 5 19 6 18 7 16 8 15 9 14 10 13 11 6 12
REMARK SMILES IDX 7 13 8 14 9 15 12 16 11 17 10 18 4 20 20 22 17 24
REMARK H PARENT 10 19 4 21 20 23 17 25
REMARK Flexibility Score: inf
ROOT
ATOM      1  C   UNL     1     173.240 144.963 155.299  1.00  0.00     0.180 A 
ATOM      2  C   UNL     1     174.435 145.702 155.396  1.00  0.00     0.208 A 
ATOM      3  C   UNL     1     174.521 146.729 156.349  1.00  0.00     0.238 A 
ATOM      4  O   UNL     1     175.581 147.405 156.438  1.00  0.00    -0.285 OA
ATOM      5  C   UNL     1     173.425 146.985 157.199  1.00  0.00     0.111 A 
ATOM      6  C   UNL     1     173.432 147.998 158.188  1.00  0.00     0.134 A 
ATOM      7  C   UNL     1     172.303 148.185 159.001  1.00  0.00     0.093 A 
ATOM      8  C   UNL     1     171.173 147.380 158.845  1.00  0.00     0.123 A 
ATOM      9  C   UNL     1     171.159 146.378 157.870  1.00  0.00     0.094 A 
ATOM     10  C   UNL     1     172.273 146.178 157.048  1.00  0.00     0.146 A 
ATOM     11  O   UNL     1     172.233 145.222 156.127  1.00  0.00    -0.452 OA
ENDROOT
BRANCH   1  12
ATOM     12  C   UNL     1     173.065 143.878 154.306  1.00  0.00     0.021 A 
ATOM     13  C   UNL     1     173.621 142.601 154.508  1.00  0.00     0.016 A 
ATOM     14  C   UNL     1     173.463 141.601 153.544  1.00  0.00     0.047 A 
ATOM     15  C   UNL     1     172.760 141.867 152.362  1.00  0.00     0.115 A 
ATOM     16  C   UNL     1     172.379 144.141 153.108  1.00  0.00     0.016 A 
ATOM     17  C   UNL     1     172.223 143.139 152.147  1.00  0.00     0.047 A 
BRANCH  15  18
ATOM     18  O   UNL     1     172.595 140.877 151.395  1.00  0.00    -0.508 OA
ATOM     19  H   UNL     1     173.389 140.393 150.993  1.00  0.00     0.293 HD
ENDBRANCH  15  18
ENDBRANCH   1  12
BRANCH   2  20
ATOM     20  O   UNL     1     175.524 145.397 154.575  1.00  0.00    -0.502 OA
ATOM     21  H   UNL     1     176.441 145.800 154.719  1.00  0.00     0.293 HD
ENDBRANCH   2  20
BRANCH   6  22
ATOM     22  O   UNL     1     174.547 148.818 158.369  1.00  0.00    -0.507 OA
ATOM     23  H   UNL     1     174.859 149.459 157.649  1.00  0.00     0.293 HD
ENDBRANCH   6  22
BRANCH   8  24
ATOM     24  O   UNL     1     170.066 147.585 159.667  1.00  0.00    -0.508 OA
ATOM     25  H   UNL     1     169.134 147.685 159.284  1.00  0.00     0.293 HD
ENDBRANCH   8  24
TORSDOF 5
ENDMDL
MODEL 2
REMARK VINA RESULT:    -6.974      9.256     10.920
REMARK INTER + INTRA:          -8.452
REMARK INTER:                  -8.238
REMARK INTRA:                  -0.214
REMARK UNBOUND:                -0.255
REMARK SMILES O=c1c(O)c(-c2ccc(O)cc2)oc2cc(O)cc(O)c12
REMARK SMILES IDX 5 1 3 2 2 3 1 4 21 5 19 6 18 7 16 8 15 9 14 10 13 11 6 12
REMARK SMILES IDX 7 13 8 14 9 15 12 16 11 17 10 18 4 20 20 22 17 24
REMARK H PARENT 10 19 4 21 20 23 17 25
REMARK Flexibility Score: inf
ROOT
ATOM      1  C   UNL     1     166.302 145.952 149.364  1.00  0.00     0.180 A 
ATOM      2  C   UNL     1     166.836 144.890 148.608  1.00  0.00     0.208 A 
ATOM      3  C   UNL     1     166.423 143.579 148.894  1.00  0.00     0.238 A 
ATOM      4  O   UNL     1     166.902 142.620 148.231  1.00  0.00    -0.285 OA
ATOM      5  C   UNL     1     165.472 143.354 149.910  1.00  0.00     0.111 A 
ATOM      6  C   UNL     1     165.000 142.065 150.258  1.00  0.00     0.134 A 
ATOM      7  C   UNL     1     164.046 141.925 151.276  1.00  0.00     0.093 A 
ATOM      8  C   UNL     1     163.555 143.044 151.952  1.00  0.00     0.123 A 
ATOM      9  C   UNL     1     164.018 144.320 151.614  1.00  0.00     0.094 A 
ATOM     10  C   UNL     1     164.970 144.480 150.603  1.00  0.00     0.146 A 
ATOM     11  O   UNL     1     165.396 145.703 150.305  1.00  0.00    -0.452 OA
ENDROOT
BRANCH   1  12
ATOM     12  C   UNL     1     166.703 147.359 149.136  1.00  0.00     0.021 A 
ATOM     13  C   UNL     1     165.854 148.265 148.474  1.00  0.00     0.016 A 
ATOM     14  C   UNL     1     166.267 149.583 148.249  1.00  0.00     0.047 A 
ATOM     15  C   UNL     1     167.534 150.007 148.670  1.00  0.00     0.115 A 
ATOM     16  C   UNL     1     167.980 147.787 149.537  1.00  0.00     0.016 A 
ATOM     17  C   UNL     1     168.388 149.105 149.311  1.00  0.00     0.047 A 
BRANCH  15  18
ATOM     18  O   UNL     1     167.953 151.317 148.453  1.00  0.00    -0.508 OA
ATOM     19  H   UNL     1     167.631 152.080 149.036  1.00  0.00     0.293 HD
ENDBRANCH  15  18
ENDBRANCH   1  12
BRANCH   2  20
ATOM     20  O   UNL     1     167.740 145.144 147.573  1.00  0.00    -0.502 OA
ATOM     21  H   UNL     1     167.504 145.724 146.777  1.00  0.00     0.293 HD
ENDBRANCH   2  20
BRANCH   6  22
ATOM     22  O   UNL     1     165.470 140.927 149.600  1.00  0.00    -0.507 OA
ATOM     23  H   UNL     1     165.638 140.058 150.094  1.00  0.00     0.293 HD
ENDBRANCH   6  22
BRANCH   8  24
ATOM     24  O   UNL     1     162.607 142.877 152.959  1.00  0.00    -0.508 OA
ATOM     25  H   UNL     1     161.633 143.115 152.814  1.00  0.00     0.293 HD
ENDBRANCH   8  24
TORSDOF 5
ENDMDL
MODEL 3
REMARK VINA RESULT:    -6.961      9.068     10.934
REMARK INTER + INTRA:          -8.437
REMARK INTER:                  -8.231
REMARK INTRA:                  -0.206
REMARK UNBOUND:                -0.255
REMARK SMILES O=c1c(O)c(-c2ccc(O)cc2)oc2cc(O)cc(O)c12
REMARK SMILES IDX 5 1 3 2 2 3 1 4 21 5 19 6 18 7 16 8 15 9 14 10 13 11 6 12
REMARK SMILES IDX 7 13 8 14 9 15 12 16 11 17 10 18 4 20 20 22 17 24
REMARK H PARENT 10 19 4 21 20 23 17 25
REMARK Flexibility Score: inf
ROOT
ATOM      1  C   UNL     1     168.479 149.150 148.592  1.00  0.00     0.180 A 
ATOM      2  C   UNL     1     169.341 148.544 147.657  1.00  0.00     0.208 A 
ATOM      3  C   UNL     1     169.291 147.151 147.492  1.00  0.00     0.238 A 
ATOM      4  O   UNL     1     170.065 146.596 146.666  1.00  0.00    -0.285 OA
ATOM      5  C   UNL     1     168.372 146.392 148.246  1.00  0.00     0.111 A 
ATOM      6  C   UNL     1     168.255 144.985 148.137  1.00  0.00     0.134 A 
ATOM      7  C   UNL     1     167.309 144.303 148.916  1.00  0.00     0.093 A 
ATOM      8  C   UNL     1     166.478 144.998 149.798  1.00  0.00     0.123 A 
ATOM      9  C   UNL     1     166.589 146.387 149.910  1.00  0.00     0.094 A 
ATOM     10  C   UNL     1     167.528 147.085 149.144  1.00  0.00     0.146 A 
ATOM     11  O   UNL     1     167.615 148.405 149.274  1.00  0.00    -0.452 OA
ENDROOT
BRANCH   1  12
ATOM     12  C   UNL     1     168.486 150.610 148.837  1.00  0.00     0.021 A 
ATOM     13  C   UNL     1     169.569 151.242 149.474  1.00  0.00     0.016 A 
ATOM     14  C   UNL     1     169.541 152.620 149.715  1.00  0.00     0.047 A 
ATOM     15  C   UNL     1     168.426 153.379 149.336  1.00  0.00     0.115 A 
ATOM     16  C   UNL     1     167.364 151.376 148.478  1.00  0.00     0.016 A 
ATOM     17  C   UNL     1     167.339 152.752 148.720  1.00  0.00     0.047 A 
BRANCH  15  18
ATOM     18  O   UNL     1     168.388 154.752 149.570  1.00  0.00    -0.508 OA
ATOM     19  H   UNL     1     168.234 155.126 150.499  1.00  0.00     0.293 HD
ENDBRANCH  15  18
ENDBRANCH   1  12
BRANCH   2  20
ATOM     20  O   UNL     1     170.208 149.324 146.887  1.00  0.00    -0.502 OA
ATOM     21  H   UNL     1     169.877 149.947 146.160  1.00  0.00     0.293 HD
ENDBRANCH   2  20
BRANCH   6  22
ATOM     22  O   UNL     1     169.070 144.263 147.263  1.00  0.00    -0.507 OA
ATOM     23  H   UNL     1     169.801 144.711 146.724  1.00  0.00     0.293 HD
ENDBRANCH   6  22
BRANCH   8  24
ATOM     24  O   UNL     1     165.546 144.296 150.559  1.00  0.00    -0.508 OA
ATOM     25  H   UNL     1     165.095 144.716 151.364  1.00  0.00     0.293 HD
ENDBRANCH   8  24
TORSDOF 5
ENDMDL
MODEL 4
REMARK VINA RESULT:    -6.949      9.583     10.880
REMARK INTER + INTRA:          -8.423
REMARK INTER:                  -8.131
REMARK INTRA:                  -0.292
REMARK UNBOUND:                -0.255
REMARK SMILES O=c1c(O)c(-c2ccc(O)cc2)oc2cc(O)cc(O)c12
REMARK SMILES IDX 5 1 3 2 2 3 1 4 21 5 19 6 18 7 16 8 15 9 14 10 13 11 6 12
REMARK SMILES IDX 7 13 8 14 9 15 12 16 11 17 10 18 4 20 20 22 17 24
REMARK H PARENT 10 19 4 21 20 23 17 25
REMARK Flexibility Score: inf
ROOT
ATOM      1  C   UNL     1     166.907 148.568 148.525  1.00  0.00     0.180 A 
ATOM      2  C   UNL     1     166.119 149.733 148.609  1.00  0.00     0.208 A 
ATOM      3  C   UNL     1     166.733 150.981 148.421  1.00  0.00     0.238 A 
ATOM      4  O   UNL     1     166.041 152.031 148.503  1.00  0.00    -0.285 OA
ATOM      5  C   UNL     1     168.113 151.043 148.133  1.00  0.00     0.111 A 
ATOM      6  C   UNL     1     168.807 152.260 147.926  1.00  0.00     0.134 A 
ATOM      7  C   UNL     1     170.179 152.238 147.636  1.00  0.00     0.093 A 
ATOM      8  C   UNL     1     170.869 151.027 147.548  1.00  0.00     0.123 A 
ATOM      9  C   UNL     1     170.189 149.821 147.751  1.00  0.00     0.094 A 
ATOM     10  C   UNL     1     168.822 149.823 148.044  1.00  0.00     0.146 A 
ATOM     11  O   UNL     1     168.202 148.664 148.238  1.00  0.00    -0.452 OA
ENDROOT
BRANCH   1  12
ATOM     12  C   UNL     1     166.337 147.217 148.731  1.00  0.00     0.021 A 
ATOM     13  C   UNL     1     166.366 146.593 149.992  1.00  0.00     0.016 A 
ATOM     14  C   UNL     1     165.843 145.306 150.155  1.00  0.00     0.047 A 
ATOM     15  C   UNL     1     165.296 144.623 149.061  1.00  0.00     0.115 A 
ATOM     16  C   UNL     1     165.805 146.517 147.635  1.00  0.00     0.016 A 
ATOM     17  C   UNL     1     165.282 145.232 147.802  1.00  0.00     0.047 A 
BRANCH  15  18
ATOM     18  O   UNL     1     164.771 143.342 149.213  1.00  0.00    -0.508 OA
ATOM     19  H   UNL     1     164.130 142.949 148.534  1.00  0.00     0.293 HD
ENDBRANCH  15  18
ENDBRANCH   1  12
BRANCH   2  20
ATOM     20  O   UNL     1     164.745 149.642 148.846  1.00  0.00    -0.502 OA
ATOM     21  H   UNL     1     164.178 148.894 148.466  1.00  0.00     0.293 HD
ENDBRANCH   2  20
BRANCH   6  22
ATOM     22  O   UNL     1     168.145 153.487 148.006  1.00  0.00    -0.507 OA
ATOM     23  H   UNL     1     168.250 154.196 147.290  1.00  0.00     0.293 HD
ENDBRANCH   6  22
BRANCH   8  24
ATOM     24  O   UNL     1     172.231 151.032 147.256  1.00  0.00    -0.508 OA
ATOM     25  H   UNL     1     172.808 150.212 147.404  1.00  0.00     0.293 HD
ENDBRANCH   8  24
TORSDOF 5
ENDMDL
MODEL 5
REMARK VINA RESULT:    -6.654      9.463     10.402
REMARK INTER + INTRA:          -8.076
REMARK INTER:                  -7.788
REMARK INTRA:                  -0.287
REMARK UNBOUND:                -0.255
REMARK SMILES O=c1c(O)c(-c2ccc(O)cc2)oc2cc(O)cc(O)c12
REMARK SMILES IDX 5 1 3 2 2 3 1 4 21 5 19 6 18 7 16 8 15 9 14 10 13 11 6 12
REMARK SMILES IDX 7 13 8 14 9 15 12 16 11 17 10 18 4 20 20 22 17 24
REMARK H PARENT 10 19 4 21 20 23 17 25
REMARK Flexibility Score: inf
ROOT
ATOM      1  C   UNL     1     167.504 148.401 148.412  1.00  0.00     0.180 A 
ATOM      2  C   UNL     1     168.835 148.377 147.950  1.00  0.00     0.208 A 
ATOM      3  C   UNL     1     169.509 149.594 147.762  1.00  0.00     0.238 A 
ATOM      4  O   UNL     1     170.697 149.586 147.339  1.00  0.00    -0.285 OA
ATOM      5  C   UNL     1     168.853 150.808 148.055  1.00  0.00     0.111 A 
ATOM      6  C   UNL     1     169.463 152.076 147.896  1.00  0.00     0.134 A 
ATOM      7  C   UNL     1     168.746 153.238 148.219  1.00  0.00     0.093 A 
ATOM      8  C   UNL     1     167.436 153.157 148.697  1.00  0.00     0.123 A 
ATOM      9  C   UNL     1     166.828 151.907 148.856  1.00  0.00     0.094 A 
ATOM     10  C   UNL     1     167.526 150.737 148.537  1.00  0.00     0.146 A 
ATOM     11  O   UNL     1     166.923 149.564 148.693  1.00  0.00    -0.452 OA
ENDROOT
BRANCH   1  12
ATOM     12  C   UNL     1     166.721 147.162 148.617  1.00  0.00     0.021 A 
ATOM     13  C   UNL     1     166.689 146.512 149.864  1.00  0.00     0.016 A 
ATOM     14  C   UNL     1     165.961 145.328 150.025  1.00  0.00     0.047 A 
ATOM     15  C   UNL     1     165.268 144.774 148.941  1.00  0.00     0.115 A 
ATOM     16  C   UNL     1     166.039 146.588 147.530  1.00  0.00     0.016 A 
ATOM     17  C   UNL     1     165.312 145.406 147.695  1.00  0.00     0.047 A 
BRANCH  15  18
ATOM     18  O   UNL     1     164.539 143.597 149.092  1.00  0.00    -0.508 OA
ATOM     19  H   UNL     1     163.646 143.584 149.571  1.00  0.00     0.293 HD
ENDBRANCH  15  18
ENDBRANCH   1  12
BRANCH   2  20
ATOM     20  O   UNL     1     169.479 147.160 147.714  1.00  0.00    -0.502 OA
ATOM     21  H   UNL     1     170.030 146.691 148.422  1.00  0.00     0.293 HD
ENDBRANCH   2  20
BRANCH   6  22
ATOM     22  O   UNL     1     170.771 152.190 147.422  1.00  0.00    -0.507 OA
ATOM     23  H   UNL     1     170.989 152.707 146.579  1.00  0.00     0.293 HD
ENDBRANCH   6  22
BRANCH   8  24
ATOM     24  O   UNL     1     166.746 154.326 149.012  1.00  0.00    -0.508 OA
ATOM     25  H   UNL     1     167.119 155.239 148.782  1.00  0.00     0.293 HD
ENDBRANCH   8  24
TORSDOF 5
ENDMDL
MODEL 6
REMARK VINA RESULT:    -6.614      8.979     10.575
REMARK INTER + INTRA:          -8.028
REMARK INTER:                  -7.968
REMARK INTRA:                  -0.060
REMARK UNBOUND:                -0.255
REMARK SMILES O=c1c(O)c(-c2ccc(O)cc2)oc2cc(O)cc(O)c12
REMARK SMILES IDX 5 1 3 2 2 3 1 4 21 5 19 6 18 7 16 8 15 9 14 10 13 11 6 12
REMARK SMILES IDX 7 13 8 14 9 15 12 16 11 17 10 18 4 20 20 22 17 24
REMARK H PARENT 10 19 4 21 20 23 17 25
REMARK Flexibility Score: inf
ROOT
ATOM      1  C   UNL     1     166.573 145.638 149.231  1.00  0.00     0.180 A 
ATOM      2  C   UNL     1     167.911 145.240 149.044  1.00  0.00     0.208 A 
ATOM      3  C   UNL     1     168.748 146.031 148.241  1.00  0.00     0.238 A 
ATOM      4  O   UNL     1     169.945 145.681 148.059  1.00  0.00    -0.285 OA
ATOM      5  C   UNL     1     168.241 147.211 147.657  1.00  0.00     0.111 A 
ATOM      6  C   UNL     1     169.019 148.065 146.838  1.00  0.00     0.134 A 
ATOM      7  C   UNL     1     168.444 149.226 146.300  1.00  0.00     0.093 A 
ATOM      8  C   UNL     1     167.111 149.549 146.565  1.00  0.00     0.123 A 
ATOM      9  C   UNL     1     166.338 148.710 147.373  1.00  0.00     0.094 A 
ATOM     10  C   UNL     1     166.892 147.547 147.916  1.00  0.00     0.146 A 
ATOM     11  O   UNL     1     166.134 146.764 148.676  1.00  0.00    -0.452 OA
ENDROOT
BRANCH   1  12
ATOM     12  C   UNL     1     165.624 144.847 150.047  1.00  0.00     0.021 A 
ATOM     13  C   UNL     1     165.378 143.489 149.775  1.00  0.00     0.016 A 
ATOM     14  C   UNL     1     164.458 142.769 150.546  1.00  0.00     0.047 A 
ATOM     15  C   UNL     1     163.766 143.400 151.588  1.00  0.00     0.115 A 
ATOM     16  C   UNL     1     164.910 145.476 151.081  1.00  0.00     0.016 A 
ATOM     17  C   UNL     1     163.992 144.755 151.849  1.00  0.00     0.047 A 
BRANCH  15  18
ATOM     18  O   UNL     1     162.849 142.693 152.363  1.00  0.00    -0.508 OA
ATOM     19  H   UNL     1     162.314 143.145 153.094  1.00  0.00     0.293 HD
ENDBRANCH  15  18
ENDBRANCH   1  12
BRANCH   2  20
ATOM     20  O   UNL     1     168.402 144.094 149.675  1.00  0.00    -0.502 OA
ATOM     21  H   UNL     1     168.323 143.948 150.673  1.00  0.00     0.293 HD
ENDBRANCH   2  20
BRANCH   6  22
ATOM     22  O   UNL     1     170.354 147.770 146.555  1.00  0.00    -0.507 OA
ATOM     23  H   UNL     1     170.715 146.826 146.618  1.00  0.00     0.293 HD
ENDBRANCH   6  22
BRANCH   8  24
ATOM     24  O   UNL     1     166.565 150.709 146.020  1.00  0.00    -0.508 OA
ATOM     25  H   UNL     1     165.571 150.794 145.840  1.00  0.00     0.293 HD
ENDBRANCH   8  24
TORSDOF 5
ENDMDL
MODEL 7
REMARK VINA RESULT:    -6.515      9.933     10.649
REMARK INTER + INTRA:          -7.913
REMARK INTER:                  -7.614
REMARK INTRA:                  -0.298
REMARK UNBOUND:                -0.255
REMARK SMILES O=c1c(O)c(-c2ccc(O)cc2)oc2cc(O)cc(O)c12
REMARK SMILES IDX 5 1 3 2 2 3 1 4 21 5 19 6 18 7 16 8 15 9 14 10 13 11 6 12
REMARK SMILES IDX 7 13 8 14 9 15 12 16 11 17 10 18 4 20 20 22 17 24
REMARK H PARENT 10 19 4 21 20 23 17 25
REMARK Flexibility Score: inf
ROOT
ATOM      1  C   UNL     1     168.174 148.394 147.268  1.00  0.00     0.180 A 
ATOM      2  C   UNL     1     169.421 148.848 146.794  1.00  0.00     0.208 A 
ATOM      3  C   UNL     1     169.745 150.206 146.932  1.00  0.00     0.238 A 
ATOM      4  O   UNL     1     170.854 150.626 146.503  1.00  0.00    -0.285 OA
ATOM      5  C   UNL     1     168.832 151.081 147.557  1.00  0.00     0.111 A 
ATOM      6  C   UNL     1     169.084 152.463 147.739  1.00  0.00     0.134 A 
ATOM      7  C   UNL     1     168.128 153.266 148.379  1.00  0.00     0.093 A 
ATOM      8  C   UNL     1     166.929 152.716 148.839  1.00  0.00     0.123 A 
ATOM      9  C   UNL     1     166.674 151.353 148.662  1.00  0.00     0.094 A 
ATOM     10  C   UNL     1     167.614 150.536 148.024  1.00  0.00     0.146 A 
ATOM     11  O   UNL     1     167.345 149.245 147.865  1.00  0.00    -0.452 OA
ENDROOT
BRANCH   1  12
ATOM     12  C   UNL     1     167.751 146.981 147.141  1.00  0.00     0.021 A 
ATOM     13  C   UNL     1     167.115 146.507 145.979  1.00  0.00     0.016 A 
ATOM     14  C   UNL     1     166.703 145.173 145.893  1.00  0.00     0.047 A 
ATOM     15  C   UNL     1     166.910 144.301 146.970  1.00  0.00     0.115 A 
ATOM     16  C   UNL     1     167.936 146.104 148.223  1.00  0.00     0.016 A 
ATOM     17  C   UNL     1     167.524 144.772 148.134  1.00  0.00     0.047 A 
BRANCH  15  18
ATOM     18  O   UNL     1     166.505 142.970 146.894  1.00  0.00    -0.508 OA
ATOM     19  H   UNL     1     166.317 142.524 146.005  1.00  0.00     0.293 HD
ENDBRANCH  15  18
ENDBRANCH   1  12
BRANCH   2  20
ATOM     20  O   UNL     1     170.328 147.951 146.223  1.00  0.00    -0.502 OA
ATOM     21  H   UNL     1     170.092 147.375 145.424  1.00  0.00     0.293 HD
ENDBRANCH   2  20
BRANCH   6  22
ATOM     22  O   UNL     1     170.273 153.041 147.291  1.00  0.00    -0.507 OA
ATOM     23  H   UNL     1     170.330 153.520 146.400  1.00  0.00     0.293 HD
ENDBRANCH   6  22
BRANCH   8  24
ATOM     24  O   UNL     1     165.997 153.536 149.472  1.00  0.00    -0.508 OA
ATOM     25  H   UNL     1     165.042 153.603 149.144  1.00  0.00     0.293 HD
ENDBRANCH   8  24
TORSDOF 5
ENDMDL
MODEL 8
REMARK VINA RESULT:    -6.458      8.282     10.913
REMARK INTER + INTRA:          -7.845
REMARK INTER:                  -7.549
REMARK INTRA:                  -0.297
REMARK UNBOUND:                -0.255
REMARK SMILES O=c1c(O)c(-c2ccc(O)cc2)oc2cc(O)cc(O)c12
REMARK SMILES IDX 5 1 3 2 2 3 1 4 21 5 19 6 18 7 16 8 15 9 14 10 13 11 6 12
REMARK SMILES IDX 7 13 8 14 9 15 12 16 11 17 10 18 4 20 20 22 17 24
REMARK H PARENT 10 19 4 21 20 23 17 25
REMARK Flexibility Score: inf
ROOT
ATOM      1  C   UNL     1     168.113 148.766 148.607  1.00  0.00     0.180 A 
ATOM      2  C   UNL     1     166.709 148.667 148.683  1.00  0.00     0.208 A 
ATOM      3  C   UNL     1     166.133 147.427 149.000  1.00  0.00     0.238 A 
ATOM      4  O   UNL     1     164.878 147.324 149.061  1.00  0.00    -0.285 OA
ATOM      5  C   UNL     1     166.965 146.317 149.256  1.00  0.00     0.111 A 
ATOM      6  C   UNL     1     166.464 145.034 149.586  1.00  0.00     0.134 A 
ATOM      7  C   UNL     1     167.358 143.982 149.835  1.00  0.00     0.093 A 
ATOM      8  C   UNL     1     168.737 144.186 149.761  1.00  0.00     0.123 A 
ATOM      9  C   UNL     1     169.238 145.451 149.436  1.00  0.00     0.094 A 
ATOM     10  C   UNL     1     168.363 146.512 149.182  1.00  0.00     0.146 A 
ATOM     11  O   UNL     1     168.865 147.702 148.869  1.00  0.00    -0.452 OA
ENDROOT
BRANCH   1  12
ATOM     12  C   UNL     1     168.794 150.034 148.259  1.00  0.00     0.021 A 
ATOM     13  C   UNL     1     169.109 150.355 146.926  1.00  0.00     0.016 A 
ATOM     14  C   UNL     1     169.775 151.548 146.626  1.00  0.00     0.047 A 
ATOM     15  C   UNL     1     170.145 152.426 147.652  1.00  0.00     0.115 A 
ATOM     16  C   UNL     1     169.187 150.911 149.284  1.00  0.00     0.016 A 
ATOM     17  C   UNL     1     169.852 152.102 148.980  1.00  0.00     0.047 A 
BRANCH  15  18
ATOM     18  O   UNL     1     170.807 153.618 147.364  1.00  0.00    -0.508 OA
ATOM     19  H   UNL     1     170.822 154.001 146.426  1.00  0.00     0.293 HD
ENDBRANCH  15  18
ENDBRANCH   1  12
BRANCH   2  20
ATOM     20  O   UNL     1     165.909 149.794 148.474  1.00  0.00    -0.502 OA
ATOM     21  H   UNL     1     166.295 150.690 148.200  1.00  0.00     0.293 HD
ENDBRANCH   2  20
BRANCH   6  22
ATOM     22  O   UNL     1     165.091 144.799 149.669  1.00  0.00    -0.507 OA
ATOM     23  H   UNL     1     164.413 145.510 149.423  1.00  0.00     0.293 HD
ENDBRANCH   6  22
BRANCH   8  24
ATOM     24  O   UNL     1     169.603 143.124 150.015  1.00  0.00    -0.508 OA
ATOM     25  H   UNL     1     169.865 142.868 150.959  1.00  0.00     0.293 HD
ENDBRANCH   8  24
TORSDOF 5
ENDMDL
