MODEL 1
REMARK VINA RESULT:    -6.640      0.000      0.000
REMARK INTER + INTRA:          -8.098
REMARK INTER:                  -7.804
REMARK INTRA:                  -0.294
REMARK UNBOUND:                -0.294
REMARK SMILES O=c1c(O)c(-c2ccc(O)cc2)oc2cc(O)cc(O)c12
REMARK SMILES IDX 5 1 3 2 2 3 1 4 21 5 19 6 18 7 16 8 15 9 14 10 13 11 6 12
REMARK SMILES IDX 7 13 8 14 9 15 12 16 11 17 10 18 4 20 20 22 17 24
REMARK H PARENT 10 19 4 21 20 23 17 25
REMARK Flexibility Score: inf
ROOT
ATOM      1  C   UNL     1     178.874 181.656 175.418  1.00  0.00     0.180 A 
ATOM      2  C   UNL     1     177.671 181.219 174.827  1.00  0.00     0.208 A 
ATOM      3  C   UNL     1     177.177 181.906 173.708  1.00  0.00     0.238 A 
ATOM      4  O   UNL     1     176.108 181.517 173.164  1.00  0.00    -0.285 OA
ATOM      5  C   UNL     1     177.877 183.025 173.211  1.00  0.00     0.111 A 
ATOM      6  C   UNL     1     177.444 183.774 172.090  1.00  0.00     0.134 A 
ATOM      7  C   UNL     1     178.191 184.882 171.664  1.00  0.00     0.093 A 
ATOM      8  C   UNL     1     179.359 185.254 172.332  1.00  0.00     0.123 A 
ATOM      9  C   UNL     1     179.792 184.517 173.440  1.00  0.00     0.094 A 
ATOM     10  C   UNL     1     179.062 183.410 173.880  1.00  0.00     0.146 A 
ATOM     11  O   UNL     1     179.498 182.724 174.931  1.00  0.00    -0.452 OA
ENDROOT
BRANCH   1  12
ATOM     12  C   UNL     1     179.468 180.973 176.588  1.00  0.00     0.021 A 
ATOM     13  C   UNL     1     179.249 181.490 177.877  1.00  0.00     0.016 A 
ATOM     14  C   UNL     1     179.820 180.874 178.994  1.00  0.00     0.047 A 
ATOM     15  C   UNL     1     180.630 179.742 178.837  1.00  0.00     0.115 A 
ATOM     16  C   UNL     1     180.299 179.847 176.436  1.00  0.00     0.016 A 
ATOM     17  C   UNL     1     180.870 179.234 177.557  1.00  0.00     0.047 A 
BRANCH  15  18
ATOM     18  O   UNL     1     181.204 179.119 179.942  1.00  0.00    -0.508 OA
ATOM     19  H   UNL     1     182.132 179.366 180.266  1.00  0.00     0.293 HD
ENDBRANCH  15  18
ENDBRANCH   1  12
BRANCH   2  20
ATOM     20  O   UNL     1     176.971 180.138 175.369  1.00  0.00    -0.502 OA
ATOM     21  H   UNL     1     176.570 180.163 176.299  1.00  0.00     0.293 HD
ENDBRANCH   2  20
BRANCH   6  22
ATOM     22  O   UNL     1     176.280 183.429 171.402  1.00  0.00    -0.507 OA
ATOM     23  H   UNL     1     175.763 184.108 170.854  1.00  0.00     0.293 HD
ENDBRANCH   6  22
BRANCH   8  24
ATOM     24  O   UNL     1     180.083 186.359 171.889  1.00  0.00    -0.508 OA
ATOM     25  H   UNL     1     180.890 186.256 171.286  1.00  0.00     0.293 HD
ENDBRANCH   8  24
TORSDOF 5
ENDMDL
MODEL 2
REMARK VINA RESULT:    -6.637      4.543      6.827
REMARK INTER + INTRA:          -8.095
REMARK INTER:                  -7.797
REMARK INTRA:                  -0.298
REMARK UNBOUND:                -0.294
REMARK SMILES O=c1c(O)c(-c2ccc(O)cc2)oc2cc(O)cc(O)c12
REMARK SMILES IDX 5 1 3 2 2 3 1 4 21 5 19 6 18 7 16 8 15 9 14 10 13 11 6 12
REMARK SMILES IDX 7 13 8 14 9 15 12 16 11 17 10 18 4 20 20 22 17 24
REMARK H PARENT 10 19 4 21 20 23 17 25
REMARK Flexibility Score: inf
ROOT
ATOM      1  C   UNL     1     181.735 179.028 175.393  1.00  0.00     0.180 A 
ATOM      2  C   UNL     1     182.933 179.503 174.824  1.00  0.00     0.208 A 
ATOM      3  C   UNL     1     183.472 178.829 173.718  1.00  0.00     0.238 A 
ATOM      4  O   UNL     1     184.538 179.253 173.193  1.00  0.00    -0.285 OA
ATOM      5  C   UNL     1     182.822 177.685 173.213  1.00  0.00     0.111 A 
ATOM      6  C   UNL     1     183.302 176.946 172.105  1.00  0.00     0.134 A 
ATOM      7  C   UNL     1     182.602 175.812 171.669  1.00  0.00     0.093 A 
ATOM      8  C   UNL     1     181.434 175.402 172.316  1.00  0.00     0.123 A 
ATOM      9  C   UNL     1     180.955 176.128 173.412  1.00  0.00     0.094 A 
ATOM     10  C   UNL     1     181.637 177.262 173.861  1.00  0.00     0.146 A 
ATOM     11  O   UNL     1     181.157 177.937 174.900  1.00  0.00    -0.452 OA
ENDROOT
BRANCH   1  12
ATOM     12  C   UNL     1     181.094 179.695 176.548  1.00  0.00     0.021 A 
ATOM     13  C   UNL     1     181.379 179.249 177.850  1.00  0.00     0.016 A 
ATOM     14  C   UNL     1     180.768 179.850 178.955  1.00  0.00     0.047 A 
ATOM     15  C   UNL     1     179.852 180.893 178.771  1.00  0.00     0.115 A 
ATOM     16  C   UNL     1     180.157 180.730 176.371  1.00  0.00     0.016 A 
ATOM     17  C   UNL     1     179.547 181.328 177.478  1.00  0.00     0.047 A 
BRANCH  15  18
ATOM     18  O   UNL     1     179.237 181.500 179.863  1.00  0.00    -0.508 OA
ATOM     19  H   UNL     1     178.249 181.732 179.854  1.00  0.00     0.293 HD
ENDBRANCH  15  18
ENDBRANCH   1  12
BRANCH   2  20
ATOM     20  O   UNL     1     183.584 180.610 175.374  1.00  0.00    -0.502 OA
ATOM     21  H   UNL     1     183.446 181.551 175.023  1.00  0.00     0.293 HD
ENDBRANCH   2  20
BRANCH   6  22
ATOM     22  O   UNL     1     184.466 177.329 171.437  1.00  0.00    -0.507 OA
ATOM     23  H   UNL     1     184.435 177.803 170.541  1.00  0.00     0.293 HD
ENDBRANCH   6  22
BRANCH   8  24
ATOM     24  O   UNL     1     180.758 174.271 171.864  1.00  0.00    -0.508 OA
ATOM     25  H   UNL     1     180.528 174.147 170.886  1.00  0.00     0.293 HD
ENDBRANCH   8  24
TORSDOF 5
ENDMDL
MODEL 3
REMARK VINA RESULT:    -6.225      1.309      3.052
REMARK INTER + INTRA:          -7.611
REMARK INTER:                  -7.374
REMARK INTRA:                  -0.237
REMARK UNBOUND:                -0.294
REMARK SMILES O=c1c(O)c(-c2ccc(O)cc2)oc2cc(O)cc(O)c12
REMARK SMILES IDX 5 1 3 2 2 3 1 4 21 5 19 6 18 7 16 8 15 9 14 10 13 11 6 12
REMARK SMILES IDX 7 13 8 14 9 15 12 16 11 17 10 18 4 20 20 22 17 24
REMARK H PARENT 10 19 4 21 20 23 17 25
REMARK Flexibility Score: inf
ROOT
ATOM      1  C   UNL     1     178.811 181.589 175.179  1.00  0.00     0.180 A 
ATOM      2  C   UNL     1     179.508 182.673 174.609  1.00  0.00     0.208 A 
ATOM      3  C   UNL     1     178.982 183.290 173.464  1.00  0.00     0.238 A 
ATOM      4  O   UNL     1     179.592 184.269 172.951  1.00  0.00    -0.285 OA
ATOM      5  C   UNL     1     177.787 182.805 172.896  1.00  0.00     0.111 A 
ATOM      6  C   UNL     1     177.194 183.368 171.740  1.00  0.00     0.134 A 
ATOM      7  C   UNL     1     176.007 182.821 171.230  1.00  0.00     0.093 A 
ATOM      8  C   UNL     1     175.403 181.726 171.851  1.00  0.00     0.123 A 
ATOM      9  C   UNL     1     175.984 181.165 172.994  1.00  0.00     0.094 A 
ATOM     10  C   UNL     1     177.165 181.696 173.517  1.00  0.00     0.146 A 
ATOM     11  O   UNL     1     177.693 181.149 174.607  1.00  0.00    -0.452 OA
ENDROOT
BRANCH   1  12
ATOM     12  C   UNL     1     179.290 180.899 176.397  1.00  0.00     0.021 A 
ATOM     13  C   UNL     1     179.126 181.515 177.650  1.00  0.00     0.016 A 
ATOM     14  C   UNL     1     179.591 180.891 178.811  1.00  0.00     0.047 A 
ATOM     15  C   UNL     1     180.239 179.652 178.734  1.00  0.00     0.115 A 
ATOM     16  C   UNL     1     179.959 179.663 176.325  1.00  0.00     0.016 A 
ATOM     17  C   UNL     1     180.424 179.043 177.489  1.00  0.00     0.047 A 
BRANCH  15  18
ATOM     18  O   UNL     1     180.706 179.020 179.884  1.00  0.00    -0.508 OA
ATOM     19  H   UNL     1     181.157 179.541 180.628  1.00  0.00     0.293 HD
ENDBRANCH  15  18
ENDBRANCH   1  12
BRANCH   2  20
ATOM     20  O   UNL     1     180.716 183.103 175.162  1.00  0.00    -0.502 OA
ATOM     21  H   UNL     1     181.264 182.523 175.787  1.00  0.00     0.293 HD
ENDBRANCH   2  20
BRANCH   6  22
ATOM     22  O   UNL     1     177.774 184.462 171.096  1.00  0.00    -0.507 OA
ATOM     23  H   UNL     1     177.219 185.249 170.779  1.00  0.00     0.293 HD
ENDBRANCH   6  22
BRANCH   8  24
ATOM     24  O   UNL     1     174.225 181.200 171.324  1.00  0.00    -0.508 OA
ATOM     25  H   UNL     1     173.588 181.769 170.780  1.00  0.00     0.293 HD
ENDBRANCH   8  24
TORSDOF 5
ENDMDL
MODEL 4
REMARK VINA RESULT:    -6.217      4.856      6.155
REMARK INTER + INTRA:          -7.602
REMARK INTER:                  -7.380
REMARK INTRA:                  -0.222
REMARK UNBOUND:                -0.294
REMARK SMILES O=c1c(O)c(-c2ccc(O)cc2)oc2cc(O)cc(O)c12
REMARK SMILES IDX 5 1 3 2 2 3 1 4 21 5 19 6 18 7 16 8 15 9 14 10 13 11 6 12
REMARK SMILES IDX 7 13 8 14 9 15 12 16 11 17 10 18 4 20 20 22 17 24
REMARK H PARENT 10 19 4 21 20 23 17 25
REMARK Flexibility Score: inf
ROOT
ATOM      1  C   UNL     1     182.029 179.139 175.025  1.00  0.00     0.180 A 
ATOM      2  C   UNL     1     181.354 178.033 174.472  1.00  0.00     0.208 A 
ATOM      3  C   UNL     1     181.889 177.412 173.333  1.00  0.00     0.238 A 
ATOM      4  O   UNL     1     181.298 176.414 172.835  1.00  0.00    -0.285 OA
ATOM      5  C   UNL     1     183.073 177.914 172.756  1.00  0.00     0.111 A 
ATOM      6  C   UNL     1     183.675 177.348 171.606  1.00  0.00     0.134 A 
ATOM      7  C   UNL     1     184.848 177.913 171.087  1.00  0.00     0.093 A 
ATOM      8  C   UNL     1     185.432 179.028 171.692  1.00  0.00     0.123 A 
ATOM      9  C   UNL     1     184.842 179.591 172.828  1.00  0.00     0.094 A 
ATOM     10  C   UNL     1     183.673 179.043 173.362  1.00  0.00     0.146 A 
ATOM     11  O   UNL     1     183.136 179.594 174.445  1.00  0.00    -0.452 OA
ENDROOT
BRANCH   1  12
ATOM     12  C   UNL     1     181.539 179.835 176.236  1.00  0.00     0.021 A 
ATOM     13  C   UNL     1     181.672 179.216 177.491  1.00  0.00     0.016 A 
ATOM     14  C   UNL     1     181.196 179.845 178.645  1.00  0.00     0.047 A 
ATOM     15  C   UNL     1     180.567 181.094 178.557  1.00  0.00     0.115 A 
ATOM     16  C   UNL     1     180.888 181.080 176.153  1.00  0.00     0.016 A 
ATOM     17  C   UNL     1     180.412 181.706 177.310  1.00  0.00     0.047 A 
BRANCH  15  18
ATOM     18  O   UNL     1     180.089 181.731 179.699  1.00  0.00    -0.508 OA
ATOM     19  H   UNL     1     179.949 181.227 180.568  1.00  0.00     0.293 HD
ENDBRANCH  15  18
ENDBRANCH   1  12
BRANCH   2  20
ATOM     20  O   UNL     1     180.155 177.586 175.033  1.00  0.00    -0.502 OA
ATOM     21  H   UNL     1     179.250 177.849 174.661  1.00  0.00     0.293 HD
ENDBRANCH   2  20
BRANCH   6  22
ATOM     22  O   UNL     1     183.116 176.234 170.978  1.00  0.00    -0.507 OA
ATOM     23  H   UNL     1     182.471 175.619 171.460  1.00  0.00     0.293 HD
ENDBRANCH   6  22
BRANCH   8  24
ATOM     24  O   UNL     1     186.597 179.571 171.155  1.00  0.00    -0.508 OA
ATOM     25  H   UNL     1     187.281 180.038 171.737  1.00  0.00     0.293 HD
ENDBRANCH   8  24
TORSDOF 5
ENDMDL
MODEL 5
REMARK VINA RESULT:    -6.182      2.483      3.303
REMARK INTER + INTRA:          -7.560
REMARK INTER:                  -7.327
REMARK INTRA:                  -0.234
REMARK UNBOUND:                -0.294
REMARK SMILES O=c1c(O)c(-c2ccc(O)cc2)oc2cc(O)cc(O)c12
REMARK SMILES IDX 5 1 3 2 2 3 1 4 21 5 19 6 18 7 16 8 15 9 14 10 13 11 6 12
REMARK SMILES IDX 7 13 8 14 9 15 12 16 11 17 10 18 4 20 20 22 17 24
REMARK H PARENT 10 19 4 21 20 23 17 25
REMARK Flexibility Score: inf
ROOT
ATOM      1  C   UNL     1     180.945 182.279 175.423  1.00  0.00     0.180 A 
ATOM      2  C   UNL     1     179.896 182.683 174.573  1.00  0.00     0.208 A 
ATOM      3  C   UNL     1     180.186 183.530 173.493  1.00  0.00     0.238 A 
ATOM      4  O   UNL     1     179.257 183.889 172.719  1.00  0.00    -0.285 OA
ATOM      5  C   UNL     1     181.509 183.974 173.291  1.00  0.00     0.111 A 
ATOM      6  C   UNL     1     181.884 184.832 172.228  1.00  0.00     0.134 A 
ATOM      7  C   UNL     1     183.221 185.237 172.101  1.00  0.00     0.093 A 
ATOM      8  C   UNL     1     184.187 184.803 173.011  1.00  0.00     0.123 A 
ATOM      9  C   UNL     1     183.823 183.956 174.063  1.00  0.00     0.094 A 
ATOM     10  C   UNL     1     182.496 183.540 174.207  1.00  0.00     0.146 A 
ATOM     11  O   UNL     1     182.177 182.730 175.210  1.00  0.00    -0.452 OA
ENDROOT
BRANCH   1  12
ATOM     12  C   UNL     1     180.722 181.372 176.571  1.00  0.00     0.021 A 
ATOM     13  C   UNL     1     180.145 181.877 177.750  1.00  0.00     0.016 A 
ATOM     14  C   UNL     1     179.946 181.045 178.854  1.00  0.00     0.047 A 
ATOM     15  C   UNL     1     180.335 179.700 178.802  1.00  0.00     0.115 A 
ATOM     16  C   UNL     1     181.129 180.026 176.533  1.00  0.00     0.016 A 
ATOM     17  C   UNL     1     180.929 179.195 177.641  1.00  0.00     0.047 A 
BRANCH  15  18
ATOM     18  O   UNL     1     180.142 178.860 179.896  1.00  0.00    -0.508 OA
ATOM     19  H   UNL     1     180.193 179.208 180.846  1.00  0.00     0.293 HD
ENDBRANCH  15  18
ENDBRANCH   1  12
BRANCH   2  20
ATOM     20  O   UNL     1     178.585 182.268 174.825  1.00  0.00    -0.502 OA
ATOM     21  H   UNL     1     178.372 181.468 175.409  1.00  0.00     0.293 HD
ENDBRANCH   2  20
BRANCH   6  22
ATOM     22  O   UNL     1     180.942 185.283 171.303  1.00  0.00    -0.507 OA
ATOM     23  H   UNL     1     181.209 185.573 170.369  1.00  0.00     0.293 HD
ENDBRANCH   6  22
BRANCH   8  24
ATOM     24  O   UNL     1     185.508 185.221 172.863  1.00  0.00    -0.508 OA
ATOM     25  H   UNL     1     186.113 184.826 172.154  1.00  0.00     0.293 HD
ENDBRANCH   8  24
TORSDOF 5
ENDMDL
MODEL 6
REMARK VINA RESULT:    -6.171      4.259      6.234
REMARK INTER + INTRA:          -7.548
REMARK INTER:                  -7.288
REMARK INTRA:                  -0.260
REMARK UNBOUND:                -0.294
REMARK SMILES O=c1c(O)c(-c2ccc(O)cc2)oc2cc(O)cc(O)c12
REMARK SMILES IDX 5 1 3 2 2 3 1 4 21 5 19 6 18 7 16 8 15 9 14 10 13 11 6 12
REMARK SMILES IDX 7 13 8 14 9 15 12 16 11 17 10 18 4 20 20 22 17 24
REMARK H PARENT 10 19 4 21 20 23 17 25
REMARK Flexibility Score: inf
ROOT
ATOM      1  C   UNL     1     179.798 178.469 175.407  1.00  0.00     0.180 A 
ATOM      2  C   UNL     1     180.852 178.050 174.572  1.00  0.00     0.208 A 
ATOM      3  C   UNL     1     180.568 177.194 173.498  1.00  0.00     0.238 A 
ATOM      4  O   UNL     1     181.502 176.821 172.737  1.00  0.00    -0.285 OA
ATOM      5  C   UNL     1     179.245 176.755 173.287  1.00  0.00     0.111 A 
ATOM      6  C   UNL     1     178.875 175.887 172.231  1.00  0.00     0.134 A 
ATOM      7  C   UNL     1     177.538 175.488 172.095  1.00  0.00     0.093 A 
ATOM      8  C   UNL     1     176.565 175.936 172.991  1.00  0.00     0.123 A 
ATOM      9  C   UNL     1     176.924 176.793 174.037  1.00  0.00     0.094 A 
ATOM     10  C   UNL     1     178.251 177.204 174.189  1.00  0.00     0.146 A 
ATOM     11  O   UNL     1     178.564 178.022 175.187  1.00  0.00    -0.452 OA
ENDROOT
BRANCH   1  12
ATOM     12  C   UNL     1     180.014 179.387 176.548  1.00  0.00     0.021 A 
ATOM     13  C   UNL     1     180.505 178.876 177.762  1.00  0.00     0.016 A 
ATOM     14  C   UNL     1     180.696 179.721 178.860  1.00  0.00     0.047 A 
ATOM     15  C   UNL     1     180.384 181.083 178.763  1.00  0.00     0.115 A 
ATOM     16  C   UNL     1     179.684 180.752 176.464  1.00  0.00     0.016 A 
ATOM     17  C   UNL     1     179.875 181.594 177.565  1.00  0.00     0.047 A 
BRANCH  15  18
ATOM     18  O   UNL     1     180.570 181.934 179.849  1.00  0.00    -0.508 OA
ATOM     19  H   UNL     1     181.116 181.652 180.656  1.00  0.00     0.293 HD
ENDBRANCH  15  18
ENDBRANCH   1  12
BRANCH   2  20
ATOM     20  O   UNL     1     182.163 178.461 174.832  1.00  0.00    -0.502 OA
ATOM     21  H   UNL     1     182.464 179.421 174.713  1.00  0.00     0.293 HD
ENDBRANCH   2  20
BRANCH   6  22
ATOM     22  O   UNL     1     179.824 175.421 171.320  1.00  0.00    -0.507 OA
ATOM     23  H   UNL     1     180.404 176.056 170.783  1.00  0.00     0.293 HD
ENDBRANCH   6  22
BRANCH   8  24
ATOM     24  O   UNL     1     175.244 175.523 172.835  1.00  0.00    -0.508 OA
ATOM     25  H   UNL     1     174.828 174.833 173.449  1.00  0.00     0.293 HD
ENDBRANCH   8  24
TORSDOF 5
ENDMDL
MODEL 7
REMARK VINA RESULT:    -6.157      4.043      6.625
REMARK INTER + INTRA:          -7.530
REMARK INTER:                  -7.278
REMARK INTRA:                  -0.253
REMARK UNBOUND:                -0.294
REMARK SMILES O=c1c(O)c(-c2ccc(O)cc2)oc2cc(O)cc(O)c12
REMARK SMILES IDX 5 1 3 2 2 3 1 4 21 5 19 6 18 7 16 8 15 9 14 10 13 11 6 12
REMARK SMILES IDX 7 13 8 14 9 15 12 16 11 17 10 18 4 20 20 22 17 24
REMARK H PARENT 10 19 4 21 20 23 17 25
REMARK Flexibility Score: inf
ROOT
ATOM      1  C   UNL     1     182.420 179.427 174.785  1.00  0.00     0.180 A 
ATOM      2  C   UNL     1     182.706 179.142 176.135  1.00  0.00     0.208 A 
ATOM      3  C   UNL     1     181.787 179.532 177.120  1.00  0.00     0.238 A 
ATOM      4  O   UNL     1     182.027 179.272 178.331  1.00  0.00    -0.285 OA
ATOM      5  C   UNL     1     180.612 180.216 176.747  1.00  0.00     0.111 A 
ATOM      6  C   UNL     1     179.638 180.648 177.678  1.00  0.00     0.134 A 
ATOM      7  C   UNL     1     178.500 181.333 177.227  1.00  0.00     0.093 A 
ATOM      8  C   UNL     1     178.317 181.593 175.867  1.00  0.00     0.123 A 
ATOM      9  C   UNL     1     179.276 181.169 174.942  1.00  0.00     0.094 A 
ATOM     10  C   UNL     1     180.417 180.485 175.371  1.00  0.00     0.146 A 
ATOM     11  O   UNL     1     181.310 180.088 174.471  1.00  0.00    -0.452 OA
ENDROOT
BRANCH   1  12
ATOM     12  C   UNL     1     183.330 179.031 173.687  1.00  0.00     0.021 A 
ATOM     13  C   UNL     1     183.058 177.865 172.950  1.00  0.00     0.016 A 
ATOM     14  C   UNL     1     183.915 177.460 171.924  1.00  0.00     0.047 A 
ATOM     15  C   UNL     1     185.065 178.205 171.631  1.00  0.00     0.115 A 
ATOM     16  C   UNL     1     184.497 179.763 173.400  1.00  0.00     0.016 A 
ATOM     17  C   UNL     1     185.354 179.354 172.373  1.00  0.00     0.047 A 
BRANCH  15  18
ATOM     18  O   UNL     1     185.927 177.811 170.610  1.00  0.00    -0.508 OA
ATOM     19  H   UNL     1     186.054 176.834 170.371  1.00  0.00     0.293 HD
ENDBRANCH  15  18
ENDBRANCH   1  12
BRANCH   2  20
ATOM     20  O   UNL     1     183.901 178.506 176.483  1.00  0.00    -0.502 OA
ATOM     21  H   UNL     1     184.304 177.763 175.923  1.00  0.00     0.293 HD
ENDBRANCH   2  20
BRANCH   6  22
ATOM     22  O   UNL     1     179.792 180.404 179.044  1.00  0.00    -0.507 OA
ATOM     23  H   UNL     1     179.002 180.179 179.637  1.00  0.00     0.293 HD
ENDBRANCH   6  22
BRANCH   8  24
ATOM     24  O   UNL     1     177.178 182.276 175.445  1.00  0.00    -0.508 OA
ATOM     25  H   UNL     1     177.142 183.288 175.430  1.00  0.00     0.293 HD
ENDBRANCH   8  24
TORSDOF 5
ENDMDL
MODEL 8
REMARK VINA RESULT:    -6.150      2.249      6.630
REMARK INTER + INTRA:          -7.523
REMARK INTER:                  -7.271
REMARK INTRA:                  -0.252
REMARK UNBOUND:                -0.294
REMARK SMILES O=c1c(O)c(-c2ccc(O)cc2)oc2cc(O)cc(O)c12
REMARK SMILES IDX 5 1 3 2 2 3 1 4 21 5 19 6 18 7 16 8 15 9 14 10 13 11 6 12
REMARK SMILES IDX 7 13 8 14 9 15 12 16 11 17 10 18 4 20 20 22 17 24
REMARK H PARENT 10 19 4 21 20 23 17 25
REMARK Flexibility Score: inf
ROOT
ATOM      1  C   UNL     1     178.287 181.204 174.838  1.00  0.00     0.180 A 
ATOM      2  C   UNL     1     178.054 181.531 176.189  1.00  0.00     0.208 A 
ATOM      3  C   UNL     1     179.012 181.170 177.149  1.00  0.00     0.238 A 
ATOM      4  O   UNL     1     178.820 181.468 178.359  1.00  0.00    -0.285 OA
ATOM      5  C   UNL     1     180.171 180.474 176.750  1.00  0.00     0.111 A 
ATOM      6  C   UNL     1     181.183 180.071 177.656  1.00  0.00     0.134 A 
ATOM      7  C   UNL     1     182.302 179.372 177.181  1.00  0.00     0.093 A 
ATOM      8  C   UNL     1     182.431 179.070 175.824  1.00  0.00     0.123 A 
ATOM      9  C   UNL     1     181.436 179.466 174.924  1.00  0.00     0.094 A 
ATOM     10  C   UNL     1     180.313 180.163 175.377  1.00  0.00     0.146 A 
ATOM     11  O   UNL     1     179.385 180.533 174.502  1.00  0.00    -0.452 OA
ENDROOT
BRANCH   1  12
ATOM     12  C   UNL     1     177.334 181.567 173.766  1.00  0.00     0.021 A 
ATOM     13  C   UNL     1     177.578 182.707 172.981  1.00  0.00     0.016 A 
ATOM     14  C   UNL     1     176.680 183.082 171.977  1.00  0.00     0.047 A 
ATOM     15  C   UNL     1     175.520 182.331 171.755  1.00  0.00     0.115 A 
ATOM     16  C   UNL     1     176.156 180.828 173.550  1.00  0.00     0.016 A 
ATOM     17  C   UNL     1     175.259 181.207 172.545  1.00  0.00     0.047 A 
BRANCH  15  18
ATOM     18  O   UNL     1     174.617 182.693 170.758  1.00  0.00    -0.508 OA
ATOM     19  H   UNL     1     173.953 182.028 170.377  1.00  0.00     0.293 HD
ENDBRANCH  15  18
ENDBRANCH   1  12
BRANCH   2  20
ATOM     20  O   UNL     1     176.874 182.178 176.565  1.00  0.00    -0.502 OA
ATOM     21  H   UNL     1     176.636 183.106 176.236  1.00  0.00     0.293 HD
ENDBRANCH   2  20
BRANCH   6  22
ATOM     22  O   UNL     1     181.082 180.357 179.018  1.00  0.00    -0.507 OA
ATOM     23  H   UNL     1     181.897 180.589 179.575  1.00  0.00     0.293 HD
ENDBRANCH   6  22
BRANCH   8  24
ATOM     24  O   UNL     1     183.553 178.373 175.378  1.00  0.00    -0.508 OA
ATOM     25  H   UNL     1     183.540 177.845 174.514  1.00  0.00     0.293 HD
ENDBRANCH   8  24
TORSDOF 5
ENDMDL
MODEL 9
REMARK VINA RESULT:    -6.104      1.334      3.102
REMARK INTER + INTRA:          -7.468
REMARK INTER:                  -7.189
REMARK INTRA:                  -0.279
REMARK UNBOUND:                -0.294
REMARK SMILES O=c1c(O)c(-c2ccc(O)cc2)oc2cc(O)cc(O)c12
REMARK SMILES IDX 5 1 3 2 2 3 1 4 21 5 19 6 18 7 16 8 15 9 14 10 13 11 6 12
REMARK SMILES IDX 7 13 8 14 9 15 12 16 11 17 10 18 4 20 20 22 17 24
REMARK H PARENT 10 19 4 21 20 23 17 25
REMARK Flexibility Score: inf
ROOT
ATOM      1  C   UNL     1     180.195 182.515 175.149  1.00  0.00     0.180 A 
ATOM      2  C   UNL     1     181.058 183.562 174.771  1.00  0.00     0.208 A 
ATOM      3  C   UNL     1     180.683 184.400 173.710  1.00  0.00     0.238 A 
ATOM      4  O   UNL     1     181.443 185.348 173.370  1.00  0.00    -0.285 OA
ATOM      5  C   UNL     1     179.468 184.168 173.033  1.00  0.00     0.111 A 
ATOM      6  C   UNL     1     179.020 184.963 171.951  1.00  0.00     0.134 A 
ATOM      7  C   UNL     1     177.803 184.661 171.323  1.00  0.00     0.093 A 
ATOM      8  C   UNL     1     177.027 183.582 171.754  1.00  0.00     0.123 A 
ATOM      9  C   UNL     1     177.464 182.793 172.823  1.00  0.00     0.094 A 
ATOM     10  C   UNL     1     178.674 183.078 173.462  1.00  0.00     0.146 A 
ATOM     11  O   UNL     1     179.064 182.317 174.478  1.00  0.00    -0.452 OA
ENDROOT
BRANCH   1  12
ATOM     12  C   UNL     1     180.510 181.601 176.270  1.00  0.00     0.021 A 
ATOM     13  C   UNL     1     180.020 181.889 177.556  1.00  0.00     0.016 A 
ATOM     14  C   UNL     1     180.325 181.053 178.633  1.00  0.00     0.047 A 
ATOM     15  C   UNL     1     181.135 179.926 178.443  1.00  0.00     0.115 A 
ATOM     16  C   UNL     1     181.340 180.479 176.091  1.00  0.00     0.016 A 
ATOM     17  C   UNL     1     181.643 179.645 177.172  1.00  0.00     0.047 A 
BRANCH  15  18
ATOM     18  O   UNL     1     181.445 179.084 179.509  1.00  0.00    -0.508 OA
ATOM     19  H   UNL     1     180.909 178.244 179.693  1.00  0.00     0.293 HD
ENDBRANCH  15  18
ENDBRANCH   1  12
BRANCH   2  20
ATOM     20  O   UNL     1     182.279 183.741 175.426  1.00  0.00    -0.502 OA
ATOM     21  H   UNL     1     182.529 184.611 175.880  1.00  0.00     0.293 HD
ENDBRANCH   2  20
BRANCH   6  22
ATOM     22  O   UNL     1     179.773 186.047 171.496  1.00  0.00    -0.507 OA
ATOM     23  H   UNL     1     179.386 186.735 170.859  1.00  0.00     0.293 HD
ENDBRANCH   6  22
BRANCH   8  24
ATOM     24  O   UNL     1     175.823 183.302 171.113  1.00  0.00    -0.508 OA
ATOM     25  H   UNL     1     175.529 182.351 170.927  1.00  0.00     0.293 HD
ENDBRANCH   8  24
TORSDOF 5
ENDMDL
