MODEL 1
REMARK VINA RESULT:    -4.848      0.000      0.000
REMARK INTER + INTRA:          -4.848
REMARK INTER:                  -4.848
REMARK INTRA:                   0.000
REMARK UNBOUND:                 0.000
REMARK SMILES CC1=CC(=O)[C@@H]2C[C@H]1C2(C)C
REMARK SMILES IDX 1 1 2 2 3 3 4 4 5 5 6 6 7 7 8 8 9 9 10 10 11 11
REMARK H PARENT
REMARK Flexibility Score: inf
ROOT
ATOM      1  C   UNL     1      10.951 -17.875 -19.373  1.00  0.00     0.040 C 
ATOM      2  C   UNL     1      12.376 -17.958 -19.821  1.00  0.00    -0.066 C 
ATOM      3  C   UNL     1      13.415 -17.607 -19.010  1.00  0.00     0.047 C 
ATOM      4  C   UNL     1      14.787 -17.746 -19.596  1.00  0.00     0.159 C 
ATOM      5  O   UNL     1      15.829 -17.495 -18.935  1.00  0.00    -0.295 OA
ATOM      6  C   UNL     1      14.833 -18.211 -21.052  1.00  0.00     0.067 C 
ATOM      7  C   UNL     1      13.757 -17.355 -21.756  1.00  0.00     0.021 C 
ATOM      8  C   UNL     1      12.730 -18.396 -21.256  1.00  0.00     0.022 C 
ATOM      9  C   UNL     1      13.887 -19.435 -21.211  1.00  0.00    -0.019 C 
ATOM     10  C   UNL     1      14.083 -20.159 -22.566  1.00  0.00     0.012 C 
ATOM     11  C   UNL     1      13.869 -20.506 -20.084  1.00  0.00     0.012 C 
ENDROOT
TORSDOF 0
ENDMDL
MODEL 2
REMARK VINA RESULT:    -4.769      1.845      3.387
REMARK INTER + INTRA:          -4.769
REMARK INTER:                  -4.769
REMARK INTRA:                   0.000
REMARK UNBOUND:                 0.000
REMARK SMILES CC1=CC(=O)[C@@H]2C[C@H]1C2(C)C
REMARK SMILES IDX 1 1 2 2 3 3 4 4 5 5 6 6 7 7 8 8 9 9 10 10 11 11
REMARK H PARENT
REMARK Flexibility Score: inf
ROOT
ATOM      1  C   UNL     1      14.649 -21.279 -21.242  1.00  0.00     0.040 C 
ATOM      2  C   UNL     1      14.146 -19.991 -20.669  1.00  0.00    -0.066 C 
ATOM      3  C   UNL     1      12.818 -19.757 -20.464  1.00  0.00     0.047 C 
ATOM      4  C   UNL     1      12.465 -18.421 -19.881  1.00  0.00     0.159 C 
ATOM      5  O   UNL     1      11.280 -18.101 -19.606  1.00  0.00    -0.295 OA
ATOM      6  C   UNL     1      13.644 -17.476 -19.648  1.00  0.00     0.067 C 
ATOM      7  C   UNL     1      14.472 -17.576 -20.949  1.00  0.00     0.021 C 
ATOM      8  C   UNL     1      15.117 -18.840 -20.337  1.00  0.00     0.022 C 
ATOM      9  C   UNL     1      14.777 -18.265 -18.931  1.00  0.00    -0.019 C 
ATOM     10  C   UNL     1      15.891 -17.335 -18.390  1.00  0.00     0.012 C 
ATOM     11  C   UNL     1      14.384 -19.262 -17.805  1.00  0.00     0.012 C 
ENDROOT
TORSDOF 0
ENDMDL
MODEL 3
REMARK VINA RESULT:    -4.731      1.781      2.670
REMARK INTER + INTRA:          -4.731
REMARK INTER:                  -4.731
REMARK INTRA:                   0.000
REMARK UNBOUND:                 0.000
REMARK SMILES CC1=CC(=O)[C@@H]2C[C@H]1C2(C)C
REMARK SMILES IDX 1 1 2 2 3 3 4 4 5 5 6 6 7 7 8 8 9 9 10 10 11 11
REMARK H PARENT
REMARK Flexibility Score: inf
ROOT
ATOM      1  C   UNL     1      14.670 -18.654 -17.531  1.00  0.00     0.040 C 
ATOM      2  C   UNL     1      14.253 -18.767 -18.963  1.00  0.00    -0.066 C 
ATOM      3  C   UNL     1      13.877 -17.682 -19.699  1.00  0.00     0.047 C 
ATOM      4  C   UNL     1      13.488 -17.950 -21.121  1.00  0.00     0.159 C 
ATOM      5  O   UNL     1      13.163 -17.028 -21.915  1.00  0.00    -0.295 OA
ATOM      6  C   UNL     1      13.511 -19.420 -21.540  1.00  0.00     0.067 C 
ATOM      7  C   UNL     1      12.807 -20.156 -20.378  1.00  0.00     0.021 C 
ATOM      8  C   UNL     1      14.175 -20.141 -19.659  1.00  0.00     0.022 C 
ATOM      9  C   UNL     1      14.848 -20.052 -21.059  1.00  0.00    -0.019 C 
ATOM     10  C   UNL     1      15.099 -21.448 -21.683  1.00  0.00     0.012 C 
ATOM     11  C   UNL     1      16.151 -19.215 -21.196  1.00  0.00     0.012 C 
ENDROOT
TORSDOF 0
ENDMDL
MODEL 4
REMARK VINA RESULT:    -4.715      1.546      2.996
REMARK INTER + INTRA:          -4.715
REMARK INTER:                  -4.715
REMARK INTRA:                   0.000
REMARK UNBOUND:                 0.000
REMARK SMILES CC1=CC(=O)[C@@H]2C[C@H]1C2(C)C
REMARK SMILES IDX 1 1 2 2 3 3 4 4 5 5 6 6 7 7 8 8 9 9 10 10 11 11
REMARK H PARENT
REMARK Flexibility Score: inf
ROOT
ATOM      1  C   UNL     1      16.364 -17.494 -18.967  1.00  0.00     0.040 C 
ATOM      2  C   UNL     1      15.031 -17.996 -19.423  1.00  0.00    -0.066 C 
ATOM      3  C   UNL     1      13.860 -17.502 -18.929  1.00  0.00     0.047 C 
ATOM      4  C   UNL     1      12.603 -18.102 -19.482  1.00  0.00     0.159 C 
ATOM      5  O   UNL     1      11.459 -17.703 -19.138  1.00  0.00    -0.295 OA
ATOM      6  C   UNL     1      12.806 -19.234 -20.490  1.00  0.00     0.067 C 
ATOM      7  C   UNL     1      13.888 -20.126 -19.843  1.00  0.00     0.021 C 
ATOM      8  C   UNL     1      14.926 -19.150 -20.441  1.00  0.00     0.022 C 
ATOM      9  C   UNL     1      13.873 -18.786 -21.529  1.00  0.00    -0.019 C 
ATOM     10  C   UNL     1      13.939 -19.733 -22.753  1.00  0.00     0.012 C 
ATOM     11  C   UNL     1      13.830 -17.321 -22.047  1.00  0.00     0.012 C 
ENDROOT
TORSDOF 0
ENDMDL
MODEL 5
REMARK VINA RESULT:    -4.687      7.173      8.953
REMARK INTER + INTRA:          -4.687
REMARK INTER:                  -4.687
REMARK INTRA:                   0.000
REMARK UNBOUND:                 0.000
REMARK SMILES CC1=CC(=O)[C@@H]2C[C@H]1C2(C)C
REMARK SMILES IDX 1 1 2 2 3 3 4 4 5 5 6 6 7 7 8 8 9 9 10 10 11 11
REMARK H PARENT
REMARK Flexibility Score: inf
ROOT
ATOM      1  C   UNL     1      16.145 -23.857 -22.931  1.00  0.00     0.040 C 
ATOM      2  C   UNL     1      17.555 -24.177 -23.316  1.00  0.00    -0.066 C 
ATOM      3  C   UNL     1      18.233 -23.460 -24.257  1.00  0.00     0.047 C 
ATOM      4  C   UNL     1      19.640 -23.897 -24.535  1.00  0.00     0.159 C 
ATOM      5  O   UNL     1      20.383 -23.291 -25.350  1.00  0.00    -0.295 OA
ATOM      6  C   UNL     1      20.107 -25.131 -23.762  1.00  0.00     0.067 C 
ATOM      7  C   UNL     1      18.931 -26.125 -23.891  1.00  0.00     0.021 C 
ATOM      8  C   UNL     1      18.289 -25.384 -22.697  1.00  0.00     0.022 C 
ATOM      9  C   UNL     1      19.722 -24.953 -22.266  1.00  0.00    -0.019 C 
ATOM     10  C   UNL     1      20.403 -26.003 -21.354  1.00  0.00     0.012 C 
ATOM     11  C   UNL     1      19.903 -23.552 -21.618  1.00  0.00     0.012 C 
ENDROOT
TORSDOF 0
ENDMDL
MODEL 6
REMARK VINA RESULT:    -4.679      1.217      3.228
REMARK INTER + INTRA:          -4.679
REMARK INTER:                  -4.679
REMARK INTRA:                   0.000
REMARK UNBOUND:                 0.000
REMARK SMILES CC1=CC(=O)[C@@H]2C[C@H]1C2(C)C
REMARK SMILES IDX 1 1 2 2 3 3 4 4 5 5 6 6 7 7 8 8 9 9 10 10 11 11
REMARK H PARENT
REMARK Flexibility Score: inf
ROOT
ATOM      1  C   UNL     1      14.621 -21.246 -21.420  1.00  0.00     0.040 C 
ATOM      2  C   UNL     1      14.751 -19.942 -20.698  1.00  0.00    -0.066 C 
ATOM      3  C   UNL     1      15.849 -19.145 -20.831  1.00  0.00     0.047 C 
ATOM      4  C   UNL     1      15.837 -17.867 -20.047  1.00  0.00     0.159 C 
ATOM      5  O   UNL     1      16.772 -17.027 -20.117  1.00  0.00    -0.295 OA
ATOM      6  C   UNL     1      14.613 -17.658 -19.155  1.00  0.00     0.067 C 
ATOM      7  C   UNL     1      14.422 -19.018 -18.449  1.00  0.00     0.021 C 
ATOM      8  C   UNL     1      13.661 -19.469 -19.716  1.00  0.00     0.022 C 
ATOM      9  C   UNL     1      13.336 -17.971 -19.986  1.00  0.00    -0.019 C 
ATOM     10  C   UNL     1      12.041 -17.510 -19.272  1.00  0.00     0.012 C 
ATOM     11  C   UNL     1      13.278 -17.486 -21.462  1.00  0.00     0.012 C 
ENDROOT
TORSDOF 0
ENDMDL
MODEL 7
REMARK VINA RESULT:    -4.447     11.661     12.868
REMARK INTER + INTRA:          -4.447
REMARK INTER:                  -4.447
REMARK INTRA:                   0.000
REMARK UNBOUND:                 0.000
REMARK SMILES CC1=CC(=O)[C@@H]2C[C@H]1C2(C)C
REMARK SMILES IDX 1 1 2 2 3 3 4 4 5 5 6 6 7 7 8 8 9 9 10 10 11 11
REMARK H PARENT
REMARK Flexibility Score: inf
ROOT
ATOM      1  C   UNL     1       8.283  -8.892 -25.093  1.00  0.00     0.040 C 
ATOM      2  C   UNL     1       7.000  -9.635 -25.294  1.00  0.00    -0.066 C 
ATOM      3  C   UNL     1       5.840  -9.259 -24.684  1.00  0.00     0.047 C 
ATOM      4  C   UNL     1       4.634 -10.099 -24.981  1.00  0.00     0.159 C 
ATOM      5  O   UNL     1       3.497  -9.831 -24.514  1.00  0.00    -0.295 OA
ATOM      6  C   UNL     1       4.884 -11.303 -25.889  1.00  0.00     0.067 C 
ATOM      7  C   UNL     1       6.171 -11.943 -25.323  1.00  0.00     0.021 C 
ATOM      8  C   UNL     1       6.950 -10.907 -26.164  1.00  0.00     0.022 C 
ATOM      9  C   UNL     1       5.719 -10.836 -27.115  1.00  0.00    -0.019 C 
ATOM     10  C   UNL     1       5.776 -11.906 -28.233  1.00  0.00     0.012 C 
ATOM     11  C   UNL     1       5.373  -9.467 -27.766  1.00  0.00     0.012 C 
ENDROOT
TORSDOF 0
ENDMDL
MODEL 8
REMARK VINA RESULT:    -4.437      1.156      2.819
REMARK INTER + INTRA:          -4.437
REMARK INTER:                  -4.437
REMARK INTRA:                   0.000
REMARK UNBOUND:                 0.000
REMARK SMILES CC1=CC(=O)[C@@H]2C[C@H]1C2(C)C
REMARK SMILES IDX 1 1 2 2 3 3 4 4 5 5 6 6 7 7 8 8 9 9 10 10 11 11
REMARK H PARENT
REMARK Flexibility Score: inf
ROOT
ATOM      1  C   UNL     1      14.621 -21.249 -21.250  1.00  0.00     0.040 C 
ATOM      2  C   UNL     1      14.180 -19.918 -20.728  1.00  0.00    -0.066 C 
ATOM      3  C   UNL     1      14.634 -19.415 -19.544  1.00  0.00     0.047 C 
ATOM      4  C   UNL     1      14.105 -18.068 -19.152  1.00  0.00     0.159 C 
ATOM      5  O   UNL     1      14.480 -17.478 -18.105  1.00  0.00    -0.295 OA
ATOM      6  C   UNL     1      13.078 -17.464 -20.110  1.00  0.00     0.067 C 
ATOM      7  C   UNL     1      12.114 -18.632 -20.417  1.00  0.00     0.021 C 
ATOM      8  C   UNL     1      13.136 -19.076 -21.488  1.00  0.00     0.022 C 
ATOM      9  C   UNL     1      13.617 -17.598 -21.563  1.00  0.00    -0.019 C 
ATOM     10  C   UNL     1      12.796 -16.761 -22.575  1.00  0.00     0.012 C 
ATOM     11  C   UNL     1      15.127 -17.329 -21.818  1.00  0.00     0.012 C 
ENDROOT
TORSDOF 0
ENDMDL
MODEL 9
REMARK VINA RESULT:    -4.403      1.754      3.363
REMARK INTER + INTRA:          -4.403
REMARK INTER:                  -4.403
REMARK INTRA:                   0.000
REMARK UNBOUND:                 0.000
REMARK SMILES CC1=CC(=O)[C@@H]2C[C@H]1C2(C)C
REMARK SMILES IDX 1 1 2 2 3 3 4 4 5 5 6 6 7 7 8 8 9 9 10 10 11 11
REMARK H PARENT
REMARK Flexibility Score: inf
ROOT
ATOM      1  C   UNL     1      13.440 -16.724 -22.745  1.00  0.00     0.040 C 
ATOM      2  C   UNL     1      13.763 -17.784 -21.740  1.00  0.00    -0.066 C 
ATOM      3  C   UNL     1      14.117 -19.049 -22.106  1.00  0.00     0.047 C 
ATOM      4  C   UNL     1      14.414 -20.002 -20.988  1.00  0.00     0.159 C 
ATOM      5  O   UNL     1      14.792 -21.185 -21.195  1.00  0.00    -0.295 OA
ATOM      6  C   UNL     1      14.223 -19.439 -19.579  1.00  0.00     0.067 C 
ATOM      7  C   UNL     1      12.867 -18.701 -19.648  1.00  0.00     0.021 C 
ATOM      8  C   UNL     1      13.650 -17.502 -20.228  1.00  0.00     0.022 C 
ATOM      9  C   UNL     1      14.915 -18.048 -19.504  1.00  0.00    -0.019 C 
ATOM     10  C   UNL     1      15.033 -17.527 -18.050  1.00  0.00     0.012 C 
ATOM     11  C   UNL     1      16.294 -17.871 -20.200  1.00  0.00     0.012 C 
ENDROOT
TORSDOF 0
ENDMDL
