MODEL 1
REMARK VINA RESULT:    -8.120      0.000      0.000
REMARK INTER + INTRA:         -10.298
REMARK INTER:                 -10.019
REMARK INTRA:                  -0.279
REMARK UNBOUND:                -0.279
REMARK SMILES O=c1c(O)c(-c2cc(O)c(O)c(O)c2)oc2cc(O)cc(O)c12
REMARK SMILES IDX 5 1 3 2 2 3 1 4 23 5 21 6 20 7 18 8 17 9 16 10 15 11 6 12
REMARK SMILES IDX 7 13 8 14 14 15 10 16 12 17 9 18 11 20 13 22 4 24 22 26
REMARK SMILES IDX 19 28
REMARK H PARENT 9 19 11 21 13 23 4 25 22 27 19 29
REMARK Flexibility Score: inf
ROOT
ATOM      1  C   UNL     1      15.973  22.938  41.280  1.00  0.00     0.180 A 
ATOM      2  C   UNL     1      15.358  24.029  40.641  1.00  0.00     0.208 A 
ATOM      3  C   UNL     1      14.285  24.673  41.277  1.00  0.00     0.238 A 
ATOM      4  O   UNL     1      13.692  25.601  40.668  1.00  0.00    -0.285 OA
ATOM      5  C   UNL     1      13.876  24.256  42.567  1.00  0.00     0.111 A 
ATOM      6  C   UNL     1      12.829  24.865  43.324  1.00  0.00     0.134 A 
ATOM      7  C   UNL     1      12.440  24.299  44.545  1.00  0.00     0.093 A 
ATOM      8  C   UNL     1      13.102  23.185  45.066  1.00  0.00     0.123 A 
ATOM      9  C   UNL     1      14.160  22.617  44.361  1.00  0.00     0.094 A 
ATOM     10  C   UNL     1      14.546  23.135  43.123  1.00  0.00     0.146 A 
ATOM     11  O   UNL     1      15.546  22.549  42.475  1.00  0.00    -0.452 OA
ENDROOT
BRANCH   1  12
ATOM     12  C   UNL     1      17.101  22.199  40.667  1.00  0.00     0.029 A 
ATOM     13  C   UNL     1      16.934  20.901  40.158  1.00  0.00     0.062 A 
ATOM     14  C   UNL     1      18.019  20.207  39.604  1.00  0.00     0.162 A 
ATOM     15  C   UNL     1      18.377  22.782  40.645  1.00  0.00     0.062 A 
ATOM     16  C   UNL     1      19.289  20.808  39.565  1.00  0.00     0.200 A 
ATOM     17  C   UNL     1      19.465  22.099  40.092  1.00  0.00     0.162 A 
BRANCH  14  18
ATOM     18  O   UNL     1      17.839  18.921  39.096  1.00  0.00    -0.504 OA
ATOM     19  H   UNL     1      18.467  18.163  39.333  1.00  0.00     0.293 HD
ENDBRANCH  14  18
BRANCH  16  20
ATOM     20  O   UNL     1      20.379  20.135  39.012  1.00  0.00    -0.502 OA
ATOM     21  H   UNL     1      21.293  20.562  38.933  1.00  0.00     0.293 HD
ENDBRANCH  16  20
BRANCH  17  22
ATOM     22  O   UNL     1      20.713  22.720  40.077  1.00  0.00    -0.504 OA
ATOM     23  H   UNL     1      21.089  23.154  39.242  1.00  0.00     0.293 HD
ENDBRANCH  17  22
ENDBRANCH   1  12
BRANCH   2  24
ATOM     24  O   UNL     1      15.827  24.474  39.402  1.00  0.00    -0.502 OA
ATOM     25  H   UNL     1      16.421  25.290  39.307  1.00  0.00     0.293 HD
ENDBRANCH   2  24
BRANCH   6  26
ATOM     26  O   UNL     1      12.162  26.032  42.939  1.00  0.00    -0.507 OA
ATOM     27  H   UNL     1      11.259  26.322  43.281  1.00  0.00     0.293 HD
ENDBRANCH   6  26
BRANCH   8  28
ATOM     28  O   UNL     1      12.719  22.639  46.290  1.00  0.00    -0.508 OA
ATOM     29  H   UNL     1      13.180  22.898  47.154  1.00  0.00     0.293 HD
ENDBRANCH   8  28
TORSDOF 7
ENDMDL
MODEL 2
REMARK VINA RESULT:    -8.028      0.059      1.755
REMARK INTER + INTRA:         -10.184
REMARK INTER:                  -9.903
REMARK INTRA:                  -0.281
REMARK UNBOUND:                -0.279
REMARK SMILES O=c1c(O)c(-c2cc(O)c(O)c(O)c2)oc2cc(O)cc(O)c12
REMARK SMILES IDX 5 1 3 2 2 3 1 4 23 5 21 6 20 7 18 8 17 9 16 10 15 11 6 12
REMARK SMILES IDX 7 13 8 14 14 15 10 16 12 17 9 18 11 20 13 22 4 24 22 26
REMARK SMILES IDX 19 28
REMARK H PARENT 9 19 11 21 13 23 4 25 22 27 19 29
REMARK Flexibility Score: inf
ROOT
ATOM      1  C   UNL     1      15.989  22.942  41.323  1.00  0.00     0.180 A 
ATOM      2  C   UNL     1      15.381  24.030  40.671  1.00  0.00     0.208 A 
ATOM      3  C   UNL     1      14.290  24.666  41.284  1.00  0.00     0.238 A 
ATOM      4  O   UNL     1      13.703  25.589  40.662  1.00  0.00    -0.285 OA
ATOM      5  C   UNL     1      13.856  24.246  42.565  1.00  0.00     0.111 A 
ATOM      6  C   UNL     1      12.789  24.848  43.300  1.00  0.00     0.134 A 
ATOM      7  C   UNL     1      12.378  24.279  44.512  1.00  0.00     0.093 A 
ATOM      8  C   UNL     1      13.037  23.170  45.047  1.00  0.00     0.123 A 
ATOM      9  C   UNL     1      14.113  22.609  44.365  1.00  0.00     0.094 A 
ATOM     10  C   UNL     1      14.522  23.130  43.135  1.00  0.00     0.146 A 
ATOM     11  O   UNL     1      15.539  22.550  42.509  1.00  0.00    -0.452 OA
ENDROOT
BRANCH   1  12
ATOM     12  C   UNL     1      17.135  22.211  40.734  1.00  0.00     0.029 A 
ATOM     13  C   UNL     1      18.417  22.781  40.682  1.00  0.00     0.062 A 
ATOM     14  C   UNL     1      19.484  22.084  40.098  1.00  0.00     0.162 A 
ATOM     15  C   UNL     1      16.926  20.946  40.164  1.00  0.00     0.062 A 
ATOM     16  C   UNL     1      19.271  20.808  39.550  1.00  0.00     0.200 A 
ATOM     17  C   UNL     1      17.985  20.242  39.582  1.00  0.00     0.162 A 
BRANCH  14  18
ATOM     18  O   UNL     1      20.754  22.658  40.058  1.00  0.00    -0.504 OA
ATOM     19  H   UNL     1      20.905  23.593  39.700  1.00  0.00     0.293 HD
ENDBRANCH  14  18
BRANCH  16  20
ATOM     20  O   UNL     1      20.323  20.097  38.970  1.00  0.00    -0.502 OA
ATOM     21  H   UNL     1      21.062  20.555  38.451  1.00  0.00     0.293 HD
ENDBRANCH  16  20
BRANCH  17  22
ATOM     22  O   UNL     1      17.739  18.981  39.038  1.00  0.00    -0.504 OA
ATOM     23  H   UNL     1      17.339  18.228  39.585  1.00  0.00     0.293 HD
ENDBRANCH  17  22
ENDBRANCH   1  12
BRANCH   2  24
ATOM     24  O   UNL     1      15.873  24.478  39.442  1.00  0.00    -0.502 OA
ATOM     25  H   UNL     1      15.326  25.058  38.817  1.00  0.00     0.293 HD
ENDBRANCH   2  24
BRANCH   6  26
ATOM     26  O   UNL     1      12.122  26.011  42.900  1.00  0.00    -0.507 OA
ATOM     27  H   UNL     1      12.057  26.343  41.951  1.00  0.00     0.293 HD
ENDBRANCH   6  26
BRANCH   8  28
ATOM     28  O   UNL     1      12.632  22.621  46.262  1.00  0.00    -0.508 OA
ATOM     29  H   UNL     1      11.658  22.612  46.541  1.00  0.00     0.293 HD
ENDBRANCH   8  28
TORSDOF 7
ENDMDL
MODEL 3
REMARK VINA RESULT:    -8.017      1.546      2.629
REMARK INTER + INTRA:         -10.171
REMARK INTER:                 -10.474
REMARK INTRA:                   0.304
REMARK UNBOUND:                -0.279
REMARK SMILES O=c1c(O)c(-c2cc(O)c(O)c(O)c2)oc2cc(O)cc(O)c12
REMARK SMILES IDX 5 1 3 2 2 3 1 4 23 5 21 6 20 7 18 8 17 9 16 10 15 11 6 12
REMARK SMILES IDX 7 13 8 14 14 15 10 16 12 17 9 18 11 20 13 22 4 24 22 26
REMARK SMILES IDX 19 28
REMARK H PARENT 9 19 11 21 13 23 4 25 22 27 19 29
REMARK Flexibility Score: inf
ROOT
ATOM      1  C   UNL     1      17.552  22.743  40.320  1.00  0.00     0.180 A 
ATOM      2  C   UNL     1      17.191  23.775  39.436  1.00  0.00     0.208 A 
ATOM      3  C   UNL     1      16.031  24.520  39.698  1.00  0.00     0.238 A 
ATOM      4  O   UNL     1      15.673  25.391  38.863  1.00  0.00    -0.285 OA
ATOM      5  C   UNL     1      15.277  24.264  40.869  1.00  0.00     0.111 A 
ATOM      6  C   UNL     1      14.108  24.988  41.257  1.00  0.00     0.134 A 
ATOM      7  C   UNL     1      13.382  24.576  42.382  1.00  0.00     0.093 A 
ATOM      8  C   UNL     1      13.818  23.507  43.169  1.00  0.00     0.123 A 
ATOM      9  C   UNL     1      14.986  22.830  42.829  1.00  0.00     0.094 A 
ATOM     10  C   UNL     1      15.711  23.192  41.691  1.00  0.00     0.146 A 
ATOM     11  O   UNL     1      16.807  22.505  41.393  1.00  0.00    -0.452 OA
ENDROOT
BRANCH   1  12
ATOM     12  C   UNL     1      18.753  21.904  40.104  1.00  0.00     0.029 A 
ATOM     13  C   UNL     1      19.847  22.371  39.358  1.00  0.00     0.062 A 
ATOM     14  C   UNL     1      20.965  21.553  39.144  1.00  0.00     0.162 A 
ATOM     15  C   UNL     1      18.778  20.593  40.605  1.00  0.00     0.062 A 
ATOM     16  C   UNL     1      20.992  20.250  39.669  1.00  0.00     0.200 A 
ATOM     17  C   UNL     1      19.890  19.771  40.399  1.00  0.00     0.162 A 
BRANCH  14  18
ATOM     18  O   UNL     1      22.049  22.031  38.407  1.00  0.00    -0.504 OA
ATOM     19  H   UNL     1      22.054  22.964  38.013  1.00  0.00     0.293 HD
ENDBRANCH  14  18
BRANCH  16  20
ATOM     20  O   UNL     1      22.099  19.424  39.470  1.00  0.00    -0.502 OA
ATOM     21  H   UNL     1      23.027  19.683  39.781  1.00  0.00     0.293 HD
ENDBRANCH  16  20
BRANCH  17  22
ATOM     22  O   UNL     1      19.882  18.480  40.925  1.00  0.00    -0.504 OA
ATOM     23  H   UNL     1      20.700  18.069  41.358  1.00  0.00     0.293 HD
ENDBRANCH  17  22
ENDBRANCH   1  12
BRANCH   2  24
ATOM     24  O   UNL     1      17.991  24.061  38.326  1.00  0.00    -0.502 OA
ATOM     25  H   UNL     1      18.815  23.518  38.096  1.00  0.00     0.293 HD
ENDBRANCH   2  24
BRANCH   6  26
ATOM     26  O   UNL     1      13.636  26.125  40.594  1.00  0.00    -0.507 OA
ATOM     27  H   UNL     1      14.216  26.823  40.156  1.00  0.00     0.293 HD
ENDBRANCH   6  26
BRANCH   8  28
ATOM     28  O   UNL     1      13.099  23.115  44.296  1.00  0.00    -0.508 OA
ATOM     29  H   UNL     1      12.973  22.138  44.531  1.00  0.00     0.293 HD
ENDBRANCH   8  28
TORSDOF 7
ENDMDL
MODEL 4
REMARK VINA RESULT:    -6.758      1.273      6.901
REMARK INTER + INTRA:          -8.617
REMARK INTER:                  -9.059
REMARK INTRA:                   0.442
REMARK UNBOUND:                -0.279
REMARK SMILES O=c1c(O)c(-c2cc(O)c(O)c(O)c2)oc2cc(O)cc(O)c12
REMARK SMILES IDX 5 1 3 2 2 3 1 4 23 5 21 6 20 7 18 8 17 9 16 10 15 11 6 12
REMARK SMILES IDX 7 13 8 14 14 15 10 16 12 17 9 18 11 20 13 22 4 24 22 26
REMARK SMILES IDX 19 28
REMARK H PARENT 9 19 11 21 13 23 4 25 22 27 19 29
REMARK Flexibility Score: inf
ROOT
ATOM      1  C   UNL     1      14.941  23.754  41.740  1.00  0.00     0.180 A 
ATOM      2  C   UNL     1      15.059  24.712  40.718  1.00  0.00     0.208 A 
ATOM      3  C   UNL     1      16.107  24.593  39.792  1.00  0.00     0.238 A 
ATOM      4  O   UNL     1      16.251  25.494  38.925  1.00  0.00    -0.285 OA
ATOM      5  C   UNL     1      16.990  23.488  39.863  1.00  0.00     0.111 A 
ATOM      6  C   UNL     1      18.060  23.243  38.950  1.00  0.00     0.134 A 
ATOM      7  C   UNL     1      18.936  22.175  39.183  1.00  0.00     0.093 A 
ATOM      8  C   UNL     1      18.742  21.305  40.259  1.00  0.00     0.123 A 
ATOM      9  C   UNL     1      17.669  21.505  41.123  1.00  0.00     0.094 A 
ATOM     10  C   UNL     1      16.801  22.583  40.940  1.00  0.00     0.146 A 
ATOM     11  O   UNL     1      15.804  22.748  41.801  1.00  0.00    -0.452 OA
ENDROOT
BRANCH   1  12
ATOM     12  C   UNL     1      13.871  23.820  42.763  1.00  0.00     0.029 A 
ATOM     13  C   UNL     1      12.867  24.800  42.709  1.00  0.00     0.062 A 
ATOM     14  C   UNL     1      11.877  24.862  43.699  1.00  0.00     0.162 A 
ATOM     15  C   UNL     1      13.892  22.922  43.841  1.00  0.00     0.062 A 
ATOM     16  C   UNL     1      11.891  23.944  44.763  1.00  0.00     0.200 A 
ATOM     17  C   UNL     1      12.907  22.974  44.832  1.00  0.00     0.162 A 
BRANCH  14  18
ATOM     18  O   UNL     1      10.881  25.835  43.631  1.00  0.00    -0.504 OA
ATOM     19  H   UNL     1      10.667  26.317  42.766  1.00  0.00     0.293 HD
ENDBRANCH  14  18
BRANCH  16  20
ATOM     20  O   UNL     1      10.911  23.987  45.754  1.00  0.00    -0.502 OA
ATOM     21  H   UNL     1      11.036  23.546  46.657  1.00  0.00     0.293 HD
ENDBRANCH  16  20
BRANCH  17  22
ATOM     22  O   UNL     1      12.954  22.055  45.879  1.00  0.00    -0.504 OA
ATOM     23  H   UNL     1      12.342  22.122  46.683  1.00  0.00     0.293 HD
ENDBRANCH  17  22
ENDBRANCH   1  12
BRANCH   2  24
ATOM     24  O   UNL     1      14.131  25.752  40.619  1.00  0.00    -0.502 OA
ATOM     25  H   UNL     1      13.665  25.985  39.749  1.00  0.00     0.293 HD
ENDBRANCH   2  24
BRANCH   6  26
ATOM     26  O   UNL     1      18.291  23.996  37.794  1.00  0.00    -0.507 OA
ATOM     27  H   UNL     1      19.106  24.565  37.627  1.00  0.00     0.293 HD
ENDBRANCH   6  26
BRANCH   8  28
ATOM     28  O   UNL     1      19.608  20.235  40.473  1.00  0.00    -0.508 OA
ATOM     29  H   UNL     1      20.312  19.979  39.791  1.00  0.00     0.293 HD
ENDBRANCH   8  28
TORSDOF 7
ENDMDL
MODEL 5
REMARK VINA RESULT:    -6.625      1.431      6.835
REMARK INTER + INTRA:          -8.453
REMARK INTER:                  -8.622
REMARK INTRA:                   0.169
REMARK UNBOUND:                -0.279
REMARK SMILES O=c1c(O)c(-c2cc(O)c(O)c(O)c2)oc2cc(O)cc(O)c12
REMARK SMILES IDX 5 1 3 2 2 3 1 4 23 5 21 6 20 7 18 8 17 9 16 10 15 11 6 12
REMARK SMILES IDX 7 13 8 14 14 15 10 16 12 17 9 18 11 20 13 22 4 24 22 26
REMARK SMILES IDX 19 28
REMARK H PARENT 9 19 11 21 13 23 4 25 22 27 19 29
REMARK Flexibility Score: inf
ROOT
ATOM      1  C   UNL     1      14.157  23.626  42.721  1.00  0.00     0.180 A 
ATOM      2  C   UNL     1      13.883  24.701  41.857  1.00  0.00     0.208 A 
ATOM      3  C   UNL     1      14.698  24.893  40.730  1.00  0.00     0.238 A 
ATOM      4  O   UNL     1      14.494  25.900  40.004  1.00  0.00    -0.285 OA
ATOM      5  C   UNL     1      15.740  23.976  40.449  1.00  0.00     0.111 A 
ATOM      6  C   UNL     1      16.600  24.049  39.310  1.00  0.00     0.134 A 
ATOM      7  C   UNL     1      17.666  23.147  39.192  1.00  0.00     0.093 A 
ATOM      8  C   UNL     1      17.864  22.137  40.137  1.00  0.00     0.123 A 
ATOM      9  C   UNL     1      16.998  22.026  41.221  1.00  0.00     0.094 A 
ATOM     10  C   UNL     1      15.950  22.933  41.388  1.00  0.00     0.146 A 
ATOM     11  O   UNL     1      15.161  22.802  42.448  1.00  0.00    -0.452 OA
ENDROOT
BRANCH   1  12
ATOM     12  C   UNL     1      13.351  23.366  43.936  1.00  0.00     0.029 A 
ATOM     13  C   UNL     1      12.988  22.061  44.308  1.00  0.00     0.062 A 
ATOM     14  C   UNL     1      12.204  21.837  45.449  1.00  0.00     0.162 A 
ATOM     15  C   UNL     1      12.891  24.448  44.703  1.00  0.00     0.062 A 
ATOM     16  C   UNL     1      11.767  22.924  46.223  1.00  0.00     0.200 A 
ATOM     17  C   UNL     1      12.110  24.233  45.843  1.00  0.00     0.162 A 
BRANCH  14  18
ATOM     18  O   UNL     1      11.857  20.537  45.812  1.00  0.00    -0.504 OA
ATOM     19  H   UNL     1      11.130  20.025  45.326  1.00  0.00     0.293 HD
ENDBRANCH  14  18
BRANCH  16  20
ATOM     20  O   UNL     1      10.991  22.719  47.365  1.00  0.00    -0.502 OA
ATOM     21  H   UNL     1      11.329  22.191  48.160  1.00  0.00     0.293 HD
ENDBRANCH  16  20
BRANCH  17  22
ATOM     22  O   UNL     1      11.684  25.335  46.585  1.00  0.00    -0.504 OA
ATOM     23  H   UNL     1      12.331  25.920  47.100  1.00  0.00     0.293 HD
ENDBRANCH  17  22
ENDBRANCH   1  12
BRANCH   2  24
ATOM     24  O   UNL     1      12.802  25.549  42.112  1.00  0.00    -0.502 OA
ATOM     25  H   UNL     1      11.921  25.211  42.481  1.00  0.00     0.293 HD
ENDBRANCH   2  24
BRANCH   6  26
ATOM     26  O   UNL     1      16.437  24.961  38.263  1.00  0.00    -0.507 OA
ATOM     27  H   UNL     1      17.075  25.710  38.044  1.00  0.00     0.293 HD
ENDBRANCH   6  26
BRANCH   8  28
ATOM     28  O   UNL     1      18.917  21.235  40.001  1.00  0.00    -0.508 OA
ATOM     29  H   UNL     1      19.855  21.464  40.308  1.00  0.00     0.293 HD
ENDBRANCH   8  28
TORSDOF 7
ENDMDL
MODEL 6
REMARK VINA RESULT:    -6.455      1.472      7.461
REMARK INTER + INTRA:          -8.243
REMARK INTER:                  -8.109
REMARK INTRA:                  -0.135
REMARK UNBOUND:                -0.279
REMARK SMILES O=c1c(O)c(-c2cc(O)c(O)c(O)c2)oc2cc(O)cc(O)c12
REMARK SMILES IDX 5 1 3 2 2 3 1 4 23 5 21 6 20 7 18 8 17 9 16 10 15 11 6 12
REMARK SMILES IDX 7 13 8 14 14 15 10 16 12 17 9 18 11 20 13 22 4 24 22 26
REMARK SMILES IDX 19 28
REMARK H PARENT 9 19 11 21 13 23 4 25 22 27 19 29
REMARK Flexibility Score: inf
ROOT
ATOM      1  C   UNL     1      17.090  22.250  41.003  1.00  0.00     0.180 A 
ATOM      2  C   UNL     1      17.184  20.876  40.715  1.00  0.00     0.208 A 
ATOM      3  C   UNL     1      18.364  20.383  40.136  1.00  0.00     0.238 A 
ATOM      4  O   UNL     1      18.414  19.168  39.813  1.00  0.00    -0.285 OA
ATOM      5  C   UNL     1      19.455  21.255  39.905  1.00  0.00     0.111 A 
ATOM      6  C   UNL     1      20.715  20.854  39.364  1.00  0.00     0.134 A 
ATOM      7  C   UNL     1      21.684  21.824  39.079  1.00  0.00     0.093 A 
ATOM      8  C   UNL     1      21.464  23.172  39.374  1.00  0.00     0.123 A 
ATOM      9  C   UNL     1      20.260  23.564  39.952  1.00  0.00     0.094 A 
ATOM     10  C   UNL     1      19.259  22.627  40.213  1.00  0.00     0.146 A 
ATOM     11  O   UNL     1      18.118  23.049  40.744  1.00  0.00    -0.452 OA
ENDROOT
BRANCH   1  12
ATOM     12  C   UNL     1      15.874  22.848  41.600  1.00  0.00     0.029 A 
ATOM     13  C   UNL     1      15.170  23.876  40.952  1.00  0.00     0.062 A 
ATOM     14  C   UNL     1      14.036  24.447  41.545  1.00  0.00     0.162 A 
ATOM     15  C   UNL     1      15.446  22.421  42.867  1.00  0.00     0.062 A 
ATOM     16  C   UNL     1      13.600  23.998  42.803  1.00  0.00     0.200 A 
ATOM     17  C   UNL     1      14.313  22.983  43.464  1.00  0.00     0.162 A 
BRANCH  14  18
ATOM     18  O   UNL     1      13.342  25.463  40.888  1.00  0.00    -0.504 OA
ATOM     19  H   UNL     1      13.207  25.452  39.885  1.00  0.00     0.293 HD
ENDBRANCH  14  18
BRANCH  16  20
ATOM     20  O   UNL     1      12.470  24.551  43.405  1.00  0.00    -0.502 OA
ATOM     21  H   UNL     1      11.544  24.161  43.275  1.00  0.00     0.293 HD
ENDBRANCH  16  20
BRANCH  17  22
ATOM     22  O   UNL     1      13.913  22.521  44.718  1.00  0.00    -0.504 OA
ATOM     23  H   UNL     1      12.946  22.551  45.019  1.00  0.00     0.293 HD
ENDBRANCH  17  22
ENDBRANCH   1  12
BRANCH   2  24
ATOM     24  O   UNL     1      16.124  20.019  41.022  1.00  0.00    -0.502 OA
ATOM     25  H   UNL     1      16.009  19.116  40.577  1.00  0.00     0.293 HD
ENDBRANCH   2  24
BRANCH   6  26
ATOM     26  O   UNL     1      21.073  19.525  39.115  1.00  0.00    -0.507 OA
ATOM     27  H   UNL     1      21.948  19.102  39.381  1.00  0.00     0.293 HD
ENDBRANCH   6  26
BRANCH   8  28
ATOM     28  O   UNL     1      22.441  24.128  39.103  1.00  0.00    -0.508 OA
ATOM     29  H   UNL     1      23.146  23.977  38.391  1.00  0.00     0.293 HD
ENDBRANCH   8  28
TORSDOF 7
ENDMDL
MODEL 7
REMARK VINA RESULT:    -6.298      1.657      7.038
REMARK INTER + INTRA:          -8.050
REMARK INTER:                  -8.483
REMARK INTRA:                   0.433
REMARK UNBOUND:                -0.279
REMARK SMILES O=c1c(O)c(-c2cc(O)c(O)c(O)c2)oc2cc(O)cc(O)c12
REMARK SMILES IDX 5 1 3 2 2 3 1 4 23 5 21 6 20 7 18 8 17 9 16 10 15 11 6 12
REMARK SMILES IDX 7 13 8 14 14 15 10 16 12 17 9 18 11 20 13 22 4 24 22 26
REMARK SMILES IDX 19 28
REMARK H PARENT 9 19 11 21 13 23 4 25 22 27 19 29
REMARK Flexibility Score: inf
ROOT
ATOM      1  C   UNL     1      16.650  23.312  40.523  1.00  0.00     0.180 A 
ATOM      2  C   UNL     1      17.115  24.160  39.502  1.00  0.00     0.208 A 
ATOM      3  C   UNL     1      18.264  23.793  38.784  1.00  0.00     0.238 A 
ATOM      4  O   UNL     1      18.717  24.592  37.924  1.00  0.00    -0.285 OA
ATOM      5  C   UNL     1      18.901  22.558  39.055  1.00  0.00     0.111 A 
ATOM      6  C   UNL     1      20.047  22.065  38.358  1.00  0.00     0.134 A 
ATOM      7  C   UNL     1      20.656  20.878  38.785  1.00  0.00     0.093 A 
ATOM      8  C   UNL     1      20.125  20.134  39.841  1.00  0.00     0.123 A 
ATOM      9  C   UNL     1      18.977  20.579  40.491  1.00  0.00     0.094 A 
ATOM     10  C   UNL     1      18.369  21.778  40.115  1.00  0.00     0.146 A 
ATOM     11  O   UNL     1      17.288  22.176  40.776  1.00  0.00    -0.452 OA
ENDROOT
BRANCH   1  12
ATOM     12  C   UNL     1      15.454  23.636  41.334  1.00  0.00     0.029 A 
ATOM     13  C   UNL     1      14.633  24.732  41.021  1.00  0.00     0.062 A 
ATOM     14  C   UNL     1      13.519  25.038  41.815  1.00  0.00     0.162 A 
ATOM     15  C   UNL     1      15.164  22.870  42.473  1.00  0.00     0.062 A 
ATOM     16  C   UNL     1      13.223  24.251  42.940  1.00  0.00     0.200 A 
ATOM     17  C   UNL     1      14.053  23.166  43.269  1.00  0.00     0.162 A 
BRANCH  14  18
ATOM     18  O   UNL     1      12.708  26.125  41.490  1.00  0.00    -0.504 OA
ATOM     19  H   UNL     1      13.022  26.854  40.861  1.00  0.00     0.293 HD
ENDBRANCH  14  18
BRANCH  16  20
ATOM     20  O   UNL     1      12.115  24.538  43.739  1.00  0.00    -0.502 OA
ATOM     21  H   UNL     1      11.965  24.091  44.634  1.00  0.00     0.293 HD
ENDBRANCH  16  20
BRANCH  17  22
ATOM     22  O   UNL     1      13.792  22.371  44.385  1.00  0.00    -0.504 OA
ATOM     23  H   UNL     1      13.446  21.423  44.301  1.00  0.00     0.293 HD
ENDBRANCH  17  22
ENDBRANCH   1  12
BRANCH   2  24
ATOM     24  O   UNL     1      16.426  25.338  39.199  1.00  0.00    -0.502 OA
ATOM     25  H   UNL     1      15.451  25.474  39.439  1.00  0.00     0.293 HD
ENDBRANCH   2  24
BRANCH   6  26
ATOM     26  O   UNL     1      20.605  22.682  37.234  1.00  0.00    -0.507 OA
ATOM     27  H   UNL     1      20.161  22.750  36.332  1.00  0.00     0.293 HD
ENDBRANCH   6  26
BRANCH   8  28
ATOM     28  O   UNL     1      20.729  18.946  40.247  1.00  0.00    -0.508 OA
ATOM     29  H   UNL     1      20.404  18.046  39.915  1.00  0.00     0.293 HD
ENDBRANCH   8  28
TORSDOF 7
ENDMDL
MODEL 8
REMARK VINA RESULT:    -6.267      1.473      7.420
REMARK INTER + INTRA:          -8.012
REMARK INTER:                  -7.896
REMARK INTRA:                  -0.116
REMARK UNBOUND:                -0.279
REMARK SMILES O=c1c(O)c(-c2cc(O)c(O)c(O)c2)oc2cc(O)cc(O)c12
REMARK SMILES IDX 5 1 3 2 2 3 1 4 23 5 21 6 20 7 18 8 17 9 16 10 15 11 6 12
REMARK SMILES IDX 7 13 8 14 14 15 10 16 12 17 9 18 11 20 13 22 4 24 22 26
REMARK SMILES IDX 19 28
REMARK H PARENT 9 19 11 21 13 23 4 25 22 27 19 29
REMARK Flexibility Score: inf
ROOT
ATOM      1  C   UNL     1      17.148  22.240  41.033  1.00  0.00     0.180 A 
ATOM      2  C   UNL     1      17.227  20.868  40.734  1.00  0.00     0.208 A 
ATOM      3  C   UNL     1      18.395  20.370  40.134  1.00  0.00     0.238 A 
ATOM      4  O   UNL     1      18.430  19.157  39.801  1.00  0.00    -0.285 OA
ATOM      5  C   UNL     1      19.489  21.235  39.894  1.00  0.00     0.111 A 
ATOM      6  C   UNL     1      20.738  20.828  39.332  1.00  0.00     0.134 A 
ATOM      7  C   UNL     1      21.711  21.793  39.041  1.00  0.00     0.093 A 
ATOM      8  C   UNL     1      21.505  23.140  39.350  1.00  0.00     0.123 A 
ATOM      9  C   UNL     1      20.313  23.538  39.947  1.00  0.00     0.094 A 
ATOM     10  C   UNL     1      19.308  22.606  40.215  1.00  0.00     0.146 A 
ATOM     11  O   UNL     1      18.178  23.032  40.766  1.00  0.00    -0.452 OA
ENDROOT
BRANCH   1  12
ATOM     12  C   UNL     1      15.945  22.842  41.653  1.00  0.00     0.029 A 
ATOM     13  C   UNL     1      15.450  22.385  42.885  1.00  0.00     0.062 A 
ATOM     14  C   UNL     1      14.295  22.952  43.443  1.00  0.00     0.162 A 
ATOM     15  C   UNL     1      15.250  23.852  40.970  1.00  0.00     0.062 A 
ATOM     16  C   UNL     1      13.619  23.979  42.764  1.00  0.00     0.200 A 
ATOM     17  C   UNL     1      14.099  24.425  41.521  1.00  0.00     0.162 A 
BRANCH  14  18
ATOM     18  O   UNL     1      13.817  22.494  44.671  1.00  0.00    -0.504 OA
ATOM     19  H   UNL     1      12.919  22.034  44.754  1.00  0.00     0.293 HD
ENDBRANCH  14  18
BRANCH  16  20
ATOM     20  O   UNL     1      12.472  24.558  43.308  1.00  0.00    -0.502 OA
ATOM     21  H   UNL     1      12.064  25.404  42.931  1.00  0.00     0.293 HD
ENDBRANCH  16  20
BRANCH  17  22
ATOM     22  O   UNL     1      13.446  25.436  40.816  1.00  0.00    -0.504 OA
ATOM     23  H   UNL     1      12.549  25.287  40.369  1.00  0.00     0.293 HD
ENDBRANCH  17  22
ENDBRANCH   1  12
BRANCH   2  24
ATOM     24  O   UNL     1      16.165  20.017  41.049  1.00  0.00    -0.502 OA
ATOM     25  H   UNL     1      15.523  20.208  41.810  1.00  0.00     0.293 HD
ENDBRANCH   2  24
BRANCH   6  26
ATOM     26  O   UNL     1      21.082  19.499  39.068  1.00  0.00    -0.507 OA
ATOM     27  H   UNL     1      20.682  18.933  38.336  1.00  0.00     0.293 HD
ENDBRANCH   6  26
BRANCH   8  28
ATOM     28  O   UNL     1      22.486  24.090  39.072  1.00  0.00    -0.508 OA
ATOM     29  H   UNL     1      23.472  23.871  39.144  1.00  0.00     0.293 HD
ENDBRANCH   8  28
TORSDOF 7
ENDMDL
MODEL 9
REMARK VINA RESULT:    -5.926      1.645      6.962
REMARK INTER + INTRA:          -7.591
REMARK INTER:                  -8.093
REMARK INTRA:                   0.501
REMARK UNBOUND:                -0.279
REMARK SMILES O=c1c(O)c(-c2cc(O)c(O)c(O)c2)oc2cc(O)cc(O)c12
REMARK SMILES IDX 5 1 3 2 2 3 1 4 23 5 21 6 20 7 18 8 17 9 16 10 15 11 6 12
REMARK SMILES IDX 7 13 8 14 14 15 10 16 12 17 9 18 11 20 13 22 4 24 22 26
REMARK SMILES IDX 19 28
REMARK H PARENT 9 19 11 21 13 23 4 25 22 27 19 29
REMARK Flexibility Score: inf
ROOT
ATOM      1  C   UNL     1      16.675  23.309  40.574  1.00  0.00     0.180 A 
ATOM      2  C   UNL     1      17.120  24.155  39.543  1.00  0.00     0.208 A 
ATOM      3  C   UNL     1      18.255  23.787  38.803  1.00  0.00     0.238 A 
ATOM      4  O   UNL     1      18.691  24.585  37.933  1.00  0.00    -0.285 OA
ATOM      5  C   UNL     1      18.898  22.553  39.064  1.00  0.00     0.111 A 
ATOM      6  C   UNL     1      20.029  22.058  38.346  1.00  0.00     0.134 A 
ATOM      7  C   UNL     1      20.647  20.873  38.763  1.00  0.00     0.093 A 
ATOM      8  C   UNL     1      20.136  20.130  39.830  1.00  0.00     0.123 A 
ATOM      9  C   UNL     1      19.002  20.576  40.502  1.00  0.00     0.094 A 
ATOM     10  C   UNL     1      18.386  21.775  40.135  1.00  0.00     0.146 A 
ATOM     11  O   UNL     1      17.318  22.173  40.817  1.00  0.00    -0.452 OA
ENDROOT
BRANCH   1  12
ATOM     12  C   UNL     1      15.495  23.635  41.408  1.00  0.00     0.029 A 
ATOM     13  C   UNL     1      15.144  22.849  42.517  1.00  0.00     0.062 A 
ATOM     14  C   UNL     1      14.009  23.159  43.279  1.00  0.00     0.162 A 
ATOM     15  C   UNL     1      14.675  24.716  41.049  1.00  0.00     0.062 A 
ATOM     16  C   UNL     1      13.206  24.257  42.928  1.00  0.00     0.200 A 
ATOM     17  C   UNL     1      13.542  25.034  41.805  1.00  0.00     0.162 A 
BRANCH  14  18
ATOM     18  O   UNL     1      13.675  22.375  44.383  1.00  0.00    -0.504 OA
ATOM     19  H   UNL     1      12.913  22.625  45.002  1.00  0.00     0.293 HD
ENDBRANCH  14  18
BRANCH  16  20
ATOM     20  O   UNL     1      12.076  24.583  43.678  1.00  0.00    -0.502 OA
ATOM     21  H   UNL     1      12.140  24.927  44.628  1.00  0.00     0.293 HD
ENDBRANCH  16  20
BRANCH  17  22
ATOM     22  O   UNL     1      12.762  26.125  41.424  1.00  0.00    -0.504 OA
ATOM     23  H   UNL     1      13.121  26.864  40.832  1.00  0.00     0.293 HD
ENDBRANCH  17  22
ENDBRANCH   1  12
BRANCH   2  24
ATOM     24  O   UNL     1      16.426  25.333  39.251  1.00  0.00    -0.502 OA
ATOM     25  H   UNL     1      15.873  25.443  38.409  1.00  0.00     0.293 HD
ENDBRANCH   2  24
BRANCH   6  26
ATOM     26  O   UNL     1      20.565  22.673  37.210  1.00  0.00    -0.507 OA
ATOM     27  H   UNL     1      21.206  23.452  37.222  1.00  0.00     0.293 HD
ENDBRANCH   6  26
BRANCH   8  28
ATOM     28  O   UNL     1      20.748  18.943  40.227  1.00  0.00    -0.508 OA
ATOM     29  H   UNL     1      21.583  18.598  39.769  1.00  0.00     0.293 HD
ENDBRANCH   8  28
TORSDOF 7
ENDMDL
