MODEL 1
REMARK VINA RESULT:    -2.804      0.000      0.000
REMARK INTER + INTRA:          -3.649
REMARK INTER:                  -3.460
REMARK INTRA:                  -0.189
REMARK UNBOUND:                -0.189
REMARK SMILES CCCCCC(=O)[O-]
REMARK SMILES IDX 4 1 5 2 6 3 7 4 8 5 3 6 2 7 1 8
REMARK H PARENT
REMARK Flexibility Score: inf
ROOT
ATOM      1  C   UNL     1     -17.824  40.764  94.034  1.00  0.00     0.006 C 
ENDROOT
BRANCH   1   2
ATOM      2  C   UNL     1     -19.180  41.381  93.654  1.00  0.00     0.053 C 
BRANCH   2   3
ATOM      3  C   UNL     1     -20.244  40.341  93.488  1.00  0.00     0.041 C 
ATOM      4  O   UNL     1     -20.523  39.563  94.439  1.00  0.00    -0.550 OA
ATOM      5  O   UNL     1     -20.950  40.252  92.295  1.00  0.00    -0.550 OA
ENDBRANCH   2   3
ENDBRANCH   1   2
BRANCH   1   6
ATOM      6  C   UNL     1     -17.265  41.248  95.385  1.00  0.00     0.000 C 
BRANCH   6   7
ATOM      7  C   UNL     1     -18.040  40.685  96.584  1.00  0.00    -0.003 C 
ATOM      8  C   UNL     1     -18.784  41.793  97.326  1.00  0.00     0.004 C 
ENDBRANCH   6   7
ENDBRANCH   1   6
TORSDOF 4
ENDMDL
MODEL 2
REMARK VINA RESULT:    -2.784     19.647     20.589
REMARK INTER + INTRA:          -3.624
REMARK INTER:                  -3.451
REMARK INTRA:                  -0.172
REMARK UNBOUND:                -0.189
REMARK SMILES CCCCCC(=O)[O-]
REMARK SMILES IDX 4 1 5 2 6 3 7 4 8 5 3 6 2 7 1 8
REMARK H PARENT
REMARK Flexibility Score: inf
ROOT
ATOM      1  C   UNL     1      -7.240  29.919 105.381  1.00  0.00     0.006 C 
ENDROOT
BRANCH   1   2
ATOM      2  C   UNL     1      -6.849  30.271 106.826  1.00  0.00     0.053 C 
BRANCH   2   3
ATOM      3  C   UNL     1      -5.811  29.340 107.370  1.00  0.00     0.041 C 
ATOM      4  O   UNL     1      -6.145  28.394 108.132  1.00  0.00    -0.550 OA
ATOM      5  O   UNL     1      -4.478  29.495 107.009  1.00  0.00    -0.550 OA
ENDBRANCH   2   3
ENDBRANCH   1   2
BRANCH   1   6
ATOM      6  C   UNL     1      -6.826  30.975 104.339  1.00  0.00     0.000 C 
BRANCH   6   7
ATOM      7  C   UNL     1      -5.384  30.788 103.845  1.00  0.00    -0.003 C 
ATOM      8  C   UNL     1      -4.665  32.130 103.731  1.00  0.00     0.004 C 
ENDBRANCH   6   7
ENDBRANCH   1   6
TORSDOF 4
ENDMDL
MODEL 3
REMARK VINA RESULT:    -2.760      2.391      4.134
REMARK INTER + INTRA:          -3.595
REMARK INTER:                  -3.376
REMARK INTRA:                  -0.219
REMARK UNBOUND:                -0.189
REMARK SMILES CCCCCC(=O)[O-]
REMARK SMILES IDX 4 1 5 2 6 3 7 4 8 5 3 6 2 7 1 8
REMARK H PARENT
REMARK Flexibility Score: inf
ROOT
ATOM      1  C   UNL     1     -19.516  41.461  93.389  1.00  0.00     0.006 C 
ENDROOT
BRANCH   1   2
ATOM      2  C   UNL     1     -18.840  41.025  94.700  1.00  0.00     0.053 C 
BRANCH   2   3
ATOM      3  C   UNL     1     -17.373  40.785  94.522  1.00  0.00     0.041 C 
ATOM      4  O   UNL     1     -16.544  41.325  95.302  1.00  0.00    -0.550 OA
ATOM      5  O   UNL     1     -16.922  39.939  93.516  1.00  0.00    -0.550 OA
ENDBRANCH   2   3
ENDBRANCH   1   2
BRANCH   1   6
ATOM      6  C   UNL     1     -20.740  40.613  92.996  1.00  0.00     0.000 C 
BRANCH   6   7
ATOM      7  C   UNL     1     -20.372  39.161  92.658  1.00  0.00    -0.003 C 
ATOM      8  C   UNL     1     -19.538  39.089  91.381  1.00  0.00     0.004 C 
ENDBRANCH   6   7
ENDBRANCH   1   6
TORSDOF 4
ENDMDL
MODEL 4
REMARK VINA RESULT:    -2.723     19.778     20.756
REMARK INTER + INTRA:          -3.549
REMARK INTER:                  -3.289
REMARK INTRA:                  -0.260
REMARK UNBOUND:                -0.189
REMARK SMILES CCCCCC(=O)[O-]
REMARK SMILES IDX 4 1 5 2 6 3 7 4 8 5 3 6 2 7 1 8
REMARK H PARENT
REMARK Flexibility Score: inf
ROOT
ATOM      1  C   UNL     1      -5.735  29.711 107.939  1.00  0.00     0.006 C 
ENDROOT
BRANCH   1   2
ATOM      2  C   UNL     1      -6.752  28.613 107.587  1.00  0.00     0.053 C 
BRANCH   2   3
ATOM      3  C   UNL     1      -7.759  29.081 106.583  1.00  0.00     0.041 C 
ATOM      4  O   UNL     1      -8.266  28.265 105.767  1.00  0.00    -0.550 OA
ATOM      5  O   UNL     1      -8.163  30.410 106.569  1.00  0.00    -0.550 OA
ENDBRANCH   2   3
ENDBRANCH   1   2
BRANCH   1   6
ATOM      6  C   UNL     1      -4.567  29.834 106.942  1.00  0.00     0.000 C 
BRANCH   6   7
ATOM      7  C   UNL     1      -4.599  31.149 106.150  1.00  0.00    -0.003 C 
ATOM      8  C   UNL     1      -5.082  30.916 104.720  1.00  0.00     0.004 C 
ENDBRANCH   6   7
ENDBRANCH   1   6
TORSDOF 4
ENDMDL
MODEL 5
REMARK VINA RESULT:    -2.715      2.014      2.867
REMARK INTER + INTRA:          -3.539
REMARK INTER:                  -3.312
REMARK INTRA:                  -0.227
REMARK UNBOUND:                -0.189
REMARK SMILES CCCCCC(=O)[O-]
REMARK SMILES IDX 4 1 5 2 6 3 7 4 8 5 3 6 2 7 1 8
REMARK H PARENT
REMARK Flexibility Score: inf
ROOT
ATOM      1  C   UNL     1     -20.146  40.695  93.220  1.00  0.00     0.006 C 
ENDROOT
BRANCH   1   2
ATOM      2  C   UNL     1     -19.789  39.222  92.960  1.00  0.00     0.053 C 
BRANCH   2   3
ATOM      3  C   UNL     1     -18.701  39.079  91.942  1.00  0.00     0.041 C 
ATOM      4  O   UNL     1     -18.953  39.237  90.718  1.00  0.00    -0.550 OA
ATOM      5  O   UNL     1     -17.400  38.804  92.348  1.00  0.00    -0.550 OA
ENDBRANCH   2   3
ENDBRANCH   1   2
BRANCH   1   6
ATOM      6  C   UNL     1     -18.961  41.561  93.683  1.00  0.00     0.000 C 
BRANCH   6   7
ATOM      7  C   UNL     1     -18.503  41.226  95.110  1.00  0.00    -0.003 C 
ATOM      8  C   UNL     1     -16.980  41.180  95.201  1.00  0.00     0.004 C 
ENDBRANCH   6   7
ENDBRANCH   1   6
TORSDOF 4
ENDMDL
MODEL 6
REMARK VINA RESULT:    -2.711      2.443      3.934
REMARK INTER + INTRA:          -3.534
REMARK INTER:                  -3.404
REMARK INTRA:                  -0.130
REMARK UNBOUND:                -0.189
REMARK SMILES CCCCCC(=O)[O-]
REMARK SMILES IDX 4 1 5 2 6 3 7 4 8 5 3 6 2 7 1 8
REMARK H PARENT
REMARK Flexibility Score: inf
ROOT
ATOM      1  C   UNL     1     -18.096  40.654  93.818  1.00  0.00     0.006 C 
ENDROOT
BRANCH   1   2
ATOM      2  C   UNL     1     -17.265  41.252  94.966  1.00  0.00     0.053 C 
BRANCH   2   3
ATOM      3  C   UNL     1     -17.859  40.948  96.307  1.00  0.00     0.041 C 
ATOM      4  O   UNL     1     -17.672  39.824  96.843  1.00  0.00    -0.550 OA
ATOM      5  O   UNL     1     -18.591  41.919  96.979  1.00  0.00    -0.550 OA
ENDBRANCH   2   3
ENDBRANCH   1   2
BRANCH   1   6
ATOM      6  C   UNL     1     -19.373  41.447  93.484  1.00  0.00     0.000 C 
BRANCH   6   7
ATOM      7  C   UNL     1     -20.540  40.542  93.063  1.00  0.00    -0.003 C 
ATOM      8  C   UNL     1     -20.043  39.344  92.258  1.00  0.00     0.004 C 
ENDBRANCH   6   7
ENDBRANCH   1   6
TORSDOF 4
ENDMDL
MODEL 7
REMARK VINA RESULT:    -2.709     16.767     17.509
REMARK INTER + INTRA:          -3.531
REMARK INTER:                  -3.472
REMARK INTRA:                  -0.060
REMARK UNBOUND:                -0.189
REMARK SMILES CCCCCC(=O)[O-]
REMARK SMILES IDX 4 1 5 2 6 3 7 4 8 5 3 6 2 7 1 8
REMARK H PARENT
REMARK Flexibility Score: inf
ROOT
ATOM      1  C   UNL     1      -2.845  43.774  95.717  1.00  0.00     0.006 C 
ENDROOT
BRANCH   1   2
ATOM      2  C   UNL     1      -3.091  44.892  96.745  1.00  0.00     0.053 C 
BRANCH   2   3
ATOM      3  C   UNL     1      -2.082  45.993  96.629  1.00  0.00     0.041 C 
ATOM      4  O   UNL     1      -1.987  46.862  97.535  1.00  0.00    -0.550 OA
ATOM      5  O   UNL     1      -1.224  46.039  95.537  1.00  0.00    -0.550 OA
ENDBRANCH   2   3
ENDBRANCH   1   2
BRANCH   1   6
ATOM      6  C   UNL     1      -3.424  42.406  96.122  1.00  0.00     0.000 C 
BRANCH   6   7
ATOM      7  C   UNL     1      -2.445  41.571  96.959  1.00  0.00    -0.003 C 
ATOM      8  C   UNL     1      -1.950  40.357  96.176  1.00  0.00     0.004 C 
ENDBRANCH   6   7
ENDBRANCH   1   6
TORSDOF 4
ENDMDL
MODEL 8
REMARK VINA RESULT:    -2.701      1.400      2.203
REMARK INTER + INTRA:          -3.521
REMARK INTER:                  -3.367
REMARK INTRA:                  -0.154
REMARK UNBOUND:                -0.189
REMARK SMILES CCCCCC(=O)[O-]
REMARK SMILES IDX 4 1 5 2 6 3 7 4 8 5 3 6 2 7 1 8
REMARK H PARENT
REMARK Flexibility Score: inf
ROOT
ATOM      1  C   UNL     1     -18.873  41.133  95.310  1.00  0.00     0.006 C 
ENDROOT
BRANCH   1   2
ATOM      2  C   UNL     1     -18.905  41.458  93.807  1.00  0.00     0.053 C 
BRANCH   2   3
ATOM      3  C   UNL     1     -19.583  40.384  93.014  1.00  0.00     0.041 C 
ATOM      4  O   UNL     1     -20.802  40.491  92.716  1.00  0.00    -0.550 OA
ATOM      5  O   UNL     1     -18.861  39.281  92.576  1.00  0.00    -0.550 OA
ENDBRANCH   2   3
ENDBRANCH   1   2
BRANCH   1   6
ATOM      6  C   UNL     1     -17.464  41.150  95.931  1.00  0.00     0.000 C 
BRANCH   6   7
ATOM      7  C   UNL     1     -16.350  41.121  94.875  1.00  0.00    -0.003 C 
ATOM      8  C   UNL     1     -15.299  40.067  95.215  1.00  0.00     0.004 C 
ENDBRANCH   6   7
ENDBRANCH   1   6
TORSDOF 4
ENDMDL
MODEL 9
REMARK VINA RESULT:    -2.653     16.675     17.252
REMARK INTER + INTRA:          -3.462
REMARK INTER:                  -3.407
REMARK INTRA:                  -0.055
REMARK UNBOUND:                -0.189
REMARK SMILES CCCCCC(=O)[O-]
REMARK SMILES IDX 4 1 5 2 6 3 7 4 8 5 3 6 2 7 1 8
REMARK H PARENT
REMARK Flexibility Score: inf
ROOT
ATOM      1  C   UNL     1      -2.835  42.070  95.995  1.00  0.00     0.006 C 
ENDROOT
BRANCH   1   2
ATOM      2  C   UNL     1      -2.291  41.160  97.109  1.00  0.00     0.053 C 
BRANCH   2   3
ATOM      3  C   UNL     1      -1.909  39.808  96.594  1.00  0.00     0.041 C 
ATOM      4  O   UNL     1      -1.233  39.700  95.536  1.00  0.00    -0.550 OA
ATOM      5  O   UNL     1      -2.271  38.667  97.299  1.00  0.00    -0.550 OA
ENDBRANCH   2   3
ENDBRANCH   1   2
BRANCH   1   6
ATOM      6  C   UNL     1      -3.064  43.531  96.426  1.00  0.00     0.000 C 
BRANCH   6   7
ATOM      7  C   UNL     1      -2.807  44.531  95.290  1.00  0.00    -0.003 C 
ATOM      8  C   UNL     1      -1.945  45.696  95.770  1.00  0.00     0.004 C 
ENDBRANCH   6   7
ENDBRANCH   1   6
TORSDOF 4
ENDMDL
