MODEL 1
REMARK VINA RESULT:    -5.331      0.000      0.000
REMARK INTER + INTRA:          -7.621
REMARK INTER:                  -7.201
REMARK INTRA:                  -0.420
REMARK UNBOUND:                -0.420
REMARK SMILES CC(=O)CCC=C(C)CCC=C(C)C
REMARK SMILES IDX 7 1 6 2 8 3 9 4 10 5 11 6 13 7 12 8 14 9 5 10 4 11 2 12 3 13
REMARK SMILES IDX 1 14
REMARK H PARENT
REMARK Flexibility Score: inf
ROOT
ATOM      1  C   UNL     1      86.596  35.674  24.083  1.00  0.00    -0.077 C 
ATOM      2  C   UNL     1      86.712  36.781  24.852  1.00  0.00    -0.028 C 
ATOM      3  C   UNL     1      87.789  35.053  23.393  1.00  0.00     0.039 C 
ENDROOT
BRANCH   1   4
ATOM      4  C   UNL     1      85.238  35.029  23.924  1.00  0.00     0.034 C 
BRANCH   4   5
ATOM      5  C   UNL     1      84.299  35.928  23.111  1.00  0.00     0.032 C 
BRANCH   5   6
ATOM      6  C   UNL     1      83.804  35.212  21.880  1.00  0.00    -0.028 C 
ATOM      7  C   UNL     1      83.151  37.331  20.714  1.00  0.00     0.039 C 
ATOM      8  C   UNL     1      83.262  35.827  20.805  1.00  0.00    -0.080 C 
ATOM      9  C   UNL     1      82.773  34.975  19.662  1.00  0.00     0.039 C 
ENDBRANCH   5   6
ENDBRANCH   4   5
ENDBRANCH   1   4
BRANCH   2  10
ATOM     10  C   UNL     1      87.996  37.543  25.066  1.00  0.00     0.035 C 
BRANCH  10  11
ATOM     11  C   UNL     1      88.113  38.012  26.520  1.00  0.00     0.079 C 
BRANCH  11  12
ATOM     12  C   UNL     1      89.347  38.854  26.709  1.00  0.00     0.130 C 
ATOM     13  O   UNL     1      90.320  38.377  27.274  1.00  0.00    -0.300 OA
ATOM     14  C   UNL     1      89.415  40.266  26.207  1.00  0.00     0.087 C 
ENDBRANCH  11  12
ENDBRANCH  10  11
ENDBRANCH   2  10
TORSDOF 6
ENDMDL
MODEL 2
REMARK VINA RESULT:    -5.314      5.213      7.476
REMARK INTER + INTRA:          -7.598
REMARK INTER:                  -7.115
REMARK INTRA:                  -0.483
REMARK UNBOUND:                -0.420
REMARK SMILES CC(=O)CCC=C(C)CCC=C(C)C
REMARK SMILES IDX 7 1 6 2 8 3 9 4 10 5 11 6 13 7 12 8 14 9 5 10 4 11 2 12 3 13
REMARK SMILES IDX 1 14
REMARK H PARENT
REMARK Flexibility Score: inf
ROOT
ATOM      1  C   UNL     1      85.676  37.042  29.057  1.00  0.00    -0.077 C 
ATOM      2  C   UNL     1      86.712  37.065  28.187  1.00  0.00    -0.028 C 
ATOM      3  C   UNL     1      85.328  38.236  29.916  1.00  0.00     0.039 C 
ENDROOT
BRANCH   1   4
ATOM      4  C   UNL     1      84.830  35.792  29.159  1.00  0.00     0.034 C 
BRANCH   4   5
ATOM      5  C   UNL     1      84.793  35.277  30.602  1.00  0.00     0.032 C 
BRANCH   5   6
ATOM      6  C   UNL     1      86.041  34.494  30.923  1.00  0.00    -0.028 C 
ATOM      7  C   UNL     1      85.428  34.198  33.334  1.00  0.00     0.039 C 
ATOM      8  C   UNL     1      86.353  34.025  32.153  1.00  0.00    -0.080 C 
ATOM      9  C   UNL     1      87.658  33.293  32.332  1.00  0.00     0.039 C 
ENDBRANCH   5   6
ENDBRANCH   4   5
ENDBRANCH   1   4
BRANCH   2  10
ATOM     10  C   UNL     1      87.654  38.230  28.011  1.00  0.00     0.035 C 
BRANCH  10  11
ATOM     11  C   UNL     1      88.442  38.099  26.704  1.00  0.00     0.079 C 
BRANCH  11  12
ATOM     12  C   UNL     1      89.642  39.009  26.712  1.00  0.00     0.130 C 
ATOM     13  O   UNL     1      90.710  38.592  27.132  1.00  0.00    -0.300 OA
ATOM     14  C   UNL     1      89.557  40.418  26.203  1.00  0.00     0.087 C 
ENDBRANCH  11  12
ENDBRANCH  10  11
ENDBRANCH   2  10
TORSDOF 6
ENDMDL
MODEL 3
REMARK VINA RESULT:    -5.284      3.623      5.715
REMARK INTER + INTRA:          -7.558
REMARK INTER:                  -6.681
REMARK INTRA:                  -0.877
REMARK UNBOUND:                -0.420
REMARK SMILES CC(=O)CCC=C(C)CCC=C(C)C
REMARK SMILES IDX 7 1 6 2 8 3 9 4 10 5 11 6 13 7 12 8 14 9 5 10 4 11 2 12 3 13
REMARK SMILES IDX 1 14
REMARK H PARENT
REMARK Flexibility Score: inf
ROOT
ATOM      1  C   UNL     1      86.191  36.497  27.312  1.00  0.00    -0.077 C 
ATOM      2  C   UNL     1      87.158  37.283  27.839  1.00  0.00    -0.028 C 
ATOM      3  C   UNL     1      85.717  36.662  25.886  1.00  0.00     0.039 C 
ENDROOT
BRANCH   1   4
ATOM      4  C   UNL     1      85.581  35.409  28.167  1.00  0.00     0.034 C 
BRANCH   4   5
ATOM      5  C   UNL     1      85.068  35.982  29.492  1.00  0.00     0.032 C 
BRANCH   5   6
ATOM      6  C   UNL     1      83.886  36.890  29.261  1.00  0.00    -0.028 C 
ATOM      7  C   UNL     1      84.922  38.817  30.480  1.00  0.00     0.039 C 
ATOM      8  C   UNL     1      83.795  38.158  29.721  1.00  0.00    -0.080 C 
ATOM      9  C   UNL     1      82.532  38.933  29.444  1.00  0.00     0.039 C 
ENDBRANCH   5   6
ENDBRANCH   4   5
ENDBRANCH   1   4
BRANCH   2  10
ATOM     10  C   UNL     1      87.824  38.424  27.110  1.00  0.00     0.035 C 
BRANCH  10  11
ATOM     11  C   UNL     1      89.295  38.101  26.825  1.00  0.00     0.079 C 
BRANCH  11  12
ATOM     12  C   UNL     1      90.113  39.363  26.761  1.00  0.00     0.130 C 
ATOM     13  O   UNL     1      91.228  39.382  27.261  1.00  0.00    -0.300 OA
ATOM     14  C   UNL     1      89.595  40.598  26.086  1.00  0.00     0.087 C 
ENDBRANCH  11  12
ENDBRANCH  10  11
ENDBRANCH   2  10
TORSDOF 6
ENDMDL
MODEL 4
REMARK VINA RESULT:    -5.247      3.251      4.789
REMARK INTER + INTRA:          -7.508
REMARK INTER:                  -6.583
REMARK INTRA:                  -0.925
REMARK UNBOUND:                -0.420
REMARK SMILES CC(=O)CCC=C(C)CCC=C(C)C
REMARK SMILES IDX 7 1 6 2 8 3 9 4 10 5 11 6 13 7 12 8 14 9 5 10 4 11 2 12 3 13
REMARK SMILES IDX 1 14
REMARK H PARENT
REMARK Flexibility Score: inf
ROOT
ATOM      1  C   UNL     1      85.421  37.519  29.438  1.00  0.00    -0.077 C 
ATOM      2  C   UNL     1      86.509  37.249  28.679  1.00  0.00    -0.028 C 
ATOM      3  C   UNL     1      85.212  38.871  30.080  1.00  0.00     0.039 C 
ENDROOT
BRANCH   1   4
ATOM      4  C   UNL     1      84.376  36.444  29.633  1.00  0.00     0.034 C 
BRANCH   4   5
ATOM      5  C   UNL     1      84.072  35.733  28.309  1.00  0.00     0.032 C 
BRANCH   5   6
ATOM      6  C   UNL     1      83.198  36.591  27.430  1.00  0.00    -0.028 C 
ATOM      7  C   UNL     1      84.834  36.594  25.533  1.00  0.00     0.039 C 
ATOM      8  C   UNL     1      83.538  37.008  26.189  1.00  0.00    -0.080 C 
ATOM      9  C   UNL     1      82.577  37.897  25.442  1.00  0.00     0.039 C 
ENDBRANCH   5   6
ENDBRANCH   4   5
ENDBRANCH   1   4
BRANCH   2  10
ATOM     10  C   UNL     1      87.640  38.215  28.432  1.00  0.00     0.035 C 
BRANCH  10  11
ATOM     11  C   UNL     1      88.124  38.126  26.981  1.00  0.00     0.079 C 
BRANCH  11  12
ATOM     12  C   UNL     1      89.427  38.861  26.808  1.00  0.00     0.130 C 
ATOM     13  O   UNL     1      90.472  38.312  27.121  1.00  0.00    -0.300 OA
ATOM     14  C   UNL     1      89.472  40.252  26.248  1.00  0.00     0.087 C 
ENDBRANCH  11  12
ENDBRANCH  10  11
ENDBRANCH   2  10
TORSDOF 6
ENDMDL
MODEL 5
REMARK VINA RESULT:    -5.244      3.451      6.930
REMARK INTER + INTRA:          -7.504
REMARK INTER:                  -6.874
REMARK INTRA:                  -0.629
REMARK UNBOUND:                -0.420
REMARK SMILES CC(=O)CCC=C(C)CCC=C(C)C
REMARK SMILES IDX 7 1 6 2 8 3 9 4 10 5 11 6 13 7 12 8 14 9 5 10 4 11 2 12 3 13
REMARK SMILES IDX 1 14
REMARK H PARENT
REMARK Flexibility Score: inf
ROOT
ATOM      1  C   UNL     1      87.001  36.047  24.417  1.00  0.00    -0.077 C 
ATOM      2  C   UNL     1      87.459  35.116  23.548  1.00  0.00    -0.028 C 
ATOM      3  C   UNL     1      85.772  35.811  25.265  1.00  0.00     0.039 C 
ENDROOT
BRANCH   1   4
ATOM      4  C   UNL     1      87.752  37.352  24.559  1.00  0.00     0.034 C 
BRANCH   4   5
ATOM      5  C   UNL     1      87.628  37.900  25.985  1.00  0.00     0.032 C 
BRANCH   5   6
ATOM      6  C   UNL     1      88.987  38.062  26.616  1.00  0.00    -0.028 C 
ATOM      7  C   UNL     1      89.144  40.494  26.035  1.00  0.00     0.039 C 
ATOM      8  C   UNL     1      89.693  39.216  26.624  1.00  0.00    -0.080 C 
ATOM      9  C   UNL     1      91.059  39.218  27.259  1.00  0.00     0.039 C 
ENDBRANCH   5   6
ENDBRANCH   4   5
ENDBRANCH   1   4
BRANCH   2  10
ATOM     10  C   UNL     1      86.789  33.791  23.284  1.00  0.00     0.035 C 
BRANCH  10  11
ATOM     11  C   UNL     1      87.364  32.701  24.195  1.00  0.00     0.079 C 
BRANCH  11  12
ATOM     12  C   UNL     1      86.289  32.128  25.081  1.00  0.00     0.130 C 
ATOM     13  O   UNL     1      86.564  31.807  26.228  1.00  0.00    -0.300 OA
ATOM     14  C   UNL     1      84.882  31.954  24.591  1.00  0.00     0.087 C 
ENDBRANCH  11  12
ENDBRANCH  10  11
ENDBRANCH   2  10
TORSDOF 6
ENDMDL
MODEL 6
REMARK VINA RESULT:    -5.226      2.771      6.683
REMARK INTER + INTRA:          -7.480
REMARK INTER:                  -6.820
REMARK INTRA:                  -0.660
REMARK UNBOUND:                -0.420
REMARK SMILES CC(=O)CCC=C(C)CCC=C(C)C
REMARK SMILES IDX 7 1 6 2 8 3 9 4 10 5 11 6 13 7 12 8 14 9 5 10 4 11 2 12 3 13
REMARK SMILES IDX 1 14
REMARK H PARENT
REMARK Flexibility Score: inf
ROOT
ATOM      1  C   UNL     1      86.602  36.665  25.474  1.00  0.00    -0.077 C 
ATOM      2  C   UNL     1      85.384  36.263  25.042  1.00  0.00    -0.028 C 
ATOM      3  C   UNL     1      87.697  37.066  24.512  1.00  0.00     0.039 C 
ENDROOT
BRANCH   1   4
ATOM      4  C   UNL     1      86.869  36.734  26.961  1.00  0.00     0.034 C 
BRANCH   4   5
ATOM      5  C   UNL     1      87.322  38.140  27.368  1.00  0.00     0.032 C 
BRANCH   5   6
ATOM      6  C   UNL     1      88.826  38.214  27.456  1.00  0.00    -0.028 C 
ATOM      7  C   UNL     1      88.970  40.260  26.018  1.00  0.00     0.039 C 
ATOM      8  C   UNL     1      89.582  39.145  26.834  1.00  0.00    -0.080 C 
ATOM      9  C   UNL     1      91.080  39.069  26.982  1.00  0.00     0.039 C 
ENDBRANCH   5   6
ENDBRANCH   4   5
ENDBRANCH   1   4
BRANCH   2  10
ATOM     10  C   UNL     1      84.997  36.116  23.592  1.00  0.00     0.035 C 
BRANCH  10  11
ATOM     11  C   UNL     1      84.764  34.644  23.238  1.00  0.00     0.079 C 
BRANCH  11  12
ATOM     12  C   UNL     1      86.015  33.838  23.467  1.00  0.00     0.130 C 
ATOM     13  O   UNL     1      86.036  33.001  24.357  1.00  0.00    -0.300 OA
ATOM     14  C   UNL     1      87.236  34.031  22.618  1.00  0.00     0.087 C 
ENDBRANCH  11  12
ENDBRANCH  10  11
ENDBRANCH   2  10
TORSDOF 6
ENDMDL
MODEL 7
REMARK VINA RESULT:    -5.171      2.342      4.188
REMARK INTER + INTRA:          -7.405
REMARK INTER:                  -6.436
REMARK INTRA:                  -0.968
REMARK UNBOUND:                -0.420
REMARK SMILES CC(=O)CCC=C(C)CCC=C(C)C
REMARK SMILES IDX 7 1 6 2 8 3 9 4 10 5 11 6 13 7 12 8 14 9 5 10 4 11 2 12 3 13
REMARK SMILES IDX 1 14
REMARK H PARENT
REMARK Flexibility Score: inf
ROOT
ATOM      1  C   UNL     1      86.595  35.553  24.023  1.00  0.00    -0.077 C 
ATOM      2  C   UNL     1      86.673  36.689  24.755  1.00  0.00    -0.028 C 
ATOM      3  C   UNL     1      87.810  34.948  23.358  1.00  0.00     0.039 C 
ENDROOT
BRANCH   1   4
ATOM      4  C   UNL     1      85.259  34.858  23.884  1.00  0.00     0.034 C 
BRANCH   4   5
ATOM      5  C   UNL     1      84.635  34.597  25.259  1.00  0.00     0.032 C 
BRANCH   5   6
ATOM      6  C   UNL     1      85.353  33.478  25.969  1.00  0.00    -0.028 C 
ATOM      7  C   UNL     1      85.974  34.906  27.932  1.00  0.00     0.039 C 
ATOM      8  C   UNL     1      85.982  33.607  27.159  1.00  0.00    -0.080 C 
ATOM      9  C   UNL     1      86.693  32.408  27.730  1.00  0.00     0.039 C 
ENDBRANCH   5   6
ENDBRANCH   4   5
ENDBRANCH   1   4
BRANCH   2  10
ATOM     10  C   UNL     1      87.931  37.498  24.946  1.00  0.00     0.035 C 
BRANCH  10  11
ATOM     11  C   UNL     1      88.033  38.012  26.385  1.00  0.00     0.079 C 
BRANCH  11  12
ATOM     12  C   UNL     1      89.084  39.085  26.494  1.00  0.00     0.130 C 
ATOM     13  O   UNL     1      88.820  40.223  26.137  1.00  0.00    -0.300 OA
ATOM     14  C   UNL     1      90.448  38.791  27.043  1.00  0.00     0.087 C 
ENDBRANCH  11  12
ENDBRANCH  10  11
ENDBRANCH   2  10
TORSDOF 6
ENDMDL
MODEL 8
REMARK VINA RESULT:    -5.121      4.935      7.512
REMARK INTER + INTRA:          -7.338
REMARK INTER:                  -6.737
REMARK INTRA:                  -0.601
REMARK UNBOUND:                -0.420
REMARK SMILES CC(=O)CCC=C(C)CCC=C(C)C
REMARK SMILES IDX 7 1 6 2 8 3 9 4 10 5 11 6 13 7 12 8 14 9 5 10 4 11 2 12 3 13
REMARK SMILES IDX 1 14
REMARK H PARENT
REMARK Flexibility Score: inf
ROOT
ATOM      1  C   UNL     1      86.293  36.917  28.236  1.00  0.00    -0.077 C 
ATOM      2  C   UNL     1      85.810  35.735  28.683  1.00  0.00    -0.028 C 
ATOM      3  C   UNL     1      86.887  37.943  29.173  1.00  0.00     0.039 C 
ENDROOT
BRANCH   1   4
ATOM      4  C   UNL     1      86.254  37.213  26.753  1.00  0.00     0.034 C 
BRANCH   4   5
ATOM      5  C   UNL     1      87.667  37.203  26.158  1.00  0.00     0.032 C 
BRANCH   5   6
ATOM      6  C   UNL     1      88.155  38.609  25.916  1.00  0.00    -0.028 C 
ATOM      7  C   UNL     1      90.231  38.295  27.282  1.00  0.00     0.039 C 
ATOM      8  C   UNL     1      89.293  39.123  26.436  1.00  0.00    -0.080 C 
ATOM      9  C   UNL     1      89.633  40.560  26.138  1.00  0.00     0.039 C 
ENDBRANCH   5   6
ENDBRANCH   4   5
ENDBRANCH   1   4
BRANCH   2  10
ATOM     10  C   UNL     1      85.756  35.327  30.134  1.00  0.00     0.035 C 
BRANCH  10  11
ATOM     11  C   UNL     1      84.448  35.793  30.781  1.00  0.00     0.079 C 
BRANCH  11  12
ATOM     12  C   UNL     1      83.964  34.783  31.788  1.00  0.00     0.130 C 
ATOM     13  O   UNL     1      83.043  34.035  31.494  1.00  0.00    -0.300 OA
ATOM     14  C   UNL     1      84.597  34.664  33.142  1.00  0.00     0.087 C 
ENDBRANCH  11  12
ENDBRANCH  10  11
ENDBRANCH   2  10
TORSDOF 6
ENDMDL
MODEL 9
REMARK VINA RESULT:    -5.039      5.539      7.816
REMARK INTER + INTRA:          -7.227
REMARK INTER:                  -6.656
REMARK INTRA:                  -0.570
REMARK UNBOUND:                -0.420
REMARK SMILES CC(=O)CCC=C(C)CCC=C(C)C
REMARK SMILES IDX 7 1 6 2 8 3 9 4 10 5 11 6 13 7 12 8 14 9 5 10 4 11 2 12 3 13
REMARK SMILES IDX 1 14
REMARK H PARENT
REMARK Flexibility Score: inf
ROOT
ATOM      1  C   UNL     1      85.504  36.048  29.712  1.00  0.00    -0.077 C 
ATOM      2  C   UNL     1      84.649  36.063  30.761  1.00  0.00    -0.028 C 
ATOM      3  C   UNL     1      85.847  34.771  28.980  1.00  0.00     0.039 C 
ENDROOT
BRANCH   1   4
ATOM      4  C   UNL     1      86.121  37.349  29.248  1.00  0.00     0.034 C 
BRANCH   4   5
ATOM      5  C   UNL     1      86.814  37.169  27.893  1.00  0.00     0.032 C 
BRANCH   5   6
ATOM      6  C   UNL     1      87.951  38.148  27.739  1.00  0.00    -0.028 C 
ATOM      7  C   UNL     1      88.115  37.815  25.261  1.00  0.00     0.039 C 
ATOM      8  C   UNL     1      88.563  38.429  26.567  1.00  0.00    -0.080 C 
ATOM      9  C   UNL     1      89.715  39.401  26.574  1.00  0.00     0.039 C 
ENDBRANCH   5   6
ENDBRANCH   4   5
ENDBRANCH   1   4
BRANCH   2  10
ATOM     10  C   UNL     1      83.993  34.838  31.347  1.00  0.00     0.035 C 
BRANCH  10  11
ATOM     11  C   UNL     1      84.425  34.634  32.802  1.00  0.00     0.079 C 
BRANCH  11  12
ATOM     12  C   UNL     1      85.513  33.595  32.893  1.00  0.00     0.130 C 
ATOM     13  O   UNL     1      85.225  32.413  32.784  1.00  0.00    -0.300 OA
ATOM     14  C   UNL     1      86.947  33.981  33.102  1.00  0.00     0.087 C 
ENDBRANCH  11  12
ENDBRANCH  10  11
ENDBRANCH   2  10
TORSDOF 6
ENDMDL
