MODEL 1
REMARK VINA RESULT:    -5.503      0.000      0.000
REMARK INTER + INTRA:          -6.258
REMARK INTER:                  -5.825
REMARK INTRA:                  -0.434
REMARK UNBOUND:                -0.434
REMARK SMILES CC1=CC[C@H]2[C@@H]3[C@@H](C(C)C)CC[C@@]2(C)[C@H]13
REMARK SMILES IDX 1 1 2 2 3 3 4 4 5 5 6 6 15 7 13 8 12 9 11 10 7 11 14 12 8 13
REMARK SMILES IDX 9 14 10 15
REMARK H PARENT
REMARK Flexibility Score: inf
ROOT
ATOM      1  C   UNL     1     142.085 141.871 131.172  1.00  0.00     0.039 C 
ATOM      2  C   UNL     1     140.995 142.818 131.578  1.00  0.00    -0.073 C 
ATOM      3  C   UNL     1     140.580 143.833 130.773  1.00  0.00    -0.027 C 
ATOM      4  C   UNL     1     139.453 144.751 131.261  1.00  0.00     0.031 C 
ATOM      5  C   UNL     1     138.937 144.282 132.662  1.00  0.00     0.003 C 
ATOM      6  C   UNL     1     138.745 142.749 132.597  1.00  0.00     0.004 C 
ATOM      7  C   UNL     1     140.258 142.638 132.906  1.00  0.00     0.024 C 
ATOM      8  C   UNL     1     140.110 144.003 133.629  1.00  0.00    -0.022 C 
ATOM      9  C   UNL     1     139.536 143.814 135.062  1.00  0.00     0.008 C 
ATOM     10  C   UNL     1     138.552 142.620 135.154  1.00  0.00     0.005 C 
ATOM     11  C   UNL     1     137.864 142.266 133.793  1.00  0.00    -0.005 C 
ATOM     12  C   UNL     1     141.313 144.975 133.641  1.00  0.00     0.012 C 
ENDROOT
BRANCH  11  13
ATOM     13  C   UNL     1     137.519 140.743 133.711  1.00  0.00    -0.014 C 
ATOM     14  C   UNL     1     137.671 140.214 132.272  1.00  0.00     0.007 C 
ATOM     15  C   UNL     1     138.401 139.892 134.645  1.00  0.00     0.007 C 
ENDBRANCH  11  13
TORSDOF 1
ENDMDL
MODEL 2
REMARK VINA RESULT:    -5.485      2.421      4.405
REMARK INTER + INTRA:          -6.239
REMARK INTER:                  -5.804
REMARK INTRA:                  -0.435
REMARK UNBOUND:                -0.434
REMARK SMILES CC1=CC[C@H]2[C@@H]3[C@@H](C(C)C)CC[C@@]2(C)[C@H]13
REMARK SMILES IDX 1 1 2 2 3 3 4 4 5 5 6 6 15 7 13 8 12 9 11 10 7 11 14 12 8 13
REMARK SMILES IDX 9 14 10 15
REMARK H PARENT
REMARK Flexibility Score: inf
ROOT
ATOM      1  C   UNL     1     140.401 142.126 131.221  1.00  0.00     0.039 C 
ATOM      2  C   UNL     1     139.455 141.013 131.563  1.00  0.00    -0.073 C 
ATOM      3  C   UNL     1     138.468 140.616 130.716  1.00  0.00    -0.027 C 
ATOM      4  C   UNL     1     137.550 139.463 131.139  1.00  0.00     0.031 C 
ATOM      5  C   UNL     1     137.985 138.904 132.534  1.00  0.00     0.003 C 
ATOM      6  C   UNL     1     139.522 138.731 132.506  1.00  0.00     0.004 C 
ATOM      7  C   UNL     1     139.607 140.233 132.870  1.00  0.00     0.024 C 
ATOM      8  C   UNL     1     138.225 140.047 133.548  1.00  0.00    -0.022 C 
ATOM      9  C   UNL     1     138.379 139.425 134.966  1.00  0.00     0.008 C 
ATOM     10  C   UNL     1     139.582 138.451 135.057  1.00  0.00     0.005 C 
ATOM     11  C   UNL     1     139.981 137.814 133.685  1.00  0.00    -0.005 C 
ATOM     12  C   UNL     1     137.238 141.238 133.574  1.00  0.00     0.012 C 
ENDROOT
BRANCH  11  13
ATOM     13  C   UNL     1     141.509 137.488 133.634  1.00  0.00    -0.014 C 
ATOM     14  C   UNL     1     142.073 137.683 132.213  1.00  0.00     0.007 C 
ATOM     15  C   UNL     1     142.326 138.354 134.612  1.00  0.00     0.007 C 
ENDBRANCH  11  13
TORSDOF 1
ENDMDL
MODEL 3
REMARK VINA RESULT:    -5.475      3.730      6.179
REMARK INTER + INTRA:          -6.228
REMARK INTER:                  -5.793
REMARK INTRA:                  -0.435
REMARK UNBOUND:                -0.434
REMARK SMILES CC1=CC[C@H]2[C@@H]3[C@@H](C(C)C)CC[C@@]2(C)[C@H]13
REMARK SMILES IDX 1 1 2 2 3 3 4 4 5 5 6 6 15 7 13 8 12 9 11 10 7 11 14 12 8 13
REMARK SMILES IDX 9 14 10 15
REMARK H PARENT
REMARK Flexibility Score: inf
ROOT
ATOM      1  C   UNL     1     140.031 140.371 131.326  1.00  0.00     0.039 C 
ATOM      2  C   UNL     1     141.145 139.427 131.671  1.00  0.00    -0.073 C 
ATOM      3  C   UNL     1     141.527 138.422 130.838  1.00  0.00    -0.027 C 
ATOM      4  C   UNL     1     142.682 137.507 131.264  1.00  0.00     0.031 C 
ATOM      5  C   UNL     1     143.261 137.968 132.643  1.00  0.00     0.003 C 
ATOM      6  C   UNL     1     143.440 139.502 132.583  1.00  0.00     0.004 C 
ATOM      7  C   UNL     1     141.943 139.601 132.964  1.00  0.00     0.024 C 
ATOM      8  C   UNL     1     142.132 138.231 133.667  1.00  0.00    -0.022 C 
ATOM      9  C   UNL     1     142.773 138.411 135.073  1.00  0.00     0.008 C 
ATOM     10  C   UNL     1     143.753 139.611 135.129  1.00  0.00     0.005 C 
ATOM     11  C   UNL     1     144.373 139.981 133.740  1.00  0.00    -0.005 C 
ATOM     12  C   UNL     1     140.938 137.251 133.727  1.00  0.00     0.012 C 
ENDROOT
BRANCH  11  13
ATOM     13  C   UNL     1     144.705 141.506 133.656  1.00  0.00    -0.014 C 
ATOM     14  C   UNL     1     144.483 142.046 132.230  1.00  0.00     0.007 C 
ATOM     15  C   UNL     1     143.863 142.344 134.637  1.00  0.00     0.007 C 
ENDBRANCH  11  13
TORSDOF 1
ENDMDL
MODEL 4
REMARK VINA RESULT:    -5.465      2.366      4.350
REMARK INTER + INTRA:          -6.218
REMARK INTER:                  -5.798
REMARK INTRA:                  -0.420
REMARK UNBOUND:                -0.434
REMARK SMILES CC1=CC[C@H]2[C@@H]3[C@@H](C(C)C)CC[C@@]2(C)[C@H]13
REMARK SMILES IDX 1 1 2 2 3 3 4 4 5 5 6 6 15 7 13 8 12 9 11 10 7 11 14 12 8 13
REMARK SMILES IDX 9 14 10 15
REMARK H PARENT
REMARK Flexibility Score: inf
ROOT
ATOM      1  C   UNL     1     141.911 140.092 131.071  1.00  0.00     0.039 C 
ATOM      2  C   UNL     1     142.836 141.204 131.466  1.00  0.00    -0.073 C 
ATOM      3  C   UNL     1     143.843 141.631 130.657  1.00  0.00    -0.027 C 
ATOM      4  C   UNL     1     144.739 142.780 131.134  1.00  0.00     0.031 C 
ATOM      5  C   UNL     1     144.259 143.302 132.529  1.00  0.00     0.003 C 
ATOM      6  C   UNL     1     142.722 143.463 132.461  1.00  0.00     0.004 C 
ATOM      7  C   UNL     1     142.640 141.952 132.786  1.00  0.00     0.024 C 
ATOM      8  C   UNL     1     144.001 142.133 133.508  1.00  0.00    -0.022 C 
ATOM      9  C   UNL     1     143.801 142.719 134.935  1.00  0.00     0.008 C 
ATOM     10  C   UNL     1     142.588 143.680 135.016  1.00  0.00     0.005 C 
ATOM     11  C   UNL     1     142.222 144.347 133.648  1.00  0.00    -0.005 C 
ATOM     12  C   UNL     1     144.997 140.950 133.533  1.00  0.00     0.012 C 
ENDROOT
BRANCH  11  13
ATOM     13  C   UNL     1     140.693 144.661 133.562  1.00  0.00    -0.014 C 
ATOM     14  C   UNL     1     140.147 144.391 132.146  1.00  0.00     0.007 C 
ATOM     15  C   UNL     1     139.868 143.841 134.572  1.00  0.00     0.007 C 
ENDBRANCH  11  13
TORSDOF 1
ENDMDL
MODEL 5
REMARK VINA RESULT:    -5.207      2.630      4.882
REMARK INTER + INTRA:          -5.945
REMARK INTER:                  -5.510
REMARK INTRA:                  -0.435
REMARK UNBOUND:                -0.434
REMARK SMILES CC1=CC[C@H]2[C@@H]3[C@@H](C(C)C)CC[C@@]2(C)[C@H]13
REMARK SMILES IDX 1 1 2 2 3 3 4 4 5 5 6 6 15 7 13 8 12 9 11 10 7 11 14 12 8 13
REMARK SMILES IDX 9 14 10 15
REMARK H PARENT
REMARK Flexibility Score: inf
ROOT
ATOM      1  C   UNL     1     139.463 141.127 134.342  1.00  0.00     0.039 C 
ATOM      2  C   UNL     1     140.359 142.324 134.454  1.00  0.00    -0.073 C 
ATOM      3  C   UNL     1     140.110 143.336 135.329  1.00  0.00    -0.027 C 
ATOM      4  C   UNL     1     141.082 144.520 135.386  1.00  0.00     0.031 C 
ATOM      5  C   UNL     1     142.271 144.297 134.394  1.00  0.00     0.003 C 
ATOM      6  C   UNL     1     142.770 142.846 134.586  1.00  0.00     0.004 C 
ATOM      7  C   UNL     1     141.637 142.424 133.620  1.00  0.00     0.024 C 
ATOM      8  C   UNL     1     141.767 143.842 133.004  1.00  0.00    -0.022 C 
ATOM      9  C   UNL     1     142.955 143.907 132.002  1.00  0.00     0.008 C 
ATOM     10  C   UNL     1     144.125 142.976 132.410  1.00  0.00     0.005 C 
ATOM     11  C   UNL     1     144.184 142.674 133.944  1.00  0.00    -0.005 C 
ATOM     12  C   UNL     1     140.509 144.518 132.411  1.00  0.00     0.012 C 
ENDROOT
BRANCH  11  13
ATOM     13  C   UNL     1     144.804 141.266 134.222  1.00  0.00    -0.014 C 
ATOM     14  C   UNL     1     144.234 140.651 135.514  1.00  0.00     0.007 C 
ATOM     15  C   UNL     1     144.566 140.281 133.061  1.00  0.00     0.007 C 
ENDBRANCH  11  13
TORSDOF 1
ENDMDL
MODEL 6
REMARK VINA RESULT:    -5.205      1.433      4.432
REMARK INTER + INTRA:          -5.943
REMARK INTER:                  -5.511
REMARK INTRA:                  -0.431
REMARK UNBOUND:                -0.434
REMARK SMILES CC1=CC[C@H]2[C@@H]3[C@@H](C(C)C)CC[C@@]2(C)[C@H]13
REMARK SMILES IDX 1 1 2 2 3 3 4 4 5 5 6 6 15 7 13 8 12 9 11 10 7 11 14 12 8 13
REMARK SMILES IDX 9 14 10 15
REMARK H PARENT
REMARK Flexibility Score: inf
ROOT
ATOM      1  C   UNL     1     141.074 139.486 134.325  1.00  0.00     0.039 C 
ATOM      2  C   UNL     1     139.876 140.383 134.419  1.00  0.00    -0.073 C 
ATOM      3  C   UNL     1     138.854 140.139 135.282  1.00  0.00    -0.027 C 
ATOM      4  C   UNL     1     137.669 141.112 135.320  1.00  0.00     0.031 C 
ATOM      5  C   UNL     1     137.905 142.296 134.325  1.00  0.00     0.003 C 
ATOM      6  C   UNL     1     139.354 142.795 134.532  1.00  0.00     0.004 C 
ATOM      7  C   UNL     1     139.787 141.657 133.576  1.00  0.00     0.024 C 
ATOM      8  C   UNL     1     138.376 141.785 132.944  1.00  0.00    -0.022 C 
ATOM      9  C   UNL     1     138.324 142.967 131.935  1.00  0.00     0.008 C 
ATOM     10  C   UNL     1     139.250 144.139 132.347  1.00  0.00     0.005 C 
ATOM     11  C   UNL     1     139.534 144.205 133.885  1.00  0.00    -0.005 C 
ATOM     12  C   UNL     1     137.707 140.523 132.349  1.00  0.00     0.012 C 
ENDROOT
BRANCH  11  13
ATOM     13  C   UNL     1     140.939 144.827 134.176  1.00  0.00    -0.014 C 
ATOM     14  C   UNL     1     141.521 144.293 135.499  1.00  0.00     0.007 C 
ATOM     15  C   UNL     1     141.949 144.548 133.046  1.00  0.00     0.007 C 
ENDBRANCH  11  13
TORSDOF 1
ENDMDL
MODEL 7
REMARK VINA RESULT:    -5.201      3.594      5.504
REMARK INTER + INTRA:          -5.939
REMARK INTER:                  -5.503
REMARK INTRA:                  -0.436
REMARK UNBOUND:                -0.434
REMARK SMILES CC1=CC[C@H]2[C@@H]3[C@@H](C(C)C)CC[C@@]2(C)[C@H]13
REMARK SMILES IDX 1 1 2 2 3 3 4 4 5 5 6 6 15 7 13 8 12 9 11 10 7 11 14 12 8 13
REMARK SMILES IDX 9 14 10 15
REMARK H PARENT
REMARK Flexibility Score: inf
ROOT
ATOM      1  C   UNL     1     141.188 142.691 134.524  1.00  0.00     0.039 C 
ATOM      2  C   UNL     1     142.390 141.795 134.496  1.00  0.00    -0.073 C 
ATOM      3  C   UNL     1     143.474 142.013 135.289  1.00  0.00    -0.027 C 
ATOM      4  C   UNL     1     144.659 141.043 135.204  1.00  0.00     0.031 C 
ATOM      5  C   UNL     1     144.350 139.892 134.190  1.00  0.00     0.003 C 
ATOM      6  C   UNL     1     142.921 139.382 134.488  1.00  0.00     0.004 C 
ATOM      7  C   UNL     1     142.417 140.551 133.607  1.00  0.00     0.024 C 
ATOM      8  C   UNL     1     143.776 140.449 132.866  1.00  0.00    -0.022 C 
ATOM      9  C   UNL     1     143.753 139.302 131.816  1.00  0.00     0.008 C 
ATOM     10  C   UNL     1     142.861 138.114 132.256  1.00  0.00     0.005 C 
ATOM     11  C   UNL     1     142.693 137.994 133.808  1.00  0.00    -0.005 C 
ATOM     12  C   UNL     1     144.399 141.732 132.267  1.00  0.00     0.012 C 
ENDROOT
BRANCH  11  13
ATOM     13  C   UNL     1     141.314 137.359 134.182  1.00  0.00    -0.014 C 
ATOM     14  C   UNL     1     140.808 137.887 135.538  1.00  0.00     0.007 C 
ATOM     15  C   UNL     1     140.236 137.628 133.115  1.00  0.00     0.007 C 
ENDBRANCH  11  13
TORSDOF 1
ENDMDL
MODEL 8
REMARK VINA RESULT:    -5.171      2.745      5.066
REMARK INTER + INTRA:          -5.907
REMARK INTER:                  -5.470
REMARK INTRA:                  -0.436
REMARK UNBOUND:                -0.434
REMARK SMILES CC1=CC[C@H]2[C@@H]3[C@@H](C(C)C)CC[C@@]2(C)[C@H]13
REMARK SMILES IDX 1 1 2 2 3 3 4 4 5 5 6 6 15 7 13 8 12 9 11 10 7 11 14 12 8 13
REMARK SMILES IDX 9 14 10 15
REMARK H PARENT
REMARK Flexibility Score: inf
ROOT
ATOM      1  C   UNL     1     142.714 141.116 134.427  1.00  0.00     0.039 C 
ATOM      2  C   UNL     1     141.803 139.930 134.535  1.00  0.00    -0.073 C 
ATOM      3  C   UNL     1     142.029 138.920 135.418  1.00  0.00    -0.027 C 
ATOM      4  C   UNL     1     141.043 137.748 135.469  1.00  0.00     0.031 C 
ATOM      5  C   UNL     1     139.869 137.979 134.461  1.00  0.00     0.003 C 
ATOM      6  C   UNL     1     139.385 139.437 134.639  1.00  0.00     0.004 C 
ATOM      7  C   UNL     1     140.535 139.840 133.685  1.00  0.00     0.024 C 
ATOM      8  C   UNL     1     140.395 138.420 133.076  1.00  0.00    -0.022 C 
ATOM      9  C   UNL     1     139.220 138.363 132.059  1.00  0.00     0.008 C 
ATOM     10  C   UNL     1     138.056 139.310 132.446  1.00  0.00     0.005 C 
ATOM     11  C   UNL     1     137.981 139.622 133.978  1.00  0.00    -0.005 C 
ATOM     12  C   UNL     1     141.653 137.726 132.503  1.00  0.00     0.012 C 
ENDROOT
BRANCH  11  13
ATOM     13  C   UNL     1     137.374 141.039 134.239  1.00  0.00    -0.014 C 
ATOM     14  C   UNL     1     137.970 141.674 135.510  1.00  0.00     0.007 C 
ATOM     15  C   UNL     1     137.598 142.000 133.056  1.00  0.00     0.007 C 
ENDBRANCH  11  13
TORSDOF 1
ENDMDL
MODEL 9
REMARK VINA RESULT:    -5.075      1.944      3.727
REMARK INTER + INTRA:          -5.805
REMARK INTER:                  -5.369
REMARK INTRA:                  -0.437
REMARK UNBOUND:                -0.434
REMARK SMILES CC1=CC[C@H]2[C@@H]3[C@@H](C(C)C)CC[C@@]2(C)[C@H]13
REMARK SMILES IDX 1 1 2 2 3 3 4 4 5 5 6 6 15 7 13 8 12 9 11 10 7 11 14 12 8 13
REMARK SMILES IDX 9 14 10 15
REMARK H PARENT
REMARK Flexibility Score: inf
ROOT
ATOM      1  C   UNL     1     140.925 142.995 133.236  1.00  0.00     0.039 C 
ATOM      2  C   UNL     1     139.667 142.229 133.517  1.00  0.00    -0.073 C 
ATOM      3  C   UNL     1     138.473 142.566 132.959  1.00  0.00    -0.027 C 
ATOM      4  C   UNL     1     137.236 141.724 133.292  1.00  0.00     0.031 C 
ATOM      5  C   UNL     1     137.623 140.536 134.234  1.00  0.00     0.003 C 
ATOM      6  C   UNL     1     138.901 139.884 133.657  1.00  0.00     0.004 C 
ATOM      7  C   UNL     1     139.692 140.984 134.406  1.00  0.00     0.024 C 
ATOM      8  C   UNL     1     138.509 141.016 135.408  1.00  0.00    -0.022 C 
ATOM      9  C   UNL     1     138.625 139.860 136.443  1.00  0.00     0.008 C 
ATOM     10  C   UNL     1     139.281 138.591 135.842  1.00  0.00     0.005 C 
ATOM     11  C   UNL     1     139.116 138.472 134.291  1.00  0.00    -0.005 C 
ATOM     12  C   UNL     1     138.158 142.349 136.109  1.00  0.00     0.012 C 
ENDROOT
BRANCH  11  13
ATOM     13  C   UNL     1     140.317 137.701 133.650  1.00  0.00    -0.014 C 
ATOM     14  C   UNL     1     140.597 138.197 132.219  1.00  0.00     0.007 C 
ATOM     15  C   UNL     1     141.608 137.835 134.480  1.00  0.00     0.007 C 
ENDBRANCH  11  13
TORSDOF 1
ENDMDL
