MODEL 1
REMARK VINA RESULT:    17.736      0.000      0.000
REMARK INTER + INTRA:          31.937
REMARK INTER:                  28.105
REMARK INTRA:                   3.832
REMARK UNBOUND:                 3.832
REMARK SMILES C[C@@H]1O[C@H](O[C@H]2CC[C@]3(C)[C@@H](CC[C@]4(C)[C@H]3C=C[C@]35OC[C@@]6(CCC(C)(C)C[C@H]63)[C@@H](O)C[C@]54C)[C@@]2(C)CO)[C@@H](O)[C@@H](O[C@H]2O[C@@H](CO)[C@@H](O)[C@@H](O)[C@@H]2O)[C@@H]1O
REMARK SMILES IDX 1 1 2 2 54 3 41 4 39 5 4 6 3 7 55 8 42 10 43 11 52 12 44 13
REMARK SMILES IDX 50 14 45 15 48 16 53 17 51 19 46 21 47 22 49 24 5 26 6 27
REMARK SMILES IDX 7 28 35 29 8 30 11 31 36 32 9 33 12 34 10 35 16 36 13 37
REMARK SMILES IDX 14 38 17 39 15 40 33 41 18 42 19 43 32 44 34 45 29 46 20 47
REMARK SMILES IDX 30 48 22 49 28 50 21 51 23 52 25 53 24 54 26 55 27 56 37 57
REMARK SMILES IDX 38 58 31 60 40 62
REMARK H PARENT 55 9 53 18 51 20 47 23 49 25 38 59 31 61 40 63
REMARK Flexibility Score: inf
ROOT
ATOM      1  C   UNL     1      17.053  19.673  10.402  1.00  0.00     0.041 C 
ATOM      2  C   UNL     1      17.131  19.693  11.935  1.00  0.00     0.150 C 
ATOM      3  C   UNL     1      16.754  18.328  12.519  1.00  0.00     0.175 C 
ATOM      4  C   UNL     1      16.505  18.540  14.010  1.00  0.00     0.186 C 
ATOM      5  C   UNL     1      17.772  19.153  14.665  1.00  0.00     0.202 C 
ATOM      6  C   UNL     1      18.673  20.066  13.725  1.00  0.00     0.282 C 
ATOM      7  O   UNL     1      18.436  20.049  12.322  1.00  0.00    -0.344 OA
ENDROOT
BRANCH   3   8
ATOM      8  O   UNL     1      17.786  17.387  12.362  1.00  0.00    -0.388 OA
ATOM      9  H   UNL     1      17.904  17.235  11.386  1.00  0.00     0.211 HD
ENDBRANCH   3   8
BRANCH   4  10
ATOM     10  O   UNL     1      15.392  19.404  14.230  1.00  0.00    -0.341 OA
BRANCH  10  11
ATOM     11  C   UNL     1      14.255  18.728  14.748  1.00  0.00     0.282 C 
ATOM     12  C   UNL     1      12.989  19.426  14.172  1.00  0.00     0.202 C 
ATOM     13  O   UNL     1      14.356  18.634  16.174  1.00  0.00    -0.341 OA
ATOM     14  C   UNL     1      12.655  20.745  14.909  1.00  0.00     0.179 C 
ATOM     15  C   UNL     1      13.303  19.288  16.865  1.00  0.00     0.178 C 
ATOM     16  C   UNL     1      13.137  20.746  16.380  1.00  0.00     0.177 C 
BRANCH  12  17
ATOM     17  O   UNL     1      11.895  18.541  14.274  1.00  0.00    -0.385 OA
ATOM     18  H   UNL     1      11.632  18.477  15.232  1.00  0.00     0.211 HD
ENDBRANCH  12  17
BRANCH  14  19
ATOM     19  O   UNL     1      13.194  21.830  14.199  1.00  0.00    -0.387 OA
ATOM     20  H   UNL     1      13.375  22.533  14.877  1.00  0.00     0.211 HD
ENDBRANCH  14  19
BRANCH  15  21
ATOM     21  C   UNL     1      13.515  19.194  18.375  1.00  0.00     0.191 C 
BRANCH  21  22
ATOM     22  O   UNL     1      14.881  19.036  18.672  1.00  0.00    -0.394 OA
ATOM     23  H   UNL     1      14.945  18.358  19.398  1.00  0.00     0.210 HD
ENDBRANCH  21  22
ENDBRANCH  15  21
BRANCH  16  24
ATOM     24  O   UNL     1      14.306  21.521  16.551  1.00  0.00    -0.387 OA
ATOM     25  H   UNL     1      14.167  22.143  17.315  1.00  0.00     0.211 HD
ENDBRANCH  16  24
ENDBRANCH  10  11
ENDBRANCH   4  10
BRANCH   6  26
ATOM     26  O   UNL     1      20.075  19.856  13.974  1.00  0.00    -0.346 OA
BRANCH  26  27
ATOM     27  C   UNL     1      20.803  19.283  12.871  1.00  0.00     0.130 C 
ATOM     28  C   UNL     1      19.843  18.777  11.762  1.00  0.00     0.033 C 
ATOM     29  C   UNL     1      21.868  20.291  12.299  1.00  0.00     0.020 C 
ATOM     30  C   UNL     1      20.392  18.766  10.340  1.00  0.00     0.010 C 
ATOM     31  C   UNL     1      22.681  19.644  11.053  1.00  0.00     0.006 C 
ATOM     32  C   UNL     1      22.870  20.580  13.455  1.00  0.00     0.017 C 
ATOM     33  C   UNL     1      21.920  18.508  10.219  1.00  0.00    -0.022 C 
ATOM     34  C   UNL     1      23.385  20.715  10.195  1.00  0.00     0.005 C 
ATOM     35  C   UNL     1      22.257  17.142  10.914  1.00  0.00     0.012 C 
ATOM     36  C   UNL     1      22.238  18.379   8.619  1.00  0.00     0.024 C 
ATOM     37  C   UNL     1      24.074  20.114   8.970  1.00  0.00     0.008 C 
ATOM     38  C   UNL     1      23.081  19.539   7.916  1.00  0.00    -0.017 C 
ATOM     39  C   UNL     1      22.604  16.972   8.126  1.00  0.00    -0.024 C 
ATOM     40  C   UNL     1      22.069  20.686   7.564  1.00  0.00     0.013 C 
ATOM     41  C   UNL     1      23.877  19.022   6.556  1.00  0.00     0.009 C 
ATOM     42  C   UNL     1      22.903  16.731   6.858  1.00  0.00     0.005 C 
ATOM     43  C   UNL     1      23.041  17.859   5.888  1.00  0.00     0.096 C 
ATOM     44  C   UNL     1      24.087  20.155   5.466  1.00  0.00     0.043 C 
ATOM     45  C   UNL     1      25.300  18.507   6.952  1.00  0.00     0.015 C 
ATOM     46  C   UNL     1      23.512  17.315   4.525  1.00  0.00     0.037 C 
ATOM     47  O   UNL     1      21.752  18.376   5.581  1.00  0.00    -0.369 OA
ATOM     48  C   UNL     1      24.153  19.685   3.978  1.00  0.00     0.124 C 
ATOM     49  C   UNL     1      23.185  18.487   3.655  1.00  0.00     0.026 C 
ATOM     50  C   UNL     1      24.858  16.651   4.167  1.00  0.00     0.014 C 
ATOM     51  C   UNL     1      21.775  18.772   4.211  1.00  0.00     0.171 C 
ATOM     52  C   UNL     1      23.225  18.096   2.141  1.00  0.00     0.013 C 
ATOM     53  C   UNL     1      24.844  16.120   2.687  1.00  0.00    -0.035 C 
ATOM     54  C   UNL     1      23.594  16.617   1.876  1.00  0.00     0.007 C 
ATOM     55  C   UNL     1      26.125  16.572   1.949  1.00  0.00     0.011 C 
ATOM     56  C   UNL     1      24.820  14.580   2.698  1.00  0.00     0.011 C 
BRANCH  29  57
ATOM     57  C   UNL     1      21.141  21.634  11.939  1.00  0.00     0.165 C 
BRANCH  57  58
ATOM     58  O   UNL     1      20.608  21.616  10.637  1.00  0.00    -0.396 OA
ATOM     59  H   UNL     1      20.351  22.552  10.425  1.00  0.00     0.210 HD
ENDBRANCH  57  58
ENDBRANCH  29  57
BRANCH  48  60
ATOM     60  O   UNL     1      23.822  20.766   3.138  1.00  0.00    -0.392 OA
ATOM     61  H   UNL     1      23.048  21.235   3.555  1.00  0.00     0.210 HD
ENDBRANCH  48  60
ENDBRANCH  26  27
ENDBRANCH   6  26
BRANCH   5  62
ATOM     62  O   UNL     1      17.381  19.888  15.798  1.00  0.00    -0.385 OA
ATOM     63  H   UNL     1      18.213  20.244  16.206  1.00  0.00     0.211 HD
ENDBRANCH   5  62
TORSDOF 14
ENDMDL
MODEL 2
REMARK VINA RESULT:    18.949      2.358     13.375
REMARK INTER + INTRA:          33.859
REMARK INTER:                  32.839
REMARK INTRA:                   1.021
REMARK UNBOUND:                 3.832
REMARK SMILES C[C@@H]1O[C@H](O[C@H]2CC[C@]3(C)[C@@H](CC[C@]4(C)[C@H]3C=C[C@]35OC[C@@]6(CCC(C)(C)C[C@H]63)[C@@H](O)C[C@]54C)[C@@]2(C)CO)[C@@H](O)[C@@H](O[C@H]2O[C@@H](CO)[C@@H](O)[C@@H](O)[C@@H]2O)[C@@H]1O
REMARK SMILES IDX 1 1 2 2 54 3 41 4 39 5 4 6 3 7 55 8 42 10 43 11 52 12 44 13
REMARK SMILES IDX 50 14 45 15 48 16 53 17 51 19 46 21 47 22 49 24 5 26 6 27
REMARK SMILES IDX 7 28 35 29 8 30 11 31 36 32 9 33 12 34 10 35 16 36 13 37
REMARK SMILES IDX 14 38 17 39 15 40 33 41 18 42 19 43 32 44 34 45 29 46 20 47
REMARK SMILES IDX 30 48 22 49 28 50 21 51 23 52 25 53 24 54 26 55 27 56 37 57
REMARK SMILES IDX 38 58 31 60 40 62
REMARK H PARENT 55 9 53 18 51 20 47 23 49 25 38 59 31 61 40 63
REMARK Flexibility Score: inf
ROOT
ATOM      1  C   UNL     1      22.517  20.485  12.710  1.00  0.00     0.041 C 
ATOM      2  C   UNL     1      22.051  20.192  11.276  1.00  0.00     0.150 C 
ATOM      3  C   UNL     1      22.739  18.941  10.722  1.00  0.00     0.175 C 
ATOM      4  C   UNL     1      22.507  18.941   9.214  1.00  0.00     0.186 C 
ATOM      5  C   UNL     1      20.981  18.975   8.925  1.00  0.00     0.202 C 
ATOM      6  C   UNL     1      20.080  19.703  10.014  1.00  0.00     0.282 C 
ATOM      7  O   UNL     1      20.654  20.026  11.275  1.00  0.00    -0.344 OA
ENDROOT
BRANCH   3   8
ATOM      8  O   UNL     1      22.200  17.762  11.263  1.00  0.00    -0.388 OA
ATOM      9  H   UNL     1      21.441  17.487  10.681  1.00  0.00     0.211 HD
ENDBRANCH   3   8
BRANCH   4  10
ATOM     10  O   UNL     1      23.132  20.064   8.594  1.00  0.00    -0.341 OA
BRANCH  10  11
ATOM     11  C   UNL     1      24.323  19.725   7.899  1.00  0.00     0.282 C 
ATOM     12  C   UNL     1      24.757  20.970   7.073  1.00  0.00     0.202 C 
ATOM     13  O   UNL     1      24.133  18.500   7.181  1.00  0.00    -0.341 OA
ATOM     14  C   UNL     1      23.934  21.131   5.772  1.00  0.00     0.179 C 
ATOM     15  C   UNL     1      24.285  18.632   5.777  1.00  0.00     0.178 C 
ATOM     16  C   UNL     1      23.410  19.781   5.226  1.00  0.00     0.177 C 
BRANCH  12  17
ATOM     17  O   UNL     1      26.125  20.849   6.751  1.00  0.00    -0.385 OA
ATOM     18  H   UNL     1      26.348  19.880   6.691  1.00  0.00     0.211 HD
ENDBRANCH  12  17
BRANCH  14  19
ATOM     19  O   UNL     1      22.879  22.032   5.991  1.00  0.00    -0.387 OA
ATOM     20  H   UNL     1      23.096  22.499   6.840  1.00  0.00     0.211 HD
ENDBRANCH  14  19
BRANCH  15  21
ATOM     21  C   UNL     1      24.007  17.300   5.081  1.00  0.00     0.191 C 
BRANCH  21  22
ATOM     22  O   UNL     1      22.734  16.815   5.434  1.00  0.00    -0.394 OA
ATOM     23  H   UNL     1      22.768  15.824   5.358  1.00  0.00     0.210 HD
ENDBRANCH  21  22
ENDBRANCH  15  21
BRANCH  16  24
ATOM     24  O   UNL     1      22.033  19.603   5.492  1.00  0.00    -0.387 OA
ATOM     25  H   UNL     1      21.826  18.630   5.465  1.00  0.00     0.211 HD
ENDBRANCH  16  24
ENDBRANCH  10  11
ENDBRANCH   4  10
BRANCH   6  26
ATOM     26  O   UNL     1      18.838  19.005  10.220  1.00  0.00    -0.346 OA
BRANCH  26  27
ATOM     27  C   UNL     1      17.980  19.586  11.221  1.00  0.00     0.130 C 
ATOM     28  C   UNL     1      16.492  19.544  10.784  1.00  0.00     0.033 C 
ATOM     29  C   UNL     1      18.190  18.906  12.624  1.00  0.00     0.020 C 
ATOM     30  C   UNL     1      15.457  19.489  11.900  1.00  0.00     0.010 C 
ATOM     31  C   UNL     1      17.218  19.560  13.747  1.00  0.00     0.006 C 
ATOM     32  C   UNL     1      19.671  19.172  13.029  1.00  0.00     0.017 C 
ATOM     33  C   UNL     1      15.857  20.215  13.215  1.00  0.00    -0.022 C 
ATOM     34  C   UNL     1      17.059  18.651  14.983  1.00  0.00     0.005 C 
ATOM     35  C   UNL     1      16.182  21.714  12.884  1.00  0.00     0.012 C 
ATOM     36  C   UNL     1      14.541  20.162  14.187  1.00  0.00     0.024 C 
ATOM     37  C   UNL     1      16.071  19.224  15.999  1.00  0.00     0.008 C 
ATOM     38  C   UNL     1      14.598  19.245  15.493  1.00  0.00    -0.017 C 
ATOM     39  C   UNL     1      13.828  21.502  14.411  1.00  0.00    -0.024 C 
ATOM     40  C   UNL     1      14.249  17.784  15.037  1.00  0.00     0.013 C 
ATOM     41  C   UNL     1      13.558  19.752  16.681  1.00  0.00     0.009 C 
ATOM     42  C   UNL     1      12.761  21.605  15.192  1.00  0.00     0.005 C 
ATOM     43  C   UNL     1      12.305  20.436  16.003  1.00  0.00     0.096 C 
ATOM     44  C   UNL     1      13.027  18.581  17.611  1.00  0.00     0.043 C 
ATOM     45  C   UNL     1      14.293  20.771  17.613  1.00  0.00     0.015 C 
ATOM     46  C   UNL     1      11.131  20.860  16.908  1.00  0.00     0.037 C 
ATOM     47  O   UNL     1      11.700  19.476  15.147  1.00  0.00    -0.369 OA
ATOM     48  C   UNL     1      11.610  18.780  18.238  1.00  0.00     0.124 C 
ATOM     49  C   UNL     1      10.598  19.514  17.282  1.00  0.00     0.026 C 
ATOM     50  C   UNL     1      11.133  21.861  18.081  1.00  0.00     0.014 C 
ATOM     51  C   UNL     1      10.630  18.878  15.877  1.00  0.00     0.171 C 
ATOM     52  C   UNL     1       9.173  19.626  17.917  1.00  0.00     0.013 C 
ATOM     53  C   UNL     1       9.675  22.091  18.623  1.00  0.00    -0.035 C 
ATOM     54  C   UNL     1       8.637  21.075  18.025  1.00  0.00     0.007 C 
ATOM     55  C   UNL     1       9.655  21.969  20.164  1.00  0.00     0.011 C 
ATOM     56  C   UNL     1       9.212  23.513  18.252  1.00  0.00     0.011 C 
BRANCH  29  57
ATOM     57  C   UNL     1      18.002  17.357  12.461  1.00  0.00     0.165 C 
BRANCH  57  58
ATOM     58  O   UNL     1      19.123  16.746  11.869  1.00  0.00    -0.396 OA
ATOM     59  H   UNL     1      19.870  17.398  11.942  1.00  0.00     0.210 HD
ENDBRANCH  57  58
ENDBRANCH  29  57
BRANCH  48  60
ATOM     60  O   UNL     1      11.075  17.523  18.576  1.00  0.00    -0.392 OA
ATOM     61  H   UNL     1      10.361  17.319  17.911  1.00  0.00     0.210 HD
ENDBRANCH  48  60
ENDBRANCH  26  27
ENDBRANCH   6  26
BRANCH   5  62
ATOM     62  O   UNL     1      20.776  19.573   7.669  1.00  0.00    -0.385 OA
ATOM     63  H   UNL     1      21.120  20.501   7.738  1.00  0.00     0.211 HD
ENDBRANCH   5  62
TORSDOF 14
ENDMDL
