MODEL 1
REMARK VINA RESULT:    -3.034      0.000      0.000
REMARK INTER + INTRA:         -13.684
REMARK INTER:                  -7.999
REMARK INTRA:                  -5.685
REMARK UNBOUND:                -5.685
REMARK SMILES CCCCCCCCCCCCCCCCCCCCCCCCCCCCCC(=O)[O-]
REMARK SMILES IDX 16 1 17 2 18 3 19 4 20 5 21 6 22 7 23 8 24 9 25 10 26 11
REMARK SMILES IDX 27 12 28 13 29 14 30 15 31 16 32 17 15 18 14 19 13 20 12 21
REMARK SMILES IDX 11 22 10 23 9 24 8 25 7 26 6 27 5 28 4 29 3 30 2 31 1 32
REMARK H PARENT
REMARK Flexibility Score: inf
ROOT
ATOM      1  C   UNL     1      61.504  30.587  57.617  1.00  0.00     0.000 C 
ENDROOT
BRANCH   1   2
ATOM      2  C   UNL     1      61.111  29.813  58.890  1.00  0.00     0.000 C 
BRANCH   2   3
ATOM      3  C   UNL     1      60.400  30.646  59.979  1.00  0.00     0.000 C 
BRANCH   3   4
ATOM      4  C   UNL     1      61.063  30.608  61.367  1.00  0.00     0.000 C 
BRANCH   4   5
ATOM      5  C   UNL     1      62.395  29.838  61.371  1.00  0.00     0.000 C 
BRANCH   5   6
ATOM      6  C   UNL     1      63.622  30.756  61.214  1.00  0.00     0.000 C 
BRANCH   6   7
ATOM      7  C   UNL     1      64.785  30.161  60.399  1.00  0.00     0.000 C 
BRANCH   7   8
ATOM      8  C   UNL     1      64.832  28.624  60.457  1.00  0.00     0.000 C 
BRANCH   8   9
ATOM      9  C   UNL     1      64.379  27.968  59.141  1.00  0.00     0.000 C 
BRANCH   9  10
ATOM     10  C   UNL     1      63.360  26.818  59.300  1.00  0.00     0.000 C 
BRANCH  10  11
ATOM     11  C   UNL     1      63.299  26.190  60.705  1.00  0.00     0.000 C 
BRANCH  11  12
ATOM     12  C   UNL     1      61.958  26.440  61.411  1.00  0.00     0.000 C 
BRANCH  12  13
ATOM     13  C   UNL     1      60.783  26.229  60.449  1.00  0.00     0.006 C 
BRANCH  13  14
ATOM     14  C   UNL     1      59.571  27.068  60.870  1.00  0.00     0.053 C 
BRANCH  14  15
ATOM     15  C   UNL     1      58.469  26.203  61.403  1.00  0.00     0.041 C 
ATOM     16  O   UNL     1      57.374  26.714  61.758  1.00  0.00    -0.550 OA
ATOM     17  O   UNL     1      58.664  24.832  61.533  1.00  0.00    -0.550 OA
ENDBRANCH  14  15
ENDBRANCH  13  14
ENDBRANCH  12  13
ENDBRANCH  11  12
ENDBRANCH  10  11
ENDBRANCH   9  10
ENDBRANCH   8   9
ENDBRANCH   7   8
ENDBRANCH   6   7
ENDBRANCH   5   6
ENDBRANCH   4   5
ENDBRANCH   3   4
ENDBRANCH   2   3
ENDBRANCH   1   2
BRANCH   1  18
ATOM     18  C   UNL     1      62.943  31.139  57.597  1.00  0.00     0.000 C 
BRANCH  18  19
ATOM     19  C   UNL     1      63.072  32.581  58.130  1.00  0.00     0.000 C 
BRANCH  19  20
ATOM     20  C   UNL     1      62.095  33.561  57.454  1.00  0.00     0.000 C 
BRANCH  20  21
ATOM     21  C   UNL     1      61.129  34.209  58.460  1.00  0.00     0.000 C 
BRANCH  21  22
ATOM     22  C   UNL     1      61.587  34.017  59.917  1.00  0.00     0.000 C 
BRANCH  22  23
ATOM     23  C   UNL     1      61.712  35.343  60.688  1.00  0.00     0.000 C 
BRANCH  23  24
ATOM     24  C   UNL     1      63.104  35.997  60.638  1.00  0.00    -0.000 C 
BRANCH  24  25
ATOM     25  C   UNL     1      64.235  35.031  61.035  1.00  0.00    -0.000 C 
BRANCH  25  26
ATOM     26  C   UNL     1      65.610  35.498  60.534  1.00  0.00    -0.000 C 
BRANCH  26  27
ATOM     27  C   UNL     1      65.587  35.916  59.052  1.00  0.00    -0.000 C 
BRANCH  27  28
ATOM     28  C   UNL     1      66.670  35.212  58.218  1.00  0.00    -0.000 C 
BRANCH  28  29
ATOM     29  C   UNL     1      66.096  34.480  56.997  1.00  0.00    -0.000 C 
BRANCH  29  30
ATOM     30  C   UNL     1      67.035  33.352  56.546  1.00  0.00    -0.000 C 
BRANCH  30  31
ATOM     31  C   UNL     1      66.348  31.976  56.549  1.00  0.00    -0.003 C 
ATOM     32  C   UNL     1      67.002  30.992  57.519  1.00  0.00     0.004 C 
ENDBRANCH  30  31
ENDBRANCH  29  30
ENDBRANCH  28  29
ENDBRANCH  27  28
ENDBRANCH  26  27
ENDBRANCH  25  26
ENDBRANCH  24  25
ENDBRANCH  23  24
ENDBRANCH  22  23
ENDBRANCH  21  22
ENDBRANCH  20  21
ENDBRANCH  19  20
ENDBRANCH  18  19
ENDBRANCH   1  18
TORSDOF 28
ENDMDL
MODEL 2
REMARK VINA RESULT:    -3.010      9.406     12.122
REMARK INTER + INTRA:         -13.622
REMARK INTER:                  -8.393
REMARK INTRA:                  -5.229
REMARK UNBOUND:                -5.685
REMARK SMILES CCCCCCCCCCCCCCCCCCCCCCCCCCCCCC(=O)[O-]
REMARK SMILES IDX 16 1 17 2 18 3 19 4 20 5 21 6 22 7 23 8 24 9 25 10 26 11
REMARK SMILES IDX 27 12 28 13 29 14 30 15 31 16 32 17 15 18 14 19 13 20 12 21
REMARK SMILES IDX 11 22 10 23 9 24 8 25 7 26 6 27 5 28 4 29 3 30 2 31 1 32
REMARK H PARENT
REMARK Flexibility Score: inf
ROOT
ATOM      1  C   UNL     1      59.009  29.368  49.302  1.00  0.00     0.000 C 
ENDROOT
BRANCH   1   2
ATOM      2  C   UNL     1      60.493  29.220  49.691  1.00  0.00     0.000 C 
BRANCH   2   3
ATOM      3  C   UNL     1      61.234  28.033  49.037  1.00  0.00     0.000 C 
BRANCH   3   4
ATOM      4  C   UNL     1      61.340  26.769  49.908  1.00  0.00     0.000 C 
BRANCH   4   5
ATOM      5  C   UNL     1      60.351  25.669  49.486  1.00  0.00     0.000 C 
BRANCH   5   6
ATOM      6  C   UNL     1      60.587  24.333  50.217  1.00  0.00     0.000 C 
BRANCH   6   7
ATOM      7  C   UNL     1      61.305  24.447  51.574  1.00  0.00     0.000 C 
BRANCH   7   8
ATOM      8  C   UNL     1      60.408  24.057  52.761  1.00  0.00     0.000 C 
BRANCH   8   9
ATOM      9  C   UNL     1      59.027  23.543  52.316  1.00  0.00     0.000 C 
BRANCH   9  10
ATOM     10  C   UNL     1      58.003  23.350  53.456  1.00  0.00     0.000 C 
BRANCH  10  11
ATOM     11  C   UNL     1      57.815  21.895  53.926  1.00  0.00     0.000 C 
BRANCH  11  12
ATOM     12  C   UNL     1      57.734  20.899  52.759  1.00  0.00     0.000 C 
BRANCH  12  13
ATOM     13  C   UNL     1      56.390  20.163  52.758  1.00  0.00     0.006 C 
BRANCH  13  14
ATOM     14  C   UNL     1      56.509  18.804  52.057  1.00  0.00     0.053 C 
BRANCH  14  15
ATOM     15  C   UNL     1      56.448  18.953  50.568  1.00  0.00     0.041 C 
ATOM     16  O   UNL     1      57.436  18.633  49.855  1.00  0.00    -0.550 OA
ATOM     17  O   UNL     1      55.306  19.474  49.967  1.00  0.00    -0.550 OA
ENDBRANCH  14  15
ENDBRANCH  13  14
ENDBRANCH  12  13
ENDBRANCH  11  12
ENDBRANCH  10  11
ENDBRANCH   9  10
ENDBRANCH   8   9
ENDBRANCH   7   8
ENDBRANCH   6   7
ENDBRANCH   5   6
ENDBRANCH   4   5
ENDBRANCH   3   4
ENDBRANCH   2   3
ENDBRANCH   1   2
BRANCH   1  18
ATOM     18  C   UNL     1      58.001  29.142  50.445  1.00  0.00     0.000 C 
BRANCH  18  19
ATOM     19  C   UNL     1      58.619  28.521  51.716  1.00  0.00     0.000 C 
BRANCH  19  20
ATOM     20  C   UNL     1      58.105  27.097  52.000  1.00  0.00     0.000 C 
BRANCH  20  21
ATOM     21  C   UNL     1      57.125  26.605  50.923  1.00  0.00     0.000 C 
BRANCH  21  22
ATOM     22  C   UNL     1      55.975  25.772  51.515  1.00  0.00     0.000 C 
BRANCH  22  23
ATOM     23  C   UNL     1      54.658  25.921  50.733  1.00  0.00     0.000 C 
BRANCH  23  24
ATOM     24  C   UNL     1      54.696  26.945  49.584  1.00  0.00    -0.000 C 
BRANCH  24  25
ATOM     25  C   UNL     1      53.848  28.197  49.867  1.00  0.00    -0.000 C 
BRANCH  25  26
ATOM     26  C   UNL     1      54.707  29.441  50.137  1.00  0.00    -0.000 C 
BRANCH  26  27
ATOM     27  C   UNL     1      54.458  30.036  51.536  1.00  0.00    -0.000 C 
BRANCH  27  28
ATOM     28  C   UNL     1      54.643  29.006  52.662  1.00  0.00    -0.000 C 
BRANCH  28  29
ATOM     29  C   UNL     1      55.617  29.484  53.748  1.00  0.00    -0.000 C 
BRANCH  29  30
ATOM     30  C   UNL     1      56.037  30.941  53.504  1.00  0.00    -0.000 C 
BRANCH  30  31
ATOM     31  C   UNL     1      57.510  31.197  53.861  1.00  0.00    -0.003 C 
ATOM     32  C   UNL     1      58.221  32.082  52.836  1.00  0.00     0.004 C 
ENDBRANCH  30  31
ENDBRANCH  29  30
ENDBRANCH  28  29
ENDBRANCH  27  28
ENDBRANCH  26  27
ENDBRANCH  25  26
ENDBRANCH  24  25
ENDBRANCH  23  24
ENDBRANCH  22  23
ENDBRANCH  21  22
ENDBRANCH  20  21
ENDBRANCH  19  20
ENDBRANCH  18  19
ENDBRANCH   1  18
TORSDOF 28
ENDMDL
MODEL 3
REMARK VINA RESULT:    -2.993      9.070     12.036
REMARK INTER + INTRA:         -13.578
REMARK INTER:                  -7.635
REMARK INTRA:                  -5.943
REMARK UNBOUND:                -5.685
REMARK SMILES CCCCCCCCCCCCCCCCCCCCCCCCCCCCCC(=O)[O-]
REMARK SMILES IDX 16 1 17 2 18 3 19 4 20 5 21 6 22 7 23 8 24 9 25 10 26 11
REMARK SMILES IDX 27 12 28 13 29 14 30 15 31 16 32 17 15 18 14 19 13 20 12 21
REMARK SMILES IDX 11 22 10 23 9 24 8 25 7 26 6 27 5 28 4 29 3 30 2 31 1 32
REMARK H PARENT
REMARK Flexibility Score: inf
ROOT
ATOM      1  C   UNL     1      59.164  29.547  49.378  1.00  0.00     0.000 C 
ENDROOT
BRANCH   1   2
ATOM      2  C   UNL     1      58.840  29.634  50.882  1.00  0.00     0.000 C 
BRANCH   2   3
ATOM      3  C   UNL     1      57.414  29.193  51.278  1.00  0.00     0.000 C 
BRANCH   3   4
ATOM      4  C   UNL     1      56.590  28.551  50.148  1.00  0.00     0.000 C 
BRANCH   4   5
ATOM      5  C   UNL     1      55.095  28.907  50.222  1.00  0.00     0.000 C 
BRANCH   5   6
ATOM      6  C   UNL     1      54.177  27.750  49.785  1.00  0.00     0.000 C 
BRANCH   6   7
ATOM      7  C   UNL     1      54.897  26.430  49.457  1.00  0.00     0.000 C 
BRANCH   7   8
ATOM      8  C   UNL     1      53.997  25.196  49.636  1.00  0.00     0.000 C 
BRANCH   8   9
ATOM      9  C   UNL     1      53.727  24.870  51.116  1.00  0.00     0.000 C 
BRANCH   9  10
ATOM     10  C   UNL     1      54.913  25.129  52.070  1.00  0.00     0.000 C 
BRANCH  10  11
ATOM     11  C   UNL     1      54.553  25.859  53.377  1.00  0.00     0.000 C 
BRANCH  11  12
ATOM     12  C   UNL     1      55.246  27.223  53.508  1.00  0.00     0.000 C 
BRANCH  12  13
ATOM     13  C   UNL     1      54.224  28.336  53.768  1.00  0.00     0.006 C 
BRANCH  13  14
ATOM     14  C   UNL     1      54.926  29.672  54.042  1.00  0.00     0.053 C 
BRANCH  14  15
ATOM     15  C   UNL     1      55.192  29.856  55.505  1.00  0.00     0.041 C 
ATOM     16  O   UNL     1      56.047  30.694  55.895  1.00  0.00    -0.550 OA
ATOM     17  O   UNL     1      54.513  29.078  56.438  1.00  0.00    -0.550 OA
ENDBRANCH  14  15
ENDBRANCH  13  14
ENDBRANCH  12  13
ENDBRANCH  11  12
ENDBRANCH  10  11
ENDBRANCH   9  10
ENDBRANCH   8   9
ENDBRANCH   7   8
ENDBRANCH   6   7
ENDBRANCH   5   6
ENDBRANCH   4   5
ENDBRANCH   3   4
ENDBRANCH   2   3
ENDBRANCH   1   2
BRANCH   1  18
ATOM     18  C   UNL     1      60.140  28.423  48.976  1.00  0.00     0.000 C 
BRANCH  18  19
ATOM     19  C   UNL     1      60.232  27.274  50.002  1.00  0.00     0.000 C 
BRANCH  19  20
ATOM     20  C   UNL     1      59.345  26.070  49.637  1.00  0.00     0.000 C 
BRANCH  20  21
ATOM     21  C   UNL     1      58.497  25.587  50.827  1.00  0.00     0.000 C 
BRANCH  21  22
ATOM     22  C   UNL     1      59.156  25.906  52.181  1.00  0.00     0.000 C 
BRANCH  22  23
ATOM     23  C   UNL     1      58.368  25.346  53.379  1.00  0.00     0.000 C 
BRANCH  23  24
ATOM     24  C   UNL     1      59.141  24.341  54.253  1.00  0.00    -0.000 C 
BRANCH  24  25
ATOM     25  C   UNL     1      60.518  23.976  53.673  1.00  0.00    -0.000 C 
BRANCH  25  26
ATOM     26  C   UNL     1      60.630  22.487  53.314  1.00  0.00    -0.000 C 
BRANCH  26  27
ATOM     27  C   UNL     1      59.823  22.122  52.053  1.00  0.00    -0.000 C 
BRANCH  27  28
ATOM     28  C   UNL     1      60.719  21.776  50.854  1.00  0.00    -0.000 C 
BRANCH  28  29
ATOM     29  C   UNL     1      61.120  23.012  50.036  1.00  0.00    -0.000 C 
BRANCH  29  30
ATOM     30  C   UNL     1      62.632  23.268  50.137  1.00  0.00    -0.000 C 
BRANCH  30  31
ATOM     31  C   UNL     1      62.978  24.765  50.119  1.00  0.00    -0.003 C 
ATOM     32  C   UNL     1      63.036  25.375  51.521  1.00  0.00     0.004 C 
ENDBRANCH  30  31
ENDBRANCH  29  30
ENDBRANCH  28  29
ENDBRANCH  27  28
ENDBRANCH  26  27
ENDBRANCH  25  26
ENDBRANCH  24  25
ENDBRANCH  23  24
ENDBRANCH  22  23
ENDBRANCH  21  22
ENDBRANCH  20  21
ENDBRANCH  19  20
ENDBRANCH  18  19
ENDBRANCH   1  18
TORSDOF 28
ENDMDL
MODEL 4
REMARK VINA RESULT:    -2.967      4.138      8.941
REMARK INTER + INTRA:         -13.507
REMARK INTER:                  -8.293
REMARK INTRA:                  -5.214
REMARK UNBOUND:                -5.685
REMARK SMILES CCCCCCCCCCCCCCCCCCCCCCCCCCCCCC(=O)[O-]
REMARK SMILES IDX 16 1 17 2 18 3 19 4 20 5 21 6 22 7 23 8 24 9 25 10 26 11
REMARK SMILES IDX 27 12 28 13 29 14 30 15 31 16 32 17 15 18 14 19 13 20 12 21
REMARK SMILES IDX 11 22 10 23 9 24 8 25 7 26 6 27 5 28 4 29 3 30 2 31 1 32
REMARK H PARENT
REMARK Flexibility Score: inf
ROOT
ATOM      1  C   UNL     1      63.784  32.612  57.859  1.00  0.00     0.000 C 
ENDROOT
BRANCH   1   2
ATOM      2  C   UNL     1      64.690  33.117  58.998  1.00  0.00     0.000 C 
BRANCH   2   3
ATOM      3  C   UNL     1      64.006  33.255  60.376  1.00  0.00     0.000 C 
BRANCH   3   4
ATOM      4  C   UNL     1      63.238  34.571  60.596  1.00  0.00     0.000 C 
BRANCH   4   5
ATOM      5  C   UNL     1      61.718  34.411  60.416  1.00  0.00     0.000 C 
BRANCH   5   6
ATOM      6  C   UNL     1      60.971  35.758  60.377  1.00  0.00     0.000 C 
BRANCH   6   7
ATOM      7  C   UNL     1      60.779  36.360  58.973  1.00  0.00     0.000 C 
BRANCH   7   8
ATOM      8  C   UNL     1      61.067  35.355  57.846  1.00  0.00     0.000 C 
BRANCH   8   9
ATOM      9  C   UNL     1      62.341  35.702  57.054  1.00  0.00     0.000 C 
BRANCH   9  10
ATOM     10  C   UNL     1      63.191  36.844  57.651  1.00  0.00     0.000 C 
BRANCH  10  11
ATOM     11  C   UNL     1      64.707  36.729  57.403  1.00  0.00     0.000 C 
BRANCH  11  12
ATOM     12  C   UNL     1      65.527  36.775  58.701  1.00  0.00     0.000 C 
BRANCH  12  13
ATOM     13  C   UNL     1      66.821  35.965  58.561  1.00  0.00     0.006 C 
BRANCH  13  14
ATOM     14  C   UNL     1      67.581  36.359  57.289  1.00  0.00     0.053 C 
BRANCH  14  15
ATOM     15  C   UNL     1      68.915  35.681  57.221  1.00  0.00     0.041 C 
ATOM     16  O   UNL     1      69.395  35.118  58.240  1.00  0.00    -0.550 OA
ATOM     17  O   UNL     1      69.643  35.696  56.035  1.00  0.00    -0.550 OA
ENDBRANCH  14  15
ENDBRANCH  13  14
ENDBRANCH  12  13
ENDBRANCH  11  12
ENDBRANCH  10  11
ENDBRANCH   9  10
ENDBRANCH   8   9
ENDBRANCH   7   8
ENDBRANCH   6   7
ENDBRANCH   5   6
ENDBRANCH   4   5
ENDBRANCH   3   4
ENDBRANCH   2   3
ENDBRANCH   1   2
BRANCH   1  18
ATOM     18  C   UNL     1      63.481  31.101  57.877  1.00  0.00     0.000 C 
BRANCH  18  19
ATOM     19  C   UNL     1      61.994  30.755  57.649  1.00  0.00     0.000 C 
BRANCH  19  20
ATOM     20  C   UNL     1      61.045  31.551  58.564  1.00  0.00     0.000 C 
BRANCH  20  21
ATOM     21  C   UNL     1      60.383  30.663  59.632  1.00  0.00     0.000 C 
BRANCH  21  22
ATOM     22  C   UNL     1      60.914  30.956  61.046  1.00  0.00     0.000 C 
BRANCH  22  23
ATOM     23  C   UNL     1      61.813  29.834  61.595  1.00  0.00     0.000 C 
BRANCH  23  24
ATOM     24  C   UNL     1      63.322  30.039  61.369  1.00  0.00    -0.000 C 
BRANCH  24  25
ATOM     25  C   UNL     1      63.973  28.887  60.584  1.00  0.00    -0.000 C 
BRANCH  25  26
ATOM     26  C   UNL     1      62.970  27.783  60.217  1.00  0.00    -0.000 C 
BRANCH  26  27
ATOM     27  C   UNL     1      63.565  26.371  60.370  1.00  0.00    -0.000 C 
BRANCH  27  28
ATOM     28  C   UNL     1      62.758  25.487  61.335  1.00  0.00    -0.000 C 
BRANCH  28  29
ATOM     29  C   UNL     1      61.440  26.140  61.776  1.00  0.00    -0.000 C 
BRANCH  29  30
ATOM     30  C   UNL     1      60.234  25.348  61.247  1.00  0.00    -0.000 C 
BRANCH  30  31
ATOM     31  C   UNL     1      58.912  26.116  61.404  1.00  0.00    -0.003 C 
ATOM     32  C   UNL     1      58.935  27.480  60.711  1.00  0.00     0.004 C 
ENDBRANCH  30  31
ENDBRANCH  29  30
ENDBRANCH  28  29
ENDBRANCH  27  28
ENDBRANCH  26  27
ENDBRANCH  25  26
ENDBRANCH  24  25
ENDBRANCH  23  24
ENDBRANCH  22  23
ENDBRANCH  21  22
ENDBRANCH  20  21
ENDBRANCH  19  20
ENDBRANCH  18  19
ENDBRANCH   1  18
TORSDOF 28
ENDMDL
MODEL 5
REMARK VINA RESULT:    -2.954      2.186      4.904
REMARK INTER + INTRA:         -13.475
REMARK INTER:                  -7.490
REMARK INTRA:                  -5.985
REMARK UNBOUND:                -5.685
REMARK SMILES CCCCCCCCCCCCCCCCCCCCCCCCCCCCCC(=O)[O-]
REMARK SMILES IDX 16 1 17 2 18 3 19 4 20 5 21 6 22 7 23 8 24 9 25 10 26 11
REMARK SMILES IDX 27 12 28 13 29 14 30 15 31 16 32 17 15 18 14 19 13 20 12 21
REMARK SMILES IDX 11 22 10 23 9 24 8 25 7 26 6 27 5 28 4 29 3 30 2 31 1 32
REMARK H PARENT
REMARK Flexibility Score: inf
ROOT
ATOM      1  C   UNL     1      63.983  33.234  58.740  1.00  0.00     0.000 C 
ENDROOT
BRANCH   1   2
ATOM      2  C   UNL     1      63.191  32.103  58.057  1.00  0.00     0.000 C 
BRANCH   2   3
ATOM      3  C   UNL     1      61.714  32.425  57.743  1.00  0.00     0.000 C 
BRANCH   3   4
ATOM      4  C   UNL     1      60.766  32.389  58.955  1.00  0.00     0.000 C 
BRANCH   4   5
ATOM      5  C   UNL     1      60.673  30.994  59.598  1.00  0.00     0.000 C 
BRANCH   5   6
ATOM      6  C   UNL     1      60.826  31.026  61.131  1.00  0.00     0.000 C 
BRANCH   6   7
ATOM      7  C   UNL     1      61.759  29.952  61.719  1.00  0.00     0.000 C 
BRANCH   7   8
ATOM      8  C   UNL     1      62.992  29.684  60.839  1.00  0.00     0.000 C 
BRANCH   8   9
ATOM      9  C   UNL     1      63.158  28.195  60.491  1.00  0.00     0.000 C 
BRANCH   9  10
ATOM     10  C   UNL     1      62.376  27.723  59.245  1.00  0.00     0.000 C 
BRANCH  10  11
ATOM     11  C   UNL     1      61.021  27.053  59.541  1.00  0.00     0.000 C 
BRANCH  11  12
ATOM     12  C   UNL     1      59.933  27.436  58.526  1.00  0.00     0.000 C 
BRANCH  12  13
ATOM     13  C   UNL     1      58.653  27.887  59.238  1.00  0.00     0.006 C 
BRANCH  13  14
ATOM     14  C   UNL     1      58.831  27.853  60.761  1.00  0.00     0.053 C 
BRANCH  14  15
ATOM     15  C   UNL     1      57.781  27.004  61.412  1.00  0.00     0.041 C 
ATOM     16  O   UNL     1      56.659  27.494  61.705  1.00  0.00    -0.550 OA
ATOM     17  O   UNL     1      58.055  25.676  61.721  1.00  0.00    -0.550 OA
ENDBRANCH  14  15
ENDBRANCH  13  14
ENDBRANCH  12  13
ENDBRANCH  11  12
ENDBRANCH  10  11
ENDBRANCH   9  10
ENDBRANCH   8   9
ENDBRANCH   7   8
ENDBRANCH   6   7
ENDBRANCH   5   6
ENDBRANCH   4   5
ENDBRANCH   3   4
ENDBRANCH   2   3
ENDBRANCH   1   2
BRANCH   1  18
ATOM     18  C   UNL     1      64.164  33.087  60.264  1.00  0.00     0.000 C 
BRANCH  18  19
ATOM     19  C   UNL     1      64.063  34.418  61.040  1.00  0.00     0.000 C 
BRANCH  19  20
ATOM     20  C   UNL     1      63.194  35.467  60.324  1.00  0.00     0.000 C 
BRANCH  20  21
ATOM     21  C   UNL     1      61.719  35.397  60.755  1.00  0.00     0.000 C 
BRANCH  21  22
ATOM     22  C   UNL     1      60.825  36.344  59.936  1.00  0.00     0.000 C 
BRANCH  22  23
ATOM     23  C   UNL     1      60.890  36.073  58.422  1.00  0.00     0.000 C 
BRANCH  23  24
ATOM     24  C   UNL     1      59.533  35.799  57.750  1.00  0.00    -0.000 C 
BRANCH  24  25
ATOM     25  C   UNL     1      59.671  35.227  56.328  1.00  0.00    -0.000 C 
BRANCH  25  26
ATOM     26  C   UNL     1      58.469  34.361  55.923  1.00  0.00    -0.000 C 
BRANCH  26  27
ATOM     27  C   UNL     1      57.760  33.731  57.137  1.00  0.00    -0.000 C 
BRANCH  27  28
ATOM     28  C   UNL     1      57.055  32.410  56.794  1.00  0.00    -0.000 C 
BRANCH  28  29
ATOM     29  C   UNL     1      57.592  31.222  57.607  1.00  0.00    -0.000 C 
BRANCH  29  30
ATOM     30  C   UNL     1      58.449  30.300  56.726  1.00  0.00    -0.000 C 
BRANCH  30  31
ATOM     31  C   UNL     1      58.506  30.770  55.263  1.00  0.00    -0.003 C 
ATOM     32  C   UNL     1      59.936  31.005  54.775  1.00  0.00     0.004 C 
ENDBRANCH  30  31
ENDBRANCH  29  30
ENDBRANCH  28  29
ENDBRANCH  27  28
ENDBRANCH  26  27
ENDBRANCH  25  26
ENDBRANCH  24  25
ENDBRANCH  23  24
ENDBRANCH  22  23
ENDBRANCH  21  22
ENDBRANCH  20  21
ENDBRANCH  19  20
ENDBRANCH  18  19
ENDBRANCH   1  18
TORSDOF 28
ENDMDL
MODEL 6
REMARK VINA RESULT:    -2.943      2.530      6.523
REMARK INTER + INTRA:         -13.445
REMARK INTER:                  -7.505
REMARK INTRA:                  -5.939
REMARK UNBOUND:                -5.685
REMARK SMILES CCCCCCCCCCCCCCCCCCCCCCCCCCCCCC(=O)[O-]
REMARK SMILES IDX 16 1 17 2 18 3 19 4 20 5 21 6 22 7 23 8 24 9 25 10 26 11
REMARK SMILES IDX 27 12 28 13 29 14 30 15 31 16 32 17 15 18 14 19 13 20 12 21
REMARK SMILES IDX 11 22 10 23 9 24 8 25 7 26 6 27 5 28 4 29 3 30 2 31 1 32
REMARK H PARENT
REMARK Flexibility Score: inf
ROOT
ATOM      1  C   UNL     1      62.064  31.835  59.929  1.00  0.00     0.000 C 
ENDROOT
BRANCH   1   2
ATOM      2  C   UNL     1      62.987  33.016  60.285  1.00  0.00     0.000 C 
BRANCH   2   3
ATOM      3  C   UNL     1      62.310  34.404  60.296  1.00  0.00     0.000 C 
BRANCH   3   4
ATOM      4  C   UNL     1      63.190  35.556  60.816  1.00  0.00     0.000 C 
BRANCH   4   5
ATOM      5  C   UNL     1      64.510  35.065  61.434  1.00  0.00     0.000 C 
BRANCH   5   6
ATOM      6  C   UNL     1      65.755  35.615  60.712  1.00  0.00     0.000 C 
BRANCH   6   7
ATOM      7  C   UNL     1      65.509  36.129  59.282  1.00  0.00     0.000 C 
BRANCH   7   8
ATOM      8  C   UNL     1      66.221  35.284  58.212  1.00  0.00     0.000 C 
BRANCH   8   9
ATOM      9  C   UNL     1      65.344  34.136  57.683  1.00  0.00     0.000 C 
BRANCH   9  10
ATOM     10  C   UNL     1      66.066  32.779  57.529  1.00  0.00     0.000 C 
BRANCH  10  11
ATOM     11  C   UNL     1      65.188  31.539  57.784  1.00  0.00     0.000 C 
BRANCH  11  12
ATOM     12  C   UNL     1      65.955  30.399  58.471  1.00  0.00     0.000 C 
BRANCH  12  13
ATOM     13  C   UNL     1      65.259  29.973  59.768  1.00  0.00     0.006 C 
BRANCH  13  14
ATOM     14  C   UNL     1      66.065  28.888  60.493  1.00  0.00     0.053 C 
BRANCH  14  15
ATOM     15  C   UNL     1      66.096  27.615  59.703  1.00  0.00     0.041 C 
ATOM     16  O   UNL     1      65.109  26.834  59.717  1.00  0.00    -0.550 OA
ATOM     17  O   UNL     1      67.232  27.280  58.971  1.00  0.00    -0.550 OA
ENDBRANCH  14  15
ENDBRANCH  13  14
ENDBRANCH  12  13
ENDBRANCH  11  12
ENDBRANCH  10  11
ENDBRANCH   9  10
ENDBRANCH   8   9
ENDBRANCH   7   8
ENDBRANCH   6   7
ENDBRANCH   5   6
ENDBRANCH   4   5
ENDBRANCH   3   4
ENDBRANCH   2   3
ENDBRANCH   1   2
BRANCH   1  18
ATOM     18  C   UNL     1      60.843  31.649  60.852  1.00  0.00     0.000 C 
BRANCH  18  19
ATOM     19  C   UNL     1      60.841  30.317  61.633  1.00  0.00     0.000 C 
BRANCH  19  20
ATOM     20  C   UNL     1      62.193  29.582  61.569  1.00  0.00     0.000 C 
BRANCH  20  21
ATOM     21  C   UNL     1      62.085  28.225  60.853  1.00  0.00     0.000 C 
BRANCH  21  22
ATOM     22  C   UNL     1      60.631  27.862  60.503  1.00  0.00     0.000 C 
BRANCH  22  23
ATOM     23  C   UNL     1      60.376  27.800  58.986  1.00  0.00     0.000 C 
BRANCH  23  24
ATOM     24  C   UNL     1      61.427  28.516  58.119  1.00  0.00    -0.000 C 
BRANCH  24  25
ATOM     25  C   UNL     1      60.835  29.664  57.283  1.00  0.00    -0.000 C 
BRANCH  25  26
ATOM     26  C   UNL     1      59.315  29.799  57.462  1.00  0.00    -0.000 C 
BRANCH  26  27
ATOM     27  C   UNL     1      58.903  31.196  57.964  1.00  0.00    -0.000 C 
BRANCH  27  28
ATOM     28  C   UNL     1      59.190  32.304  56.939  1.00  0.00    -0.000 C 
BRANCH  28  29
ATOM     29  C   UNL     1      59.665  33.610  57.595  1.00  0.00    -0.000 C 
BRANCH  29  30
ATOM     30  C   UNL     1      60.830  34.225  56.805  1.00  0.00    -0.000 C 
BRANCH  30  31
ATOM     31  C   UNL     1      62.034  33.275  56.697  1.00  0.00    -0.003 C 
ATOM     32  C   UNL     1      62.370  32.911  55.250  1.00  0.00     0.004 C 
ENDBRANCH  30  31
ENDBRANCH  29  30
ENDBRANCH  28  29
ENDBRANCH  27  28
ENDBRANCH  26  27
ENDBRANCH  25  26
ENDBRANCH  24  25
ENDBRANCH  23  24
ENDBRANCH  22  23
ENDBRANCH  21  22
ENDBRANCH  20  21
ENDBRANCH  19  20
ENDBRANCH  18  19
ENDBRANCH   1  18
TORSDOF 28
ENDMDL
MODEL 7
REMARK VINA RESULT:    -2.943      4.740      6.845
REMARK INTER + INTRA:         -13.445
REMARK INTER:                  -9.783
REMARK INTRA:                  -3.662
REMARK UNBOUND:                -5.685
REMARK SMILES CCCCCCCCCCCCCCCCCCCCCCCCCCCCCC(=O)[O-]
REMARK SMILES IDX 16 1 17 2 18 3 19 4 20 5 21 6 22 7 23 8 24 9 25 10 26 11
REMARK SMILES IDX 27 12 28 13 29 14 30 15 31 16 32 17 15 18 14 19 13 20 12 21
REMARK SMILES IDX 11 22 10 23 9 24 8 25 7 26 6 27 5 28 4 29 3 30 2 31 1 32
REMARK H PARENT
REMARK Flexibility Score: inf
ROOT
ATOM      1  C   UNL     1      61.158  31.883  60.629  1.00  0.00     0.000 C 
ENDROOT
BRANCH   1   2
ATOM      2  C   UNL     1      60.873  30.582  61.402  1.00  0.00     0.000 C 
BRANCH   2   3
ATOM      3  C   UNL     1      62.015  29.542  61.391  1.00  0.00     0.000 C 
BRANCH   3   4
ATOM      4  C   UNL     1      63.432  30.128  61.260  1.00  0.00     0.000 C 
BRANCH   4   5
ATOM      5  C   UNL     1      64.266  29.435  60.168  1.00  0.00     0.000 C 
BRANCH   5   6
ATOM      6  C   UNL     1      65.652  28.981  60.665  1.00  0.00     0.000 C 
BRANCH   6   7
ATOM      7  C   UNL     1      66.324  27.884  59.819  1.00  0.00     0.000 C 
BRANCH   7   8
ATOM      8  C   UNL     1      67.739  28.269  59.355  1.00  0.00     0.000 C 
BRANCH   8   9
ATOM      9  C   UNL     1      68.830  27.814  60.341  1.00  0.00     0.000 C 
BRANCH   9  10
ATOM     10  C   UNL     1      70.215  27.556  59.709  1.00  0.00     0.000 C 
BRANCH  10  11
ATOM     11  C   UNL     1      71.061  28.817  59.452  1.00  0.00     0.000 C 
BRANCH  11  12
ATOM     12  C   UNL     1      70.955  29.846  60.587  1.00  0.00     0.000 C 
BRANCH  12  13
ATOM     13  C   UNL     1      72.006  30.950  60.427  1.00  0.00     0.006 C 
BRANCH  13  14
ATOM     14  C   UNL     1      71.868  31.646  59.067  1.00  0.00     0.053 C 
BRANCH  14  15
ATOM     15  C   UNL     1      71.295  33.022  59.216  1.00  0.00     0.041 C 
ATOM     16  O   UNL     1      70.927  33.672  58.202  1.00  0.00    -0.550 OA
ATOM     17  O   UNL     1      71.192  33.599  60.479  1.00  0.00    -0.550 OA
ENDBRANCH  14  15
ENDBRANCH  13  14
ENDBRANCH  12  13
ENDBRANCH  11  12
ENDBRANCH  10  11
ENDBRANCH   9  10
ENDBRANCH   8   9
ENDBRANCH   7   8
ENDBRANCH   6   7
ENDBRANCH   5   6
ENDBRANCH   4   5
ENDBRANCH   3   4
ENDBRANCH   2   3
ENDBRANCH   1   2
BRANCH   1  18
ATOM     18  C   UNL     1      61.021  31.786  59.097  1.00  0.00     0.000 C 
BRANCH  18  19
ATOM     19  C   UNL     1      59.700  31.141  58.624  1.00  0.00     0.000 C 
BRANCH  19  20
ATOM     20  C   UNL     1      58.887  32.053  57.687  1.00  0.00     0.000 C 
BRANCH  20  21
ATOM     21  C   UNL     1      59.568  33.415  57.464  1.00  0.00     0.000 C 
BRANCH  21  22
ATOM     22  C   UNL     1      58.624  34.595  57.752  1.00  0.00     0.000 C 
BRANCH  22  23
ATOM     23  C   UNL     1      59.316  35.750  58.498  1.00  0.00     0.000 C 
BRANCH  23  24
ATOM     24  C   UNL     1      60.794  35.505  58.849  1.00  0.00    -0.000 C 
BRANCH  24  25
ATOM     25  C   UNL     1      61.081  35.624  60.356  1.00  0.00    -0.000 C 
BRANCH  25  26
ATOM     26  C   UNL     1      61.799  36.934  60.717  1.00  0.00    -0.000 C 
BRANCH  26  27
ATOM     27  C   UNL     1      63.320  36.854  60.489  1.00  0.00    -0.000 C 
BRANCH  27  28
ATOM     28  C   UNL     1      64.007  35.840  61.417  1.00  0.00    -0.000 C 
BRANCH  28  29
ATOM     29  C   UNL     1      64.997  34.931  60.673  1.00  0.00    -0.000 C 
BRANCH  29  30
ATOM     30  C   UNL     1      64.435  33.507  60.539  1.00  0.00    -0.000 C 
BRANCH  30  31
ATOM     31  C   UNL     1      64.549  32.962  59.106  1.00  0.00    -0.003 C 
ATOM     32  C   UNL     1      63.970  33.918  58.063  1.00  0.00     0.004 C 
ENDBRANCH  30  31
ENDBRANCH  29  30
ENDBRANCH  28  29
ENDBRANCH  27  28
ENDBRANCH  26  27
ENDBRANCH  25  26
ENDBRANCH  24  25
ENDBRANCH  23  24
ENDBRANCH  22  23
ENDBRANCH  21  22
ENDBRANCH  20  21
ENDBRANCH  19  20
ENDBRANCH  18  19
ENDBRANCH   1  18
TORSDOF 28
ENDMDL
MODEL 8
REMARK VINA RESULT:    -2.921      4.436      7.115
REMARK INTER + INTRA:         -13.387
REMARK INTER:                  -7.591
REMARK INTRA:                  -5.796
REMARK UNBOUND:                -5.685
REMARK SMILES CCCCCCCCCCCCCCCCCCCCCCCCCCCCCC(=O)[O-]
REMARK SMILES IDX 16 1 17 2 18 3 19 4 20 5 21 6 22 7 23 8 24 9 25 10 26 11
REMARK SMILES IDX 27 12 28 13 29 14 30 15 31 16 32 17 15 18 14 19 13 20 12 21
REMARK SMILES IDX 11 22 10 23 9 24 8 25 7 26 6 27 5 28 4 29 3 30 2 31 1 32
REMARK H PARENT
REMARK Flexibility Score: inf
ROOT
ATOM      1  C   UNL     1      61.206  32.870  59.293  1.00  0.00     0.000 C 
ENDROOT
BRANCH   1   2
ATOM      2  C   UNL     1      60.696  31.487  59.739  1.00  0.00     0.000 C 
BRANCH   2   3
ATOM      3  C   UNL     1      60.974  31.123  61.214  1.00  0.00     0.000 C 
BRANCH   3   4
ATOM      4  C   UNL     1      61.578  29.726  61.440  1.00  0.00     0.000 C 
BRANCH   4   5
ATOM      5  C   UNL     1      62.858  29.489  60.619  1.00  0.00     0.000 C 
BRANCH   5   6
ATOM      6  C   UNL     1      64.042  30.359  61.084  1.00  0.00     0.000 C 
BRANCH   6   7
ATOM      7  C   UNL     1      64.817  31.066  59.958  1.00  0.00     0.000 C 
BRANCH   7   8
ATOM      8  C   UNL     1      64.201  30.832  58.569  1.00  0.00     0.000 C 
BRANCH   8   9
ATOM      9  C   UNL     1      65.166  30.118  57.605  1.00  0.00     0.000 C 
BRANCH   9  10
ATOM     10  C   UNL     1      66.650  30.520  57.750  1.00  0.00     0.000 C 
BRANCH  10  11
ATOM     11  C   UNL     1      67.157  31.534  56.707  1.00  0.00     0.000 C 
BRANCH  11  12
ATOM     12  C   UNL     1      68.582  32.026  56.999  1.00  0.00     0.000 C 
BRANCH  12  13
ATOM     13  C   UNL     1      68.662  33.555  56.916  1.00  0.00     0.006 C 
BRANCH  13  14
ATOM     14  C   UNL     1      70.093  34.014  56.609  1.00  0.00     0.053 C 
BRANCH  14  15
ATOM     15  C   UNL     1      70.633  34.880  57.706  1.00  0.00     0.041 C 
ATOM     16  O   UNL     1      70.480  34.548  58.912  1.00  0.00    -0.550 OA
ATOM     17  O   UNL     1      71.283  36.070  57.396  1.00  0.00    -0.550 OA
ENDBRANCH  14  15
ENDBRANCH  13  14
ENDBRANCH  12  13
ENDBRANCH  11  12
ENDBRANCH  10  11
ENDBRANCH   9  10
ENDBRANCH   8   9
ENDBRANCH   7   8
ENDBRANCH   6   7
ENDBRANCH   5   6
ENDBRANCH   4   5
ENDBRANCH   3   4
ENDBRANCH   2   3
ENDBRANCH   1   2
BRANCH   1  18
ATOM     18  C   UNL     1      62.198  33.552  60.257  1.00  0.00     0.000 C 
BRANCH  18  19
ATOM     19  C   UNL     1      61.837  35.013  60.600  1.00  0.00     0.000 C 
BRANCH  19  20
ATOM     20  C   UNL     1      63.074  35.898  60.836  1.00  0.00     0.000 C 
BRANCH  20  21
ATOM     21  C   UNL     1      64.312  35.076  61.235  1.00  0.00     0.000 C 
BRANCH  21  22
ATOM     22  C   UNL     1      65.611  35.650  60.642  1.00  0.00     0.000 C 
BRANCH  22  23
ATOM     23  C   UNL     1      65.600  35.696  59.103  1.00  0.00     0.000 C 
BRANCH  23  24
ATOM     24  C   UNL     1      65.441  34.331  58.412  1.00  0.00    -0.000 C 
BRANCH  24  25
ATOM     25  C   UNL     1      64.432  34.359  57.250  1.00  0.00    -0.000 C 
BRANCH  25  26
ATOM     26  C   UNL     1      63.708  35.709  57.133  1.00  0.00    -0.000 C 
BRANCH  26  27
ATOM     27  C   UNL     1      62.179  35.551  57.036  1.00  0.00    -0.000 C 
BRANCH  27  28
ATOM     28  C   UNL     1      61.686  35.414  55.587  1.00  0.00    -0.000 C 
BRANCH  28  29
ATOM     29  C   UNL     1      60.792  34.183  55.379  1.00  0.00    -0.000 C 
BRANCH  29  30
ATOM     30  C   UNL     1      61.584  32.887  55.608  1.00  0.00    -0.000 C 
BRANCH  30  31
ATOM     31  C   UNL     1      60.674  31.653  55.719  1.00  0.00    -0.003 C 
ATOM     32  C   UNL     1      61.399  30.434  56.292  1.00  0.00     0.004 C 
ENDBRANCH  30  31
ENDBRANCH  29  30
ENDBRANCH  28  29
ENDBRANCH  27  28
ENDBRANCH  26  27
ENDBRANCH  25  26
ENDBRANCH  24  25
ENDBRANCH  23  24
ENDBRANCH  22  23
ENDBRANCH  21  22
ENDBRANCH  20  21
ENDBRANCH  19  20
ENDBRANCH  18  19
ENDBRANCH   1  18
TORSDOF 28
ENDMDL
MODEL 9
REMARK VINA RESULT:    -2.918      3.626      5.914
REMARK INTER + INTRA:         -13.378
REMARK INTER:                  -7.154
REMARK INTRA:                  -6.224
REMARK UNBOUND:                -5.685
REMARK SMILES CCCCCCCCCCCCCCCCCCCCCCCCCCCCCC(=O)[O-]
REMARK SMILES IDX 16 1 17 2 18 3 19 4 20 5 21 6 22 7 23 8 24 9 25 10 26 11
REMARK SMILES IDX 27 12 28 13 29 14 30 15 31 16 32 17 15 18 14 19 13 20 12 21
REMARK SMILES IDX 11 22 10 23 9 24 8 25 7 26 6 27 5 28 4 29 3 30 2 31 1 32
REMARK H PARENT
REMARK Flexibility Score: inf
ROOT
ATOM      1  C   UNL     1      64.009  31.318  58.468  1.00  0.00     0.000 C 
ENDROOT
BRANCH   1   2
ATOM      2  C   UNL     1      64.602  31.449  59.883  1.00  0.00     0.000 C 
BRANCH   2   3
ATOM      3  C   UNL     1      63.575  31.424  61.036  1.00  0.00     0.000 C 
BRANCH   3   4
ATOM      4  C   UNL     1      62.110  31.632  60.612  1.00  0.00     0.000 C 
BRANCH   4   5
ATOM      5  C   UNL     1      61.145  30.651  61.300  1.00  0.00     0.000 C 
BRANCH   5   6
ATOM      6  C   UNL     1      61.676  29.205  61.333  1.00  0.00     0.000 C 
BRANCH   6   7
ATOM      7  C   UNL     1      61.463  28.399  60.040  1.00  0.00     0.000 C 
BRANCH   7   8
ATOM      8  C   UNL     1      62.782  27.932  59.400  1.00  0.00     0.000 C 
BRANCH   8   9
ATOM      9  C   UNL     1      63.899  27.717  60.436  1.00  0.00     0.000 C 
BRANCH   9  10
ATOM     10  C   UNL     1      65.334  27.912  59.900  1.00  0.00     0.000 C 
BRANCH  10  11
ATOM     11  C   UNL     1      65.459  27.945  58.365  1.00  0.00     0.000 C 
BRANCH  11  12
ATOM     12  C   UNL     1      66.856  28.372  57.891  1.00  0.00     0.000 C 
BRANCH  12  13
ATOM     13  C   UNL     1      67.677  28.949  59.050  1.00  0.00     0.006 C 
BRANCH  13  14
ATOM     14  C   UNL     1      68.853  29.783  58.528  1.00  0.00     0.053 C 
BRANCH  14  15
ATOM     15  C   UNL     1      70.148  29.334  59.132  1.00  0.00     0.041 C 
ATOM     16  O   UNL     1      70.973  28.672  58.449  1.00  0.00    -0.550 OA
ATOM     17  O   UNL     1      70.432  29.623  60.464  1.00  0.00    -0.550 OA
ENDBRANCH  14  15
ENDBRANCH  13  14
ENDBRANCH  12  13
ENDBRANCH  11  12
ENDBRANCH  10  11
ENDBRANCH   9  10
ENDBRANCH   8   9
ENDBRANCH   7   8
ENDBRANCH   6   7
ENDBRANCH   5   6
ENDBRANCH   4   5
ENDBRANCH   3   4
ENDBRANCH   2   3
ENDBRANCH   1   2
BRANCH   1  18
ATOM     18  C   UNL     1      64.987  31.610  57.312  1.00  0.00     0.000 C 
BRANCH  18  19
ATOM     19  C   UNL     1      64.751  32.968  56.616  1.00  0.00     0.000 C 
BRANCH  19  20
ATOM     20  C   UNL     1      65.556  34.116  57.251  1.00  0.00     0.000 C 
BRANCH  20  21
ATOM     21  C   UNL     1      64.726  35.404  57.389  1.00  0.00     0.000 C 
BRANCH  21  22
ATOM     22  C   UNL     1      64.876  36.050  58.778  1.00  0.00     0.000 C 
BRANCH  22  23
ATOM     23  C   UNL     1      65.240  35.035  59.877  1.00  0.00     0.000 C 
BRANCH  23  24
ATOM     24  C   UNL     1      64.301  35.031  61.096  1.00  0.00    -0.000 C 
BRANCH  24  25
ATOM     25  C   UNL     1      63.101  35.981  60.933  1.00  0.00    -0.000 C 
BRANCH  25  26
ATOM     26  C   UNL     1      61.782  35.229  60.705  1.00  0.00    -0.000 C 
BRANCH  26  27
ATOM     27  C   UNL     1      60.961  35.819  59.543  1.00  0.00    -0.000 C 
BRANCH  27  28
ATOM     28  C   UNL     1      60.342  34.737  58.643  1.00  0.00    -0.000 C 
BRANCH  28  29
ATOM     29  C   UNL     1      61.397  33.940  57.862  1.00  0.00    -0.000 C 
BRANCH  29  30
ATOM     30  C   UNL     1      60.785  32.666  57.260  1.00  0.00    -0.000 C 
BRANCH  30  31
ATOM     31  C   UNL     1      59.413  32.330  57.866  1.00  0.00    -0.003 C 
ATOM     32  C   UNL     1      59.241  30.836  58.145  1.00  0.00     0.004 C 
ENDBRANCH  30  31
ENDBRANCH  29  30
ENDBRANCH  28  29
ENDBRANCH  27  28
ENDBRANCH  26  27
ENDBRANCH  25  26
ENDBRANCH  24  25
ENDBRANCH  23  24
ENDBRANCH  22  23
ENDBRANCH  21  22
ENDBRANCH  20  21
ENDBRANCH  19  20
ENDBRANCH  18  19
ENDBRANCH   1  18
TORSDOF 28
ENDMDL
