MODEL 1
REMARK VINA RESULT:    -7.033      0.000      0.000
REMARK INTER + INTRA:          -9.299
REMARK INTER:                  -8.883
REMARK INTRA:                  -0.416
REMARK UNBOUND:                -0.416
REMARK SMILES Oc1ccc(CCc2cc(O)cc(O)c2)cc1
REMARK SMILES IDX 6 1 5 2 4 3 3 4 2 5 16 6 17 7 1 8 7 10 8 11 15 12 9 13 13 14
REMARK SMILES IDX 10 15 12 16 14 17 11 19
REMARK H PARENT 1 9 14 18 11 20
REMARK Flexibility Score: inf
ROOT
ATOM      1  C   UNL     1     -12.788   7.697  34.570  1.00  0.00     0.040 C 
ENDROOT
BRANCH   1   2
ATOM      2  C   UNL     1     -13.663   6.507  34.278  1.00  0.00    -0.047 A 
ATOM      3  C   UNL     1     -13.253   5.217  34.651  1.00  0.00     0.007 A 
ATOM      4  C   UNL     1     -14.051   4.109  34.351  1.00  0.00     0.046 A 
ATOM      5  C   UNL     1     -15.260   4.277  33.667  1.00  0.00     0.115 A 
ATOM      6  C   UNL     1     -14.871   6.672  33.581  1.00  0.00     0.007 A 
ATOM      7  C   UNL     1     -15.667   5.562  33.280  1.00  0.00     0.046 A 
BRANCH   5   8
ATOM      8  O   UNL     1     -16.045   3.165  33.374  1.00  0.00    -0.508 OA
ATOM      9  H   UNL     1     -15.644   2.323  32.978  1.00  0.00     0.293 HD
ENDBRANCH   5   8
ENDBRANCH   1   2
BRANCH   1  10
ATOM     10  C   UNL     1     -11.402   7.243  35.039  1.00  0.00     0.040 C 
BRANCH  10  11
ATOM     11  C   UNL     1     -10.676   8.376  35.714  1.00  0.00    -0.040 A 
ATOM     12  C   UNL     1     -11.272   9.643  35.807  1.00  0.00     0.050 A 
ATOM     13  C   UNL     1      -9.420   8.159  36.304  1.00  0.00     0.050 A 
ATOM     14  C   UNL     1     -10.610  10.690  36.463  1.00  0.00     0.119 A 
ATOM     15  C   UNL     1      -8.756   9.202  36.959  1.00  0.00     0.119 A 
ATOM     16  C   UNL     1      -9.353  10.468  37.035  1.00  0.00     0.092 A 
BRANCH  14  17
ATOM     17  O   UNL     1     -11.192  11.952  36.554  1.00  0.00    -0.508 OA
ATOM     18  H   UNL     1     -10.778  12.760  36.105  1.00  0.00     0.293 HD
ENDBRANCH  14  17
BRANCH  15  19
ATOM     19  O   UNL     1      -7.509   8.970  37.533  1.00  0.00    -0.508 OA
ATOM     20  H   UNL     1      -7.416   8.687  38.501  1.00  0.00     0.293 HD
ENDBRANCH  15  19
ENDBRANCH  10  11
ENDBRANCH   1  10
TORSDOF 6
ENDMDL
MODEL 2
REMARK VINA RESULT:    -7.016      0.640      2.371
REMARK INTER + INTRA:          -9.278
REMARK INTER:                  -8.869
REMARK INTRA:                  -0.410
REMARK UNBOUND:                -0.416
REMARK SMILES Oc1ccc(CCc2cc(O)cc(O)c2)cc1
REMARK SMILES IDX 6 1 5 2 4 3 3 4 2 5 16 6 17 7 1 8 7 10 8 11 15 12 9 13 13 14
REMARK SMILES IDX 10 15 12 16 14 17 11 19
REMARK H PARENT 1 9 14 18 11 20
REMARK Flexibility Score: inf
ROOT
ATOM      1  C   UNL     1     -12.450   7.434  34.630  1.00  0.00     0.040 C 
ENDROOT
BRANCH   1   2
ATOM      2  C   UNL     1     -13.398   6.313  34.297  1.00  0.00    -0.047 A 
ATOM      3  C   UNL     1     -14.620   6.584  33.661  1.00  0.00     0.007 A 
ATOM      4  C   UNL     1     -15.515   5.547  33.380  1.00  0.00     0.046 A 
ATOM      5  C   UNL     1     -15.203   4.232  33.741  1.00  0.00     0.115 A 
ATOM      6  C   UNL     1     -13.093   4.994  34.670  1.00  0.00     0.007 A 
ATOM      7  C   UNL     1     -13.990   3.958  34.389  1.00  0.00     0.046 A 
BRANCH   5   8
ATOM      8  O   UNL     1     -16.103   3.208  33.456  1.00  0.00    -0.508 OA
ATOM      9  H   UNL     1     -16.818   2.931  34.119  1.00  0.00     0.293 HD
ENDBRANCH   5   8
ENDBRANCH   1   2
BRANCH   1  10
ATOM     10  C   UNL     1     -11.122   6.877  35.151  1.00  0.00     0.040 C 
BRANCH  10  11
ATOM     11  C   UNL     1     -10.299   7.972  35.777  1.00  0.00    -0.040 A 
ATOM     12  C   UNL     1      -8.902   7.855  35.845  1.00  0.00     0.050 A 
ATOM     13  C   UNL     1     -10.918   9.142  36.246  1.00  0.00     0.050 A 
ATOM     14  C   UNL     1      -8.132   8.889  36.398  1.00  0.00     0.119 A 
ATOM     15  C   UNL     1     -10.152  10.174  36.799  1.00  0.00     0.119 A 
ATOM     16  C   UNL     1      -8.759  10.044  36.876  1.00  0.00     0.092 A 
BRANCH  14  17
ATOM     17  O   UNL     1      -6.745   8.778  36.475  1.00  0.00    -0.508 OA
ATOM     18  H   UNL     1      -6.143   9.159  35.754  1.00  0.00     0.293 HD
ENDBRANCH  14  17
BRANCH  15  19
ATOM     19  O   UNL     1     -10.784  11.325  37.264  1.00  0.00    -0.508 OA
ATOM     20  H   UNL     1     -11.518  11.777  36.733  1.00  0.00     0.293 HD
ENDBRANCH  15  19
ENDBRANCH  10  11
ENDBRANCH   1  10
TORSDOF 6
ENDMDL
MODEL 3
REMARK VINA RESULT:    -6.970      1.647      7.319
REMARK INTER + INTRA:          -9.220
REMARK INTER:                  -8.815
REMARK INTRA:                  -0.404
REMARK UNBOUND:                -0.416
REMARK SMILES Oc1ccc(CCc2cc(O)cc(O)c2)cc1
REMARK SMILES IDX 6 1 5 2 4 3 3 4 2 5 16 6 17 7 1 8 7 10 8 11 15 12 9 13 13 14
REMARK SMILES IDX 10 15 12 16 14 17 11 19
REMARK H PARENT 1 9 14 18 11 20
REMARK Flexibility Score: inf
ROOT
ATOM      1  C   UNL     1     -11.653   7.856  35.512  1.00  0.00     0.040 C 
ENDROOT
BRANCH   1   2
ATOM      2  C   UNL     1     -10.233   8.280  35.775  1.00  0.00    -0.047 A 
ATOM      3  C   UNL     1      -9.163   7.529  35.262  1.00  0.00     0.007 A 
ATOM      4  C   UNL     1      -7.843   7.905  35.533  1.00  0.00     0.046 A 
ATOM      5  C   UNL     1      -7.581   9.026  36.327  1.00  0.00     0.115 A 
ATOM      6  C   UNL     1      -9.966   9.398  36.582  1.00  0.00     0.007 A 
ATOM      7  C   UNL     1      -8.645   9.771  36.853  1.00  0.00     0.046 A 
BRANCH   5   8
ATOM      8  O   UNL     1      -6.262   9.389  36.590  1.00  0.00    -0.508 OA
ATOM      9  H   UNL     1      -6.030  10.291  36.989  1.00  0.00     0.293 HD
ENDBRANCH   5   8
ENDBRANCH   1   2
BRANCH   1  10
ATOM     10  C   UNL     1     -11.686   6.525  34.755  1.00  0.00     0.040 C 
BRANCH  10  11
ATOM     11  C   UNL     1     -13.079   6.228  34.269  1.00  0.00    -0.040 A 
ATOM     12  C   UNL     1     -13.536   4.902  34.199  1.00  0.00     0.050 A 
ATOM     13  C   UNL     1     -13.951   7.276  33.936  1.00  0.00     0.050 A 
ATOM     14  C   UNL     1     -14.845   4.625  33.778  1.00  0.00     0.119 A 
ATOM     15  C   UNL     1     -15.258   7.003  33.515  1.00  0.00     0.119 A 
ATOM     16  C   UNL     1     -15.701   5.676  33.434  1.00  0.00     0.092 A 
BRANCH  14  17
ATOM     17  O   UNL     1     -15.303   3.312  33.700  1.00  0.00    -0.508 OA
ATOM     18  H   UNL     1     -16.053   3.050  33.071  1.00  0.00     0.293 HD
ENDBRANCH  14  17
BRANCH  15  19
ATOM     19  O   UNL     1     -16.107   8.056  33.182  1.00  0.00    -0.508 OA
ATOM     20  H   UNL     1     -16.919   8.279  33.745  1.00  0.00     0.293 HD
ENDBRANCH  15  19
ENDBRANCH  10  11
ENDBRANCH   1  10
TORSDOF 6
ENDMDL
MODEL 4
REMARK VINA RESULT:    -6.967      1.653      7.104
REMARK INTER + INTRA:          -9.216
REMARK INTER:                  -8.812
REMARK INTRA:                  -0.404
REMARK UNBOUND:                -0.416
REMARK SMILES Oc1ccc(CCc2cc(O)cc(O)c2)cc1
REMARK SMILES IDX 6 1 5 2 4 3 3 4 2 5 16 6 17 7 1 8 7 10 8 11 15 12 9 13 13 14
REMARK SMILES IDX 10 15 12 16 14 17 11 19
REMARK H PARENT 1 9 14 18 11 20
REMARK Flexibility Score: inf
ROOT
ATOM      1  C   UNL     1     -11.650   7.855  35.608  1.00  0.00     0.040 C 
ENDROOT
BRANCH   1   2
ATOM      2  C   UNL     1     -10.224   8.283  35.827  1.00  0.00    -0.047 A 
ATOM      3  C   UNL     1      -9.167   7.515  35.312  1.00  0.00     0.007 A 
ATOM      4  C   UNL     1      -7.841   7.895  35.543  1.00  0.00     0.046 A 
ATOM      5  C   UNL     1      -7.559   9.037  36.299  1.00  0.00     0.115 A 
ATOM      6  C   UNL     1      -9.937   9.422  36.596  1.00  0.00     0.007 A 
ATOM      7  C   UNL     1      -8.610   9.800  36.828  1.00  0.00     0.046 A 
BRANCH   5   8
ATOM      8  O   UNL     1      -6.234   9.404  36.523  1.00  0.00    -0.508 OA
ATOM      9  H   UNL     1      -5.942  10.375  36.504  1.00  0.00     0.293 HD
ENDBRANCH   5   8
ENDBRANCH   1   2
BRANCH   1  10
ATOM     10  C   UNL     1     -11.702   6.490  34.915  1.00  0.00     0.040 C 
BRANCH  10  11
ATOM     11  C   UNL     1     -13.095   6.199  34.425  1.00  0.00    -0.040 A 
ATOM     12  C   UNL     1     -13.934   7.247  34.012  1.00  0.00     0.050 A 
ATOM     13  C   UNL     1     -13.547   4.873  34.322  1.00  0.00     0.050 A 
ATOM     14  C   UNL     1     -15.220   6.974  33.524  1.00  0.00     0.119 A 
ATOM     15  C   UNL     1     -14.830   4.598  33.837  1.00  0.00     0.119 A 
ATOM     16  C   UNL     1     -15.666   5.651  33.440  1.00  0.00     0.092 A 
BRANCH  14  17
ATOM     17  O   UNL     1     -16.059   8.009  33.120  1.00  0.00    -0.508 OA
ATOM     18  H   UNL     1     -16.098   8.312  32.154  1.00  0.00     0.293 HD
ENDBRANCH  14  17
BRANCH  15  19
ATOM     19  O   UNL     1     -15.263   3.277  33.749  1.00  0.00    -0.508 OA
ATOM     20  H   UNL     1     -14.838   2.623  33.103  1.00  0.00     0.293 HD
ENDBRANCH  15  19
ENDBRANCH  10  11
ENDBRANCH   1  10
TORSDOF 6
ENDMDL
MODEL 5
REMARK VINA RESULT:    -6.919      1.986      3.171
REMARK INTER + INTRA:          -9.155
REMARK INTER:                  -8.641
REMARK INTRA:                  -0.514
REMARK UNBOUND:                -0.416
REMARK SMILES Oc1ccc(CCc2cc(O)cc(O)c2)cc1
REMARK SMILES IDX 6 1 5 2 4 3 3 4 2 5 16 6 17 7 1 8 7 10 8 11 15 12 9 13 13 14
REMARK SMILES IDX 10 15 12 16 14 17 11 19
REMARK H PARENT 1 9 14 18 11 20
REMARK Flexibility Score: inf
ROOT
ATOM      1  C   UNL     1     -11.295   5.496  35.273  1.00  0.00     0.040 C 
ENDROOT
BRANCH   1   2
ATOM      2  C   UNL     1     -12.630   5.717  34.613  1.00  0.00    -0.047 A 
ATOM      3  C   UNL     1     -13.123   7.019  34.431  1.00  0.00     0.007 A 
ATOM      4  C   UNL     1     -14.377   7.223  33.846  1.00  0.00     0.046 A 
ATOM      5  C   UNL     1     -15.154   6.130  33.449  1.00  0.00     0.115 A 
ATOM      6  C   UNL     1     -13.418   4.621  34.225  1.00  0.00     0.007 A 
ATOM      7  C   UNL     1     -14.672   4.827  33.641  1.00  0.00     0.046 A 
BRANCH   5   8
ATOM      8  O   UNL     1     -16.402   6.347  32.869  1.00  0.00    -0.508 OA
ATOM      9  H   UNL     1     -16.981   7.133  33.138  1.00  0.00     0.293 HD
ENDBRANCH   5   8
ENDBRANCH   1   2
BRANCH   1  10
ATOM     10  C   UNL     1     -10.157   5.706  34.269  1.00  0.00     0.040 C 
BRANCH  10  11
ATOM     11  C   UNL     1      -9.163   6.704  34.799  1.00  0.00    -0.040 A 
ATOM     12  C   UNL     1      -7.854   6.736  34.293  1.00  0.00     0.050 A 
ATOM     13  C   UNL     1      -9.553   7.648  35.762  1.00  0.00     0.050 A 
ATOM     14  C   UNL     1      -6.936   7.686  34.762  1.00  0.00     0.119 A 
ATOM     15  C   UNL     1      -8.639   8.598  36.233  1.00  0.00     0.119 A 
ATOM     16  C   UNL     1      -7.330   8.613  35.733  1.00  0.00     0.092 A 
BRANCH  14  17
ATOM     17  O   UNL     1      -5.634   7.719  34.270  1.00  0.00    -0.508 OA
ATOM     18  H   UNL     1      -5.272   6.979  33.680  1.00  0.00     0.293 HD
ENDBRANCH  14  17
BRANCH  15  19
ATOM     19  O   UNL     1      -9.043   9.522  37.194  1.00  0.00    -0.508 OA
ATOM     20  H   UNL     1      -9.988   9.531  37.556  1.00  0.00     0.293 HD
ENDBRANCH  15  19
ENDBRANCH  10  11
ENDBRANCH   1  10
TORSDOF 6
ENDMDL
MODEL 6
REMARK VINA RESULT:    -6.903      1.971      2.698
REMARK INTER + INTRA:          -9.136
REMARK INTER:                  -8.611
REMARK INTRA:                  -0.524
REMARK UNBOUND:                -0.416
REMARK SMILES Oc1ccc(CCc2cc(O)cc(O)c2)cc1
REMARK SMILES IDX 6 1 5 2 4 3 3 4 2 5 16 6 17 7 1 8 7 10 8 11 15 12 9 13 13 14
REMARK SMILES IDX 10 15 12 16 14 17 11 19
REMARK H PARENT 1 9 14 18 11 20
REMARK Flexibility Score: inf
ROOT
ATOM      1  C   UNL     1     -11.272   5.434  35.287  1.00  0.00     0.040 C 
ENDROOT
BRANCH   1   2
ATOM      2  C   UNL     1     -12.609   5.668  34.636  1.00  0.00    -0.047 A 
ATOM      3  C   UNL     1     -13.103   6.973  34.481  1.00  0.00     0.007 A 
ATOM      4  C   UNL     1     -14.359   7.188  33.905  1.00  0.00     0.046 A 
ATOM      5  C   UNL     1     -15.136   6.103  33.488  1.00  0.00     0.115 A 
ATOM      6  C   UNL     1     -13.397   4.580  34.228  1.00  0.00     0.007 A 
ATOM      7  C   UNL     1     -14.653   4.797  33.653  1.00  0.00     0.046 A 
BRANCH   5   8
ATOM      8  O   UNL     1     -16.386   6.331  32.916  1.00  0.00    -0.508 OA
ATOM      9  H   UNL     1     -16.574   7.162  32.369  1.00  0.00     0.293 HD
ENDBRANCH   5   8
ENDBRANCH   1   2
BRANCH   1  10
ATOM     10  C   UNL     1     -10.137   5.660  34.283  1.00  0.00     0.040 C 
BRANCH  10  11
ATOM     11  C   UNL     1      -9.189   6.716  34.785  1.00  0.00    -0.040 A 
ATOM     12  C   UNL     1      -9.601   7.626  35.772  1.00  0.00     0.050 A 
ATOM     13  C   UNL     1      -7.868   6.763  34.312  1.00  0.00     0.050 A 
ATOM     14  C   UNL     1      -8.709   8.588  36.264  1.00  0.00     0.119 A 
ATOM     15  C   UNL     1      -6.975   7.724  34.800  1.00  0.00     0.119 A 
ATOM     16  C   UNL     1      -7.399   8.637  35.775  1.00  0.00     0.092 A 
BRANCH  14  17
ATOM     17  O   UNL     1      -9.112   9.499  37.238  1.00  0.00    -0.508 OA
ATOM     18  H   UNL     1      -9.537   9.192  38.106  1.00  0.00     0.293 HD
ENDBRANCH  14  17
BRANCH  15  19
ATOM     19  O   UNL     1      -5.671   7.760  34.314  1.00  0.00    -0.508 OA
ATOM     20  H   UNL     1      -5.097   8.589  34.399  1.00  0.00     0.293 HD
ENDBRANCH  15  19
ENDBRANCH  10  11
ENDBRANCH   1  10
TORSDOF 6
ENDMDL
MODEL 7
REMARK VINA RESULT:    -6.872      1.865      7.359
REMARK INTER + INTRA:          -9.096
REMARK INTER:                  -8.721
REMARK INTRA:                  -0.375
REMARK UNBOUND:                -0.416
REMARK SMILES Oc1ccc(CCc2cc(O)cc(O)c2)cc1
REMARK SMILES IDX 6 1 5 2 4 3 3 4 2 5 16 6 17 7 1 8 7 10 8 11 15 12 9 13 13 14
REMARK SMILES IDX 10 15 12 16 14 17 11 19
REMARK H PARENT 1 9 14 18 11 20
REMARK Flexibility Score: inf
ROOT
ATOM      1  C   UNL     1     -11.466   6.945  35.104  1.00  0.00     0.040 C 
ENDROOT
BRANCH   1   2
ATOM      2  C   UNL     1     -10.140   7.559  35.466  1.00  0.00    -0.047 A 
ATOM      3  C   UNL     1     -10.086   8.696  36.287  1.00  0.00     0.007 A 
ATOM      4  C   UNL     1      -8.855   9.285  36.596  1.00  0.00     0.046 A 
ATOM      5  C   UNL     1      -7.671   8.750  36.081  1.00  0.00     0.115 A 
ATOM      6  C   UNL     1      -8.950   7.031  34.940  1.00  0.00     0.007 A 
ATOM      7  C   UNL     1      -7.720   7.622  35.250  1.00  0.00     0.046 A 
BRANCH   5   8
ATOM      8  O   UNL     1      -6.452   9.346  36.397  1.00  0.00    -0.508 OA
ATOM      9  H   UNL     1      -6.401  10.296  36.744  1.00  0.00     0.293 HD
ENDBRANCH   5   8
ENDBRANCH   1   2
BRANCH   1  10
ATOM     10  C   UNL     1     -11.389   5.417  35.173  1.00  0.00     0.040 C 
BRANCH  10  11
ATOM     11  C   UNL     1     -12.725   4.805  34.847  1.00  0.00    -0.040 A 
ATOM     12  C   UNL     1     -13.602   5.451  33.961  1.00  0.00     0.050 A 
ATOM     13  C   UNL     1     -13.080   3.556  35.382  1.00  0.00     0.050 A 
ATOM     14  C   UNL     1     -14.832   4.865  33.632  1.00  0.00     0.119 A 
ATOM     15  C   UNL     1     -14.308   2.970  35.056  1.00  0.00     0.119 A 
ATOM     16  C   UNL     1     -15.184   3.628  34.182  1.00  0.00     0.092 A 
BRANCH  14  17
ATOM     17  O   UNL     1     -15.711   5.503  32.759  1.00  0.00    -0.508 OA
ATOM     18  H   UNL     1     -16.659   5.729  33.033  1.00  0.00     0.293 HD
ENDBRANCH  14  17
BRANCH  15  19
ATOM     19  O   UNL     1     -14.646   1.734  35.601  1.00  0.00    -0.508 OA
ATOM     20  H   UNL     1     -14.327   1.456  36.521  1.00  0.00     0.293 HD
ENDBRANCH  15  19
ENDBRANCH  10  11
ENDBRANCH   1  10
TORSDOF 6
ENDMDL
MODEL 8
REMARK VINA RESULT:    -6.809      1.810      7.567
REMARK INTER + INTRA:          -9.016
REMARK INTER:                  -8.630
REMARK INTRA:                  -0.386
REMARK UNBOUND:                -0.416
REMARK SMILES Oc1ccc(CCc2cc(O)cc(O)c2)cc1
REMARK SMILES IDX 6 1 5 2 4 3 3 4 2 5 16 6 17 7 1 8 7 10 8 11 15 12 9 13 13 14
REMARK SMILES IDX 10 15 12 16 14 17 11 19
REMARK H PARENT 1 9 14 18 11 20
REMARK Flexibility Score: inf
ROOT
ATOM      1  C   UNL     1     -11.614   6.919  35.245  1.00  0.00     0.040 C 
ENDROOT
BRANCH   1   2
ATOM      2  C   UNL     1     -10.296   7.571  35.568  1.00  0.00    -0.047 A 
ATOM      3  C   UNL     1     -10.259   8.768  36.300  1.00  0.00     0.007 A 
ATOM      4  C   UNL     1      -9.036   9.390  36.572  1.00  0.00     0.046 A 
ATOM      5  C   UNL     1      -7.843   8.829  36.107  1.00  0.00     0.115 A 
ATOM      6  C   UNL     1      -9.097   7.017  35.091  1.00  0.00     0.007 A 
ATOM      7  C   UNL     1      -7.875   7.641  35.363  1.00  0.00     0.046 A 
BRANCH   5   8
ATOM      8  O   UNL     1      -6.632   9.460  36.384  1.00  0.00    -0.508 OA
ATOM      9  H   UNL     1      -6.575  10.463  36.517  1.00  0.00     0.293 HD
ENDBRANCH   5   8
ENDBRANCH   1   2
BRANCH   1  10
ATOM     10  C   UNL     1     -11.462   5.395  35.196  1.00  0.00     0.040 C 
BRANCH  10  11
ATOM     11  C   UNL     1     -12.767   4.746  34.817  1.00  0.00    -0.040 A 
ATOM     12  C   UNL     1     -13.133   3.513  35.379  1.00  0.00     0.050 A 
ATOM     13  C   UNL     1     -13.652   5.396  33.942  1.00  0.00     0.050 A 
ATOM     14  C   UNL     1     -14.362   2.923  35.052  1.00  0.00     0.119 A 
ATOM     15  C   UNL     1     -14.879   4.809  33.613  1.00  0.00     0.119 A 
ATOM     16  C   UNL     1     -15.231   3.571  34.168  1.00  0.00     0.092 A 
BRANCH  14  17
ATOM     17  O   UNL     1     -14.729   1.696  35.600  1.00  0.00    -0.508 OA
ATOM     18  H   UNL     1     -15.349   1.638  36.399  1.00  0.00     0.293 HD
ENDBRANCH  14  17
BRANCH  15  19
ATOM     19  O   UNL     1     -15.742   5.465  32.739  1.00  0.00    -0.508 OA
ATOM     20  H   UNL     1     -16.748   5.392  32.833  1.00  0.00     0.293 HD
ENDBRANCH  15  19
ENDBRANCH  10  11
ENDBRANCH   1  10
TORSDOF 6
ENDMDL
MODEL 9
REMARK VINA RESULT:    -6.541      1.782      2.249
REMARK INTER + INTRA:          -8.678
REMARK INTER:                  -8.181
REMARK INTRA:                  -0.497
REMARK UNBOUND:                -0.416
REMARK SMILES Oc1ccc(CCc2cc(O)cc(O)c2)cc1
REMARK SMILES IDX 6 1 5 2 4 3 3 4 2 5 16 6 17 7 1 8 7 10 8 11 15 12 9 13 13 14
REMARK SMILES IDX 10 15 12 16 14 17 11 19
REMARK H PARENT 1 9 14 18 11 20
REMARK Flexibility Score: inf
ROOT
ATOM      1  C   UNL     1     -11.037   6.156  34.219  1.00  0.00     0.040 C 
ENDROOT
BRANCH   1   2
ATOM      2  C   UNL     1     -11.935   5.025  34.645  1.00  0.00    -0.047 A 
ATOM      3  C   UNL     1     -11.435   3.988  35.448  1.00  0.00     0.007 A 
ATOM      4  C   UNL     1     -12.261   2.921  35.817  1.00  0.00     0.046 A 
ATOM      5  C   UNL     1     -13.589   2.876  35.380  1.00  0.00     0.115 A 
ATOM      6  C   UNL     1     -13.265   4.971  34.197  1.00  0.00     0.007 A 
ATOM      7  C   UNL     1     -14.089   3.903  34.567  1.00  0.00     0.046 A 
BRANCH   5   8
ATOM      8  O   UNL     1     -14.401   1.808  35.754  1.00  0.00    -0.508 OA
ATOM      9  H   UNL     1     -14.278   0.884  35.356  1.00  0.00     0.293 HD
ENDBRANCH   5   8
ENDBRANCH   1   2
BRANCH   1  10
ATOM     10  C   UNL     1      -9.644   5.999  34.837  1.00  0.00     0.040 C 
BRANCH  10  11
ATOM     11  C   UNL     1      -9.176   7.304  35.423  1.00  0.00    -0.040 A 
ATOM     12  C   UNL     1     -10.085   8.155  36.072  1.00  0.00     0.050 A 
ATOM     13  C   UNL     1      -7.817   7.654  35.374  1.00  0.00     0.050 A 
ATOM     14  C   UNL     1      -9.643   9.355  36.647  1.00  0.00     0.119 A 
ATOM     15  C   UNL     1      -7.374   8.852  35.946  1.00  0.00     0.119 A 
ATOM     16  C   UNL     1      -8.290   9.703  36.580  1.00  0.00     0.092 A 
BRANCH  14  17
ATOM     17  O   UNL     1     -10.540  10.208  37.287  1.00  0.00    -0.508 OA
ATOM     18  H   UNL     1     -10.498  11.212  37.160  1.00  0.00     0.293 HD
ENDBRANCH  14  17
BRANCH  15  19
ATOM     19  O   UNL     1      -6.023   9.185  35.882  1.00  0.00    -0.508 OA
ATOM     20  H   UNL     1      -5.683  10.083  36.207  1.00  0.00     0.293 HD
ENDBRANCH  15  19
ENDBRANCH  10  11
ENDBRANCH   1  10
TORSDOF 6
ENDMDL
