MODEL 1
REMARK VINA RESULT:    -6.211      0.000      0.000
REMARK INTER + INTRA:          -7.144
REMARK INTER:                  -6.937
REMARK INTRA:                  -0.207
REMARK UNBOUND:                -0.207
REMARK SMILES CC(C)c1ccc(C(=O)[O-])cc1
REMARK SMILES IDX 7 1 6 2 11 3 5 4 12 5 4 6 8 7 9 8 10 9 2 10 1 11 3 12
REMARK H PARENT
REMARK Flexibility Score: inf
ROOT
ATOM      1  C   UNL     1      -5.865  28.048  19.512  1.00  0.00    -0.003 A 
ATOM      2  C   UNL     1      -6.688  28.256  20.629  1.00  0.00     0.010 A 
ATOM      3  C   UNL     1      -6.441  28.053  18.230  1.00  0.00     0.010 A 
ATOM      4  C   UNL     1      -8.062  28.464  20.470  1.00  0.00     0.004 A 
ATOM      5  C   UNL     1      -7.814  28.261  18.071  1.00  0.00     0.004 A 
ATOM      6  C   UNL     1      -8.640  28.469  19.187  1.00  0.00    -0.045 A 
ENDROOT
BRANCH   1   7
ATOM      7  C   UNL     1      -4.411  27.829  19.685  1.00  0.00     0.071 C 
ATOM      8  O   UNL     1      -3.577  28.606  19.150  1.00  0.00    -0.545 OA
ATOM      9  O   UNL     1      -3.946  26.760  20.443  1.00  0.00    -0.545 OA
ENDBRANCH   1   7
BRANCH   6  10
ATOM     10  C   UNL     1     -10.129  28.693  18.999  1.00  0.00     0.013 C 
ATOM     11  C   UNL     1     -10.505  30.157  19.261  1.00  0.00     0.012 C 
ATOM     12  C   UNL     1     -10.583  28.249  17.604  1.00  0.00     0.012 C 
ENDBRANCH   6  10
TORSDOF 2
ENDMDL
MODEL 2
REMARK VINA RESULT:    -6.191      3.890      5.376
REMARK INTER + INTRA:          -7.122
REMARK INTER:                  -6.914
REMARK INTRA:                  -0.209
REMARK UNBOUND:                -0.207
REMARK SMILES CC(C)c1ccc(C(=O)[O-])cc1
REMARK SMILES IDX 7 1 6 2 11 3 5 4 12 5 4 6 8 7 9 8 10 9 2 10 1 11 3 12
REMARK H PARENT
REMARK Flexibility Score: inf
ROOT
ATOM      1  C   UNL     1     -10.588  28.976  19.642  1.00  0.00    -0.003 A 
ATOM      2  C   UNL     1      -9.717  28.793  20.728  1.00  0.00     0.010 A 
ATOM      3  C   UNL     1     -10.068  28.938  18.338  1.00  0.00     0.010 A 
ATOM      4  C   UNL     1      -8.352  28.577  20.515  1.00  0.00     0.004 A 
ATOM      5  C   UNL     1      -8.703  28.722  18.125  1.00  0.00     0.004 A 
ATOM      6  C   UNL     1      -7.830  28.539  19.209  1.00  0.00    -0.045 A 
ENDROOT
BRANCH   1   7
ATOM      7  C   UNL     1     -12.032  29.204  19.872  1.00  0.00     0.071 C 
ATOM      8  O   UNL     1     -12.895  28.556  19.221  1.00  0.00    -0.545 OA
ATOM      9  O   UNL     1     -12.457  30.136  20.812  1.00  0.00    -0.545 OA
ENDBRANCH   1   7
BRANCH   6  10
ATOM     10  C   UNL     1      -6.351  28.306  18.963  1.00  0.00     0.013 C 
ATOM     11  C   UNL     1      -5.974  26.840  19.212  1.00  0.00     0.012 C 
ATOM     12  C   UNL     1      -5.950  28.745  17.550  1.00  0.00     0.012 C 
ENDBRANCH   6  10
TORSDOF 2
ENDMDL
MODEL 3
REMARK VINA RESULT:    -6.155      0.594      1.484
REMARK INTER + INTRA:          -7.082
REMARK INTER:                  -6.870
REMARK INTRA:                  -0.211
REMARK UNBOUND:                -0.207
REMARK SMILES CC(C)c1ccc(C(=O)[O-])cc1
REMARK SMILES IDX 7 1 6 2 11 3 5 4 12 5 4 6 8 7 9 8 10 9 2 10 1 11 3 12
REMARK H PARENT
REMARK Flexibility Score: inf
ROOT
ATOM      1  C   UNL     1      -6.201  28.058  19.311  1.00  0.00    -0.003 A 
ATOM      2  C   UNL     1      -7.083  28.256  20.385  1.00  0.00     0.010 A 
ATOM      3  C   UNL     1      -6.691  28.158  17.998  1.00  0.00     0.010 A 
ATOM      4  C   UNL     1      -8.431  28.548  20.152  1.00  0.00     0.004 A 
ATOM      5  C   UNL     1      -8.039  28.450  17.765  1.00  0.00     0.004 A 
ATOM      6  C   UNL     1      -8.923  28.649  18.837  1.00  0.00    -0.045 A 
ENDROOT
BRANCH   1   7
ATOM      7  C   UNL     1      -4.775  27.749  19.562  1.00  0.00     0.071 C 
ATOM      8  O   UNL     1      -4.447  26.717  20.207  1.00  0.00    -0.545 OA
ATOM      9  O   UNL     1      -3.778  28.594  19.089  1.00  0.00    -0.545 OA
ENDBRANCH   1   7
BRANCH   6  10
ATOM     10  C   UNL     1     -10.383  28.965  18.569  1.00  0.00     0.013 C 
ATOM     11  C   UNL     1     -11.017  27.913  17.651  1.00  0.00     0.012 C 
ATOM     12  C   UNL     1     -11.169  29.098  19.879  1.00  0.00     0.012 C 
ENDBRANCH   6  10
TORSDOF 2
ENDMDL
MODEL 4
REMARK VINA RESULT:    -6.093      3.786      5.315
REMARK INTER + INTRA:          -7.013
REMARK INTER:                  -6.799
REMARK INTRA:                  -0.214
REMARK UNBOUND:                -0.207
REMARK SMILES CC(C)c1ccc(C(=O)[O-])cc1
REMARK SMILES IDX 7 1 6 2 11 3 5 4 12 5 4 6 8 7 9 8 10 9 2 10 1 11 3 12
REMARK H PARENT
REMARK Flexibility Score: inf
ROOT
ATOM      1  C   UNL     1     -10.422  28.981  19.475  1.00  0.00    -0.003 A 
ATOM      2  C   UNL     1      -9.531  28.740  20.533  1.00  0.00     0.010 A 
ATOM      3  C   UNL     1      -9.951  28.896  18.155  1.00  0.00     0.010 A 
ATOM      4  C   UNL     1      -8.194  28.419  20.276  1.00  0.00     0.004 A 
ATOM      5  C   UNL     1      -8.614  28.576  17.898  1.00  0.00     0.004 A 
ATOM      6  C   UNL     1      -7.721  28.334  18.954  1.00  0.00    -0.045 A 
ENDROOT
BRANCH   1   7
ATOM      7  C   UNL     1     -11.836  29.319  19.752  1.00  0.00     0.071 C 
ATOM      8  O   UNL     1     -12.130  30.320  20.458  1.00  0.00    -0.545 OA
ATOM      9  O   UNL     1     -12.861  28.536  19.234  1.00  0.00    -0.545 OA
ENDBRANCH   1   7
BRANCH   6  10
ATOM     10  C   UNL     1      -6.273  27.987  18.660  1.00  0.00     0.013 C 
ATOM     11  C   UNL     1      -5.683  28.930  17.605  1.00  0.00     0.012 C 
ATOM     12  C   UNL     1      -5.432  27.998  19.942  1.00  0.00     0.012 C 
ENDBRANCH   6  10
TORSDOF 2
ENDMDL
MODEL 5
REMARK VINA RESULT:    -5.905      2.620      3.786
REMARK INTER + INTRA:          -6.803
REMARK INTER:                  -6.584
REMARK INTRA:                  -0.219
REMARK UNBOUND:                -0.207
REMARK SMILES CC(C)c1ccc(C(=O)[O-])cc1
REMARK SMILES IDX 7 1 6 2 11 3 5 4 12 5 4 6 8 7 9 8 10 9 2 10 1 11 3 12
REMARK H PARENT
REMARK Flexibility Score: inf
ROOT
ATOM      1  C   UNL     1      -8.327  28.570  19.420  1.00  0.00    -0.003 A 
ATOM      2  C   UNL     1      -7.256  28.258  18.567  1.00  0.00     0.010 A 
ATOM      3  C   UNL     1      -9.568  28.912  18.858  1.00  0.00     0.010 A 
ATOM      4  C   UNL     1      -7.423  28.287  17.179  1.00  0.00     0.004 A 
ATOM      5  C   UNL     1      -9.735  28.941  17.470  1.00  0.00     0.004 A 
ATOM      6  C   UNL     1      -8.666  28.629  16.615  1.00  0.00    -0.045 A 
ENDROOT
BRANCH   1   7
ATOM      7  C   UNL     1      -8.146  28.537  20.889  1.00  0.00     0.071 C 
ATOM      8  O   UNL     1      -9.142  28.461  21.656  1.00  0.00    -0.545 OA
ATOM      9  O   UNL     1      -6.872  28.589  21.442  1.00  0.00    -0.545 OA
ENDBRANCH   1   7
BRANCH   6  10
ATOM     10  C   UNL     1      -8.861  28.665  15.111  1.00  0.00     0.013 C 
ATOM     11  C   UNL     1      -7.655  28.061  14.382  1.00  0.00     0.012 C 
ATOM     12  C   UNL     1     -10.160  27.959  14.706  1.00  0.00     0.012 C 
ENDBRANCH   6  10
TORSDOF 2
ENDMDL
MODEL 6
REMARK VINA RESULT:    -5.902      3.130      4.424
REMARK INTER + INTRA:          -6.799
REMARK INTER:                  -6.579
REMARK INTRA:                  -0.220
REMARK UNBOUND:                -0.207
REMARK SMILES CC(C)c1ccc(C(=O)[O-])cc1
REMARK SMILES IDX 7 1 6 2 11 3 5 4 12 5 4 6 8 7 9 8 10 9 2 10 1 11 3 12
REMARK H PARENT
REMARK Flexibility Score: inf
ROOT
ATOM      1  C   UNL     1      -8.035  28.731  16.192  1.00  0.00    -0.003 A 
ATOM      2  C   UNL     1      -9.232  28.882  16.909  1.00  0.00     0.010 A 
ATOM      3  C   UNL     1      -6.872  28.350  16.882  1.00  0.00     0.010 A 
ATOM      4  C   UNL     1      -9.268  28.657  18.288  1.00  0.00     0.004 A 
ATOM      5  C   UNL     1      -6.907  28.124  18.262  1.00  0.00     0.004 A 
ATOM      6  C   UNL     1      -8.104  28.274  18.980  1.00  0.00    -0.045 A 
ENDROOT
BRANCH   1   7
ATOM      7  C   UNL     1      -8.001  28.971  14.732  1.00  0.00     0.071 C 
ATOM      8  O   UNL     1      -9.071  29.088  14.077  1.00  0.00    -0.545 OA
ATOM      9  O   UNL     1      -6.787  29.071  14.062  1.00  0.00    -0.545 OA
ENDBRANCH   1   7
BRANCH   6  10
ATOM     10  C   UNL     1      -8.128  28.026  20.477  1.00  0.00     0.013 C 
ATOM     11  C   UNL     1      -6.888  28.621  21.155  1.00  0.00     0.012 C 
ATOM     12  C   UNL     1      -9.415  28.571  21.107  1.00  0.00     0.012 C 
ENDBRANCH   6  10
TORSDOF 2
ENDMDL
MODEL 7
REMARK VINA RESULT:    -5.866      2.861      4.011
REMARK INTER + INTRA:          -6.759
REMARK INTER:                  -6.538
REMARK INTRA:                  -0.221
REMARK UNBOUND:                -0.207
REMARK SMILES CC(C)c1ccc(C(=O)[O-])cc1
REMARK SMILES IDX 7 1 6 2 11 3 5 4 12 5 4 6 8 7 9 8 10 9 2 10 1 11 3 12
REMARK H PARENT
REMARK Flexibility Score: inf
ROOT
ATOM      1  C   UNL     1      -8.255  28.494  19.245  1.00  0.00    -0.003 A 
ATOM      2  C   UNL     1      -9.359  28.730  18.410  1.00  0.00     0.010 A 
ATOM      3  C   UNL     1      -7.009  28.209  18.661  1.00  0.00     0.010 A 
ATOM      4  C   UNL     1      -9.221  28.683  17.020  1.00  0.00     0.004 A 
ATOM      5  C   UNL     1      -6.871  28.162  17.271  1.00  0.00     0.004 A 
ATOM      6  C   UNL     1      -7.974  28.398  16.434  1.00  0.00    -0.045 A 
ENDROOT
BRANCH   1   7
ATOM      7  C   UNL     1      -8.406  28.545  20.716  1.00  0.00     0.071 C 
ATOM      8  O   UNL     1      -9.550  28.550  21.244  1.00  0.00    -0.545 OA
ATOM      9  O   UNL     1      -7.285  28.588  21.537  1.00  0.00    -0.545 OA
ENDBRANCH   1   7
BRANCH   6  10
ATOM     10  C   UNL     1      -7.809  28.344  14.927  1.00  0.00     0.013 C 
ATOM     11  C   UNL     1      -8.986  29.025  14.218  1.00  0.00     0.012 C 
ATOM     12  C   UNL     1      -6.474  28.960  14.495  1.00  0.00     0.012 C 
ENDBRANCH   6  10
TORSDOF 2
ENDMDL
MODEL 8
REMARK VINA RESULT:    -5.859      2.817      3.825
REMARK INTER + INTRA:          -6.751
REMARK INTER:                  -6.535
REMARK INTRA:                  -0.216
REMARK UNBOUND:                -0.207
REMARK SMILES CC(C)c1ccc(C(=O)[O-])cc1
REMARK SMILES IDX 7 1 6 2 11 3 5 4 12 5 4 6 8 7 9 8 10 9 2 10 1 11 3 12
REMARK H PARENT
REMARK Flexibility Score: inf
ROOT
ATOM      1  C   UNL     1      -7.002  28.870  15.891  1.00  0.00    -0.003 A 
ATOM      2  C   UNL     1      -6.406  28.540  17.118  1.00  0.00     0.010 A 
ATOM      3  C   UNL     1      -8.387  29.104  15.847  1.00  0.00     0.010 A 
ATOM      4  C   UNL     1      -7.179  28.445  18.280  1.00  0.00     0.004 A 
ATOM      5  C   UNL     1      -9.159  29.009  17.009  1.00  0.00     0.004 A 
ATOM      6  C   UNL     1      -8.565  28.680  18.238  1.00  0.00    -0.045 A 
ENDROOT
BRANCH   1   7
ATOM      7  C   UNL     1      -6.181  28.969  14.664  1.00  0.00     0.071 C 
ATOM      8  O   UNL     1      -6.591  28.483  13.576  1.00  0.00    -0.545 OA
ATOM      9  O   UNL     1      -4.944  29.602  14.694  1.00  0.00    -0.545 OA
ENDBRANCH   1   7
BRANCH   6  10
ATOM     10  C   UNL     1      -9.416  28.581  19.490  1.00  0.00     0.013 C 
ATOM     11  C   UNL     1      -8.543  28.537  20.750  1.00  0.00     0.012 C 
ATOM     12  C   UNL     1     -10.429  29.729  19.562  1.00  0.00     0.012 C 
ENDBRANCH   6  10
TORSDOF 2
ENDMDL
MODEL 9
REMARK VINA RESULT:    -5.848      3.820      5.273
REMARK INTER + INTRA:          -6.739
REMARK INTER:                  -6.523
REMARK INTRA:                  -0.215
REMARK UNBOUND:                -0.207
REMARK SMILES CC(C)c1ccc(C(=O)[O-])cc1
REMARK SMILES IDX 7 1 6 2 11 3 5 4 12 5 4 6 8 7 9 8 10 9 2 10 1 11 3 12
REMARK H PARENT
REMARK Flexibility Score: inf
ROOT
ATOM      1  C   UNL     1      -9.271  28.228  15.873  1.00  0.00    -0.003 A 
ATOM      2  C   UNL     1      -9.820  28.563  17.120  1.00  0.00     0.010 A 
ATOM      3  C   UNL     1      -7.898  27.944  15.787  1.00  0.00     0.010 A 
ATOM      4  C   UNL     1      -9.013  28.615  18.261  1.00  0.00     0.004 A 
ATOM      5  C   UNL     1      -7.090  27.996  16.927  1.00  0.00     0.004 A 
ATOM      6  C   UNL     1      -7.637  28.332  18.176  1.00  0.00    -0.045 A 
ENDROOT
BRANCH   1   7
ATOM      7  C   UNL     1     -10.129  28.173  14.668  1.00  0.00     0.071 C 
ATOM      8  O   UNL     1      -9.802  28.789  13.619  1.00  0.00    -0.545 OA
ATOM      9  O   UNL     1     -11.311  27.440  14.678  1.00  0.00    -0.545 OA
ENDBRANCH   1   7
BRANCH   6  10
ATOM     10  C   UNL     1      -6.749  28.384  19.405  1.00  0.00     0.013 C 
ATOM     11  C   UNL     1      -7.583  28.353  20.692  1.00  0.00     0.012 C 
ATOM     12  C   UNL     1      -5.717  27.251  19.390  1.00  0.00     0.012 C 
ENDBRANCH   6  10
TORSDOF 2
ENDMDL
