MODEL 1
REMARK VINA RESULT:    -4.703      0.000      0.000
REMARK INTER + INTRA:          -8.077
REMARK INTER:                  -6.352
REMARK INTRA:                  -1.724
REMARK UNBOUND:                -1.724
REMARK SMILES CC(=O)CCC=C(C)CCC=C(C)C
REMARK SMILES IDX 7 1 6 2 8 3 9 4 10 5 11 6 13 7 12 8 14 9 5 10 4 11 2 12 3 13
REMARK SMILES IDX 1 14
REMARK H PARENT
REMARK Flexibility Score: inf
ROOT
ATOM      1  C   UNL     1      33.752  40.234  85.104  1.00  0.00    -0.077 C 
ATOM      2  C   UNL     1      34.391  40.749  86.181  1.00  0.00    -0.028 C 
ATOM      3  C   UNL     1      32.250  40.123  85.162  1.00  0.00     0.039 C 
ENDROOT
BRANCH   1   4
ATOM      4  C   UNL     1      34.467  39.785  83.842  1.00  0.00     0.034 C 
BRANCH   4   5
ATOM      5  C   UNL     1      34.029  40.613  82.627  1.00  0.00     0.032 C 
BRANCH   5   6
ATOM      6  C   UNL     1      34.739  41.943  82.604  1.00  0.00    -0.028 C 
ATOM      7  C   UNL     1      32.660  43.240  83.125  1.00  0.00     0.039 C 
ATOM      8  C   UNL     1      34.141  43.130  82.858  1.00  0.00    -0.080 C 
ATOM      9  C   UNL     1      34.954  44.399  82.837  1.00  0.00     0.039 C 
ENDBRANCH   5   6
ENDBRANCH   4   5
ENDBRANCH   1   4
BRANCH   2  10
ATOM     10  C   UNL     1      35.888  40.910  86.328  1.00  0.00     0.035 C 
BRANCH  10  11
ATOM     11  C   UNL     1      36.335  42.347  86.023  1.00  0.00     0.079 C 
BRANCH  11  12
ATOM     12  C   UNL     1      37.418  42.394  84.976  1.00  0.00     0.130 C 
ATOM     13  O   UNL     1      37.907  43.465  84.653  1.00  0.00    -0.300 OA
ATOM     14  C   UNL     1      37.930  41.128  84.358  1.00  0.00     0.087 C 
ENDBRANCH  11  12
ENDBRANCH  10  11
ENDBRANCH   2  10
TORSDOF 6
ENDMDL
MODEL 2
REMARK VINA RESULT:    -4.624      1.823      2.909
REMARK INTER + INTRA:          -7.970
REMARK INTER:                  -6.309
REMARK INTRA:                  -1.661
REMARK UNBOUND:                -1.724
REMARK SMILES CC(=O)CCC=C(C)CCC=C(C)C
REMARK SMILES IDX 7 1 6 2 8 3 9 4 10 5 11 6 13 7 12 8 14 9 5 10 4 11 2 12 3 13
REMARK SMILES IDX 1 14
REMARK H PARENT
REMARK Flexibility Score: inf
ROOT
ATOM      1  C   UNL     1      33.163  40.510  84.031  1.00  0.00    -0.077 C 
ATOM      2  C   UNL     1      34.411  40.021  83.843  1.00  0.00    -0.028 C 
ATOM      3  C   UNL     1      32.494  41.199  82.869  1.00  0.00     0.039 C 
ENDROOT
BRANCH   1   4
ATOM      4  C   UNL     1      32.402  40.383  85.338  1.00  0.00     0.034 C 
BRANCH   4   5
ATOM      5  C   UNL     1      32.158  41.756  85.978  1.00  0.00     0.032 C 
BRANCH   5   6
ATOM      6  C   UNL     1      33.388  42.229  86.712  1.00  0.00    -0.028 C 
ATOM      7  C   UNL     1      33.947  43.956  84.986  1.00  0.00     0.039 C 
ATOM      8  C   UNL     1      34.183  43.239  86.292  1.00  0.00    -0.080 C 
ATOM      9  C   UNL     1      35.373  43.650  87.121  1.00  0.00     0.039 C 
ENDBRANCH   5   6
ENDBRANCH   4   5
ENDBRANCH   1   4
BRANCH   2  10
ATOM     10  C   UNL     1      35.258  39.330  84.890  1.00  0.00     0.035 C 
BRANCH  10  11
ATOM     11  C   UNL     1      36.270  40.293  85.525  1.00  0.00     0.079 C 
BRANCH  11  12
ATOM     12  C   UNL     1      37.278  40.798  84.526  1.00  0.00     0.130 C 
ATOM     13  O   UNL     1      38.066  40.021  84.009  1.00  0.00    -0.300 OA
ATOM     14  C   UNL     1      37.292  42.244  84.129  1.00  0.00     0.087 C 
ENDBRANCH  11  12
ENDBRANCH  10  11
ENDBRANCH   2  10
TORSDOF 6
ENDMDL
MODEL 3
REMARK VINA RESULT:    -4.608      1.281      1.808
REMARK INTER + INTRA:          -7.949
REMARK INTER:                  -6.456
REMARK INTRA:                  -1.493
REMARK UNBOUND:                -1.724
REMARK SMILES CC(=O)CCC=C(C)CCC=C(C)C
REMARK SMILES IDX 7 1 6 2 8 3 9 4 10 5 11 6 13 7 12 8 14 9 5 10 4 11 2 12 3 13
REMARK SMILES IDX 1 14
REMARK H PARENT
REMARK Flexibility Score: inf
ROOT
ATOM      1  C   UNL     1      33.327  40.130  84.554  1.00  0.00    -0.077 C 
ATOM      2  C   UNL     1      34.407  39.525  85.104  1.00  0.00    -0.028 C 
ATOM      3  C   UNL     1      32.129  40.373  85.438  1.00  0.00     0.039 C 
ENDROOT
BRANCH   1   4
ATOM      4  C   UNL     1      33.269  40.588  83.108  1.00  0.00     0.034 C 
BRANCH   4   5
ATOM      5  C   UNL     1      32.579  41.952  82.982  1.00  0.00     0.032 C 
BRANCH   5   6
ATOM      6  C   UNL     1      33.597  43.050  82.800  1.00  0.00    -0.028 C 
ATOM      7  C   UNL     1      33.328  43.904  85.140  1.00  0.00     0.039 C 
ATOM      8  C   UNL     1      33.966  43.915  83.773  1.00  0.00    -0.080 C 
ATOM      9  C   UNL     1      35.017  44.957  83.489  1.00  0.00     0.039 C 
ENDBRANCH   5   6
ENDBRANCH   4   5
ENDBRANCH   1   4
BRANCH   2  10
ATOM     10  C   UNL     1      35.685  39.167  84.378  1.00  0.00     0.035 C 
BRANCH  10  11
ATOM     11  C   UNL     1      36.894  39.911  84.961  1.00  0.00     0.079 C 
BRANCH  11  12
ATOM     12  C   UNL     1      36.791  41.401  84.767  1.00  0.00     0.130 C 
ATOM     13  O   UNL     1      36.790  41.871  83.640  1.00  0.00    -0.300 OA
ATOM     14  C   UNL     1      36.646  42.311  85.951  1.00  0.00     0.087 C 
ENDBRANCH  11  12
ENDBRANCH  10  11
ENDBRANCH   2  10
TORSDOF 6
ENDMDL
MODEL 4
REMARK VINA RESULT:    -4.579      1.633      2.026
REMARK INTER + INTRA:          -7.910
REMARK INTER:                  -6.363
REMARK INTRA:                  -1.547
REMARK UNBOUND:                -1.724
REMARK SMILES CC(=O)CCC=C(C)CCC=C(C)C
REMARK SMILES IDX 7 1 6 2 8 3 9 4 10 5 11 6 13 7 12 8 14 9 5 10 4 11 2 12 3 13
REMARK SMILES IDX 1 14
REMARK H PARENT
REMARK Flexibility Score: inf
ROOT
ATOM      1  C   UNL     1      32.647  41.431  85.445  1.00  0.00    -0.077 C 
ATOM      2  C   UNL     1      33.714  41.209  86.248  1.00  0.00    -0.028 C 
ATOM      3  C   UNL     1      31.701  42.544  85.822  1.00  0.00     0.039 C 
ENDROOT
BRANCH   1   4
ATOM      4  C   UNL     1      32.368  40.635  84.183  1.00  0.00     0.034 C 
BRANCH   4   5
ATOM      5  C   UNL     1      32.609  41.480  82.926  1.00  0.00     0.032 C 
BRANCH   5   6
ATOM      6  C   UNL     1      34.067  41.849  82.802  1.00  0.00    -0.028 C 
ATOM      7  C   UNL     1      33.653  44.278  83.251  1.00  0.00     0.039 C 
ATOM      8  C   UNL     1      34.554  43.099  82.978  1.00  0.00    -0.080 C 
ATOM      9  C   UNL     1      36.035  43.350  82.861  1.00  0.00     0.039 C 
ENDBRANCH   5   6
ENDBRANCH   4   5
ENDBRANCH   1   4
BRANCH   2  10
ATOM     10  C   UNL     1      34.752  40.125  86.060  1.00  0.00     0.035 C 
BRANCH  10  11
ATOM     11  C   UNL     1      36.080  40.697  85.545  1.00  0.00     0.079 C 
BRANCH  11  12
ATOM     12  C   UNL     1      36.667  39.863  84.436  1.00  0.00     0.130 C 
ATOM     13  O   UNL     1      37.807  40.074  84.052  1.00  0.00    -0.300 OA
ATOM     14  C   UNL     1      35.874  38.744  83.829  1.00  0.00     0.087 C 
ENDBRANCH  11  12
ENDBRANCH  10  11
ENDBRANCH   2  10
TORSDOF 6
ENDMDL
MODEL 5
REMARK VINA RESULT:    -4.563      2.115      3.253
REMARK INTER + INTRA:          -7.887
REMARK INTER:                  -6.187
REMARK INTRA:                  -1.700
REMARK UNBOUND:                -1.724
REMARK SMILES CC(=O)CCC=C(C)CCC=C(C)C
REMARK SMILES IDX 7 1 6 2 8 3 9 4 10 5 11 6 13 7 12 8 14 9 5 10 4 11 2 12 3 13
REMARK SMILES IDX 1 14
REMARK H PARENT
REMARK Flexibility Score: inf
ROOT
ATOM      1  C   UNL     1      35.775  40.111  84.269  1.00  0.00    -0.077 C 
ATOM      2  C   UNL     1      36.125  40.531  85.509  1.00  0.00    -0.028 C 
ATOM      3  C   UNL     1      35.915  38.642  83.957  1.00  0.00     0.039 C 
ENDROOT
BRANCH   1   4
ATOM      4  C   UNL     1      35.236  41.036  83.193  1.00  0.00     0.034 C 
BRANCH   4   5
ATOM      5  C   UNL     1      33.904  40.523  82.633  1.00  0.00     0.032 C 
BRANCH   5   6
ATOM      6  C   UNL     1      32.770  41.433  83.037  1.00  0.00    -0.028 C 
ATOM      7  C   UNL     1      32.273  40.147  85.128  1.00  0.00     0.039 C 
ATOM      8  C   UNL     1      32.049  41.293  84.173  1.00  0.00    -0.080 C 
ATOM      9  C   UNL     1      30.956  42.280  84.493  1.00  0.00     0.039 C 
ENDBRANCH   5   6
ENDBRANCH   4   5
ENDBRANCH   1   4
BRANCH   2  10
ATOM     10  C   UNL     1      36.088  41.960  86.002  1.00  0.00     0.035 C 
BRANCH  10  11
ATOM     11  C   UNL     1      34.858  42.224  86.881  1.00  0.00     0.079 C 
BRANCH  11  12
ATOM     12  C   UNL     1      34.031  43.375  86.371  1.00  0.00     0.130 C 
ATOM     13  O   UNL     1      33.043  43.737  86.989  1.00  0.00    -0.300 OA
ATOM     14  C   UNL     1      34.440  44.109  85.129  1.00  0.00     0.087 C 
ENDBRANCH  11  12
ENDBRANCH  10  11
ENDBRANCH   2  10
TORSDOF 6
ENDMDL
MODEL 6
REMARK VINA RESULT:    -4.548      1.273      2.594
REMARK INTER + INTRA:          -7.867
REMARK INTER:                  -6.237
REMARK INTRA:                  -1.631
REMARK UNBOUND:                -1.724
REMARK SMILES CC(=O)CCC=C(C)CCC=C(C)C
REMARK SMILES IDX 7 1 6 2 8 3 9 4 10 5 11 6 13 7 12 8 14 9 5 10 4 11 2 12 3 13
REMARK SMILES IDX 1 14
REMARK H PARENT
REMARK Flexibility Score: inf
ROOT
ATOM      1  C   UNL     1      35.778  40.084  85.101  1.00  0.00    -0.077 C 
ATOM      2  C   UNL     1      36.599  41.158  85.181  1.00  0.00    -0.028 C 
ATOM      3  C   UNL     1      36.151  38.982  84.142  1.00  0.00     0.039 C 
ENDROOT
BRANCH   1   4
ATOM      4  C   UNL     1      34.521  39.927  85.937  1.00  0.00     0.034 C 
BRANCH   4   5
ATOM      5  C   UNL     1      33.279  39.766  85.052  1.00  0.00     0.032 C 
BRANCH   5   6
ATOM      6  C   UNL     1      32.751  41.112  84.622  1.00  0.00    -0.028 C 
ATOM      7  C   UNL     1      33.564  40.855  82.266  1.00  0.00     0.039 C 
ATOM      8  C   UNL     1      32.845  41.600  83.364  1.00  0.00    -0.080 C 
ATOM      9  C   UNL     1      32.255  42.948  83.037  1.00  0.00     0.039 C 
ENDBRANCH   5   6
ENDBRANCH   4   5
ENDBRANCH   1   4
BRANCH   2  10
ATOM     10  C   UNL     1      36.382  42.375  86.054  1.00  0.00     0.035 C 
BRANCH  10  11
ATOM     11  C   UNL     1      35.601  43.469  85.314  1.00  0.00     0.079 C 
BRANCH  11  12
ATOM     12  C   UNL     1      36.375  44.033  84.151  1.00  0.00     0.130 C 
ATOM     13  O   UNL     1      37.445  44.590  84.344  1.00  0.00    -0.300 OA
ATOM     14  C   UNL     1      35.861  43.876  82.751  1.00  0.00     0.087 C 
ENDBRANCH  11  12
ENDBRANCH  10  11
ENDBRANCH   2  10
TORSDOF 6
ENDMDL
MODEL 7
REMARK VINA RESULT:    -4.529      1.457      3.029
REMARK INTER + INTRA:          -7.842
REMARK INTER:                  -6.081
REMARK INTRA:                  -1.761
REMARK UNBOUND:                -1.724
REMARK SMILES CC(=O)CCC=C(C)CCC=C(C)C
REMARK SMILES IDX 7 1 6 2 8 3 9 4 10 5 11 6 13 7 12 8 14 9 5 10 4 11 2 12 3 13
REMARK SMILES IDX 1 14
REMARK H PARENT
REMARK Flexibility Score: inf
ROOT
ATOM      1  C   UNL     1      32.528  42.938  84.324  1.00  0.00    -0.077 C 
ATOM      2  C   UNL     1      33.282  43.637  85.205  1.00  0.00    -0.028 C 
ATOM      3  C   UNL     1      31.145  42.520  84.756  1.00  0.00     0.039 C 
ENDROOT
BRANCH   1   4
ATOM      4  C   UNL     1      32.995  42.573  82.927  1.00  0.00     0.034 C 
BRANCH   4   5
ATOM      5  C   UNL     1      32.953  41.056  82.703  1.00  0.00     0.032 C 
BRANCH   5   6
ATOM      6  C   UNL     1      34.329  40.456  82.855  1.00  0.00    -0.028 C 
ATOM      7  C   UNL     1      33.908  39.691  85.203  1.00  0.00     0.039 C 
ATOM      8  C   UNL     1      34.760  39.811  83.963  1.00  0.00    -0.080 C 
ATOM      9  C   UNL     1      36.147  39.223  83.996  1.00  0.00     0.039 C 
ENDBRANCH   5   6
ENDBRANCH   4   5
ENDBRANCH   1   4
BRANCH   2  10
ATOM     10  C   UNL     1      34.699  44.116  84.973  1.00  0.00     0.035 C 
BRANCH  10  11
ATOM     11  C   UNL     1      35.728  43.050  85.374  1.00  0.00     0.079 C 
BRANCH  11  12
ATOM     12  C   UNL     1      36.824  42.905  84.351  1.00  0.00     0.130 C 
ATOM     13  O   UNL     1      37.848  42.304  84.635  1.00  0.00    -0.300 OA
ATOM     14  C   UNL     1      36.647  43.458  82.968  1.00  0.00     0.087 C 
ENDBRANCH  11  12
ENDBRANCH  10  11
ENDBRANCH   2  10
TORSDOF 6
ENDMDL
MODEL 8
REMARK VINA RESULT:    -4.500      2.184      4.336
REMARK INTER + INTRA:          -7.803
REMARK INTER:                  -6.055
REMARK INTRA:                  -1.748
REMARK UNBOUND:                -1.724
REMARK SMILES CC(=O)CCC=C(C)CCC=C(C)C
REMARK SMILES IDX 7 1 6 2 8 3 9 4 10 5 11 6 13 7 12 8 14 9 5 10 4 11 2 12 3 13
REMARK SMILES IDX 1 14
REMARK H PARENT
REMARK Flexibility Score: inf
ROOT
ATOM      1  C   UNL     1      34.919  39.669  83.953  1.00  0.00    -0.077 C 
ATOM      2  C   UNL     1      34.493  40.223  82.794  1.00  0.00    -0.028 C 
ATOM      3  C   UNL     1      36.268  38.993  83.957  1.00  0.00     0.039 C 
ENDROOT
BRANCH   1   4
ATOM      4  C   UNL     1      34.122  39.710  85.244  1.00  0.00     0.034 C 
BRANCH   4   5
ATOM      5  C   UNL     1      34.875  40.473  86.341  1.00  0.00     0.032 C 
BRANCH   5   6
ATOM      6  C   UNL     1      34.425  41.911  86.396  1.00  0.00    -0.028 C 
ATOM      7  C   UNL     1      36.444  42.756  85.178  1.00  0.00     0.039 C 
ATOM      8  C   UNL     1      35.106  42.944  85.849  1.00  0.00    -0.080 C 
ATOM      9  C   UNL     1      34.547  44.341  85.937  1.00  0.00     0.039 C 
ENDBRANCH   5   6
ENDBRANCH   4   5
ENDBRANCH   1   4
BRANCH   2  10
ATOM     10  C   UNL     1      33.163  40.913  82.579  1.00  0.00     0.035 C 
BRANCH  10  11
ATOM     11  C   UNL     1      33.275  42.431  82.776  1.00  0.00     0.079 C 
BRANCH  11  12
ATOM     12  C   UNL     1      32.052  43.009  83.440  1.00  0.00     0.130 C 
ATOM     13  O   UNL     1      31.642  44.110  83.107  1.00  0.00    -0.300 OA
ATOM     14  C   UNL     1      31.308  42.222  84.476  1.00  0.00     0.087 C 
ENDBRANCH  11  12
ENDBRANCH  10  11
ENDBRANCH   2  10
TORSDOF 6
ENDMDL
MODEL 9
REMARK VINA RESULT:    -4.428      1.423      3.034
REMARK INTER + INTRA:          -7.705
REMARK INTER:                  -6.072
REMARK INTRA:                  -1.633
REMARK UNBOUND:                -1.724
REMARK SMILES CC(=O)CCC=C(C)CCC=C(C)C
REMARK SMILES IDX 7 1 6 2 8 3 9 4 10 5 11 6 13 7 12 8 14 9 5 10 4 11 2 12 3 13
REMARK SMILES IDX 1 14
REMARK H PARENT
REMARK Flexibility Score: inf
ROOT
ATOM      1  C   UNL     1      32.978  42.867  85.414  1.00  0.00    -0.077 C 
ATOM      2  C   UNL     1      34.176  43.273  85.898  1.00  0.00    -0.028 C 
ATOM      3  C   UNL     1      32.409  43.608  84.230  1.00  0.00     0.039 C 
ENDROOT
BRANCH   1   4
ATOM      4  C   UNL     1      32.194  41.701  85.987  1.00  0.00     0.034 C 
BRANCH   4   5
ATOM      5  C   UNL     1      32.200  40.501  85.032  1.00  0.00     0.032 C 
BRANCH   5   6
ATOM      6  C   UNL     1      33.505  39.750  85.127  1.00  0.00    -0.028 C 
ATOM      7  C   UNL     1      34.275  40.486  82.860  1.00  0.00     0.039 C 
ATOM      8  C   UNL     1      34.461  39.761  84.170  1.00  0.00    -0.080 C 
ATOM      9  C   UNL     1      35.743  38.998  84.383  1.00  0.00     0.039 C 
ENDBRANCH   5   6
ENDBRANCH   4   5
ENDBRANCH   1   4
BRANCH   2  10
ATOM     10  C   UNL     1      34.893  42.683  87.093  1.00  0.00     0.035 C 
BRANCH  10  11
ATOM     11  C   UNL     1      36.154  41.915  86.673  1.00  0.00     0.079 C 
BRANCH  11  12
ATOM     12  C   UNL     1      37.042  42.731  85.772  1.00  0.00     0.130 C 
ATOM     13  O   UNL     1      37.638  43.700  86.217  1.00  0.00    -0.300 OA
ATOM     14  C   UNL     1      37.235  42.336  84.338  1.00  0.00     0.087 C 
ENDBRANCH  11  12
ENDBRANCH  10  11
ENDBRANCH   2  10
TORSDOF 6
ENDMDL
