MODEL 1
REMARK VINA RESULT:    -5.796      0.000      0.000
REMARK INTER + INTRA:         -19.101
REMARK INTER:                 -15.284
REMARK INTRA:                  -3.816
REMARK UNBOUND:                -3.816
REMARK SMILES CCCCCCCCCCCCCCCCCCCCCCCCCCCCCC(=O)[O-]
REMARK SMILES IDX 16 1 17 2 18 3 19 4 20 5 21 6 22 7 23 8 24 9 25 10 26 11
REMARK SMILES IDX 27 12 28 13 29 14 30 15 31 16 32 17 15 18 14 19 13 20 12 21
REMARK SMILES IDX 11 22 10 23 9 24 8 25 7 26 6 27 5 28 4 29 3 30 2 31 1 32
REMARK H PARENT
REMARK Flexibility Score: inf
ROOT
ATOM      1  C   UNL     1      88.893 325.509 199.051  1.00  0.00     0.000 C 
ENDROOT
BRANCH   1   2
ATOM      2  C   UNL     1      88.983 326.050 200.494  1.00  0.00     0.000 C 
BRANCH   2   3
ATOM      3  C   UNL     1      90.405 326.462 200.923  1.00  0.00     0.000 C 
BRANCH   3   4
ATOM      4  C   UNL     1      90.563 326.815 202.412  1.00  0.00     0.000 C 
BRANCH   4   5
ATOM      5  C   UNL     1      89.254 326.844 203.228  1.00  0.00     0.000 C 
BRANCH   5   6
ATOM      6  C   UNL     1      89.415 327.363 204.672  1.00  0.00     0.000 C 
BRANCH   6   7
ATOM      7  C   UNL     1      89.497 326.227 205.709  1.00  0.00     0.000 C 
BRANCH   7   8
ATOM      8  C   UNL     1      88.535 326.441 206.890  1.00  0.00     0.000 C 
BRANCH   8   9
ATOM      9  C   UNL     1      87.178 325.752 206.663  1.00  0.00     0.000 C 
BRANCH   9  10
ATOM     10  C   UNL     1      87.327 324.274 206.271  1.00  0.00     0.000 C 
BRANCH  10  11
ATOM     11  C   UNL     1      86.469 323.905 205.049  1.00  0.00     0.000 C 
BRANCH  11  12
ATOM     12  C   UNL     1      87.278 323.855 203.740  1.00  0.00     0.000 C 
BRANCH  12  13
ATOM     13  C   UNL     1      86.437 323.780 202.453  1.00  0.00     0.006 C 
BRANCH  13  14
ATOM     14  C   UNL     1      87.040 322.846 201.394  1.00  0.00     0.053 C 
BRANCH  14  15
ATOM     15  C   UNL     1      87.220 321.468 201.949  1.00  0.00     0.041 C 
ATOM     16  O   UNL     1      88.353 320.920 201.930  1.00  0.00    -0.550 OA
ATOM     17  O   UNL     1      86.139 320.797 202.510  1.00  0.00    -0.550 OA
ENDBRANCH  14  15
ENDBRANCH  13  14
ENDBRANCH  12  13
ENDBRANCH  11  12
ENDBRANCH  10  11
ENDBRANCH   9  10
ENDBRANCH   8   9
ENDBRANCH   7   8
ENDBRANCH   6   7
ENDBRANCH   5   6
ENDBRANCH   4   5
ENDBRANCH   3   4
ENDBRANCH   2   3
ENDBRANCH   1   2
BRANCH   1  18
ATOM     18  C   UNL     1      88.645 326.626 198.020  1.00  0.00     0.000 C 
BRANCH  18  19
ATOM     19  C   UNL     1      88.112 326.096 196.674  1.00  0.00     0.000 C 
BRANCH  19  20
ATOM     20  C   UNL     1      89.036 326.322 195.462  1.00  0.00     0.000 C 
BRANCH  20  21
ATOM     21  C   UNL     1      88.275 326.753 194.195  1.00  0.00     0.000 C 
BRANCH  21  22
ATOM     22  C   UNL     1      86.813 326.266 194.175  1.00  0.00     0.000 C 
BRANCH  22  23
ATOM     23  C   UNL     1      86.532 325.067 193.250  1.00  0.00     0.000 C 
BRANCH  23  24
ATOM     24  C   UNL     1      87.744 324.673 192.393  1.00  0.00    -0.000 C 
BRANCH  24  25
ATOM     25  C   UNL     1      87.401 323.503 191.457  1.00  0.00    -0.000 C 
BRANCH  25  26
ATOM     26  C   UNL     1      88.471 322.399 191.462  1.00  0.00    -0.000 C 
BRANCH  26  27
ATOM     27  C   UNL     1      88.753 321.849 192.872  1.00  0.00    -0.000 C 
BRANCH  27  28
ATOM     28  C   UNL     1      87.505 321.224 193.517  1.00  0.00    -0.000 C 
BRANCH  28  29
ATOM     29  C   UNL     1      87.232 321.775 194.928  1.00  0.00    -0.000 C 
BRANCH  29  30
ATOM     30  C   UNL     1      88.285 322.802 195.372  1.00  0.00    -0.000 C 
BRANCH  30  31
ATOM     31  C   UNL     1      88.922 322.446 196.724  1.00  0.00    -0.003 C 
ATOM     32  C   UNL     1      90.387 322.872 196.772  1.00  0.00     0.004 C 
ENDBRANCH  30  31
ENDBRANCH  29  30
ENDBRANCH  28  29
ENDBRANCH  27  28
ENDBRANCH  26  27
ENDBRANCH  25  26
ENDBRANCH  24  25
ENDBRANCH  23  24
ENDBRANCH  22  23
ENDBRANCH  21  22
ENDBRANCH  20  21
ENDBRANCH  19  20
ENDBRANCH  18  19
ENDBRANCH   1  18
TORSDOF 28
ENDMDL
MODEL 2
REMARK VINA RESULT:    -5.715      3.691     11.062
REMARK INTER + INTRA:         -18.887
REMARK INTER:                 -15.205
REMARK INTRA:                  -3.682
REMARK UNBOUND:                -3.816
REMARK SMILES CCCCCCCCCCCCCCCCCCCCCCCCCCCCCC(=O)[O-]
REMARK SMILES IDX 16 1 17 2 18 3 19 4 20 5 21 6 22 7 23 8 24 9 25 10 26 11
REMARK SMILES IDX 27 12 28 13 29 14 30 15 31 16 32 17 15 18 14 19 13 20 12 21
REMARK SMILES IDX 11 22 10 23 9 24 8 25 7 26 6 27 5 28 4 29 3 30 2 31 1 32
REMARK H PARENT
REMARK Flexibility Score: inf
ROOT
ATOM      1  C   UNL     1      89.329 326.480 201.227  1.00  0.00     0.000 C 
ENDROOT
BRANCH   1   2
ATOM      2  C   UNL     1      90.141 325.773 200.120  1.00  0.00     0.000 C 
BRANCH   2   3
ATOM      3  C   UNL     1      89.291 325.299 198.924  1.00  0.00     0.000 C 
BRANCH   3   4
ATOM      4  C   UNL     1      88.532 326.410 198.180  1.00  0.00     0.000 C 
BRANCH   4   5
ATOM      5  C   UNL     1      88.267 326.143 196.684  1.00  0.00     0.000 C 
BRANCH   5   6
ATOM      6  C   UNL     1      86.812 326.394 196.239  1.00  0.00     0.000 C 
BRANCH   6   7
ATOM      7  C   UNL     1      86.647 326.395 194.708  1.00  0.00     0.000 C 
BRANCH   7   8
ATOM      8  C   UNL     1      87.997 326.469 193.974  1.00  0.00     0.000 C 
BRANCH   8   9
ATOM      9  C   UNL     1      88.103 325.421 192.852  1.00  0.00     0.000 C 
BRANCH   9  10
ATOM     10  C   UNL     1      88.206 323.987 193.394  1.00  0.00     0.000 C 
BRANCH  10  11
ATOM     11  C   UNL     1      88.059 322.932 192.286  1.00  0.00     0.000 C 
BRANCH  11  12
ATOM     12  C   UNL     1      87.388 323.486 191.015  1.00  0.00     0.000 C 
BRANCH  12  13
ATOM     13  C   UNL     1      87.791 322.787 189.704  1.00  0.00     0.006 C 
BRANCH  13  14
ATOM     14  C   UNL     1      89.164 323.232 189.182  1.00  0.00     0.053 C 
BRANCH  14  15
ATOM     15  C   UNL     1      90.052 322.049 188.961  1.00  0.00     0.041 C 
ATOM     16  O   UNL     1      90.554 321.440 189.942  1.00  0.00    -0.550 OA
ATOM     17  O   UNL     1      90.308 321.602 187.669  1.00  0.00    -0.550 OA
ENDBRANCH  14  15
ENDBRANCH  13  14
ENDBRANCH  12  13
ENDBRANCH  11  12
ENDBRANCH  10  11
ENDBRANCH   9  10
ENDBRANCH   8   9
ENDBRANCH   7   8
ENDBRANCH   6   7
ENDBRANCH   5   6
ENDBRANCH   4   5
ENDBRANCH   3   4
ENDBRANCH   2   3
ENDBRANCH   1   2
BRANCH   1  18
ATOM     18  C   UNL     1      88.462 325.499 202.037  1.00  0.00     0.000 C 
BRANCH  18  19
ATOM     19  C   UNL     1      89.291 324.429 202.773  1.00  0.00     0.000 C 
BRANCH  19  20
ATOM     20  C   UNL     1      88.554 323.684 203.903  1.00  0.00     0.000 C 
BRANCH  20  21
ATOM     21  C   UNL     1      87.028 323.885 203.863  1.00  0.00     0.000 C 
BRANCH  21  22
ATOM     22  C   UNL     1      86.411 324.096 205.260  1.00  0.00     0.000 C 
BRANCH  22  23
ATOM     23  C   UNL     1      87.417 324.404 206.384  1.00  0.00     0.000 C 
BRANCH  23  24
ATOM     24  C   UNL     1      87.446 325.890 206.771  1.00  0.00    -0.000 C 
BRANCH  24  25
ATOM     25  C   UNL     1      88.856 326.478 206.595  1.00  0.00    -0.000 C 
BRANCH  25  26
ATOM     26  C   UNL     1      89.037 327.203 205.251  1.00  0.00    -0.000 C 
BRANCH  26  27
ATOM     27  C   UNL     1      90.511 327.521 204.939  1.00  0.00    -0.000 C 
BRANCH  27  28
ATOM     28  C   UNL     1      91.424 326.296 205.113  1.00  0.00    -0.000 C 
BRANCH  28  29
ATOM     29  C   UNL     1      92.775 326.461 204.395  1.00  0.00    -0.000 C 
BRANCH  29  30
ATOM     30  C   UNL     1      92.614 326.687 202.884  1.00  0.00    -0.000 C 
BRANCH  30  31
ATOM     31  C   UNL     1      93.490 325.740 202.050  1.00  0.00    -0.003 C 
ATOM     32  C   UNL     1      92.948 324.314 202.085  1.00  0.00     0.004 C 
ENDBRANCH  30  31
ENDBRANCH  29  30
ENDBRANCH  28  29
ENDBRANCH  27  28
ENDBRANCH  26  27
ENDBRANCH  25  26
ENDBRANCH  24  25
ENDBRANCH  23  24
ENDBRANCH  22  23
ENDBRANCH  21  22
ENDBRANCH  20  21
ENDBRANCH  19  20
ENDBRANCH  18  19
ENDBRANCH   1  18
TORSDOF 28
ENDMDL
MODEL 3
REMARK VINA RESULT:    -5.684      2.123      3.529
REMARK INTER + INTRA:         -18.804
REMARK INTER:                 -14.650
REMARK INTRA:                  -4.155
REMARK UNBOUND:                -3.816
REMARK SMILES CCCCCCCCCCCCCCCCCCCCCCCCCCCCCC(=O)[O-]
REMARK SMILES IDX 16 1 17 2 18 3 19 4 20 5 21 6 22 7 23 8 24 9 25 10 26 11
REMARK SMILES IDX 27 12 28 13 29 14 30 15 31 16 32 17 15 18 14 19 13 20 12 21
REMARK SMILES IDX 11 22 10 23 9 24 8 25 7 26 6 27 5 28 4 29 3 30 2 31 1 32
REMARK H PARENT
REMARK Flexibility Score: inf
ROOT
ATOM      1  C   UNL     1      90.789 326.849 201.531  1.00  0.00     0.000 C 
ENDROOT
BRANCH   1   2
ATOM      2  C   UNL     1      90.190 327.102 202.932  1.00  0.00     0.000 C 
BRANCH   2   3
ATOM      3  C   UNL     1      91.239 327.423 204.015  1.00  0.00     0.000 C 
BRANCH   3   4
ATOM      4  C   UNL     1      90.721 327.369 205.462  1.00  0.00     0.000 C 
BRANCH   4   5
ATOM      5  C   UNL     1      89.198 327.190 205.614  1.00  0.00     0.000 C 
BRANCH   5   6
ATOM      6  C   UNL     1      88.770 326.406 206.873  1.00  0.00     0.000 C 
BRANCH   6   7
ATOM      7  C   UNL     1      87.364 325.790 206.744  1.00  0.00     0.000 C 
BRANCH   7   8
ATOM      8  C   UNL     1      87.404 324.345 206.218  1.00  0.00     0.000 C 
BRANCH   8   9
ATOM      9  C   UNL     1      86.238 324.046 205.260  1.00  0.00     0.000 C 
BRANCH   9  10
ATOM     10  C   UNL     1      86.718 323.562 203.882  1.00  0.00     0.000 C 
BRANCH  10  11
ATOM     11  C   UNL     1      87.895 324.396 203.349  1.00  0.00     0.000 C 
BRANCH  11  12
ATOM     12  C   UNL     1      89.148 323.549 203.062  1.00  0.00     0.000 C 
BRANCH  12  13
ATOM     13  C   UNL     1      90.242 323.610 204.145  1.00  0.00     0.006 C 
BRANCH  13  14
ATOM     14  C   UNL     1      91.605 323.108 203.651  1.00  0.00     0.053 C 
BRANCH  14  15
ATOM     15  C   UNL     1      92.666 324.133 203.901  1.00  0.00     0.041 C 
ATOM     16  O   UNL     1      92.905 324.526 205.073  1.00  0.00    -0.550 OA
ATOM     17  O   UNL     1      93.407 324.640 202.839  1.00  0.00    -0.550 OA
ENDBRANCH  14  15
ENDBRANCH  13  14
ENDBRANCH  12  13
ENDBRANCH  11  12
ENDBRANCH  10  11
ENDBRANCH   9  10
ENDBRANCH   8   9
ENDBRANCH   7   8
ENDBRANCH   6   7
ENDBRANCH   5   6
ENDBRANCH   4   5
ENDBRANCH   3   4
ENDBRANCH   2   3
ENDBRANCH   1   2
BRANCH   1  18
ATOM     18  C   UNL     1      89.706 326.603 200.465  1.00  0.00     0.000 C 
BRANCH  18  19
ATOM     19  C   UNL     1      89.755 325.181 199.874  1.00  0.00     0.000 C 
BRANCH  19  20
ATOM     20  C   UNL     1      88.911 324.964 198.603  1.00  0.00     0.000 C 
BRANCH  20  21
ATOM     21  C   UNL     1      88.475 326.281 197.936  1.00  0.00     0.000 C 
BRANCH  21  22
ATOM     22  C   UNL     1      87.917 326.081 196.514  1.00  0.00     0.000 C 
BRANCH  22  23
ATOM     23  C   UNL     1      88.854 326.513 195.371  1.00  0.00     0.000 C 
BRANCH  23  24
ATOM     24  C   UNL     1      88.116 326.749 194.046  1.00  0.00    -0.000 C 
BRANCH  24  25
ATOM     25  C   UNL     1      86.716 326.114 194.074  1.00  0.00    -0.000 C 
BRANCH  25  26
ATOM     26  C   UNL     1      86.589 324.903 193.134  1.00  0.00    -0.000 C 
BRANCH  26  27
ATOM     27  C   UNL     1      87.917 324.544 192.442  1.00  0.00    -0.000 C 
BRANCH  27  28
ATOM     28  C   UNL     1      88.139 323.025 192.353  1.00  0.00    -0.000 C 
BRANCH  28  29
ATOM     29  C   UNL     1      88.095 322.341 193.731  1.00  0.00    -0.000 C 
BRANCH  29  30
ATOM     30  C   UNL     1      89.016 323.024 194.756  1.00  0.00    -0.000 C 
BRANCH  30  31
ATOM     31  C   UNL     1      89.129 322.230 196.066  1.00  0.00    -0.003 C 
ATOM     32  C   UNL     1      90.534 322.331 196.652  1.00  0.00     0.004 C 
ENDBRANCH  30  31
ENDBRANCH  29  30
ENDBRANCH  28  29
ENDBRANCH  27  28
ENDBRANCH  26  27
ENDBRANCH  25  26
ENDBRANCH  24  25
ENDBRANCH  23  24
ENDBRANCH  22  23
ENDBRANCH  21  22
ENDBRANCH  20  21
ENDBRANCH  19  20
ENDBRANCH  18  19
ENDBRANCH   1  18
TORSDOF 28
ENDMDL
MODEL 4
REMARK VINA RESULT:    -5.591      3.836     10.787
REMARK INTER + INTRA:         -18.559
REMARK INTER:                 -15.739
REMARK INTRA:                  -2.820
REMARK UNBOUND:                -3.816
REMARK SMILES CCCCCCCCCCCCCCCCCCCCCCCCCCCCCC(=O)[O-]
REMARK SMILES IDX 16 1 17 2 18 3 19 4 20 5 21 6 22 7 23 8 24 9 25 10 26 11
REMARK SMILES IDX 27 12 28 13 29 14 30 15 31 16 32 17 15 18 14 19 13 20 12 21
REMARK SMILES IDX 11 22 10 23 9 24 8 25 7 26 6 27 5 28 4 29 3 30 2 31 1 32
REMARK H PARENT
REMARK Flexibility Score: inf
ROOT
ATOM      1  C   UNL     1      89.867 325.639 200.509  1.00  0.00     0.000 C 
ENDROOT
BRANCH   1   2
ATOM      2  C   UNL     1      88.988 325.314 199.282  1.00  0.00     0.000 C 
BRANCH   2   3
ATOM      3  C   UNL     1      88.850 326.478 198.281  1.00  0.00     0.000 C 
BRANCH   3   4
ATOM      4  C   UNL     1      88.068 326.148 196.998  1.00  0.00     0.000 C 
BRANCH   4   5
ATOM      5  C   UNL     1      88.897 326.157 195.698  1.00  0.00     0.000 C 
BRANCH   5   6
ATOM      6  C   UNL     1      88.108 326.581 194.441  1.00  0.00     0.000 C 
BRANCH   6   7
ATOM      7  C   UNL     1      86.587 326.406 194.605  1.00  0.00     0.000 C 
BRANCH   7   8
ATOM      8  C   UNL     1      86.010 325.363 193.633  1.00  0.00     0.000 C 
BRANCH   8   9
ATOM      9  C   UNL     1      87.060 324.319 193.214  1.00  0.00     0.000 C 
BRANCH   9  10
ATOM     10  C   UNL     1      86.906 323.886 191.748  1.00  0.00     0.000 C 
BRANCH  10  11
ATOM     11  C   UNL     1      88.230 323.971 190.971  1.00  0.00     0.000 C 
BRANCH  11  12
ATOM     12  C   UNL     1      88.208 323.169 189.657  1.00  0.00     0.000 C 
BRANCH  12  13
ATOM     13  C   UNL     1      89.510 323.219 188.837  1.00  0.00     0.006 C 
BRANCH  13  14
ATOM     14  C   UNL     1      90.341 321.934 188.948  1.00  0.00     0.053 C 
BRANCH  14  15
ATOM     15  C   UNL     1      91.796 322.230 188.762  1.00  0.00     0.041 C 
ATOM     16  O   UNL     1      92.171 323.387 188.437  1.00  0.00    -0.550 OA
ATOM     17  O   UNL     1      92.742 321.232 188.969  1.00  0.00    -0.550 OA
ENDBRANCH  14  15
ENDBRANCH  13  14
ENDBRANCH  12  13
ENDBRANCH  11  12
ENDBRANCH  10  11
ENDBRANCH   9  10
ENDBRANCH   8   9
ENDBRANCH   7   8
ENDBRANCH   6   7
ENDBRANCH   5   6
ENDBRANCH   4   5
ENDBRANCH   3   4
ENDBRANCH   2   3
ENDBRANCH   1   2
BRANCH   1  18
ATOM     18  C   UNL     1      89.129 326.506 201.547  1.00  0.00     0.000 C 
BRANCH  18  19
ATOM     19  C   UNL     1      89.778 326.455 202.943  1.00  0.00     0.000 C 
BRANCH  19  20
ATOM     20  C   UNL     1      88.877 326.909 204.108  1.00  0.00     0.000 C 
BRANCH  20  21
ATOM     21  C   UNL     1      89.660 327.188 205.404  1.00  0.00     0.000 C 
BRANCH  21  22
ATOM     22  C   UNL     1      89.252 326.262 206.566  1.00  0.00     0.000 C 
BRANCH  22  23
ATOM     23  C   UNL     1      87.747 325.947 206.659  1.00  0.00     0.000 C 
BRANCH  23  24
ATOM     24  C   UNL     1      87.431 324.461 206.439  1.00  0.00    -0.000 C 
BRANCH  24  25
ATOM     25  C   UNL     1      86.462 324.272 205.261  1.00  0.00    -0.000 C 
BRANCH  25  26
ATOM     26  C   UNL     1      87.108 323.554 204.065  1.00  0.00    -0.000 C 
BRANCH  26  27
ATOM     27  C   UNL     1      86.367 323.816 202.740  1.00  0.00    -0.000 C 
BRANCH  27  28
ATOM     28  C   UNL     1      86.659 322.738 201.683  1.00  0.00    -0.000 C 
BRANCH  28  29
ATOM     29  C   UNL     1      88.165 322.470 201.514  1.00  0.00    -0.000 C 
BRANCH  29  30
ATOM     30  C   UNL     1      88.487 321.730 200.206  1.00  0.00    -0.000 C 
BRANCH  30  31
ATOM     31  C   UNL     1      87.471 322.030 199.094  1.00  0.00    -0.003 C 
ATOM     32  C   UNL     1      88.135 322.011 197.721  1.00  0.00     0.004 C 
ENDBRANCH  30  31
ENDBRANCH  29  30
ENDBRANCH  28  29
ENDBRANCH  27  28
ENDBRANCH  26  27
ENDBRANCH  25  26
ENDBRANCH  24  25
ENDBRANCH  23  24
ENDBRANCH  22  23
ENDBRANCH  21  22
ENDBRANCH  20  21
ENDBRANCH  19  20
ENDBRANCH  18  19
ENDBRANCH   1  18
TORSDOF 28
ENDMDL
MODEL 5
REMARK VINA RESULT:    -5.579      2.872      5.322
REMARK INTER + INTRA:         -18.527
REMARK INTER:                 -15.290
REMARK INTRA:                  -3.238
REMARK UNBOUND:                -3.816
REMARK SMILES CCCCCCCCCCCCCCCCCCCCCCCCCCCCCC(=O)[O-]
REMARK SMILES IDX 16 1 17 2 18 3 19 4 20 5 21 6 22 7 23 8 24 9 25 10 26 11
REMARK SMILES IDX 27 12 28 13 29 14 30 15 31 16 32 17 15 18 14 19 13 20 12 21
REMARK SMILES IDX 11 22 10 23 9 24 8 25 7 26 6 27 5 28 4 29 3 30 2 31 1 32
REMARK H PARENT
REMARK Flexibility Score: inf
ROOT
ATOM      1  C   UNL     1      88.012 324.989 201.670  1.00  0.00     0.000 C 
ENDROOT
BRANCH   1   2
ATOM      2  C   UNL     1      87.359 324.224 202.841  1.00  0.00     0.000 C 
BRANCH   2   3
ATOM      3  C   UNL     1      88.363 323.480 203.743  1.00  0.00     0.000 C 
BRANCH   3   4
ATOM      4  C   UNL     1      87.956 323.367 205.222  1.00  0.00     0.000 C 
BRANCH   4   5
ATOM      5  C   UNL     1      86.772 324.256 205.652  1.00  0.00     0.000 C 
BRANCH   5   6
ATOM      6  C   UNL     1      87.183 325.564 206.362  1.00  0.00     0.000 C 
BRANCH   6   7
ATOM      7  C   UNL     1      88.610 325.508 206.937  1.00  0.00     0.000 C 
BRANCH   7   8
ATOM      8  C   UNL     1      89.520 326.603 206.355  1.00  0.00     0.000 C 
BRANCH   8   9
ATOM      9  C   UNL     1      89.062 327.050 204.955  1.00  0.00     0.000 C 
BRANCH   9  10
ATOM     10  C   UNL     1      90.164 327.800 204.188  1.00  0.00     0.000 C 
BRANCH  10  11
ATOM     11  C   UNL     1      90.610 327.047 202.924  1.00  0.00     0.000 C 
BRANCH  11  12
ATOM     12  C   UNL     1      92.140 327.016 202.754  1.00  0.00     0.000 C 
BRANCH  12  13
ATOM     13  C   UNL     1      92.773 325.612 202.775  1.00  0.00     0.006 C 
BRANCH  13  14
ATOM     14  C   UNL     1      93.707 325.391 203.973  1.00  0.00     0.053 C 
BRANCH  14  15
ATOM     15  C   UNL     1      94.168 326.700 204.529  1.00  0.00     0.041 C 
ATOM     16  O   UNL     1      95.093 327.340 203.962  1.00  0.00    -0.550 OA
ATOM     17  O   UNL     1      93.561 327.228 205.664  1.00  0.00    -0.550 OA
ENDBRANCH  14  15
ENDBRANCH  13  14
ENDBRANCH  12  13
ENDBRANCH  11  12
ENDBRANCH  10  11
ENDBRANCH   9  10
ENDBRANCH   8   9
ENDBRANCH   7   8
ENDBRANCH   6   7
ENDBRANCH   5   6
ENDBRANCH   4   5
ENDBRANCH   3   4
ENDBRANCH   2   3
ENDBRANCH   1   2
BRANCH   1  18
ATOM     18  C   UNL     1      89.167 324.201 201.025  1.00  0.00     0.000 C 
BRANCH  18  19
ATOM     19  C   UNL     1      89.889 324.990 199.915  1.00  0.00     0.000 C 
BRANCH  19  20
ATOM     20  C   UNL     1      89.314 326.389 199.618  1.00  0.00     0.000 C 
BRANCH  20  21
ATOM     21  C   UNL     1      88.741 326.516 198.195  1.00  0.00     0.000 C 
BRANCH  21  22
ATOM     22  C   UNL     1      88.577 325.156 197.488  1.00  0.00     0.000 C 
BRANCH  22  23
ATOM     23  C   UNL     1      88.873 325.160 195.977  1.00  0.00     0.000 C 
BRANCH  23  24
ATOM     24  C   UNL     1      88.939 326.574 195.382  1.00  0.00    -0.000 C 
BRANCH  24  25
ATOM     25  C   UNL     1      88.233 326.631 194.017  1.00  0.00    -0.000 C 
BRANCH  25  26
ATOM     26  C   UNL     1      86.799 326.077 194.062  1.00  0.00    -0.000 C 
BRANCH  26  27
ATOM     27  C   UNL     1      86.594 324.878 193.118  1.00  0.00    -0.000 C 
BRANCH  27  28
ATOM     28  C   UNL     1      87.917 324.361 192.531  1.00  0.00    -0.000 C 
BRANCH  28  29
ATOM     29  C   UNL     1      87.756 323.818 191.100  1.00  0.00    -0.000 C 
BRANCH  29  30
ATOM     30  C   UNL     1      88.396 322.432 190.921  1.00  0.00    -0.000 C 
BRANCH  30  31
ATOM     31  C   UNL     1      88.961 322.222 189.508  1.00  0.00    -0.003 C 
ATOM     32  C   UNL     1      89.381 323.547 188.880  1.00  0.00     0.004 C 
ENDBRANCH  30  31
ENDBRANCH  29  30
ENDBRANCH  28  29
ENDBRANCH  27  28
ENDBRANCH  26  27
ENDBRANCH  25  26
ENDBRANCH  24  25
ENDBRANCH  23  24
ENDBRANCH  22  23
ENDBRANCH  21  22
ENDBRANCH  20  21
ENDBRANCH  19  20
ENDBRANCH  18  19
ENDBRANCH   1  18
TORSDOF 28
ENDMDL
MODEL 6
REMARK VINA RESULT:    -5.561      3.747     11.355
REMARK INTER + INTRA:         -18.481
REMARK INTER:                 -15.528
REMARK INTRA:                  -2.954
REMARK UNBOUND:                -3.816
REMARK SMILES CCCCCCCCCCCCCCCCCCCCCCCCCCCCCC(=O)[O-]
REMARK SMILES IDX 16 1 17 2 18 3 19 4 20 5 21 6 22 7 23 8 24 9 25 10 26 11
REMARK SMILES IDX 27 12 28 13 29 14 30 15 31 16 32 17 15 18 14 19 13 20 12 21
REMARK SMILES IDX 11 22 10 23 9 24 8 25 7 26 6 27 5 28 4 29 3 30 2 31 1 32
REMARK H PARENT
REMARK Flexibility Score: inf
ROOT
ATOM      1  C   UNL     1      89.674 326.100 200.343  1.00  0.00     0.000 C 
ENDROOT
BRANCH   1   2
ATOM      2  C   UNL     1      89.182 325.497 199.009  1.00  0.00     0.000 C 
BRANCH   2   3
ATOM      3  C   UNL     1      88.567 326.528 198.042  1.00  0.00     0.000 C 
BRANCH   3   4
ATOM      4  C   UNL     1      88.075 325.956 196.702  1.00  0.00     0.000 C 
BRANCH   4   5
ATOM      5  C   UNL     1      88.937 326.314 195.474  1.00  0.00     0.000 C 
BRANCH   5   6
ATOM      6  C   UNL     1      88.129 326.710 194.221  1.00  0.00     0.000 C 
BRANCH   6   7
ATOM      7  C   UNL     1      86.662 326.245 194.285  1.00  0.00     0.000 C 
BRANCH   7   8
ATOM      8  C   UNL     1      86.360 325.118 193.283  1.00  0.00     0.000 C 
BRANCH   8   9
ATOM      9  C   UNL     1      87.603 324.723 192.465  1.00  0.00     0.000 C 
BRANCH   9  10
ATOM     10  C   UNL     1      88.048 323.277 192.735  1.00  0.00     0.000 C 
BRANCH  10  11
ATOM     11  C   UNL     1      88.450 322.540 191.447  1.00  0.00     0.000 C 
BRANCH  11  12
ATOM     12  C   UNL     1      88.182 323.366 190.175  1.00  0.00     0.000 C 
BRANCH  12  13
ATOM     13  C   UNL     1      89.263 323.259 189.084  1.00  0.00     0.006 C 
BRANCH  13  14
ATOM     14  C   UNL     1      89.435 321.831 188.547  1.00  0.00     0.053 C 
BRANCH  14  15
ATOM     15  C   UNL     1      90.886 321.481 188.440  1.00  0.00     0.041 C 
ATOM     16  O   UNL     1      91.593 321.383 189.478  1.00  0.00    -0.550 OA
ATOM     17  O   UNL     1      91.455 321.240 187.194  1.00  0.00    -0.550 OA
ENDBRANCH  14  15
ENDBRANCH  13  14
ENDBRANCH  12  13
ENDBRANCH  11  12
ENDBRANCH  10  11
ENDBRANCH   9  10
ENDBRANCH   8   9
ENDBRANCH   7   8
ENDBRANCH   6   7
ENDBRANCH   5   6
ENDBRANCH   4   5
ENDBRANCH   3   4
ENDBRANCH   2   3
ENDBRANCH   1   2
BRANCH   1  18
ATOM     18  C   UNL     1      88.550 326.198 201.391  1.00  0.00     0.000 C 
BRANCH  18  19
ATOM     19  C   UNL     1      89.040 325.926 202.827  1.00  0.00     0.000 C 
BRANCH  19  20
ATOM     20  C   UNL     1      89.301 327.179 203.685  1.00  0.00     0.000 C 
BRANCH  20  21
ATOM     21  C   UNL     1      90.678 327.162 204.374  1.00  0.00     0.000 C 
BRANCH  21  22
ATOM     22  C   UNL     1      90.615 327.576 205.857  1.00  0.00     0.000 C 
BRANCH  22  23
ATOM     23  C   UNL     1      90.871 326.443 206.868  1.00  0.00     0.000 C 
BRANCH  23  24
ATOM     24  C   UNL     1      89.705 325.449 206.964  1.00  0.00    -0.000 C 
BRANCH  24  25
ATOM     25  C   UNL     1      88.361 326.186 207.083  1.00  0.00    -0.000 C 
BRANCH  25  26
ATOM     26  C   UNL     1      87.218 325.468 206.347  1.00  0.00    -0.000 C 
BRANCH  26  27
ATOM     27  C   UNL     1      87.619 324.069 205.843  1.00  0.00    -0.000 C 
BRANCH  27  28
ATOM     28  C   UNL     1      86.481 323.374 205.077  1.00  0.00    -0.000 C 
BRANCH  28  29
ATOM     29  C   UNL     1      86.045 324.160 203.828  1.00  0.00    -0.000 C 
BRANCH  29  30
ATOM     30  C   UNL     1      86.338 323.400 202.524  1.00  0.00    -0.000 C 
BRANCH  30  31
ATOM     31  C   UNL     1      87.073 322.074 202.768  1.00  0.00    -0.003 C 
ATOM     32  C   UNL     1      88.566 322.211 202.482  1.00  0.00     0.004 C 
ENDBRANCH  30  31
ENDBRANCH  29  30
ENDBRANCH  28  29
ENDBRANCH  27  28
ENDBRANCH  26  27
ENDBRANCH  25  26
ENDBRANCH  24  25
ENDBRANCH  23  24
ENDBRANCH  22  23
ENDBRANCH  21  22
ENDBRANCH  20  21
ENDBRANCH  19  20
ENDBRANCH  18  19
ENDBRANCH   1  18
TORSDOF 28
ENDMDL
MODEL 7
REMARK VINA RESULT:    -5.534      2.119      3.644
REMARK INTER + INTRA:         -18.409
REMARK INTER:                 -13.872
REMARK INTRA:                  -4.537
REMARK UNBOUND:                -3.816
REMARK SMILES CCCCCCCCCCCCCCCCCCCCCCCCCCCCCC(=O)[O-]
REMARK SMILES IDX 16 1 17 2 18 3 19 4 20 5 21 6 22 7 23 8 24 9 25 10 26 11
REMARK SMILES IDX 27 12 28 13 29 14 30 15 31 16 32 17 15 18 14 19 13 20 12 21
REMARK SMILES IDX 11 22 10 23 9 24 8 25 7 26 6 27 5 28 4 29 3 30 2 31 1 32
REMARK H PARENT
REMARK Flexibility Score: inf
ROOT
ATOM      1  C   UNL     1      88.765 325.668 197.884  1.00  0.00     0.000 C 
ENDROOT
BRANCH   1   2
ATOM      2  C   UNL     1      88.923 326.871 198.839  1.00  0.00     0.000 C 
BRANCH   2   3
ATOM      3  C   UNL     1      89.607 326.525 200.176  1.00  0.00     0.000 C 
BRANCH   3   4
ATOM      4  C   UNL     1      90.076 325.067 200.314  1.00  0.00     0.000 C 
BRANCH   4   5
ATOM      5  C   UNL     1      89.467 324.285 201.496  1.00  0.00     0.000 C 
BRANCH   5   6
ATOM      6  C   UNL     1      87.986 323.898 201.308  1.00  0.00     0.000 C 
BRANCH   6   7
ATOM      7  C   UNL     1      87.199 323.890 202.632  1.00  0.00     0.000 C 
BRANCH   7   8
ATOM      8  C   UNL     1      87.677 322.787 203.592  1.00  0.00     0.000 C 
BRANCH   8   9
ATOM      9  C   UNL     1      87.498 323.186 205.067  1.00  0.00     0.000 C 
BRANCH   9  10
ATOM     10  C   UNL     1      86.401 324.245 205.261  1.00  0.00     0.000 C 
BRANCH  10  11
ATOM     11  C   UNL     1      86.794 325.308 206.301  1.00  0.00     0.000 C 
BRANCH  11  12
ATOM     12  C   UNL     1      88.317 325.428 206.490  1.00  0.00     0.000 C 
BRANCH  12  13
ATOM     13  C   UNL     1      88.931 326.762 206.029  1.00  0.00     0.006 C 
BRANCH  13  14
ATOM     14  C   UNL     1      89.134 326.838 204.510  1.00  0.00     0.053 C 
BRANCH  14  15
ATOM     15  C   UNL     1      90.592 326.828 204.172  1.00  0.00     0.041 C 
ATOM     16  O   UNL     1      91.009 327.428 203.147  1.00  0.00    -0.550 OA
ATOM     17  O   UNL     1      91.495 326.175 205.004  1.00  0.00    -0.550 OA
ENDBRANCH  14  15
ENDBRANCH  13  14
ENDBRANCH  12  13
ENDBRANCH  11  12
ENDBRANCH  10  11
ENDBRANCH   9  10
ENDBRANCH   8   9
ENDBRANCH   7   8
ENDBRANCH   6   7
ENDBRANCH   5   6
ENDBRANCH   4   5
ENDBRANCH   3   4
ENDBRANCH   2   3
ENDBRANCH   1   2
BRANCH   1  18
ATOM     18  C   UNL     1      87.988 326.032 196.605  1.00  0.00     0.000 C 
BRANCH  18  19
ATOM     19  C   UNL     1      88.906 326.273 195.391  1.00  0.00     0.000 C 
BRANCH  19  20
ATOM     20  C   UNL     1      88.184 326.620 194.074  1.00  0.00     0.000 C 
BRANCH  20  21
ATOM     21  C   UNL     1      86.776 326.005 193.978  1.00  0.00     0.000 C 
BRANCH  21  22
ATOM     22  C   UNL     1      86.738 324.717 193.132  1.00  0.00     0.000 C 
BRANCH  22  23
ATOM     23  C   UNL     1      87.906 324.545 192.143  1.00  0.00     0.000 C 
BRANCH  23  24
ATOM     24  C   UNL     1      88.265 323.074 191.890  1.00  0.00    -0.000 C 
BRANCH  24  25
ATOM     25  C   UNL     1      87.853 322.193 193.081  1.00  0.00    -0.000 C 
BRANCH  25  26
ATOM     26  C   UNL     1      89.051 321.743 193.934  1.00  0.00    -0.000 C 
BRANCH  26  27
ATOM     27  C   UNL     1      89.182 322.539 195.245  1.00  0.00    -0.000 C 
BRANCH  27  28
ATOM     28  C   UNL     1      87.909 322.466 196.104  1.00  0.00    -0.000 C 
BRANCH  28  29
ATOM     29  C   UNL     1      88.194 322.002 197.543  1.00  0.00    -0.000 C 
BRANCH  29  30
ATOM     30  C   UNL     1      89.649 322.259 197.967  1.00  0.00    -0.000 C 
BRANCH  30  31
ATOM     31  C   UNL     1      90.174 321.198 198.945  1.00  0.00    -0.003 C 
ATOM     32  C   UNL     1      89.027 320.507 199.677  1.00  0.00     0.004 C 
ENDBRANCH  30  31
ENDBRANCH  29  30
ENDBRANCH  28  29
ENDBRANCH  27  28
ENDBRANCH  26  27
ENDBRANCH  25  26
ENDBRANCH  24  25
ENDBRANCH  23  24
ENDBRANCH  22  23
ENDBRANCH  21  22
ENDBRANCH  20  21
ENDBRANCH  19  20
ENDBRANCH  18  19
ENDBRANCH   1  18
TORSDOF 28
ENDMDL
MODEL 8
REMARK VINA RESULT:    -5.509      1.575      9.460
REMARK INTER + INTRA:         -18.343
REMARK INTER:                 -14.206
REMARK INTRA:                  -4.137
REMARK UNBOUND:                -3.816
REMARK SMILES CCCCCCCCCCCCCCCCCCCCCCCCCCCCCC(=O)[O-]
REMARK SMILES IDX 16 1 17 2 18 3 19 4 20 5 21 6 22 7 23 8 24 9 25 10 26 11
REMARK SMILES IDX 27 12 28 13 29 14 30 15 31 16 32 17 15 18 14 19 13 20 12 21
REMARK SMILES IDX 11 22 10 23 9 24 8 25 7 26 6 27 5 28 4 29 3 30 2 31 1 32
REMARK H PARENT
REMARK Flexibility Score: inf
ROOT
ATOM      1  C   UNL     1      89.880 325.443 199.947  1.00  0.00     0.000 C 
ENDROOT
BRANCH   1   2
ATOM      2  C   UNL     1      89.016 325.160 198.699  1.00  0.00     0.000 C 
BRANCH   2   3
ATOM      3  C   UNL     1      88.565 326.428 197.946  1.00  0.00     0.000 C 
BRANCH   3   4
ATOM      4  C   UNL     1      87.982 326.184 196.544  1.00  0.00     0.000 C 
BRANCH   4   5
ATOM      5  C   UNL     1      88.920 326.524 195.368  1.00  0.00     0.000 C 
BRANCH   5   6
ATOM      6  C   UNL     1      88.204 326.716 194.016  1.00  0.00     0.000 C 
BRANCH   6   7
ATOM      7  C   UNL     1      86.718 326.313 194.064  1.00  0.00     0.000 C 
BRANCH   7   8
ATOM      8  C   UNL     1      86.427 325.049 193.238  1.00  0.00     0.000 C 
BRANCH   8   9
ATOM      9  C   UNL     1      87.700 324.474 192.593  1.00  0.00     0.000 C 
BRANCH   9  10
ATOM     10  C   UNL     1      88.046 323.072 193.122  1.00  0.00     0.000 C 
BRANCH  10  11
ATOM     11  C   UNL     1      88.877 323.125 194.414  1.00  0.00     0.000 C 
BRANCH  11  12
ATOM     12  C   UNL     1      88.058 322.771 195.669  1.00  0.00     0.000 C 
BRANCH  12  13
ATOM     13  C   UNL     1      88.567 321.552 196.460  1.00  0.00     0.006 C 
BRANCH  13  14
ATOM     14  C   UNL     1      90.091 321.382 196.389  1.00  0.00     0.053 C 
BRANCH  14  15
ATOM     15  C   UNL     1      90.757 322.140 197.493  1.00  0.00     0.041 C 
ATOM     16  O   UNL     1      91.473 323.142 197.233  1.00  0.00    -0.550 OA
ATOM     17  O   UNL     1      90.569 321.753 198.816  1.00  0.00    -0.550 OA
ENDBRANCH  14  15
ENDBRANCH  13  14
ENDBRANCH  12  13
ENDBRANCH  11  12
ENDBRANCH  10  11
ENDBRANCH   9  10
ENDBRANCH   8   9
ENDBRANCH   7   8
ENDBRANCH   6   7
ENDBRANCH   5   6
ENDBRANCH   4   5
ENDBRANCH   3   4
ENDBRANCH   2   3
ENDBRANCH   1   2
BRANCH   1  18
ATOM     18  C   UNL     1      89.222 326.459 200.898  1.00  0.00     0.000 C 
BRANCH  18  19
ATOM     19  C   UNL     1      89.191 325.981 202.363  1.00  0.00     0.000 C 
BRANCH  19  20
ATOM     20  C   UNL     1      88.950 327.082 203.413  1.00  0.00     0.000 C 
BRANCH  20  21
ATOM     21  C   UNL     1      90.194 327.382 204.270  1.00  0.00     0.000 C 
BRANCH  21  22
ATOM     22  C   UNL     1      89.933 327.239 205.782  1.00  0.00     0.000 C 
BRANCH  22  23
ATOM     23  C   UNL     1      89.378 325.874 206.229  1.00  0.00     0.000 C 
BRANCH  23  24
ATOM     24  C   UNL     1      87.966 325.965 206.823  1.00  0.00    -0.000 C 
BRANCH  24  25
ATOM     25  C   UNL     1      86.958 325.172 205.975  1.00  0.00    -0.000 C 
BRANCH  25  26
ATOM     26  C   UNL     1      87.280 323.670 205.913  1.00  0.00    -0.000 C 
BRANCH  26  27
ATOM     27  C   UNL     1      87.640 323.195 204.494  1.00  0.00    -0.000 C 
BRANCH  27  28
ATOM     28  C   UNL     1      86.609 323.646 203.446  1.00  0.00    -0.000 C 
BRANCH  28  29
ATOM     29  C   UNL     1      86.479 322.650 202.280  1.00  0.00    -0.000 C 
BRANCH  29  30
ATOM     30  C   UNL     1      87.650 322.750 201.289  1.00  0.00    -0.000 C 
BRANCH  30  31
ATOM     31  C   UNL     1      87.270 322.273 199.879  1.00  0.00    -0.003 C 
ATOM     32  C   UNL     1      86.743 320.841 199.905  1.00  0.00     0.004 C 
ENDBRANCH  30  31
ENDBRANCH  29  30
ENDBRANCH  28  29
ENDBRANCH  27  28
ENDBRANCH  26  27
ENDBRANCH  25  26
ENDBRANCH  24  25
ENDBRANCH  23  24
ENDBRANCH  22  23
ENDBRANCH  21  22
ENDBRANCH  20  21
ENDBRANCH  19  20
ENDBRANCH  18  19
ENDBRANCH   1  18
TORSDOF 28
ENDMDL
MODEL 9
REMARK VINA RESULT:    -5.481      1.691     10.439
REMARK INTER + INTRA:         -18.268
REMARK INTER:                 -14.510
REMARK INTRA:                  -3.758
REMARK UNBOUND:                -3.816
REMARK SMILES CCCCCCCCCCCCCCCCCCCCCCCCCCCCCC(=O)[O-]
REMARK SMILES IDX 16 1 17 2 18 3 19 4 20 5 21 6 22 7 23 8 24 9 25 10 26 11
REMARK SMILES IDX 27 12 28 13 29 14 30 15 31 16 32 17 15 18 14 19 13 20 12 21
REMARK SMILES IDX 11 22 10 23 9 24 8 25 7 26 6 27 5 28 4 29 3 30 2 31 1 32
REMARK H PARENT
REMARK Flexibility Score: inf
ROOT
ATOM      1  C   UNL     1      88.083 326.097 196.806  1.00  0.00     0.000 C 
ENDROOT
BRANCH   1   2
ATOM      2  C   UNL     1      88.888 326.477 195.545  1.00  0.00     0.000 C 
BRANCH   2   3
ATOM      3  C   UNL     1      88.031 326.620 194.272  1.00  0.00     0.000 C 
BRANCH   3   4
ATOM      4  C   UNL     1      88.104 325.433 193.297  1.00  0.00     0.000 C 
BRANCH   4   5
ATOM      5  C   UNL     1      86.766 324.716 193.026  1.00  0.00     0.000 C 
BRANCH   5   6
ATOM      6  C   UNL     1      86.773 323.803 191.782  1.00  0.00     0.000 C 
BRANCH   6   7
ATOM      7  C   UNL     1      88.097 323.872 190.998  1.00  0.00     0.000 C 
BRANCH   7   8
ATOM      8  C   UNL     1      88.089 322.965 189.756  1.00  0.00     0.000 C 
BRANCH   8   9
ATOM      9  C   UNL     1      88.217 321.477 190.126  1.00  0.00     0.000 C 
BRANCH   9  10
ATOM     10  C   UNL     1      89.301 321.225 191.186  1.00  0.00     0.000 C 
BRANCH  10  11
ATOM     11  C   UNL     1      88.722 320.641 192.485  1.00  0.00     0.000 C 
BRANCH  11  12
ATOM     12  C   UNL     1      89.561 320.994 193.727  1.00  0.00     0.000 C 
BRANCH  12  13
ATOM     13  C   UNL     1      88.992 322.126 194.602  1.00  0.00     0.006 C 
BRANCH  13  14
ATOM     14  C   UNL     1      87.550 321.867 195.058  1.00  0.00     0.053 C 
BRANCH  14  15
ATOM     15  C   UNL     1      87.532 321.037 196.303  1.00  0.00     0.041 C 
ATOM     16  O   UNL     1      86.592 320.225 196.510  1.00  0.00    -0.550 OA
ATOM     17  O   UNL     1      88.566 321.144 197.226  1.00  0.00    -0.550 OA
ENDBRANCH  14  15
ENDBRANCH  13  14
ENDBRANCH  12  13
ENDBRANCH  11  12
ENDBRANCH  10  11
ENDBRANCH   9  10
ENDBRANCH   8   9
ENDBRANCH   7   8
ENDBRANCH   6   7
ENDBRANCH   5   6
ENDBRANCH   4   5
ENDBRANCH   3   4
ENDBRANCH   2   3
ENDBRANCH   1   2
BRANCH   1  18
ATOM     18  C   UNL     1      88.419 324.682 197.313  1.00  0.00     0.000 C 
BRANCH  18  19
ATOM     19  C   UNL     1      88.897 324.665 198.778  1.00  0.00     0.000 C 
BRANCH  19  20
ATOM     20  C   UNL     1      89.169 326.048 199.401  1.00  0.00     0.000 C 
BRANCH  20  21
ATOM     21  C   UNL     1      89.886 325.966 200.761  1.00  0.00     0.000 C 
BRANCH  21  22
ATOM     22  C   UNL     1      89.048 326.542 201.920  1.00  0.00     0.000 C 
BRANCH  22  23
ATOM     23  C   UNL     1      89.613 326.289 203.329  1.00  0.00     0.000 C 
BRANCH  23  24
ATOM     24  C   UNL     1      88.941 327.150 204.409  1.00  0.00    -0.000 C 
BRANCH  24  25
ATOM     25  C   UNL     1      89.372 326.706 205.816  1.00  0.00    -0.000 C 
BRANCH  25  26
ATOM     26  C   UNL     1      88.185 326.289 206.701  1.00  0.00    -0.000 C 
BRANCH  26  27
ATOM     27  C   UNL     1      87.884 324.781 206.624  1.00  0.00    -0.000 C 
BRANCH  27  28
ATOM     28  C   UNL     1      86.752 324.459 205.635  1.00  0.00    -0.000 C 
BRANCH  28  29
ATOM     29  C   UNL     1      87.234 323.619 204.440  1.00  0.00    -0.000 C 
BRANCH  29  30
ATOM     30  C   UNL     1      86.402 323.868 203.172  1.00  0.00    -0.000 C 
BRANCH  30  31
ATOM     31  C   UNL     1      87.137 323.445 201.891  1.00  0.00    -0.003 C 
ATOM     32  C   UNL     1      87.457 321.953 201.907  1.00  0.00     0.004 C 
ENDBRANCH  30  31
ENDBRANCH  29  30
ENDBRANCH  28  29
ENDBRANCH  27  28
ENDBRANCH  26  27
ENDBRANCH  25  26
ENDBRANCH  24  25
ENDBRANCH  23  24
ENDBRANCH  22  23
ENDBRANCH  21  22
ENDBRANCH  20  21
ENDBRANCH  19  20
ENDBRANCH  18  19
ENDBRANCH   1  18
TORSDOF 28
ENDMDL
