MODEL 1
REMARK VINA RESULT:    -5.806      0.000      0.000
REMARK INTER + INTRA:         -10.205
REMARK INTER:                  -8.861
REMARK INTRA:                  -1.344
REMARK UNBOUND:                -1.344
REMARK SMILES CC(=O)CCC=C(C)CCC=C(C)CCC=C(C)C
REMARK SMILES IDX 10 1 11 2 12 3 13 4 14 5 15 6 16 7 18 8 17 9 19 10 9 11 7 12
REMARK SMILES IDX 6 13 8 14 5 15 4 16 2 17 3 18 1 19
REMARK H PARENT
REMARK Flexibility Score: inf
ROOT
ATOM      1  C   UNL     1      15.512  18.000  57.369  1.00  0.00     0.032 C 
ENDROOT
BRANCH   1   2
ATOM      2  C   UNL     1      15.217  18.166  55.899  1.00  0.00    -0.028 C 
ATOM      3  C   UNL     1      14.289  17.453  55.221  1.00  0.00    -0.077 C 
ATOM      4  C   UNL     1      13.480  16.361  55.884  1.00  0.00     0.039 C 
BRANCH   3   5
ATOM      5  C   UNL     1      14.064  17.746  53.753  1.00  0.00     0.034 C 
BRANCH   5   6
ATOM      6  C   UNL     1      12.930  16.882  53.190  1.00  0.00     0.032 C 
BRANCH   6   7
ATOM      7  C   UNL     1      13.475  15.817  52.271  1.00  0.00    -0.028 C 
ATOM      8  C   UNL     1      12.256  13.965  53.435  1.00  0.00     0.039 C 
ATOM      9  C   UNL     1      13.152  14.506  52.349  1.00  0.00    -0.080 C 
ATOM     10  C   UNL     1      13.733  13.531  51.358  1.00  0.00     0.039 C 
ENDBRANCH   6   7
ENDBRANCH   5   6
ENDBRANCH   3   5
ENDBRANCH   1   2
BRANCH   1  11
ATOM     11  C   UNL     1      14.792  19.076  58.190  1.00  0.00     0.034 C 
BRANCH  11  12
ATOM     12  C   UNL     1      13.627  18.482  58.950  1.00  0.00    -0.077 C 
ATOM     13  C   UNL     1      12.377  18.629  58.452  1.00  0.00    -0.028 C 
ATOM     14  C   UNL     1      13.890  17.730  60.233  1.00  0.00     0.039 C 
BRANCH  13  15
ATOM     15  C   UNL     1      11.126  18.122  59.123  1.00  0.00     0.035 C 
BRANCH  15  16
ATOM     16  C   UNL     1      10.513  19.204  60.018  1.00  0.00     0.079 C 
BRANCH  16  17
ATOM     17  C   UNL     1      10.015  18.606  61.308  1.00  0.00     0.130 C 
ATOM     18  O   UNL     1       9.417  17.541  61.285  1.00  0.00    -0.300 OA
ATOM     19  C   UNL     1      10.229  19.295  62.623  1.00  0.00     0.087 C 
ENDBRANCH  16  17
ENDBRANCH  15  16
ENDBRANCH  13  15
ENDBRANCH  11  12
ENDBRANCH   1  11
TORSDOF 9
ENDMDL
MODEL 2
REMARK VINA RESULT:    -5.800      3.303      6.035
REMARK INTER + INTRA:         -10.196
REMARK INTER:                  -7.714
REMARK INTRA:                  -2.481
REMARK UNBOUND:                -1.344
REMARK SMILES CC(=O)CCC=C(C)CCC=C(C)CCC=C(C)C
REMARK SMILES IDX 10 1 11 2 12 3 13 4 14 5 15 6 16 7 18 8 17 9 19 10 9 11 7 12
REMARK SMILES IDX 6 13 8 14 5 15 4 16 2 17 3 18 1 19
REMARK H PARENT
REMARK Flexibility Score: inf
ROOT
ATOM      1  C   UNL     1      13.366  15.895  54.955  1.00  0.00     0.032 C 
ENDROOT
BRANCH   1   2
ATOM      2  C   UNL     1      14.328  16.614  55.867  1.00  0.00    -0.028 C 
ATOM      3  C   UNL     1      14.835  17.845  55.626  1.00  0.00    -0.077 C 
ATOM      4  C   UNL     1      14.513  18.606  54.361  1.00  0.00     0.039 C 
BRANCH   3   5
ATOM      5  C   UNL     1      15.762  18.471  56.645  1.00  0.00     0.034 C 
BRANCH   5   6
ATOM      6  C   UNL     1      15.129  18.458  58.041  1.00  0.00     0.032 C 
BRANCH   6   7
ATOM      7  C   UNL     1      14.032  19.489  58.139  1.00  0.00    -0.028 C 
ATOM      8  C   UNL     1      12.449  17.926  59.289  1.00  0.00     0.039 C 
ATOM      9  C   UNL     1      12.834  19.272  58.729  1.00  0.00    -0.080 C 
ATOM     10  C   UNL     1      11.821  20.385  58.799  1.00  0.00     0.039 C 
ENDBRANCH   6   7
ENDBRANCH   5   6
ENDBRANCH   3   5
ENDBRANCH   1   2
BRANCH   1  11
ATOM     11  C   UNL     1      11.952  15.899  55.547  1.00  0.00     0.034 C 
BRANCH  11  12
ATOM     12  C   UNL     1      11.174  17.106  55.071  1.00  0.00    -0.077 C 
ATOM     13  C   UNL     1      10.847  18.068  55.964  1.00  0.00    -0.028 C 
ATOM     14  C   UNL     1      10.797  17.211  53.612  1.00  0.00     0.039 C 
BRANCH  13  15
ATOM     15  C   UNL     1      10.043  19.301  55.635  1.00  0.00     0.035 C 
BRANCH  15  16
ATOM     16  C   UNL     1      10.964  20.458  55.235  1.00  0.00     0.079 C 
BRANCH  16  17
ATOM     17  C   UNL     1      10.212  21.480  54.424  1.00  0.00     0.130 C 
ATOM     18  O   UNL     1      10.021  21.280  53.234  1.00  0.00    -0.300 OA
ATOM     19  C   UNL     1       9.697  22.745  55.044  1.00  0.00     0.087 C 
ENDBRANCH  16  17
ENDBRANCH  15  16
ENDBRANCH  13  15
ENDBRANCH  11  12
ENDBRANCH   1  11
TORSDOF 9
ENDMDL
MODEL 3
REMARK VINA RESULT:    -5.790      4.153      5.792
REMARK INTER + INTRA:         -10.180
REMARK INTER:                  -9.039
REMARK INTRA:                  -1.141
REMARK UNBOUND:                -1.344
REMARK SMILES CC(=O)CCC=C(C)CCC=C(C)CCC=C(C)C
REMARK SMILES IDX 10 1 11 2 12 3 13 4 14 5 15 6 16 7 18 8 17 9 19 10 9 11 7 12
REMARK SMILES IDX 6 13 8 14 5 15 4 16 2 17 3 18 1 19
REMARK H PARENT
REMARK Flexibility Score: inf
ROOT
ATOM      1  C   UNL     1      11.519  19.551  58.837  1.00  0.00     0.032 C 
ENDROOT
BRANCH   1   2
ATOM      2  C   UNL     1      12.951  19.777  58.419  1.00  0.00    -0.028 C 
ATOM      3  C   UNL     1      13.992  19.011  58.817  1.00  0.00    -0.077 C 
ATOM      4  C   UNL     1      13.815  17.861  59.782  1.00  0.00     0.039 C 
BRANCH   3   5
ATOM      5  C   UNL     1      15.377  19.323  58.292  1.00  0.00     0.034 C 
BRANCH   5   6
ATOM      6  C   UNL     1      15.849  18.239  57.316  1.00  0.00     0.032 C 
BRANCH   6   7
ATOM      7  C   UNL     1      15.372  18.536  55.916  1.00  0.00    -0.028 C 
ATOM      8  C   UNL     1      14.044  16.420  55.749  1.00  0.00     0.039 C 
ATOM      9  C   UNL     1      14.532  17.743  55.213  1.00  0.00    -0.080 C 
ATOM     10  C   UNL     1      14.095  18.152  53.831  1.00  0.00     0.039 C 
ENDBRANCH   6   7
ENDBRANCH   5   6
ENDBRANCH   3   5
ENDBRANCH   1   2
BRANCH   1  11
ATOM     11  C   UNL     1      10.767  20.883  58.935  1.00  0.00     0.034 C 
BRANCH  11  12
ATOM     12  C   UNL     1       9.774  21.025  57.803  1.00  0.00    -0.077 C 
ATOM     13  C   UNL     1       9.354  22.262  57.451  1.00  0.00    -0.028 C 
ATOM     14  C   UNL     1       9.289  19.785  57.088  1.00  0.00     0.039 C 
BRANCH  13  15
ATOM     15  C   UNL     1       8.342  22.545  56.369  1.00  0.00     0.035 C 
BRANCH  15  16
ATOM     16  C   UNL     1       8.538  23.952  55.796  1.00  0.00     0.079 C 
BRANCH  16  17
ATOM     17  C   UNL     1       7.514  24.902  56.360  1.00  0.00     0.130 C 
ATOM     18  O   UNL     1       7.729  25.451  57.430  1.00  0.00    -0.300 OA
ATOM     19  C   UNL     1       6.229  25.184  55.640  1.00  0.00     0.087 C 
ENDBRANCH  16  17
ENDBRANCH  15  16
ENDBRANCH  13  15
ENDBRANCH  11  12
ENDBRANCH   1  11
TORSDOF 9
ENDMDL
MODEL 4
REMARK VINA RESULT:    -5.763      2.057      5.035
REMARK INTER + INTRA:         -10.138
REMARK INTER:                  -7.842
REMARK INTRA:                  -2.296
REMARK UNBOUND:                -1.344
REMARK SMILES CC(=O)CCC=C(C)CCC=C(C)CCC=C(C)C
REMARK SMILES IDX 10 1 11 2 12 3 13 4 14 5 15 6 16 7 18 8 17 9 19 10 9 11 7 12
REMARK SMILES IDX 6 13 8 14 5 15 4 16 2 17 3 18 1 19
REMARK H PARENT
REMARK Flexibility Score: inf
ROOT
ATOM      1  C   UNL     1      13.362  15.878  54.671  1.00  0.00     0.032 C 
ENDROOT
BRANCH   1   2
ATOM      2  C   UNL     1      14.442  16.382  55.596  1.00  0.00    -0.028 C 
ATOM      3  C   UNL     1      14.860  17.666  55.655  1.00  0.00    -0.077 C 
ATOM      4  C   UNL     1      14.302  18.730  54.737  1.00  0.00     0.039 C 
BRANCH   3   5
ATOM      5  C   UNL     1      15.928  18.047  56.658  1.00  0.00     0.034 C 
BRANCH   5   6
ATOM      6  C   UNL     1      15.370  19.012  57.710  1.00  0.00     0.032 C 
BRANCH   6   7
ATOM      7  C   UNL     1      14.471  18.284  58.679  1.00  0.00    -0.028 C 
ATOM      8  C   UNL     1      12.639  19.983  58.500  1.00  0.00     0.039 C 
ATOM      9  C   UNL     1      13.226  18.693  59.016  1.00  0.00    -0.080 C 
ATOM     10  C   UNL     1      12.401  17.871  59.972  1.00  0.00     0.039 C 
ENDBRANCH   6   7
ENDBRANCH   5   6
ENDBRANCH   3   5
ENDBRANCH   1   2
BRANCH   1  11
ATOM     11  C   UNL     1      12.098  15.518  55.460  1.00  0.00     0.034 C 
BRANCH  11  12
ATOM     12  C   UNL     1      11.164  16.706  55.550  1.00  0.00    -0.077 C 
ATOM     13  C   UNL     1      10.806  17.166  56.771  1.00  0.00    -0.028 C 
ATOM     14  C   UNL     1      10.670  17.353  54.278  1.00  0.00     0.039 C 
BRANCH  13  15
ATOM     15  C   UNL     1       9.856  18.313  57.006  1.00  0.00     0.035 C 
BRANCH  15  16
ATOM     16  C   UNL     1       8.642  17.855  57.820  1.00  0.00     0.079 C 
BRANCH  16  17
ATOM     17  C   UNL     1       8.713  18.390  59.226  1.00  0.00     0.130 C 
ATOM     18  O   UNL     1       9.359  19.402  59.452  1.00  0.00    -0.300 OA
ATOM     19  C   UNL     1       8.014  17.702  60.361  1.00  0.00     0.087 C 
ENDBRANCH  16  17
ENDBRANCH  15  16
ENDBRANCH  13  15
ENDBRANCH  11  12
ENDBRANCH   1  11
TORSDOF 9
ENDMDL
MODEL 5
REMARK VINA RESULT:    -5.736      1.885      2.843
REMARK INTER + INTRA:         -10.097
REMARK INTER:                  -7.822
REMARK INTRA:                  -2.275
REMARK UNBOUND:                -1.344
REMARK SMILES CC(=O)CCC=C(C)CCC=C(C)CCC=C(C)C
REMARK SMILES IDX 10 1 11 2 12 3 13 4 14 5 15 6 16 7 18 8 17 9 19 10 9 11 7 12
REMARK SMILES IDX 6 13 8 14 5 15 4 16 2 17 3 18 1 19
REMARK H PARENT
REMARK Flexibility Score: inf
ROOT
ATOM      1  C   UNL     1      15.414  18.031  57.192  1.00  0.00     0.032 C 
ENDROOT
BRANCH   1   2
ATOM      2  C   UNL     1      14.909  18.287  55.794  1.00  0.00    -0.028 C 
ATOM      3  C   UNL     1      14.167  17.413  55.077  1.00  0.00    -0.077 C 
ATOM      4  C   UNL     1      13.812  16.044  55.609  1.00  0.00     0.039 C 
BRANCH   3   5
ATOM      5  C   UNL     1      13.690  17.812  53.697  1.00  0.00     0.034 C 
BRANCH   5   6
ATOM      6  C   UNL     1      12.195  17.522  53.530  1.00  0.00     0.032 C 
BRANCH   6   7
ATOM      7  C   UNL     1      11.365  18.585  54.206  1.00  0.00    -0.028 C 
ATOM      8  C   UNL     1      10.234  16.955  55.734  1.00  0.00     0.039 C 
ATOM      9  C   UNL     1      10.505  18.348  55.223  1.00  0.00    -0.080 C 
ATOM     10  C   UNL     1       9.748  19.492  55.846  1.00  0.00     0.039 C 
ENDBRANCH   6   7
ENDBRANCH   5   6
ENDBRANCH   3   5
ENDBRANCH   1   2
BRANCH   1  11
ATOM     11  C   UNL     1      14.760  18.994  58.190  1.00  0.00     0.034 C 
BRANCH  11  12
ATOM     12  C   UNL     1      13.722  18.279  59.026  1.00  0.00    -0.077 C 
ATOM     13  C   UNL     1      12.469  18.138  58.534  1.00  0.00    -0.028 C 
ATOM     14  C   UNL     1      14.114  17.731  60.378  1.00  0.00     0.039 C 
BRANCH  13  15
ATOM     15  C   UNL     1      11.331  17.483  59.274  1.00  0.00     0.035 C 
BRANCH  15  16
ATOM     16  C   UNL     1      10.089  18.380  59.265  1.00  0.00     0.079 C 
BRANCH  16  17
ATOM     17  C   UNL     1      10.164  19.401  60.369  1.00  0.00     0.130 C 
ATOM     18  O   UNL     1      10.343  20.577  60.089  1.00  0.00    -0.300 OA
ATOM     19  C   UNL     1      10.032  19.006  61.810  1.00  0.00     0.087 C 
ENDBRANCH  16  17
ENDBRANCH  15  16
ENDBRANCH  13  15
ENDBRANCH  11  12
ENDBRANCH   1  11
TORSDOF 9
ENDMDL
MODEL 6
REMARK VINA RESULT:    -5.732      2.143      3.985
REMARK INTER + INTRA:         -10.092
REMARK INTER:                  -7.419
REMARK INTRA:                  -2.673
REMARK UNBOUND:                -1.344
REMARK SMILES CC(=O)CCC=C(C)CCC=C(C)CCC=C(C)C
REMARK SMILES IDX 10 1 11 2 12 3 13 4 14 5 15 6 16 7 18 8 17 9 19 10 9 11 7 12
REMARK SMILES IDX 6 13 8 14 5 15 4 16 2 17 3 18 1 19
REMARK H PARENT
REMARK Flexibility Score: inf
ROOT
ATOM      1  C   UNL     1      10.316  19.111  54.538  1.00  0.00     0.032 C 
ENDROOT
BRANCH   1   2
ATOM      2  C   UNL     1      11.110  17.873  54.203  1.00  0.00    -0.028 C 
ATOM      3  C   UNL     1      11.057  16.718  54.904  1.00  0.00    -0.077 C 
ATOM      4  C   UNL     1      10.213  16.579  56.150  1.00  0.00     0.039 C 
BRANCH   3   5
ATOM      5  C   UNL     1      11.878  15.536  54.436  1.00  0.00     0.034 C 
BRANCH   5   6
ATOM      6  C   UNL     1      13.330  15.949  54.170  1.00  0.00     0.032 C 
BRANCH   6   7
ATOM      7  C   UNL     1      14.025  16.316  55.458  1.00  0.00    -0.028 C 
ATOM      8  C   UNL     1      14.691  18.586  54.637  1.00  0.00     0.039 C 
ATOM      9  C   UNL     1      14.611  17.512  55.693  1.00  0.00    -0.080 C 
ATOM     10  C   UNL     1      15.252  17.783  57.030  1.00  0.00     0.039 C 
ENDBRANCH   6   7
ENDBRANCH   5   6
ENDBRANCH   3   5
ENDBRANCH   1   2
BRANCH   1  11
ATOM     11  C   UNL     1      11.219  20.183  55.158  1.00  0.00     0.034 C 
BRANCH  11  12
ATOM     12  C   UNL     1      11.106  20.175  56.667  1.00  0.00    -0.077 C 
ATOM     13  C   UNL     1      12.023  19.489  57.388  1.00  0.00    -0.028 C 
ATOM     14  C   UNL     1       9.984  20.941  57.326  1.00  0.00     0.039 C 
BRANCH  13  15
ATOM     15  C   UNL     1      12.008  19.366  58.891  1.00  0.00     0.035 C 
BRANCH  15  16
ATOM     16  C   UNL     1      11.627  17.944  59.315  1.00  0.00     0.079 C 
BRANCH  16  17
ATOM     17  C   UNL     1      10.302  17.941  60.031  1.00  0.00     0.130 C 
ATOM     18  O   UNL     1      10.276  18.039  61.249  1.00  0.00    -0.300 OA
ATOM     19  C   UNL     1       9.009  17.812  59.282  1.00  0.00     0.087 C 
ENDBRANCH  16  17
ENDBRANCH  15  16
ENDBRANCH  13  15
ENDBRANCH  11  12
ENDBRANCH   1  11
TORSDOF 9
ENDMDL
MODEL 7
REMARK VINA RESULT:    -5.714      5.340      7.688
REMARK INTER + INTRA:         -10.064
REMARK INTER:                  -8.707
REMARK INTRA:                  -1.358
REMARK UNBOUND:                -1.344
REMARK SMILES CC(=O)CCC=C(C)CCC=C(C)CCC=C(C)C
REMARK SMILES IDX 10 1 11 2 12 3 13 4 14 5 15 6 16 7 18 8 17 9 19 10 9 11 7 12
REMARK SMILES IDX 6 13 8 14 5 15 4 16 2 17 3 18 1 19
REMARK H PARENT
REMARK Flexibility Score: inf
ROOT
ATOM      1  C   UNL     1      10.414  21.426  57.688  1.00  0.00     0.032 C 
ENDROOT
BRANCH   1   2
ATOM      2  C   UNL     1      10.820  20.584  58.873  1.00  0.00    -0.028 C 
ATOM      3  C   UNL     1      10.676  19.241  58.942  1.00  0.00    -0.077 C 
ATOM      4  C   UNL     1      10.031  18.450  57.827  1.00  0.00     0.039 C 
BRANCH   3   5
ATOM      5  C   UNL     1      11.162  18.512  60.176  1.00  0.00     0.034 C 
BRANCH   5   6
ATOM      6  C   UNL     1      12.287  17.533  59.825  1.00  0.00     0.032 C 
BRANCH   6   7
ATOM      7  C   UNL     1      13.598  18.262  59.660  1.00  0.00    -0.028 C 
ATOM      8  C   UNL     1      13.705  17.839  57.194  1.00  0.00     0.039 C 
ATOM      9  C   UNL     1      14.228  18.436  58.476  1.00  0.00    -0.080 C 
ATOM     10  C   UNL     1      15.520  19.209  58.422  1.00  0.00     0.039 C 
ENDBRANCH   6   7
ENDBRANCH   5   6
ENDBRANCH   3   5
ENDBRANCH   1   2
BRANCH   1  11
ATOM     11  C   UNL     1       8.981  21.943  57.856  1.00  0.00     0.034 C 
BRANCH  11  12
ATOM     12  C   UNL     1       8.702  23.075  56.893  1.00  0.00    -0.077 C 
ATOM     13  C   UNL     1       8.040  24.168  57.340  1.00  0.00    -0.028 C 
ATOM     14  C   UNL     1       9.180  22.962  55.464  1.00  0.00     0.039 C 
BRANCH  13  15
ATOM     15  C   UNL     1       7.664  25.349  56.481  1.00  0.00     0.035 C 
BRANCH  15  16
ATOM     16  C   UNL     1       6.183  25.698  56.657  1.00  0.00     0.079 C 
BRANCH  16  17
ATOM     17  C   UNL     1       5.339  24.955  55.655  1.00  0.00     0.130 C 
ATOM     18  O   UNL     1       4.191  24.654  55.942  1.00  0.00    -0.300 OA
ATOM     19  C   UNL     1       5.882  24.565  54.312  1.00  0.00     0.087 C 
ENDBRANCH  16  17
ENDBRANCH  15  16
ENDBRANCH  13  15
ENDBRANCH  11  12
ENDBRANCH   1  11
TORSDOF 9
ENDMDL
MODEL 8
REMARK VINA RESULT:    -5.654      5.702      8.453
REMARK INTER + INTRA:          -9.972
REMARK INTER:                  -8.580
REMARK INTRA:                  -1.392
REMARK UNBOUND:                -1.344
REMARK SMILES CC(=O)CCC=C(C)CCC=C(C)CCC=C(C)C
REMARK SMILES IDX 10 1 11 2 12 3 13 4 14 5 15 6 16 7 18 8 17 9 19 10 9 11 7 12
REMARK SMILES IDX 6 13 8 14 5 15 4 16 2 17 3 18 1 19
REMARK H PARENT
REMARK Flexibility Score: inf
ROOT
ATOM      1  C   UNL     1       9.265  22.080  57.586  1.00  0.00     0.032 C 
ENDROOT
BRANCH   1   2
ATOM      2  C   UNL     1      10.381  21.089  57.804  1.00  0.00    -0.028 C 
ATOM      3  C   UNL     1      10.266  19.755  57.618  1.00  0.00    -0.077 C 
ATOM      4  C   UNL     1       8.957  19.116  57.213  1.00  0.00     0.039 C 
BRANCH   3   5
ATOM      5  C   UNL     1      11.478  18.874  57.835  1.00  0.00     0.034 C 
BRANCH   5   6
ATOM      6  C   UNL     1      11.227  17.867  58.962  1.00  0.00     0.032 C 
BRANCH   6   7
ATOM      7  C   UNL     1      11.094  18.573  60.289  1.00  0.00    -0.028 C 
ATOM      8  C   UNL     1       8.728  17.826  60.630  1.00  0.00     0.039 C 
ATOM      9  C   UNL     1       9.987  18.534  61.065  1.00  0.00    -0.080 C 
ATOM     10  C   UNL     1       9.974  19.252  62.390  1.00  0.00     0.039 C 
ENDBRANCH   6   7
ENDBRANCH   5   6
ENDBRANCH   3   5
ENDBRANCH   1   2
BRANCH   1  11
ATOM     11  C   UNL     1       9.282  22.607  56.147  1.00  0.00     0.034 C 
BRANCH  11  12
ATOM     12  C   UNL     1       8.131  23.559  55.909  1.00  0.00    -0.077 C 
ATOM     13  C   UNL     1       8.060  24.696  56.640  1.00  0.00    -0.028 C 
ATOM     14  C   UNL     1       7.101  23.223  54.856  1.00  0.00     0.039 C 
BRANCH  13  15
ATOM     15  C   UNL     1       6.950  25.711  56.533  1.00  0.00     0.035 C 
BRANCH  15  16
ATOM     16  C   UNL     1       5.951  25.548  57.683  1.00  0.00     0.079 C 
BRANCH  16  17
ATOM     17  C   UNL     1       4.611  25.100  57.163  1.00  0.00     0.130 C 
ATOM     18  O   UNL     1       3.868  25.914  56.637  1.00  0.00    -0.300 OA
ATOM     19  C   UNL     1       4.162  23.674  57.285  1.00  0.00     0.087 C 
ENDBRANCH  16  17
ENDBRANCH  15  16
ENDBRANCH  13  15
ENDBRANCH  11  12
ENDBRANCH   1  11
TORSDOF 9
ENDMDL
MODEL 9
REMARK VINA RESULT:    -5.579      5.262      8.424
REMARK INTER + INTRA:          -9.859
REMARK INTER:                  -8.643
REMARK INTRA:                  -1.216
REMARK UNBOUND:                -1.344
REMARK SMILES CC(=O)CCC=C(C)CCC=C(C)CCC=C(C)C
REMARK SMILES IDX 10 1 11 2 12 3 13 4 14 5 15 6 16 7 18 8 17 9 19 10 9 11 7 12
REMARK SMILES IDX 6 13 8 14 5 15 4 16 2 17 3 18 1 19
REMARK H PARENT
REMARK Flexibility Score: inf
ROOT
ATOM      1  C   UNL     1       9.983  20.788  58.421  1.00  0.00     0.032 C 
ENDROOT
BRANCH   1   2
ATOM      2  C   UNL     1       9.632  22.075  57.715  1.00  0.00    -0.028 C 
ATOM      3  C   UNL     1       9.213  22.153  56.432  1.00  0.00    -0.077 C 
ATOM      4  C   UNL     1       9.106  20.929  55.552  1.00  0.00     0.039 C 
BRANCH   3   5
ATOM      5  C   UNL     1       8.856  23.507  55.856  1.00  0.00     0.034 C 
BRANCH   5   6
ATOM      6  C   UNL     1       8.190  24.392  56.915  1.00  0.00     0.032 C 
BRANCH   6   7
ATOM      7  C   UNL     1       7.202  25.337  56.276  1.00  0.00    -0.028 C 
ATOM      8  C   UNL     1       5.259  23.798  56.634  1.00  0.00     0.039 C 
ATOM      9  C   UNL     1       5.875  25.096  56.175  1.00  0.00    -0.080 C 
ATOM     10  C   UNL     1       4.973  26.125  55.544  1.00  0.00     0.039 C 
ENDBRANCH   6   7
ENDBRANCH   5   6
ENDBRANCH   3   5
ENDBRANCH   1   2
BRANCH   1  11
ATOM     11  C   UNL     1      11.458  20.783  58.837  1.00  0.00     0.034 C 
BRANCH  11  12
ATOM     12  C   UNL     1      12.139  19.510  58.387  1.00  0.00    -0.077 C 
ATOM     13  C   UNL     1      13.481  19.401  58.524  1.00  0.00    -0.028 C 
ATOM     14  C   UNL     1      11.303  18.391  57.811  1.00  0.00     0.039 C 
BRANCH  13  15
ATOM     15  C   UNL     1      14.290  18.207  58.083  1.00  0.00     0.035 C 
BRANCH  15  16
ATOM     16  C   UNL     1      15.217  18.577  56.921  1.00  0.00     0.079 C 
BRANCH  16  17
ATOM     17  C   UNL     1      14.728  17.963  55.636  1.00  0.00     0.130 C 
ATOM     18  O   UNL     1      14.825  18.593  54.593  1.00  0.00    -0.300 OA
ATOM     19  C   UNL     1      14.114  16.595  55.608  1.00  0.00     0.087 C 
ENDBRANCH  16  17
ENDBRANCH  15  16
ENDBRANCH  13  15
ENDBRANCH  11  12
ENDBRANCH   1  11
TORSDOF 9
ENDMDL
