MODEL 1
REMARK VINA RESULT:    -3.859      0.000      0.000
REMARK INTER + INTRA:          -7.054
REMARK INTER:                  -6.115
REMARK INTRA:                  -0.939
REMARK UNBOUND:                -0.939
REMARK SMILES CCCCCCCCCCCC(=O)[O-]
REMARK SMILES IDX 7 1 8 2 9 3 10 4 11 5 12 6 13 7 14 8 6 9 5 10 4 11 3 12 2 13
REMARK SMILES IDX 1 14
REMARK H PARENT
REMARK Flexibility Score: inf
ROOT
ATOM      1  C   UNL     1      37.796  25.787 224.108  1.00  0.00     0.000 C 
ENDROOT
BRANCH   1   2
ATOM      2  C   UNL     1      38.705  25.879 225.346  1.00  0.00     0.000 C 
BRANCH   2   3
ATOM      3  C   UNL     1      40.087  25.248 225.122  1.00  0.00     0.000 C 
BRANCH   3   4
ATOM      4  C   UNL     1      39.959  23.836 224.539  1.00  0.00     0.006 C 
BRANCH   4   5
ATOM      5  C   UNL     1      40.900  23.646 223.346  1.00  0.00     0.053 C 
BRANCH   5   6
ATOM      6  C   UNL     1      41.698  22.390 223.503  1.00  0.00     0.041 C 
ATOM      7  O   UNL     1      42.194  21.825 222.494  1.00  0.00    -0.550 OA
ATOM      8  O   UNL     1      41.851  21.817 224.760  1.00  0.00    -0.550 OA
ENDBRANCH   5   6
ENDBRANCH   4   5
ENDBRANCH   3   4
ENDBRANCH   2   3
ENDBRANCH   1   2
BRANCH   1   9
ATOM      9  C   UNL     1      36.366  25.277 224.382  1.00  0.00     0.000 C 
BRANCH   9  10
ATOM     10  C   UNL     1      35.798  24.314 223.325  1.00  0.00    -0.000 C 
BRANCH  10  11
ATOM     11  C   UNL     1      36.836  23.296 222.825  1.00  0.00    -0.000 C 
BRANCH  11  12
ATOM     12  C   UNL     1      37.133  23.445 221.324  1.00  0.00    -0.000 C 
BRANCH  12  13
ATOM     13  C   UNL     1      35.965  24.075 220.549  1.00  0.00    -0.003 C 
ATOM     14  C   UNL     1      36.363  24.373 219.106  1.00  0.00     0.004 C 
ENDBRANCH  12  13
ENDBRANCH  11  12
ENDBRANCH  10  11
ENDBRANCH   9  10
ENDBRANCH   1   9
TORSDOF 10
ENDMDL
MODEL 2
REMARK VINA RESULT:    -3.730      3.182      5.774
REMARK INTER + INTRA:          -6.849
REMARK INTER:                  -5.900
REMARK INTRA:                  -0.950
REMARK UNBOUND:                -0.939
REMARK SMILES CCCCCCCCCCCC(=O)[O-]
REMARK SMILES IDX 7 1 8 2 9 3 10 4 11 5 12 6 13 7 14 8 6 9 5 10 4 11 3 12 2 13
REMARK SMILES IDX 1 14
REMARK H PARENT
REMARK Flexibility Score: inf
ROOT
ATOM      1  C   UNL     1      38.139  23.732 225.061  1.00  0.00     0.000 C 
ENDROOT
BRANCH   1   2
ATOM      2  C   UNL     1      37.203  23.233 223.945  1.00  0.00     0.000 C 
BRANCH   2   3
ATOM      3  C   UNL     1      36.066  24.218 223.634  1.00  0.00     0.000 C 
BRANCH   3   4
ATOM      4  C   UNL     1      35.449  23.929 222.261  1.00  0.00     0.006 C 
BRANCH   4   5
ATOM      5  C   UNL     1      36.403  24.335 221.134  1.00  0.00     0.053 C 
BRANCH   5   6
ATOM      6  C   UNL     1      35.792  24.043 219.800  1.00  0.00     0.041 C 
ATOM      7  O   UNL     1      36.493  23.556 218.875  1.00  0.00    -0.550 OA
ATOM      8  O   UNL     1      34.459  24.356 219.562  1.00  0.00    -0.550 OA
ENDBRANCH   5   6
ENDBRANCH   4   5
ENDBRANCH   3   4
ENDBRANCH   2   3
ENDBRANCH   1   2
BRANCH   1   9
ATOM      9  C   UNL     1      39.224  24.730 224.607  1.00  0.00     0.000 C 
BRANCH   9  10
ATOM     10  C   UNL     1      40.032  24.304 223.369  1.00  0.00    -0.000 C 
BRANCH  10  11
ATOM     11  C   UNL     1      41.361  23.620 223.730  1.00  0.00    -0.000 C 
BRANCH  11  12
ATOM     12  C   UNL     1      41.494  22.223 223.102  1.00  0.00    -0.000 C 
BRANCH  12  13
ATOM     13  C   UNL     1      40.979  21.107 224.024  1.00  0.00    -0.003 C 
ATOM     14  C   UNL     1      41.320  21.401 225.482  1.00  0.00     0.004 C 
ENDBRANCH  12  13
ENDBRANCH  11  12
ENDBRANCH  10  11
ENDBRANCH   9  10
ENDBRANCH   1   9
TORSDOF 10
ENDMDL
MODEL 3
REMARK VINA RESULT:    -3.708      1.642      2.132
REMARK INTER + INTRA:          -6.815
REMARK INTER:                  -6.171
REMARK INTRA:                  -0.644
REMARK UNBOUND:                -0.939
REMARK SMILES CCCCCCCCCCCC(=O)[O-]
REMARK SMILES IDX 7 1 8 2 9 3 10 4 11 5 12 6 13 7 14 8 6 9 5 10 4 11 3 12 2 13
REMARK SMILES IDX 1 14
REMARK H PARENT
REMARK Flexibility Score: inf
ROOT
ATOM      1  C   UNL     1      38.264  23.438 223.503  1.00  0.00     0.000 C 
ENDROOT
BRANCH   1   2
ATOM      2  C   UNL     1      39.421  24.447 223.620  1.00  0.00     0.000 C 
BRANCH   2   3
ATOM      3  C   UNL     1      40.732  23.925 223.014  1.00  0.00     0.000 C 
BRANCH   3   4
ATOM      4  C   UNL     1      41.501  23.067 224.025  1.00  0.00     0.006 C 
BRANCH   4   5
ATOM      5  C   UNL     1      41.668  21.633 223.514  1.00  0.00     0.053 C 
BRANCH   5   6
ATOM      6  C   UNL     1      40.884  20.680 224.359  1.00  0.00     0.041 C 
ATOM      7  O   UNL     1      40.194  21.107 225.322  1.00  0.00    -0.550 OA
ATOM      8  O   UNL     1      40.953  19.314 224.113  1.00  0.00    -0.550 OA
ENDBRANCH   5   6
ENDBRANCH   4   5
ENDBRANCH   3   4
ENDBRANCH   2   3
ENDBRANCH   1   2
BRANCH   1   9
ATOM      9  C   UNL     1      36.991  23.808 224.294  1.00  0.00     0.000 C 
BRANCH   9  10
ATOM     10  C   UNL     1      35.778  24.210 223.436  1.00  0.00    -0.000 C 
BRANCH  10  11
ATOM     11  C   UNL     1      35.945  23.837 221.954  1.00  0.00    -0.000 C 
BRANCH  11  12
ATOM     12  C   UNL     1      34.611  23.847 221.189  1.00  0.00    -0.000 C 
BRANCH  12  13
ATOM     13  C   UNL     1      34.780  24.218 219.708  1.00  0.00    -0.003 C 
ATOM     14  C   UNL     1      36.254  24.218 219.308  1.00  0.00     0.004 C 
ENDBRANCH  12  13
ENDBRANCH  11  12
ENDBRANCH  10  11
ENDBRANCH   9  10
ENDBRANCH   1   9
TORSDOF 10
ENDMDL
MODEL 4
REMARK VINA RESULT:    -3.669      1.653      2.254
REMARK INTER + INTRA:          -6.753
REMARK INTER:                  -5.837
REMARK INTRA:                  -0.917
REMARK UNBOUND:                -0.939
REMARK SMILES CCCCCCCCCCCC(=O)[O-]
REMARK SMILES IDX 7 1 8 2 9 3 10 4 11 5 12 6 13 7 14 8 6 9 5 10 4 11 3 12 2 13
REMARK SMILES IDX 1 14
REMARK H PARENT
REMARK Flexibility Score: inf
ROOT
ATOM      1  C   UNL     1      37.288  22.245 224.359  1.00  0.00     0.000 C 
ENDROOT
BRANCH   1   2
ATOM      2  C   UNL     1      38.207  21.447 225.302  1.00  0.00     0.000 C 
BRANCH   2   3
ATOM      3  C   UNL     1      39.294  22.315 225.953  1.00  0.00     0.000 C 
BRANCH   3   4
ATOM      4  C   UNL     1      40.689  21.906 225.467  1.00  0.00     0.006 C 
BRANCH   4   5
ATOM      5  C   UNL     1      41.303  22.994 224.581  1.00  0.00     0.053 C 
BRANCH   5   6
ATOM      6  C   UNL     1      41.255  22.587 223.142  1.00  0.00     0.041 C 
ATOM      7  O   UNL     1      42.160  21.857 222.659  1.00  0.00    -0.550 OA
ATOM      8  O   UNL     1      40.237  23.056 222.321  1.00  0.00    -0.550 OA
ENDBRANCH   5   6
ENDBRANCH   4   5
ENDBRANCH   3   4
ENDBRANCH   2   3
ENDBRANCH   1   2
BRANCH   1   9
ATOM      9  C   UNL     1      37.441  23.779 224.440  1.00  0.00     0.000 C 
BRANCH   9  10
ATOM     10  C   UNL     1      37.110  24.540 223.144  1.00  0.00    -0.000 C 
BRANCH  10  11
ATOM     11  C   UNL     1      36.762  23.606 221.974  1.00  0.00    -0.000 C 
BRANCH  11  12
ATOM     12  C   UNL     1      35.412  23.951 221.325  1.00  0.00    -0.000 C 
BRANCH  12  13
ATOM     13  C   UNL     1      35.539  24.270 219.828  1.00  0.00    -0.003 C 
ATOM     14  C   UNL     1      36.814  23.665 219.245  1.00  0.00     0.004 C 
ENDBRANCH  12  13
ENDBRANCH  11  12
ENDBRANCH  10  11
ENDBRANCH   9  10
ENDBRANCH   1   9
TORSDOF 10
ENDMDL
MODEL 5
REMARK VINA RESULT:    -3.542      2.095      2.731
REMARK INTER + INTRA:          -6.551
REMARK INTER:                  -5.823
REMARK INTRA:                  -0.728
REMARK UNBOUND:                -0.939
REMARK SMILES CCCCCCCCCCCC(=O)[O-]
REMARK SMILES IDX 7 1 8 2 9 3 10 4 11 5 12 6 13 7 14 8 6 9 5 10 4 11 3 12 2 13
REMARK SMILES IDX 1 14
REMARK H PARENT
REMARK Flexibility Score: inf
ROOT
ATOM      1  C   UNL     1      38.402  24.570 223.406  1.00  0.00     0.000 C 
ENDROOT
BRANCH   1   2
ATOM      2  C   UNL     1      39.411  23.412 223.515  1.00  0.00     0.000 C 
BRANCH   2   3
ATOM      3  C   UNL     1      40.863  23.862 223.296  1.00  0.00     0.000 C 
BRANCH   3   4
ATOM      4  C   UNL     1      41.743  23.479 224.491  1.00  0.00     0.006 C 
BRANCH   4   5
ATOM      5  C   UNL     1      41.106  23.928 225.809  1.00  0.00     0.053 C 
BRANCH   5   6
ATOM      6  C   UNL     1      41.690  25.231 226.256  1.00  0.00     0.041 C 
ATOM      7  O   UNL     1      42.790  25.626 225.791  1.00  0.00    -0.550 OA
ATOM      8  O   UNL     1      41.041  25.987 227.225  1.00  0.00    -0.550 OA
ENDBRANCH   5   6
ENDBRANCH   4   5
ENDBRANCH   3   4
ENDBRANCH   2   3
ENDBRANCH   1   2
BRANCH   1   9
ATOM      9  C   UNL     1      37.051  24.328 224.111  1.00  0.00     0.000 C 
BRANCH   9  10
ATOM     10  C   UNL     1      35.837  24.194 223.174  1.00  0.00    -0.000 C 
BRANCH  10  11
ATOM     11  C   UNL     1      36.173  23.475 221.859  1.00  0.00    -0.000 C 
BRANCH  11  12
ATOM     12  C   UNL     1      35.569  24.177 220.631  1.00  0.00    -0.000 C 
BRANCH  12  13
ATOM     13  C   UNL     1      36.490  24.118 219.403  1.00  0.00    -0.003 C 
ATOM     14  C   UNL     1      37.615  23.106 219.610  1.00  0.00     0.004 C 
ENDBRANCH  12  13
ENDBRANCH  11  12
ENDBRANCH  10  11
ENDBRANCH   9  10
ENDBRANCH   1   9
TORSDOF 10
ENDMDL
MODEL 6
REMARK VINA RESULT:    -3.506      4.481      6.815
REMARK INTER + INTRA:          -6.495
REMARK INTER:                  -5.276
REMARK INTRA:                  -1.219
REMARK UNBOUND:                -0.939
REMARK SMILES CCCCCCCCCCCC(=O)[O-]
REMARK SMILES IDX 7 1 8 2 9 3 10 4 11 5 12 6 13 7 14 8 6 9 5 10 4 11 3 12 2 13
REMARK SMILES IDX 1 14
REMARK H PARENT
REMARK Flexibility Score: inf
ROOT
ATOM      1  C   UNL     1      42.560  19.488 224.507  1.00  0.00     0.000 C 
ENDROOT
BRANCH   1   2
ATOM      2  C   UNL     1      41.591  19.085 225.633  1.00  0.00     0.000 C 
BRANCH   2   3
ATOM      3  C   UNL     1      40.195  18.710 225.114  1.00  0.00     0.000 C 
BRANCH   3   4
ATOM      4  C   UNL     1      39.155  18.774 226.239  1.00  0.00     0.006 C 
BRANCH   4   5
ATOM      5  C   UNL     1      37.738  18.600 225.688  1.00  0.00     0.053 C 
BRANCH   5   6
ATOM      6  C   UNL     1      36.768  18.361 226.801  1.00  0.00     0.041 C 
ATOM      7  O   UNL     1      35.656  18.952 226.811  1.00  0.00    -0.550 OA
ATOM      8  O   UNL     1      37.112  17.523 227.855  1.00  0.00    -0.550 OA
ENDBRANCH   5   6
ENDBRANCH   4   5
ENDBRANCH   3   4
ENDBRANCH   2   3
ENDBRANCH   1   2
BRANCH   1   9
ATOM      9  C   UNL     1      41.945  19.514 223.092  1.00  0.00     0.000 C 
BRANCH   9  10
ATOM     10  C   UNL     1      42.062  20.856 222.349  1.00  0.00    -0.000 C 
BRANCH  10  11
ATOM     11  C   UNL     1      41.882  22.069 223.275  1.00  0.00    -0.000 C 
BRANCH  11  12
ATOM     12  C   UNL     1      40.545  22.793 223.046  1.00  0.00    -0.000 C 
BRANCH  12  13
ATOM     13  C   UNL     1      39.545  22.566 224.189  1.00  0.00    -0.003 C 
ATOM     14  C   UNL     1      40.260  22.489 225.535  1.00  0.00     0.004 C 
ENDBRANCH  12  13
ENDBRANCH  11  12
ENDBRANCH  10  11
ENDBRANCH   9  10
ENDBRANCH   1   9
TORSDOF 10
ENDMDL
MODEL 7
REMARK VINA RESULT:    -3.500      3.158      5.645
REMARK INTER + INTRA:          -6.486
REMARK INTER:                  -5.577
REMARK INTRA:                  -0.909
REMARK UNBOUND:                -0.939
REMARK SMILES CCCCCCCCCCCC(=O)[O-]
REMARK SMILES IDX 7 1 8 2 9 3 10 4 11 5 12 6 13 7 14 8 6 9 5 10 4 11 3 12 2 13
REMARK SMILES IDX 1 14
REMARK H PARENT
REMARK Flexibility Score: inf
ROOT
ATOM      1  C   UNL     1      39.314  24.278 225.618  1.00  0.00     0.000 C 
ENDROOT
BRANCH   1   2
ATOM      2  C   UNL     1      37.955  23.608 225.347  1.00  0.00     0.000 C 
BRANCH   2   3
ATOM      3  C   UNL     1      37.965  22.725 224.090  1.00  0.00     0.000 C 
BRANCH   3   4
ATOM      4  C   UNL     1      36.595  22.733 223.402  1.00  0.00     0.006 C 
BRANCH   4   5
ATOM      5  C   UNL     1      36.239  24.136 222.904  1.00  0.00     0.053 C 
BRANCH   5   6
ATOM      6  C   UNL     1      35.582  24.065 221.561  1.00  0.00     0.041 C 
ATOM      7  O   UNL     1      36.245  24.302 220.518  1.00  0.00    -0.550 OA
ATOM      8  O   UNL     1      34.224  23.784 221.466  1.00  0.00    -0.550 OA
ENDBRANCH   5   6
ENDBRANCH   4   5
ENDBRANCH   3   4
ENDBRANCH   2   3
ENDBRANCH   1   2
BRANCH   1   9
ATOM      9  C   UNL     1      40.230  24.422 224.385  1.00  0.00     0.000 C 
BRANCH   9  10
ATOM     10  C   UNL     1      41.639  23.822 224.540  1.00  0.00    -0.000 C 
BRANCH  10  11
ATOM     11  C   UNL     1      41.621  22.401 225.125  1.00  0.00    -0.000 C 
BRANCH  11  12
ATOM     12  C   UNL     1      41.354  21.327 224.057  1.00  0.00    -0.000 C 
BRANCH  12  13
ATOM     13  C   UNL     1      41.914  21.710 222.678  1.00  0.00    -0.003 C 
ATOM     14  C   UNL     1      43.041  20.768 222.264  1.00  0.00     0.004 C 
ENDBRANCH  12  13
ENDBRANCH  11  12
ENDBRANCH  10  11
ENDBRANCH   9  10
ENDBRANCH   1   9
TORSDOF 10
ENDMDL
MODEL 8
REMARK VINA RESULT:    -3.497      2.556      3.755
REMARK INTER + INTRA:          -6.480
REMARK INTER:                  -5.507
REMARK INTRA:                  -0.973
REMARK UNBOUND:                -0.939
REMARK SMILES CCCCCCCCCCCC(=O)[O-]
REMARK SMILES IDX 7 1 8 2 9 3 10 4 11 5 12 6 13 7 14 8 6 9 5 10 4 11 3 12 2 13
REMARK SMILES IDX 1 14
REMARK H PARENT
REMARK Flexibility Score: inf
ROOT
ATOM      1  C   UNL     1      40.462  23.067 222.666  1.00  0.00     0.000 C 
ENDROOT
BRANCH   1   2
ATOM      2  C   UNL     1      41.597  22.308 223.376  1.00  0.00     0.000 C 
BRANCH   2   3
ATOM      3  C   UNL     1      41.129  20.992 224.014  1.00  0.00     0.000 C 
BRANCH   3   4
ATOM      4  C   UNL     1      40.500  21.242 225.390  1.00  0.00     0.006 C 
BRANCH   4   5
ATOM      5  C   UNL     1      39.001  20.930 225.374  1.00  0.00     0.053 C 
BRANCH   5   6
ATOM      6  C   UNL     1      38.714  19.696 226.170  1.00  0.00     0.041 C 
ATOM      7  O   UNL     1      38.304  19.788 227.356  1.00  0.00    -0.550 OA
ATOM      8  O   UNL     1      38.946  18.442 225.617  1.00  0.00    -0.550 OA
ENDBRANCH   5   6
ENDBRANCH   4   5
ENDBRANCH   3   4
ENDBRANCH   2   3
ENDBRANCH   1   2
BRANCH   1   9
ATOM      9  C   UNL     1      39.972  24.338 223.390  1.00  0.00     0.000 C 
BRANCH   9  10
ATOM     10  C   UNL     1      38.443  24.501 223.468  1.00  0.00    -0.000 C 
BRANCH  10  11
ATOM     11  C   UNL     1      37.684  23.319 222.846  1.00  0.00    -0.000 C 
BRANCH  11  12
ATOM     12  C   UNL     1      36.796  23.744 221.665  1.00  0.00    -0.000 C 
BRANCH  12  13
ATOM     13  C   UNL     1      37.404  23.375 220.303  1.00  0.00    -0.003 C 
ATOM     14  C   UNL     1      36.572  23.947 219.159  1.00  0.00     0.004 C 
ENDBRANCH  12  13
ENDBRANCH  11  12
ENDBRANCH  10  11
ENDBRANCH   9  10
ENDBRANCH   1   9
TORSDOF 10
ENDMDL
MODEL 9
REMARK VINA RESULT:    -3.384      3.248      5.090
REMARK INTER + INTRA:          -6.302
REMARK INTER:                  -4.687
REMARK INTRA:                  -1.615
REMARK UNBOUND:                -0.939
REMARK SMILES CCCCCCCCCCCC(=O)[O-]
REMARK SMILES IDX 7 1 8 2 9 3 10 4 11 5 12 6 13 7 14 8 6 9 5 10 4 11 3 12 2 13
REMARK SMILES IDX 1 14
REMARK H PARENT
REMARK Flexibility Score: inf
ROOT
ATOM      1  C   UNL     1      41.614  23.084 225.192  1.00  0.00     0.000 C 
ENDROOT
BRANCH   1   2
ATOM      2  C   UNL     1      40.938  22.063 226.126  1.00  0.00     0.000 C 
BRANCH   2   3
ATOM      3  C   UNL     1      39.853  21.235 225.421  1.00  0.00     0.000 C 
BRANCH   3   4
ATOM      4  C   UNL     1      38.515  21.338 226.162  1.00  0.00     0.006 C 
BRANCH   4   5
ATOM      5  C   UNL     1      37.367  20.804 225.301  1.00  0.00     0.053 C 
BRANCH   5   6
ATOM      6  C   UNL     1      36.955  19.442 225.764  1.00  0.00     0.041 C 
ATOM      7  O   UNL     1      35.828  19.268 226.296  1.00  0.00    -0.550 OA
ATOM      8  O   UNL     1      37.837  18.374 225.653  1.00  0.00    -0.550 OA
ENDBRANCH   5   6
ENDBRANCH   4   5
ENDBRANCH   3   4
ENDBRANCH   2   3
ENDBRANCH   1   2
BRANCH   1   9
ATOM      9  C   UNL     1      41.351  22.867 223.687  1.00  0.00     0.000 C 
BRANCH   9  10
ATOM     10  C   UNL     1      40.580  23.999 222.985  1.00  0.00    -0.000 C 
BRANCH  10  11
ATOM     11  C   UNL     1      39.144  23.600 222.609  1.00  0.00    -0.000 C 
BRANCH  11  12
ATOM     12  C   UNL     1      38.107  24.105 223.625  1.00  0.00    -0.000 C 
BRANCH  12  13
ATOM     13  C   UNL     1      38.596  25.331 224.412  1.00  0.00    -0.003 C 
ATOM     14  C   UNL     1      38.536  25.076 225.916  1.00  0.00     0.004 C 
ENDBRANCH  12  13
ENDBRANCH  11  12
ENDBRANCH  10  11
ENDBRANCH   9  10
ENDBRANCH   1   9
TORSDOF 10
ENDMDL
