MODEL 1
REMARK VINA RESULT:    -4.116      0.000      0.000
REMARK INTER + INTRA:         -11.880
REMARK INTER:                  -8.929
REMARK INTRA:                  -2.951
REMARK UNBOUND:                -2.951
REMARK SMILES CCCCCCCCCCCCCCCCCCCCCC(=O)[O-]
REMARK SMILES IDX 12 1 11 2 10 3 9 4 8 5 7 6 6 7 5 8 4 9 3 10 2 11 1 12 13 13
REMARK SMILES IDX 14 14 15 15 16 16 17 17 18 18 19 19 20 20 21 21 22 22 23 23
REMARK SMILES IDX 24 24
REMARK H PARENT
REMARK Flexibility Score: inf
ROOT
ATOM      1  C   UNL     1       1.696  27.497 114.114  1.00  0.00     0.000 C 
ENDROOT
BRANCH   1   2
ATOM      2  C   UNL     1       1.252  26.385 113.151  1.00  0.00     0.000 C 
BRANCH   2   3
ATOM      3  C   UNL     1       2.431  25.754 112.390  1.00  0.00     0.000 C 
BRANCH   3   4
ATOM      4  C   UNL     1       2.672  26.399 111.013  1.00  0.00    -0.000 C 
BRANCH   4   5
ATOM      5  C   UNL     1       4.144  26.696 110.672  1.00  0.00    -0.000 C 
BRANCH   5   6
ATOM      6  C   UNL     1       5.132  25.842 111.486  1.00  0.00    -0.000 C 
BRANCH   6   7
ATOM      7  C   UNL     1       6.244  26.682 112.134  1.00  0.00    -0.000 C 
BRANCH   7   8
ATOM      8  C   UNL     1       7.360  27.051 111.143  1.00  0.00    -0.000 C 
BRANCH   8   9
ATOM      9  C   UNL     1       8.051  25.791 110.601  1.00  0.00    -0.000 C 
BRANCH   9  10
ATOM     10  C   UNL     1       8.344  25.869 109.092  1.00  0.00    -0.000 C 
BRANCH  10  11
ATOM     11  C   UNL     1       7.098  26.003 108.197  1.00  0.00    -0.003 C 
ATOM     12  C   UNL     1       7.437  26.084 106.709  1.00  0.00     0.004 C 
ENDBRANCH  10  11
ENDBRANCH   9  10
ENDBRANCH   8   9
ENDBRANCH   7   8
ENDBRANCH   6   7
ENDBRANCH   5   6
ENDBRANCH   4   5
ENDBRANCH   3   4
ENDBRANCH   2   3
ENDBRANCH   1   2
BRANCH   1  13
ATOM     13  C   UNL     1       0.599  28.551 114.354  1.00  0.00     0.000 C 
BRANCH  13  14
ATOM     14  C   UNL     1      -0.057  29.024 113.047  1.00  0.00     0.000 C 
BRANCH  14  15
ATOM     15  C   UNL     1       0.678  30.214 112.412  1.00  0.00     0.000 C 
BRANCH  15  16
ATOM     16  C   UNL     1       1.254  29.834 111.043  1.00  0.00     0.000 C 
BRANCH  16  17
ATOM     17  C   UNL     1       2.758  30.136 110.975  1.00  0.00     0.000 C 
BRANCH  17  18
ATOM     18  C   UNL     1       3.310  30.741 112.278  1.00  0.00     0.000 C 
BRANCH  18  19
ATOM     19  C   UNL     1       4.374  29.888 112.993  1.00  0.00     0.000 C 
BRANCH  19  20
ATOM     20  C   UNL     1       5.577  30.712 113.480  1.00  0.00     0.006 C 
BRANCH  20  21
ATOM     21  C   UNL     1       5.802  30.572 114.992  1.00  0.00     0.053 C 
BRANCH  21  22
ATOM     22  C   UNL     1       6.274  31.855 115.605  1.00  0.00     0.041 C 
ATOM     23  O   UNL     1       5.446  32.672 116.085  1.00  0.00    -0.550 OA
ATOM     24  O   UNL     1       7.632  32.140 115.662  1.00  0.00    -0.550 OA
ENDBRANCH  21  22
ENDBRANCH  20  21
ENDBRANCH  19  20
ENDBRANCH  18  19
ENDBRANCH  17  18
ENDBRANCH  16  17
ENDBRANCH  15  16
ENDBRANCH  14  15
ENDBRANCH  13  14
ENDBRANCH   1  13
TORSDOF 20
ENDMDL
MODEL 2
REMARK VINA RESULT:    -4.090      1.371      2.394
REMARK INTER + INTRA:         -11.824
REMARK INTER:                  -8.465
REMARK INTRA:                  -3.359
REMARK UNBOUND:                -2.951
REMARK SMILES CCCCCCCCCCCCCCCCCCCCCC(=O)[O-]
REMARK SMILES IDX 12 1 11 2 10 3 9 4 8 5 7 6 6 7 5 8 4 9 3 10 2 11 1 12 13 13
REMARK SMILES IDX 14 14 15 15 16 16 17 17 18 18 19 19 20 20 21 21 22 22 23 23
REMARK SMILES IDX 24 24
REMARK H PARENT
REMARK Flexibility Score: inf
ROOT
ATOM      1  C   UNL     1       2.377  26.923 110.839  1.00  0.00     0.000 C 
ENDROOT
BRANCH   1   2
ATOM      2  C   UNL     1       3.283  25.825 111.420  1.00  0.00     0.000 C 
BRANCH   2   3
ATOM      3  C   UNL     1       2.876  25.414 112.845  1.00  0.00     0.000 C 
BRANCH   3   4
ATOM      4  C   UNL     1       3.845  25.937 113.922  1.00  0.00    -0.000 C 
BRANCH   4   5
ATOM      5  C   UNL     1       5.191  25.195 114.014  1.00  0.00    -0.000 C 
BRANCH   5   6
ATOM      6  C   UNL     1       6.397  26.098 113.702  1.00  0.00    -0.000 C 
BRANCH   6   7
ATOM      7  C   UNL     1       7.075  25.739 112.370  1.00  0.00    -0.000 C 
BRANCH   7   8
ATOM      8  C   UNL     1       6.911  26.839 111.309  1.00  0.00    -0.000 C 
BRANCH   8   9
ATOM      9  C   UNL     1       6.686  26.230 109.917  1.00  0.00    -0.000 C 
BRANCH   9  10
ATOM     10  C   UNL     1       7.959  25.597 109.325  1.00  0.00    -0.000 C 
BRANCH  10  11
ATOM     11  C   UNL     1       8.031  25.606 107.787  1.00  0.00    -0.003 C 
ATOM     12  C   UNL     1       6.889  26.388 107.140  1.00  0.00     0.004 C 
ENDBRANCH  10  11
ENDBRANCH   9  10
ENDBRANCH   8   9
ENDBRANCH   7   8
ENDBRANCH   6   7
ENDBRANCH   5   6
ENDBRANCH   4   5
ENDBRANCH   3   4
ENDBRANCH   2   3
ENDBRANCH   1   2
BRANCH   1  13
ATOM     13  C   UNL     1       3.166  28.011 110.088  1.00  0.00     0.000 C 
BRANCH  13  14
ATOM     14  C   UNL     1       2.359  29.307 109.915  1.00  0.00     0.000 C 
BRANCH  14  15
ATOM     15  C   UNL     1       0.944  29.208 110.504  1.00  0.00     0.000 C 
BRANCH  15  16
ATOM     16  C   UNL     1       0.836  30.010 111.807  1.00  0.00     0.000 C 
BRANCH  16  17
ATOM     17  C   UNL     1       0.822  29.079 113.027  1.00  0.00     0.000 C 
BRANCH  17  18
ATOM     18  C   UNL     1       1.988  29.341 113.997  1.00  0.00     0.000 C 
BRANCH  18  19
ATOM     19  C   UNL     1       3.089  30.272 113.457  1.00  0.00     0.000 C 
BRANCH  19  20
ATOM     20  C   UNL     1       4.391  29.528 113.115  1.00  0.00     0.006 C 
BRANCH  20  21
ATOM     21  C   UNL     1       5.445  29.666 114.222  1.00  0.00     0.053 C 
BRANCH  21  22
ATOM     22  C   UNL     1       6.163  30.979 114.145  1.00  0.00     0.041 C 
ATOM     23  O   UNL     1       5.814  31.938 114.881  1.00  0.00    -0.550 OA
ATOM     24  O   UNL     1       7.231  31.136 113.271  1.00  0.00    -0.550 OA
ENDBRANCH  21  22
ENDBRANCH  20  21
ENDBRANCH  19  20
ENDBRANCH  18  19
ENDBRANCH  17  18
ENDBRANCH  16  17
ENDBRANCH  15  16
ENDBRANCH  14  15
ENDBRANCH  13  14
ENDBRANCH   1  13
TORSDOF 20
ENDMDL
MODEL 3
REMARK VINA RESULT:    -4.071      1.594      2.895
REMARK INTER + INTRA:         -11.782
REMARK INTER:                  -9.039
REMARK INTRA:                  -2.743
REMARK UNBOUND:                -2.951
REMARK SMILES CCCCCCCCCCCCCCCCCCCCCC(=O)[O-]
REMARK SMILES IDX 12 1 11 2 10 3 9 4 8 5 7 6 6 7 5 8 4 9 3 10 2 11 1 12 13 13
REMARK SMILES IDX 14 14 15 15 16 16 17 17 18 18 19 19 20 20 21 21 22 22 23 23
REMARK SMILES IDX 24 24
REMARK H PARENT
REMARK Flexibility Score: inf
ROOT
ATOM      1  C   UNL     1       3.502  27.646 111.058  1.00  0.00     0.000 C 
ENDROOT
BRANCH   1   2
ATOM      2  C   UNL     1       4.965  27.340 111.417  1.00  0.00     0.000 C 
BRANCH   2   3
ATOM      3  C   UNL     1       5.383  27.945 112.768  1.00  0.00     0.000 C 
BRANCH   3   4
ATOM      4  C   UNL     1       5.167  26.983 113.950  1.00  0.00    -0.000 C 
BRANCH   4   5
ATOM      5  C   UNL     1       6.416  26.203 114.401  1.00  0.00    -0.000 C 
BRANCH   5   6
ATOM      6  C   UNL     1       6.555  24.836 113.708  1.00  0.00    -0.000 C 
BRANCH   6   7
ATOM      7  C   UNL     1       7.787  24.760 112.793  1.00  0.00    -0.000 C 
BRANCH   7   8
ATOM      8  C   UNL     1       7.416  24.734 111.302  1.00  0.00    -0.000 C 
BRANCH   8   9
ATOM      9  C   UNL     1       8.226  25.776 110.517  1.00  0.00    -0.000 C 
BRANCH   9  10
ATOM     10  C   UNL     1       7.529  26.226 109.219  1.00  0.00    -0.000 C 
BRANCH  10  11
ATOM     11  C   UNL     1       8.132  25.646 107.927  1.00  0.00    -0.003 C 
ATOM     12  C   UNL     1       7.238  25.852 106.705  1.00  0.00     0.004 C 
ENDBRANCH  10  11
ENDBRANCH   9  10
ENDBRANCH   8   9
ENDBRANCH   7   8
ENDBRANCH   6   7
ENDBRANCH   5   6
ENDBRANCH   4   5
ENDBRANCH   3   4
ENDBRANCH   2   3
ENDBRANCH   1   2
BRANCH   1  13
ATOM     13  C   UNL     1       2.589  26.413 111.175  1.00  0.00     0.000 C 
BRANCH  13  14
ATOM     14  C   UNL     1       1.719  26.443 112.441  1.00  0.00     0.000 C 
BRANCH  14  15
ATOM     15  C   UNL     1       1.280  27.865 112.825  1.00  0.00     0.000 C 
BRANCH  15  16
ATOM     16  C   UNL     1       1.832  28.255 114.200  1.00  0.00     0.000 C 
BRANCH  16  17
ATOM     17  C   UNL     1       2.446  29.662 114.169  1.00  0.00     0.000 C 
BRANCH  17  18
ATOM     18  C   UNL     1       2.943  30.133 115.547  1.00  0.00     0.000 C 
BRANCH  18  19
ATOM     19  C   UNL     1       4.471  30.276 115.675  1.00  0.00     0.000 C 
BRANCH  19  20
ATOM     20  C   UNL     1       4.985  31.652 115.218  1.00  0.00     0.006 C 
BRANCH  20  21
ATOM     21  C   UNL     1       5.984  31.540 114.057  1.00  0.00     0.053 C 
BRANCH  21  22
ATOM     22  C   UNL     1       7.384  31.835 114.499  1.00  0.00     0.041 C 
ATOM     23  O   UNL     1       8.355  31.589 113.737  1.00  0.00    -0.550 OA
ATOM     24  O   UNL     1       7.615  32.399 115.747  1.00  0.00    -0.550 OA
ENDBRANCH  21  22
ENDBRANCH  20  21
ENDBRANCH  19  20
ENDBRANCH  18  19
ENDBRANCH  17  18
ENDBRANCH  16  17
ENDBRANCH  15  16
ENDBRANCH  14  15
ENDBRANCH  13  14
ENDBRANCH   1  13
TORSDOF 20
ENDMDL
MODEL 4
REMARK VINA RESULT:    -4.001      1.575      2.444
REMARK INTER + INTRA:         -11.629
REMARK INTER:                  -8.671
REMARK INTRA:                  -2.958
REMARK UNBOUND:                -2.951
REMARK SMILES CCCCCCCCCCCCCCCCCCCCCC(=O)[O-]
REMARK SMILES IDX 12 1 11 2 10 3 9 4 8 5 7 6 6 7 5 8 4 9 3 10 2 11 1 12 13 13
REMARK SMILES IDX 14 14 15 15 16 16 17 17 18 18 19 19 20 20 21 21 22 22 23 23
REMARK SMILES IDX 24 24
REMARK H PARENT
REMARK Flexibility Score: inf
ROOT
ATOM      1  C   UNL     1       1.905  26.544 112.162  1.00  0.00     0.000 C 
ENDROOT
BRANCH   1   2
ATOM      2  C   UNL     1       2.544  26.571 113.559  1.00  0.00     0.000 C 
BRANCH   2   3
ATOM      3  C   UNL     1       4.081  26.578 113.508  1.00  0.00     0.000 C 
BRANCH   3   4
ATOM      4  C   UNL     1       4.722  25.645 114.553  1.00  0.00    -0.000 C 
BRANCH   4   5
ATOM      5  C   UNL     1       5.526  24.465 113.978  1.00  0.00    -0.000 C 
BRANCH   5   6
ATOM      6  C   UNL     1       4.826  23.784 112.789  1.00  0.00    -0.000 C 
BRANCH   6   7
ATOM      7  C   UNL     1       5.673  23.815 111.507  1.00  0.00    -0.000 C 
BRANCH   7   8
ATOM      8  C   UNL     1       6.871  24.773 111.615  1.00  0.00    -0.000 C 
BRANCH   8   9
ATOM      9  C   UNL     1       6.652  26.025 110.753  1.00  0.00    -0.000 C 
BRANCH   9  10
ATOM     10  C   UNL     1       7.814  26.294 109.779  1.00  0.00    -0.000 C 
BRANCH  10  11
ATOM     11  C   UNL     1       7.735  25.523 108.449  1.00  0.00    -0.003 C 
ATOM     12  C   UNL     1       6.999  26.293 107.353  1.00  0.00     0.004 C 
ENDBRANCH  10  11
ENDBRANCH   9  10
ENDBRANCH   8   9
ENDBRANCH   7   8
ENDBRANCH   6   7
ENDBRANCH   5   6
ENDBRANCH   4   5
ENDBRANCH   3   4
ENDBRANCH   2   3
ENDBRANCH   1   2
BRANCH   1  13
ATOM     13  C   UNL     1       2.943  26.413 111.033  1.00  0.00     0.000 C 
BRANCH  13  14
ATOM     14  C   UNL     1       3.088  27.705 110.214  1.00  0.00     0.000 C 
BRANCH  14  15
ATOM     15  C   UNL     1       2.046  28.768 110.595  1.00  0.00     0.000 C 
BRANCH  15  16
ATOM     16  C   UNL     1       2.717  30.121 110.860  1.00  0.00     0.000 C 
BRANCH  16  17
ATOM     17  C   UNL     1       2.621  30.503 112.344  1.00  0.00     0.000 C 
BRANCH  17  18
ATOM     18  C   UNL     1       3.920  31.123 112.891  1.00  0.00     0.000 C 
BRANCH  18  19
ATOM     19  C   UNL     1       4.949  30.112 113.428  1.00  0.00     0.000 C 
BRANCH  19  20
ATOM     20  C   UNL     1       4.858  29.913 114.950  1.00  0.00     0.006 C 
BRANCH  20  21
ATOM     21  C   UNL     1       4.672  31.240 115.698  1.00  0.00     0.053 C 
BRANCH  21  22
ATOM     22  C   UNL     1       5.865  31.577 116.538  1.00  0.00     0.041 C 
ATOM     23  O   UNL     1       6.922  31.999 116.000  1.00  0.00    -0.550 OA
ATOM     24  O   UNL     1       5.803  31.444 117.919  1.00  0.00    -0.550 OA
ENDBRANCH  21  22
ENDBRANCH  20  21
ENDBRANCH  19  20
ENDBRANCH  18  19
ENDBRANCH  17  18
ENDBRANCH  16  17
ENDBRANCH  15  16
ENDBRANCH  14  15
ENDBRANCH  13  14
ENDBRANCH   1  13
TORSDOF 20
ENDMDL
MODEL 5
REMARK VINA RESULT:    -3.978      3.432      6.506
REMARK INTER + INTRA:         -11.581
REMARK INTER:                  -8.222
REMARK INTRA:                  -3.358
REMARK UNBOUND:                -2.951
REMARK SMILES CCCCCCCCCCCCCCCCCCCCCC(=O)[O-]
REMARK SMILES IDX 12 1 11 2 10 3 9 4 8 5 7 6 6 7 5 8 4 9 3 10 2 11 1 12 13 13
REMARK SMILES IDX 14 14 15 15 16 16 17 17 18 18 19 19 20 20 21 21 22 22 23 23
REMARK SMILES IDX 24 24
REMARK H PARENT
REMARK Flexibility Score: inf
ROOT
ATOM      1  C   UNL     1       0.615  23.983 113.435  1.00  0.00     0.000 C 
ENDROOT
BRANCH   1   2
ATOM      2  C   UNL     1       0.650  25.374 114.090  1.00  0.00     0.000 C 
BRANCH   2   3
ATOM      3  C   UNL     1       1.584  25.431 115.310  1.00  0.00     0.000 C 
BRANCH   3   4
ATOM      4  C   UNL     1       2.680  26.505 115.180  1.00  0.00    -0.000 C 
BRANCH   4   5
ATOM      5  C   UNL     1       2.233  27.824 114.521  1.00  0.00    -0.000 C 
BRANCH   5   6
ATOM      6  C   UNL     1       3.369  28.530 113.760  1.00  0.00    -0.000 C 
BRANCH   6   7
ATOM      7  C   UNL     1       3.860  27.720 112.549  1.00  0.00    -0.000 C 
BRANCH   7   8
ATOM      8  C   UNL     1       2.713  27.291 111.621  1.00  0.00    -0.000 C 
BRANCH   8   9
ATOM      9  C   UNL     1       2.909  27.858 110.207  1.00  0.00    -0.000 C 
BRANCH   9  10
ATOM     10  C   UNL     1       2.020  29.082 109.922  1.00  0.00    -0.000 C 
BRANCH  10  11
ATOM     11  C   UNL     1       0.853  29.278 110.907  1.00  0.00    -0.003 C 
ATOM     12  C   UNL     1       0.963  30.571 111.715  1.00  0.00     0.004 C 
ENDBRANCH  10  11
ENDBRANCH   9  10
ENDBRANCH   8   9
ENDBRANCH   7   8
ENDBRANCH   6   7
ENDBRANCH   5   6
ENDBRANCH   4   5
ENDBRANCH   3   4
ENDBRANCH   2   3
ENDBRANCH   1   2
BRANCH   1  13
ATOM     13  C   UNL     1       0.621  22.839 114.465  1.00  0.00     0.000 C 
BRANCH  13  14
ATOM     14  C   UNL     1       1.627  21.733 114.109  1.00  0.00     0.000 C 
BRANCH  14  15
ATOM     15  C   UNL     1       2.763  21.612 115.136  1.00  0.00     0.000 C 
BRANCH  15  16
ATOM     16  C   UNL     1       3.894  22.597 114.820  1.00  0.00     0.000 C 
BRANCH  16  17
ATOM     17  C   UNL     1       4.101  22.730 113.304  1.00  0.00     0.000 C 
BRANCH  17  18
ATOM     18  C   UNL     1       4.520  24.148 112.876  1.00  0.00     0.000 C 
BRANCH  18  19
ATOM     19  C   UNL     1       5.468  24.209 111.664  1.00  0.00     0.000 C 
BRANCH  19  20
ATOM     20  C   UNL     1       6.882  24.689 112.031  1.00  0.00     0.006 C 
BRANCH  20  21
ATOM     21  C   UNL     1       7.117  26.154 111.637  1.00  0.00     0.053 C 
BRANCH  21  22
ATOM     22  C   UNL     1       7.454  26.292 110.184  1.00  0.00     0.041 C 
ATOM     23  O   UNL     1       6.672  26.895 109.405  1.00  0.00    -0.550 OA
ATOM     24  O   UNL     1       8.645  25.769 109.695  1.00  0.00    -0.550 OA
ENDBRANCH  21  22
ENDBRANCH  20  21
ENDBRANCH  19  20
ENDBRANCH  18  19
ENDBRANCH  17  18
ENDBRANCH  16  17
ENDBRANCH  15  16
ENDBRANCH  14  15
ENDBRANCH  13  14
ENDBRANCH   1  13
TORSDOF 20
ENDMDL
MODEL 6
REMARK VINA RESULT:    -3.957      3.115      5.907
REMARK INTER + INTRA:         -11.535
REMARK INTER:                  -7.929
REMARK INTRA:                  -3.606
REMARK UNBOUND:                -2.951
REMARK SMILES CCCCCCCCCCCCCCCCCCCCCC(=O)[O-]
REMARK SMILES IDX 12 1 11 2 10 3 9 4 8 5 7 6 6 7 5 8 4 9 3 10 2 11 1 12 13 13
REMARK SMILES IDX 14 14 15 15 16 16 17 17 18 18 19 19 20 20 21 21 22 22 23 23
REMARK SMILES IDX 24 24
REMARK H PARENT
REMARK Flexibility Score: inf
ROOT
ATOM      1  C   UNL     1       3.239  21.968 113.752  1.00  0.00     0.000 C 
ENDROOT
BRANCH   1   2
ATOM      2  C   UNL     1       4.091  22.778 114.743  1.00  0.00     0.000 C 
BRANCH   2   3
ATOM      3  C   UNL     1       4.934  23.863 114.051  1.00  0.00     0.000 C 
BRANCH   3   4
ATOM      4  C   UNL     1       4.740  25.260 114.668  1.00  0.00    -0.000 C 
BRANCH   4   5
ATOM      5  C   UNL     1       6.030  26.078 114.867  1.00  0.00    -0.000 C 
BRANCH   5   6
ATOM      6  C   UNL     1       5.788  27.597 114.838  1.00  0.00    -0.000 C 
BRANCH   6   7
ATOM      7  C   UNL     1       4.452  27.971 114.176  1.00  0.00    -0.000 C 
BRANCH   7   8
ATOM      8  C   UNL     1       4.627  28.952 113.006  1.00  0.00    -0.000 C 
BRANCH   8   9
ATOM      9  C   UNL     1       4.139  30.357 113.390  1.00  0.00    -0.000 C 
BRANCH   9  10
ATOM     10  C   UNL     1       3.374  31.059 112.253  1.00  0.00    -0.000 C 
BRANCH  10  11
ATOM     11  C   UNL     1       2.685  30.111 111.255  1.00  0.00    -0.003 C 
ATOM     12  C   UNL     1       1.160  30.140 111.357  1.00  0.00     0.004 C 
ENDBRANCH  10  11
ENDBRANCH   9  10
ENDBRANCH   8   9
ENDBRANCH   7   8
ENDBRANCH   6   7
ENDBRANCH   5   6
ENDBRANCH   4   5
ENDBRANCH   3   4
ENDBRANCH   2   3
ENDBRANCH   1   2
BRANCH   1  13
ATOM     13  C   UNL     1       1.783  21.795 114.221  1.00  0.00     0.000 C 
BRANCH  13  14
ATOM     14  C   UNL     1       1.071  23.139 114.437  1.00  0.00     0.000 C 
BRANCH  14  15
ATOM     15  C   UNL     1       1.209  24.084 113.234  1.00  0.00     0.000 C 
BRANCH  15  16
ATOM     16  C   UNL     1       1.130  25.549 113.677  1.00  0.00     0.000 C 
BRANCH  16  17
ATOM     17  C   UNL     1       1.581  26.490 112.551  1.00  0.00     0.000 C 
BRANCH  17  18
ATOM     18  C   UNL     1       2.644  25.862 111.630  1.00  0.00     0.000 C 
BRANCH  18  19
ATOM     19  C   UNL     1       3.054  26.726 110.424  1.00  0.00     0.000 C 
BRANCH  19  20
ATOM     20  C   UNL     1       4.517  26.510 110.001  1.00  0.00     0.006 C 
BRANCH  20  21
ATOM     21  C   UNL     1       5.359  25.889 111.124  1.00  0.00     0.053 C 
BRANCH  21  22
ATOM     22  C   UNL     1       6.814  26.211 110.971  1.00  0.00     0.041 C 
ATOM     23  O   UNL     1       7.618  25.336 110.556  1.00  0.00    -0.550 OA
ATOM     24  O   UNL     1       7.279  27.486 111.269  1.00  0.00    -0.550 OA
ENDBRANCH  21  22
ENDBRANCH  20  21
ENDBRANCH  19  20
ENDBRANCH  18  19
ENDBRANCH  17  18
ENDBRANCH  16  17
ENDBRANCH  15  16
ENDBRANCH  14  15
ENDBRANCH  13  14
ENDBRANCH   1  13
TORSDOF 20
ENDMDL
MODEL 7
REMARK VINA RESULT:    -3.943      1.482      2.512
REMARK INTER + INTRA:         -11.505
REMARK INTER:                  -8.075
REMARK INTRA:                  -3.430
REMARK UNBOUND:                -2.951
REMARK SMILES CCCCCCCCCCCCCCCCCCCCCC(=O)[O-]
REMARK SMILES IDX 12 1 11 2 10 3 9 4 8 5 7 6 6 7 5 8 4 9 3 10 2 11 1 12 13 13
REMARK SMILES IDX 14 14 15 15 16 16 17 17 18 18 19 19 20 20 21 21 22 22 23 23
REMARK SMILES IDX 24 24
REMARK H PARENT
REMARK Flexibility Score: inf
ROOT
ATOM      1  C   UNL     1       2.788  26.086 114.714  1.00  0.00     0.000 C 
ENDROOT
BRANCH   1   2
ATOM      2  C   UNL     1       3.873  24.999 114.768  1.00  0.00     0.000 C 
BRANCH   2   3
ATOM      3  C   UNL     1       5.270  25.570 115.063  1.00  0.00     0.000 C 
BRANCH   3   4
ATOM      4  C   UNL     1       6.158  25.667 113.808  1.00  0.00    -0.000 C 
BRANCH   4   5
ATOM      5  C   UNL     1       6.012  26.968 112.998  1.00  0.00    -0.000 C 
BRANCH   5   6
ATOM      6  C   UNL     1       6.297  26.776 111.498  1.00  0.00    -0.000 C 
BRANCH   6   7
ATOM      7  C   UNL     1       6.200  25.306 111.061  1.00  0.00    -0.000 C 
BRANCH   7   8
ATOM      8  C   UNL     1       7.475  24.813 110.358  1.00  0.00    -0.000 C 
BRANCH   8   9
ATOM      9  C   UNL     1       8.261  25.989 109.760  1.00  0.00    -0.000 C 
BRANCH   9  10
ATOM     10  C   UNL     1       8.677  25.752 108.296  1.00  0.00    -0.000 C 
BRANCH  10  11
ATOM     11  C   UNL     1       7.507  25.544 107.317  1.00  0.00    -0.003 C 
ATOM     12  C   UNL     1       6.526  26.716 107.299  1.00  0.00     0.004 C 
ENDBRANCH  10  11
ENDBRANCH   9  10
ENDBRANCH   8   9
ENDBRANCH   7   8
ENDBRANCH   6   7
ENDBRANCH   5   6
ENDBRANCH   4   5
ENDBRANCH   3   4
ENDBRANCH   2   3
ENDBRANCH   1   2
BRANCH   1  13
ATOM     13  C   UNL     1       1.925  26.004 113.442  1.00  0.00     0.000 C 
BRANCH  13  14
ATOM     14  C   UNL     1       2.719  25.506 112.224  1.00  0.00     0.000 C 
BRANCH  14  15
ATOM     15  C   UNL     1       2.560  26.420 110.999  1.00  0.00     0.000 C 
BRANCH  15  16
ATOM     16  C   UNL     1       2.114  27.825 111.419  1.00  0.00     0.000 C 
BRANCH  16  17
ATOM     17  C   UNL     1       3.268  28.830 111.295  1.00  0.00     0.000 C 
BRANCH  17  18
ATOM     18  C   UNL     1       3.186  29.971 112.325  1.00  0.00     0.000 C 
BRANCH  18  19
ATOM     19  C   UNL     1       3.274  29.527 113.797  1.00  0.00     0.000 C 
BRANCH  19  20
ATOM     20  C   UNL     1       4.564  29.999 114.490  1.00  0.00     0.006 C 
BRANCH  20  21
ATOM     21  C   UNL     1       5.188  31.213 113.788  1.00  0.00     0.053 C 
BRANCH  21  22
ATOM     22  C   UNL     1       6.340  31.772 114.566  1.00  0.00     0.041 C 
ATOM     23  O   UNL     1       7.445  31.170 114.586  1.00  0.00    -0.550 OA
ATOM     24  O   UNL     1       6.197  32.971 115.254  1.00  0.00    -0.550 OA
ENDBRANCH  21  22
ENDBRANCH  20  21
ENDBRANCH  19  20
ENDBRANCH  18  19
ENDBRANCH  17  18
ENDBRANCH  16  17
ENDBRANCH  15  16
ENDBRANCH  14  15
ENDBRANCH  13  14
ENDBRANCH   1  13
TORSDOF 20
ENDMDL
MODEL 8
REMARK VINA RESULT:    -3.943      3.635      6.336
REMARK INTER + INTRA:         -11.503
REMARK INTER:                  -7.666
REMARK INTRA:                  -3.838
REMARK UNBOUND:                -2.951
REMARK SMILES CCCCCCCCCCCCCCCCCCCCCC(=O)[O-]
REMARK SMILES IDX 12 1 11 2 10 3 9 4 8 5 7 6 6 7 5 8 4 9 3 10 2 11 1 12 13 13
REMARK SMILES IDX 14 14 15 15 16 16 17 17 18 18 19 19 20 20 21 21 22 22 23 23
REMARK SMILES IDX 24 24
REMARK H PARENT
REMARK Flexibility Score: inf
ROOT
ATOM      1  C   UNL     1       3.525  22.869 115.375  1.00  0.00     0.000 C 
ENDROOT
BRANCH   1   2
ATOM      2  C   UNL     1       3.503  21.793 114.278  1.00  0.00     0.000 C 
BRANCH   2   3
ATOM      3  C   UNL     1       2.094  21.557 113.707  1.00  0.00     0.000 C 
BRANCH   3   4
ATOM      4  C   UNL     1       1.017  22.420 114.389  1.00  0.00    -0.000 C 
BRANCH   4   5
ATOM      5  C   UNL     1       0.448  23.564 113.530  1.00  0.00    -0.000 C 
BRANCH   5   6
ATOM      6  C   UNL     1       0.689  24.954 114.146  1.00  0.00    -0.000 C 
BRANCH   6   7
ATOM      7  C   UNL     1       1.600  25.836 113.277  1.00  0.00    -0.000 C 
BRANCH   7   8
ATOM      8  C   UNL     1       2.609  25.015 112.458  1.00  0.00    -0.000 C 
BRANCH   8   9
ATOM      9  C   UNL     1       2.972  25.736 111.152  1.00  0.00    -0.000 C 
BRANCH   9  10
ATOM     10  C   UNL     1       2.510  27.205 111.128  1.00  0.00    -0.000 C 
BRANCH  10  11
ATOM     11  C   UNL     1       3.637  28.240 111.300  1.00  0.00    -0.003 C 
ATOM     12  C   UNL     1       3.603  28.940 112.658  1.00  0.00     0.004 C 
ENDBRANCH  10  11
ENDBRANCH   9  10
ENDBRANCH   8   9
ENDBRANCH   7   8
ENDBRANCH   6   7
ENDBRANCH   5   6
ENDBRANCH   4   5
ENDBRANCH   3   4
ENDBRANCH   2   3
ENDBRANCH   1   2
BRANCH   1  13
ATOM     13  C   UNL     1       4.865  22.923 116.130  1.00  0.00     0.000 C 
BRANCH  13  14
ATOM     14  C   UNL     1       5.230  24.347 116.580  1.00  0.00     0.000 C 
BRANCH  14  15
ATOM     15  C   UNL     1       4.061  25.332 116.434  1.00  0.00     0.000 C 
BRANCH  15  16
ATOM     16  C   UNL     1       4.459  26.530 115.564  1.00  0.00     0.000 C 
BRANCH  16  17
ATOM     17  C   UNL     1       5.849  26.322 114.945  1.00  0.00     0.000 C 
BRANCH  17  18
ATOM     18  C   UNL     1       5.797  26.035 113.433  1.00  0.00     0.000 C 
BRANCH  18  19
ATOM     19  C   UNL     1       6.709  24.891 112.955  1.00  0.00     0.000 C 
BRANCH  19  20
ATOM     20  C   UNL     1       6.396  24.432 111.521  1.00  0.00     0.006 C 
BRANCH  20  21
ATOM     21  C   UNL     1       7.381  25.015 110.498  1.00  0.00     0.053 C 
BRANCH  21  22
ATOM     22  C   UNL     1       6.994  26.401 110.081  1.00  0.00     0.041 C 
ATOM     23  O   UNL     1       6.131  26.577 109.183  1.00  0.00    -0.550 OA
ATOM     24  O   UNL     1       7.576  27.500 110.701  1.00  0.00    -0.550 OA
ENDBRANCH  21  22
ENDBRANCH  20  21
ENDBRANCH  19  20
ENDBRANCH  18  19
ENDBRANCH  17  18
ENDBRANCH  16  17
ENDBRANCH  15  16
ENDBRANCH  14  15
ENDBRANCH  13  14
ENDBRANCH   1  13
TORSDOF 20
ENDMDL
MODEL 9
REMARK VINA RESULT:    -3.936      3.394      6.754
REMARK INTER + INTRA:         -11.489
REMARK INTER:                  -8.115
REMARK INTRA:                  -3.374
REMARK UNBOUND:                -2.951
REMARK SMILES CCCCCCCCCCCCCCCCCCCCCC(=O)[O-]
REMARK SMILES IDX 12 1 11 2 10 3 9 4 8 5 7 6 6 7 5 8 4 9 3 10 2 11 1 12 13 13
REMARK SMILES IDX 14 14 15 15 16 16 17 17 18 18 19 19 20 20 21 21 22 22 23 23
REMARK SMILES IDX 24 24
REMARK H PARENT
REMARK Flexibility Score: inf
ROOT
ATOM      1  C   UNL     1       1.172  25.939 115.371  1.00  0.00     0.000 C 
ENDROOT
BRANCH   1   2
ATOM      2  C   UNL     1       2.158  26.399 114.284  1.00  0.00     0.000 C 
BRANCH   2   3
ATOM      3  C   UNL     1       1.487  26.572 112.911  1.00  0.00     0.000 C 
BRANCH   3   4
ATOM      4  C   UNL     1       2.424  26.230 111.737  1.00  0.00    -0.000 C 
BRANCH   4   5
ATOM      5  C   UNL     1       3.375  27.361 111.303  1.00  0.00    -0.000 C 
BRANCH   5   6
ATOM      6  C   UNL     1       2.975  28.001 109.962  1.00  0.00    -0.000 C 
BRANCH   6   7
ATOM      7  C   UNL     1       2.038  29.206 110.138  1.00  0.00    -0.000 C 
BRANCH   7   8
ATOM      8  C   UNL     1       2.683  30.341 110.949  1.00  0.00    -0.000 C 
BRANCH   8   9
ATOM      9  C   UNL     1       2.025  30.472 112.330  1.00  0.00    -0.000 C 
BRANCH   9  10
ATOM     10  C   UNL     1       0.497  30.645 112.254  1.00  0.00    -0.000 C 
BRANCH  10  11
ATOM     11  C   UNL     1      -0.310  29.665 113.126  1.00  0.00    -0.003 C 
ATOM     12  C   UNL     1       0.154  29.640 114.582  1.00  0.00     0.004 C 
ENDBRANCH  10  11
ENDBRANCH   9  10
ENDBRANCH   8   9
ENDBRANCH   7   8
ENDBRANCH   6   7
ENDBRANCH   5   6
ENDBRANCH   4   5
ENDBRANCH   3   4
ENDBRANCH   2   3
ENDBRANCH   1   2
BRANCH   1  13
ATOM     13  C   UNL     1      -0.287  25.913 114.880  1.00  0.00     0.000 C 
BRANCH  13  14
ATOM     14  C   UNL     1      -0.911  24.511 114.964  1.00  0.00     0.000 C 
BRANCH  14  15
ATOM     15  C   UNL     1      -0.121  23.462 114.166  1.00  0.00     0.000 C 
BRANCH  15  16
ATOM     16  C   UNL     1       0.350  22.323 115.076  1.00  0.00     0.000 C 
BRANCH  16  17
ATOM     17  C   UNL     1       1.736  21.817 114.653  1.00  0.00     0.000 C 
BRANCH  17  18
ATOM     18  C   UNL     1       2.466  22.783 113.702  1.00  0.00     0.000 C 
BRANCH  18  19
ATOM     19  C   UNL     1       3.989  22.875 113.908  1.00  0.00     0.000 C 
BRANCH  19  20
ATOM     20  C   UNL     1       4.700  23.654 112.789  1.00  0.00     0.006 C 
BRANCH  20  21
ATOM     21  C   UNL     1       5.482  24.860 113.329  1.00  0.00     0.053 C 
BRANCH  21  22
ATOM     22  C   UNL     1       6.786  25.041 112.616  1.00  0.00     0.041 C 
ATOM     23  O   UNL     1       7.476  24.040 112.289  1.00  0.00    -0.550 OA
ATOM     24  O   UNL     1       7.231  26.317 112.294  1.00  0.00    -0.550 OA
ENDBRANCH  21  22
ENDBRANCH  20  21
ENDBRANCH  19  20
ENDBRANCH  18  19
ENDBRANCH  17  18
ENDBRANCH  16  17
ENDBRANCH  15  16
ENDBRANCH  14  15
ENDBRANCH  13  14
ENDBRANCH   1  13
TORSDOF 20
ENDMDL
