MODEL 1
REMARK VINA RESULT:     5.310      0.000      0.000
REMARK INTER + INTRA:          11.978
REMARK INTER:                  13.381
REMARK INTRA:                  -1.403
REMARK UNBOUND:                -1.403
REMARK SMILES CCCCCCCCCCCCCCCCCCCCCCCCCCCC(=O)[O-]
REMARK SMILES IDX 15 1 16 2 17 3 18 4 19 5 20 6 21 7 22 8 23 9 24 10 25 11
REMARK SMILES IDX 26 12 27 13 28 14 29 15 30 16 14 17 13 18 12 19 11 20 10 21
REMARK SMILES IDX 9 22 8 23 7 24 6 25 5 26 4 27 3 28 2 29 1 30
REMARK H PARENT
REMARK Flexibility Score: inf
ROOT
ATOM      1  C   UNL     1      -4.866  50.751   0.018  1.00  0.00     0.000 C 
ENDROOT
BRANCH   1   2
ATOM      2  C   UNL     1      -5.601  52.101  -0.135  1.00  0.00     0.000 C 
BRANCH   2   3
ATOM      3  C   UNL     1      -7.119  51.953  -0.326  1.00  0.00     0.000 C 
BRANCH   3   4
ATOM      4  C   UNL     1      -7.552  52.099  -1.795  1.00  0.00     0.000 C 
BRANCH   4   5
ATOM      5  C   UNL     1      -8.317  50.867  -2.306  1.00  0.00     0.000 C 
BRANCH   5   6
ATOM      6  C   UNL     1      -8.335  49.717  -1.285  1.00  0.00     0.000 C 
BRANCH   6   7
ATOM      7  C   UNL     1      -7.534  48.492  -1.774  1.00  0.00     0.000 C 
BRANCH   7   8
ATOM      8  C   UNL     1      -7.225  47.473  -0.665  1.00  0.00     0.000 C 
BRANCH   8   9
ATOM      9  C   UNL     1      -7.178  46.027  -1.185  1.00  0.00     0.000 C 
BRANCH   9  10
ATOM     10  C   UNL     1      -6.680  45.926  -2.639  1.00  0.00     0.000 C 
BRANCH  10  11
ATOM     11  C   UNL     1      -6.529  44.495  -3.185  1.00  0.00     0.000 C 
BRANCH  11  12
ATOM     12  C   UNL     1      -5.969  43.510  -2.144  1.00  0.00     0.006 C 
BRANCH  12  13
ATOM     13  C   UNL     1      -4.564  43.906  -1.671  1.00  0.00     0.053 C 
BRANCH  13  14
ATOM     14  C   UNL     1      -3.898  42.793  -0.923  1.00  0.00     0.041 C 
ATOM     15  O   UNL     1      -2.685  42.524  -1.131  1.00  0.00    -0.550 OA
ATOM     16  O   UNL     1      -4.628  42.025  -0.022  1.00  0.00    -0.550 OA
ENDBRANCH  13  14
ENDBRANCH  12  13
ENDBRANCH  11  12
ENDBRANCH  10  11
ENDBRANCH   9  10
ENDBRANCH   8   9
ENDBRANCH   7   8
ENDBRANCH   6   7
ENDBRANCH   5   6
ENDBRANCH   4   5
ENDBRANCH   3   4
ENDBRANCH   2   3
ENDBRANCH   1   2
BRANCH   1  17
ATOM     17  C   UNL     1      -3.378  50.934   0.367  1.00  0.00     0.000 C 
BRANCH  17  18
ATOM     18  C   UNL     1      -2.718  52.065  -0.450  1.00  0.00     0.000 C 
BRANCH  18  19
ATOM     19  C   UNL     1      -1.182  52.077  -0.361  1.00  0.00     0.000 C 
BRANCH  19  20
ATOM     20  C   UNL     1      -0.512  51.357  -1.542  1.00  0.00     0.000 C 
BRANCH  20  21
ATOM     21  C   UNL     1      -1.072  51.796  -2.907  1.00  0.00     0.000 C 
BRANCH  21  22
ATOM     22  C   UNL     1      -0.503  51.033  -4.121  1.00  0.00    -0.000 C 
BRANCH  22  23
ATOM     23  C   UNL     1      -0.152  51.903  -5.341  1.00  0.00    -0.000 C 
BRANCH  23  24
ATOM     24  C   UNL     1      -1.344  52.123  -6.288  1.00  0.00    -0.000 C 
BRANCH  24  25
ATOM     25  C   UNL     1      -1.813  50.822  -6.966  1.00  0.00    -0.000 C 
BRANCH  25  26
ATOM     26  C   UNL     1      -3.269  50.834  -7.474  1.00  0.00    -0.000 C 
BRANCH  26  27
ATOM     27  C   UNL     1      -3.582  51.902  -8.538  1.00  0.00    -0.000 C 
BRANCH  27  28
ATOM     28  C   UNL     1      -4.110  51.302  -9.849  1.00  0.00    -0.000 C 
BRANCH  28  29
ATOM     29  C   UNL     1      -5.641  51.318  -9.883  1.00  0.00    -0.003 C 
ATOM     30  C   UNL     1      -6.226  50.464  -8.760  1.00  0.00     0.004 C 
ENDBRANCH  28  29
ENDBRANCH  27  28
ENDBRANCH  26  27
ENDBRANCH  25  26
ENDBRANCH  24  25
ENDBRANCH  23  24
ENDBRANCH  22  23
ENDBRANCH  21  22
ENDBRANCH  20  21
ENDBRANCH  19  20
ENDBRANCH  18  19
ENDBRANCH  17  18
ENDBRANCH   1  17
TORSDOF 26
ENDMDL
MODEL 2
REMARK VINA RESULT:     6.299      1.495      1.911
REMARK INTER + INTRA:          14.470
REMARK INTER:                  15.915
REMARK INTRA:                  -1.445
REMARK UNBOUND:                -1.403
REMARK SMILES CCCCCCCCCCCCCCCCCCCCCCCCCCCC(=O)[O-]
REMARK SMILES IDX 15 1 16 2 17 3 18 4 19 5 20 6 21 7 22 8 23 9 24 10 25 11
REMARK SMILES IDX 26 12 27 13 28 14 29 15 30 16 14 17 13 18 12 19 11 20 10 21
REMARK SMILES IDX 9 22 8 23 7 24 6 25 5 26 4 27 3 28 2 29 1 30
REMARK H PARENT
REMARK Flexibility Score: inf
ROOT
ATOM      1  C   UNL     1      -4.352  51.023  -0.390  1.00  0.00     0.000 C 
ENDROOT
BRANCH   1   2
ATOM      2  C   UNL     1      -5.518  51.909   0.100  1.00  0.00     0.000 C 
BRANCH   2   3
ATOM      3  C   UNL     1      -6.715  51.934  -0.865  1.00  0.00     0.000 C 
BRANCH   3   4
ATOM      4  C   UNL     1      -7.554  50.646  -0.808  1.00  0.00     0.000 C 
BRANCH   4   5
ATOM      5  C   UNL     1      -8.419  50.453  -2.065  1.00  0.00     0.000 C 
BRANCH   5   6
ATOM      6  C   UNL     1      -8.806  48.983  -2.295  1.00  0.00     0.000 C 
BRANCH   6   7
ATOM      7  C   UNL     1      -7.965  48.018  -1.432  1.00  0.00     0.000 C 
BRANCH   7   8
ATOM      8  C   UNL     1      -7.198  46.967  -2.251  1.00  0.00     0.000 C 
BRANCH   8   9
ATOM      9  C   UNL     1      -6.475  45.938  -1.367  1.00  0.00     0.000 C 
BRANCH   9  10
ATOM     10  C   UNL     1      -6.613  44.495  -1.887  1.00  0.00     0.000 C 
BRANCH  10  11
ATOM     11  C   UNL     1      -5.287  43.768  -2.172  1.00  0.00     0.000 C 
BRANCH  11  12
ATOM     12  C   UNL     1      -4.669  43.129  -0.916  1.00  0.00     0.006 C 
BRANCH  12  13
ATOM     13  C   UNL     1      -3.203  42.730  -1.133  1.00  0.00     0.053 C 
BRANCH  13  14
ATOM     14  C   UNL     1      -2.359  43.909  -1.511  1.00  0.00     0.041 C 
ATOM     15  O   UNL     1      -2.518  45.016  -0.932  1.00  0.00    -0.550 OA
ATOM     16  O   UNL     1      -1.422  43.794  -2.531  1.00  0.00    -0.550 OA
ENDBRANCH  13  14
ENDBRANCH  12  13
ENDBRANCH  11  12
ENDBRANCH  10  11
ENDBRANCH   9  10
ENDBRANCH   8   9
ENDBRANCH   7   8
ENDBRANCH   6   7
ENDBRANCH   5   6
ENDBRANCH   4   5
ENDBRANCH   3   4
ENDBRANCH   2   3
ENDBRANCH   1   2
BRANCH   1  17
ATOM     17  C   UNL     1      -3.263  50.848   0.685  1.00  0.00     0.000 C 
BRANCH  17  18
ATOM     18  C   UNL     1      -2.077  51.815   0.482  1.00  0.00     0.000 C 
BRANCH  18  19
ATOM     19  C   UNL     1      -1.032  51.309  -0.527  1.00  0.00     0.000 C 
BRANCH  19  20
ATOM     20  C   UNL     1      -1.382  51.675  -1.978  1.00  0.00     0.000 C 
BRANCH  20  21
ATOM     21  C   UNL     1      -0.146  51.749  -2.892  1.00  0.00     0.000 C 
BRANCH  21  22
ATOM     22  C   UNL     1      -0.285  51.005  -4.237  1.00  0.00    -0.000 C 
BRANCH  22  23
ATOM     23  C   UNL     1      -0.948  51.810  -5.370  1.00  0.00    -0.000 C 
BRANCH  23  24
ATOM     24  C   UNL     1      -1.286  50.951  -6.600  1.00  0.00    -0.000 C 
BRANCH  24  25
ATOM     25  C   UNL     1      -2.071  51.729  -7.672  1.00  0.00    -0.000 C 
BRANCH  25  26
ATOM     26  C   UNL     1      -3.579  51.409  -7.745  1.00  0.00    -0.000 C 
BRANCH  26  27
ATOM     27  C   UNL     1      -4.421  51.959  -6.581  1.00  0.00    -0.000 C 
BRANCH  27  28
ATOM     28  C   UNL     1      -5.904  52.125  -6.944  1.00  0.00    -0.000 C 
BRANCH  28  29
ATOM     29  C   UNL     1      -6.802  51.808  -5.744  1.00  0.00    -0.003 C 
ATOM     30  C   UNL     1      -8.279  51.931  -6.114  1.00  0.00     0.004 C 
ENDBRANCH  28  29
ENDBRANCH  27  28
ENDBRANCH  26  27
ENDBRANCH  25  26
ENDBRANCH  24  25
ENDBRANCH  23  24
ENDBRANCH  22  23
ENDBRANCH  21  22
ENDBRANCH  20  21
ENDBRANCH  19  20
ENDBRANCH  18  19
ENDBRANCH  17  18
ENDBRANCH   1  17
TORSDOF 26
ENDMDL
