MODEL 1
REMARK VINA RESULT:    -3.979      0.000      0.000
REMARK INTER + INTRA:          -6.065
REMARK INTER:                  -6.072
REMARK INTRA:                   0.007
REMARK UNBOUND:                 0.007
REMARK SMILES CC1=CCC[C@@H](C)C(=O)C[C@H](C(C)C)C(=O)C1
REMARK SMILES IDX 8 1 9 2 6 3 7 4 5 5 4 6 3 7 2 8 1 9 10 11 11 12 15 13 16 14
REMARK SMILES IDX 17 15 12 17 13 18 14 19
REMARK H PARENT
REMARK Flexibility Score: 70.00
ROOT
ATOM      1  C   UNL     1      15.453 -19.984 -21.474  1.00  0.00     0.136 C 
ATOM      2  O   UNL     1      16.619 -19.655 -21.644  1.00  0.00    -0.299 OA
ENDROOT
BRANCH   1   3
ATOM      3  C   UNL     1      14.758 -20.844 -22.512  1.00  0.00     0.053 C 
ATOM      4  C   UNL     1      15.428 -22.223 -22.534  1.00  0.00     0.016 C 
BRANCH   3   5
ATOM      5  C   UNL     1      14.786 -20.215 -23.926  1.00  0.00     0.015 C 
BRANCH   5   6
ATOM      6  C   UNL     1      13.516 -19.431 -24.293  1.00  0.00     0.028 C 
BRANCH   6   7
ATOM      7  C   UNL     1      13.627 -17.958 -23.976  1.00  0.00    -0.028 C 
ATOM      8  C   UNL     1      13.177 -17.351 -22.854  1.00  0.00    -0.070 CG0
ATOM      9  C   UNL     1      13.251 -15.844 -22.795  1.00  0.00     0.039 C 
ATOM     10  G   UNL     1      12.514 -18.099 -21.710  1.00  0.00     0.000 G0
ENDBRANCH   6   7
ENDBRANCH   5   6
ENDBRANCH   3   5
ENDBRANCH   1   3
BRANCH   1  11
ATOM     11  C   UNL     1      14.778 -19.649 -20.165  1.00  0.00     0.087 C 
BRANCH  11  12
ATOM     12  C   UNL     1      14.516 -18.126 -19.989  1.00  0.00     0.066 C 
BRANCH  12  13
ATOM     13  C   UNL     1      13.078 -17.763 -20.366  1.00  0.00     0.140 C 
ATOM     14  O   UNL     1      12.356 -17.183 -19.568  1.00  0.00    -0.299 OA
BRANCH  13  15
ATOM     15  C   UNL     1      12.504 -18.105 -21.720  1.00  0.00     0.106 CG0
ATOM     16  G   UNL     1      13.199 -17.357 -22.846  1.00  0.00     0.000 G0
ENDBRANCH  13  15
ENDBRANCH  12  13
BRANCH  12  17
ATOM     17  C   UNL     1      14.899 -17.610 -18.561  1.00  0.00    -0.006 C 
ATOM     18  C   UNL     1      14.573 -18.616 -17.441  1.00  0.00     0.008 C 
ATOM     19  C   UNL     1      16.376 -17.185 -18.480  1.00  0.00     0.008 C 
ENDBRANCH  12  17
ENDBRANCH  11  12
ENDBRANCH   1  11
TORSDOF 1
ENDMDL
MODEL 2
REMARK VINA RESULT:    -3.951      2.441      4.613
REMARK INTER + INTRA:          -6.023
REMARK INTER:                  -6.013
REMARK INTRA:                  -0.010
REMARK UNBOUND:                 0.007
REMARK SMILES CC1=CCC[C@@H](C)C(=O)C[C@H](C(C)C)C(=O)C1
REMARK SMILES IDX 8 1 9 2 6 3 7 4 5 5 4 6 3 7 2 8 1 9 10 11 11 12 15 13 16 14
REMARK SMILES IDX 17 15 12 17 13 18 14 19
REMARK H PARENT
REMARK Flexibility Score: 70.00
ROOT
ATOM      1  C   UNL     1      12.845 -18.087 -20.558  1.00  0.00     0.136 C 
ATOM      2  O   UNL     1      12.003 -17.667 -19.777  1.00  0.00    -0.299 OA
ENDROOT
BRANCH   1   3
ATOM      3  C   UNL     1      14.164 -18.615 -20.026  1.00  0.00     0.053 C 
ATOM      4  C   UNL     1      13.998 -18.939 -18.537  1.00  0.00     0.016 C 
BRANCH   3   5
ATOM      5  C   UNL     1      15.331 -17.618 -20.228  1.00  0.00     0.015 C 
BRANCH   5   6
ATOM      6  C   UNL     1      16.020 -17.722 -21.598  1.00  0.00     0.028 C 
BRANCH   6   7
ATOM      7  C   UNL     1      16.114 -16.391 -22.306  1.00  0.00    -0.028 C 
ATOM      8  C   UNL     1      15.316 -15.969 -23.314  1.00  0.00    -0.070 CG0
ATOM      9  C   UNL     1      15.668 -14.665 -23.989  1.00  0.00     0.039 C 
ATOM     10  G   UNL     1      14.157 -16.787 -23.858  1.00  0.00     0.000 G0
ENDBRANCH   6   7
ENDBRANCH   5   6
ENDBRANCH   3   5
ENDBRANCH   1   3
BRANCH   1  11
ATOM     11  C   UNL     1      12.495 -18.208 -22.022  1.00  0.00     0.087 C 
BRANCH  11  12
ATOM     12  C   UNL     1      11.859 -16.913 -22.604  1.00  0.00     0.066 C 
BRANCH  12  13
ATOM     13  C   UNL     1      12.810 -16.217 -23.579  1.00  0.00     0.140 C 
ATOM     14  O   UNL     1      12.483 -15.174 -24.126  1.00  0.00    -0.299 OA
BRANCH  13  15
ATOM     15  C   UNL     1      14.171 -16.786 -23.899  1.00  0.00     0.106 CG0
ATOM     16  G   UNL     1      15.298 -15.954 -23.308  1.00  0.00     0.000 G0
ENDBRANCH  13  15
ENDBRANCH  12  13
BRANCH  12  17
ATOM     17  C   UNL     1      10.448 -17.166 -23.235  1.00  0.00    -0.006 C 
ATOM     18  C   UNL     1      10.502 -17.964 -24.551  1.00  0.00     0.008 C 
ATOM     19  C   UNL     1       9.486 -17.842 -22.242  1.00  0.00     0.008 C 
ENDBRANCH  12  17
ENDBRANCH  11  12
ENDBRANCH   1  11
TORSDOF 1
ENDMDL
MODEL 3
REMARK VINA RESULT:    -3.906      2.160      4.256
REMARK INTER + INTRA:          -5.954
REMARK INTER:                  -5.925
REMARK INTRA:                  -0.028
REMARK UNBOUND:                 0.007
REMARK SMILES CC1=CCC[C@@H](C)C(=O)C[C@H](C(C)C)C(=O)C1
REMARK SMILES IDX 8 1 9 2 6 3 7 4 5 5 4 6 3 7 2 8 1 9 10 11 11 12 15 13 16 14
REMARK SMILES IDX 17 15 12 17 13 18 14 19
REMARK H PARENT
REMARK Flexibility Score: 70.00
ROOT
ATOM      1  C   UNL     1      10.931 -17.955 -21.421  1.00  0.00     0.136 C 
ATOM      2  O   UNL     1      10.625 -18.600 -20.428  1.00  0.00    -0.299 OA
ENDROOT
BRANCH   1   3
ATOM      3  C   UNL     1       9.851 -17.511 -22.389  1.00  0.00     0.053 C 
ATOM      4  C   UNL     1       8.578 -18.319 -22.109  1.00  0.00     0.016 C 
BRANCH   3   5
ATOM      5  C   UNL     1      10.272 -17.675 -23.870  1.00  0.00     0.015 C 
BRANCH   5   6
ATOM      6  C   UNL     1      10.948 -16.435 -24.475  1.00  0.00     0.028 C 
BRANCH   6   7
ATOM      7  C   UNL     1      11.978 -16.784 -25.523  1.00  0.00    -0.028 C 
ATOM      8  C   UNL     1      13.299 -16.977 -25.306  1.00  0.00    -0.070 CG0
ATOM      9  C   UNL     1      14.187 -17.171 -26.511  1.00  0.00     0.039 C 
ATOM     10  G   UNL     1      13.937 -16.904 -23.928  1.00  0.00     0.000 G0
ENDBRANCH   6   7
ENDBRANCH   5   6
ENDBRANCH   3   5
ENDBRANCH   1   3
BRANCH   1  11
ATOM     11  C   UNL     1      12.358 -17.489 -21.584  1.00  0.00     0.087 C 
BRANCH  11  12
ATOM     12  C   UNL     1      13.326 -18.631 -22.006  1.00  0.00     0.066 C 
BRANCH  12  13
ATOM     13  C   UNL     1      14.102 -18.261 -23.272  1.00  0.00     0.140 C 
ATOM     14  O   UNL     1      14.877 -19.059 -23.779  1.00  0.00    -0.299 OA
BRANCH  13  15
ATOM     15  C   UNL     1      13.942 -16.913 -23.933  1.00  0.00     0.106 CG0
ATOM     16  G   UNL     1      13.309 -17.018 -25.311  1.00  0.00     0.000 G0
ENDBRANCH  13  15
ENDBRANCH  12  13
BRANCH  12  17
ATOM     17  C   UNL     1      14.274 -19.079 -20.843  1.00  0.00    -0.006 C 
ATOM     18  C   UNL     1      14.289 -18.098 -19.656  1.00  0.00     0.008 C 
ATOM     19  C   UNL     1      13.952 -20.501 -20.353  1.00  0.00     0.008 C 
ENDBRANCH  12  17
ENDBRANCH  11  12
ENDBRANCH   1  11
TORSDOF 1
ENDMDL
MODEL 4
REMARK VINA RESULT:    -3.804      2.390      5.160
REMARK INTER + INTRA:          -5.798
REMARK INTER:                  -6.061
REMARK INTRA:                   0.263
REMARK UNBOUND:                 0.007
REMARK SMILES CC1=CCC[C@@H](C)C(=O)C[C@H](C(C)C)C(=O)C1
REMARK SMILES IDX 8 1 9 2 6 3 7 4 5 5 4 6 3 7 2 8 1 9 10 11 11 12 15 13 16 14
REMARK SMILES IDX 17 15 12 17 13 18 14 19
REMARK H PARENT
REMARK Flexibility Score: 70.00
ROOT
ATOM      1  C   UNL     1      12.127 -17.965 -21.406  1.00  0.00     0.136 C 
ATOM      2  O   UNL     1      11.210 -17.545 -22.098  1.00  0.00    -0.299 OA
ENDROOT
BRANCH   1   3
ATOM      3  C   UNL     1      11.877 -18.287 -19.945  1.00  0.00     0.053 C 
ATOM      4  C   UNL     1      10.469 -17.808 -19.571  1.00  0.00     0.016 C 
BRANCH   3   5
ATOM      5  C   UNL     1      12.925 -17.645 -19.004  1.00  0.00     0.015 C 
BRANCH   5   6
ATOM      6  C   UNL     1      14.089 -18.576 -18.627  1.00  0.00     0.028 C 
BRANCH   6   7
ATOM      7  C   UNL     1      15.402 -17.843 -18.489  1.00  0.00    -0.028 C 
ATOM      8  C   UNL     1      16.303 -17.634 -19.478  1.00  0.00    -0.070 CG0
ATOM      9  C   UNL     1      17.624 -17.009 -19.101  1.00  0.00     0.039 C 
ATOM     10  G   UNL     1      16.088 -18.089 -20.912  1.00  0.00     0.000 G0
ENDBRANCH   6   7
ENDBRANCH   5   6
ENDBRANCH   3   5
ENDBRANCH   1   3
BRANCH   1  11
ATOM     11  C   UNL     1      13.449 -18.294 -22.058  1.00  0.00     0.087 C 
BRANCH  11  12
ATOM     12  C   UNL     1      14.247 -17.030 -22.487  1.00  0.00     0.066 C 
BRANCH  12  13
ATOM     13  C   UNL     1      15.630 -16.998 -21.835  1.00  0.00     0.140 C 
ATOM     14  O   UNL     1      16.393 -16.066 -22.045  1.00  0.00    -0.299 OA
BRANCH  13  15
ATOM     15  C   UNL     1      16.099 -18.104 -20.920  1.00  0.00     0.106 CG0
ATOM     16  G   UNL     1      16.291 -17.626 -19.490  1.00  0.00     0.000 G0
ENDBRANCH  13  15
ENDBRANCH  12  13
BRANCH  12  17
ATOM     17  C   UNL     1      14.324 -16.866 -24.043  1.00  0.00    -0.006 C 
ATOM     18  C   UNL     1      13.167 -17.557 -24.788  1.00  0.00     0.008 C 
ATOM     19  C   UNL     1      14.419 -15.388 -24.462  1.00  0.00     0.008 C 
ENDBRANCH  12  17
ENDBRANCH  11  12
ENDBRANCH   1  11
TORSDOF 1
ENDMDL
MODEL 5
REMARK VINA RESULT:    -3.739      2.023      4.451
REMARK INTER + INTRA:          -5.699
REMARK INTER:                  -5.668
REMARK INTRA:                  -0.031
REMARK UNBOUND:                 0.007
REMARK SMILES CC1=CCC[C@@H](C)C(=O)C[C@H](C(C)C)C(=O)C1
REMARK SMILES IDX 8 1 9 2 6 3 7 4 5 5 4 6 3 7 2 8 1 9 10 11 11 12 15 13 16 14
REMARK SMILES IDX 17 15 12 17 13 18 14 19
REMARK H PARENT
REMARK Flexibility Score: 70.00
ROOT
ATOM      1  C   UNL     1      13.302 -18.459 -19.406  1.00  0.00     0.136 C 
ATOM      2  O   UNL     1      12.446 -17.867 -18.764  1.00  0.00    -0.299 OA
ENDROOT
BRANCH   1   3
ATOM      3  C   UNL     1      14.704 -18.589 -18.845  1.00  0.00     0.053 C 
ATOM      4  C   UNL     1      14.618 -18.640 -17.315  1.00  0.00     0.016 C 
BRANCH   3   5
ATOM      5  C   UNL     1      15.635 -17.435 -19.289  1.00  0.00     0.015 C 
BRANCH   5   6
ATOM      6  C   UNL     1      16.767 -17.865 -20.235  1.00  0.00     0.028 C 
BRANCH   6   7
ATOM      7  C   UNL     1      16.687 -17.193 -21.585  1.00  0.00    -0.028 C 
ATOM      8  C   UNL     1      16.217 -17.752 -22.724  1.00  0.00    -0.070 CG0
ATOM      9  C   UNL     1      16.360 -16.963 -24.003  1.00  0.00     0.039 C 
ATOM     10  G   UNL     1      15.653 -19.161 -22.791  1.00  0.00     0.000 G0
ENDBRANCH   6   7
ENDBRANCH   5   6
ENDBRANCH   3   5
ENDBRANCH   1   3
BRANCH   1  11
ATOM     11  C   UNL     1      12.904 -19.174 -20.676  1.00  0.00     0.087 C 
BRANCH  11  12
ATOM     12  C   UNL     1      13.270 -18.378 -21.962  1.00  0.00     0.066 C 
BRANCH  12  13
ATOM     13  C   UNL     1      14.157 -19.207 -22.894  1.00  0.00     0.140 C 
ATOM     14  O   UNL     1      13.658 -19.916 -23.755  1.00  0.00    -0.299 OA
BRANCH  13  15
ATOM     15  C   UNL     1      15.662 -19.180 -22.784  1.00  0.00     0.106 CG0
ATOM     16  G   UNL     1      16.212 -17.764 -22.735  1.00  0.00     0.000 G0
ENDBRANCH  13  15
ENDBRANCH  12  13
BRANCH  12  17
ATOM     17  C   UNL     1      12.009 -17.811 -22.697  1.00  0.00    -0.006 C 
ATOM     18  C   UNL     1      10.757 -17.749 -21.803  1.00  0.00     0.008 C 
ATOM     19  C   UNL     1      12.282 -16.433 -23.326  1.00  0.00     0.008 C 
ENDBRANCH  12  17
ENDBRANCH  11  12
ENDBRANCH   1  11
TORSDOF 1
ENDMDL
MODEL 6
REMARK VINA RESULT:    -3.715      4.402      6.818
REMARK INTER + INTRA:          -5.663
REMARK INTER:                  -5.394
REMARK INTRA:                  -0.269
REMARK UNBOUND:                 0.007
REMARK SMILES CC1=CCC[C@@H](C)C(=O)C[C@H](C(C)C)C(=O)C1
REMARK SMILES IDX 8 1 9 2 6 3 7 4 5 5 4 6 3 7 2 8 1 9 10 11 11 12 15 13 16 14
REMARK SMILES IDX 17 15 12 17 13 18 14 19
REMARK H PARENT
REMARK Flexibility Score: 70.00
ROOT
ATOM      1  C   UNL     1      16.249 -23.233 -23.482  1.00  0.00     0.136 C 
ATOM      2  O   UNL     1      15.540 -23.059 -22.500  1.00  0.00    -0.299 OA
ENDROOT
BRANCH   1   3
ATOM      3  C   UNL     1      17.228 -24.390 -23.505  1.00  0.00     0.053 C 
ATOM      4  C   UNL     1      17.071 -25.192 -22.207  1.00  0.00     0.016 C 
BRANCH   3   5
ATOM      5  C   UNL     1      18.696 -23.928 -23.672  1.00  0.00     0.015 C 
BRANCH   5   6
ATOM      6  C   UNL     1      19.209 -23.968 -25.120  1.00  0.00     0.028 C 
BRANCH   6   7
ATOM      7  C   UNL     1      20.026 -22.751 -25.484  1.00  0.00    -0.028 C 
ATOM      8  C   UNL     1      19.584 -21.675 -26.176  1.00  0.00    -0.070 CG0
ATOM      9  C   UNL     1      20.599 -20.628 -26.567  1.00  0.00     0.039 C 
ATOM     10  G   UNL     1      18.151 -21.526 -26.661  1.00  0.00     0.000 G0
ENDBRANCH   6   7
ENDBRANCH   5   6
ENDBRANCH   3   5
ENDBRANCH   1   3
BRANCH   1  11
ATOM     11  C   UNL     1      16.028 -22.379 -24.708  1.00  0.00     0.087 C 
BRANCH  11  12
ATOM     12  C   UNL     1      16.625 -20.949 -24.569  1.00  0.00     0.066 C 
BRANCH  12  13
ATOM     13  C   UNL     1      17.345 -20.522 -25.849  1.00  0.00     0.140 C 
ATOM     14  O   UNL     1      17.289 -19.363 -26.234  1.00  0.00    -0.299 OA
BRANCH  13  15
ATOM     15  C   UNL     1      18.142 -21.503 -26.675  1.00  0.00     0.106 CG0
ATOM     16  G   UNL     1      19.568 -21.655 -26.172  1.00  0.00     0.000 G0
ENDBRANCH  13  15
ENDBRANCH  12  13
BRANCH  12  17
ATOM     17  C   UNL     1      15.562 -19.895 -24.109  1.00  0.00    -0.006 C 
ATOM     18  C   UNL     1      14.134 -20.222 -24.583  1.00  0.00     0.008 C 
ATOM     19  C   UNL     1      15.583 -19.684 -22.585  1.00  0.00     0.008 C 
ENDBRANCH  12  17
ENDBRANCH  11  12
ENDBRANCH   1  11
TORSDOF 1
ENDMDL
MODEL 7
REMARK VINA RESULT:    -3.690      2.683      5.185
REMARK INTER + INTRA:          -5.625
REMARK INTER:                  -5.357
REMARK INTRA:                  -0.267
REMARK UNBOUND:                 0.007
REMARK SMILES CC1=CCC[C@@H](C)C(=O)C[C@H](C(C)C)C(=O)C1
REMARK SMILES IDX 8 1 9 2 6 3 7 4 5 5 4 6 3 7 2 8 1 9 10 11 11 12 15 13 16 14
REMARK SMILES IDX 17 15 12 17 13 18 14 19
REMARK H PARENT
REMARK Flexibility Score: 70.00
ROOT
ATOM      1  C   UNL     1      13.963 -15.068 -24.034  1.00  0.00     0.136 C 
ATOM      2  O   UNL     1      13.559 -14.581 -25.081  1.00  0.00    -0.299 OA
ENDROOT
BRANCH   1   3
ATOM      3  C   UNL     1      15.401 -14.843 -23.609  1.00  0.00     0.053 C 
ATOM      4  C   UNL     1      15.758 -13.370 -23.843  1.00  0.00     0.016 C 
BRANCH   3   5
ATOM      5  C   UNL     1      16.397 -15.759 -24.361  1.00  0.00     0.015 C 
BRANCH   5   6
ATOM      6  C   UNL     1      16.417 -17.213 -23.864  1.00  0.00     0.028 C 
BRANCH   6   7
ATOM      7  C   UNL     1      16.533 -17.316 -22.362  1.00  0.00    -0.028 C 
ATOM      8  C   UNL     1      15.711 -18.017 -21.547  1.00  0.00    -0.070 CG0
ATOM      9  C   UNL     1      15.908 -17.871 -20.058  1.00  0.00     0.039 C 
ATOM     10  G   UNL     1      14.549 -18.855 -22.055  1.00  0.00     0.000 G0
ENDBRANCH   6   7
ENDBRANCH   5   6
ENDBRANCH   3   5
ENDBRANCH   1   3
BRANCH   1  11
ATOM     11  C   UNL     1      12.981 -15.757 -23.117  1.00  0.00     0.087 C 
BRANCH  11  12
ATOM     12  C   UNL     1      12.875 -17.287 -23.379  1.00  0.00     0.066 C 
BRANCH  12  13
ATOM     13  C   UNL     1      13.249 -18.090 -22.131  1.00  0.00     0.140 C 
ATOM     14  O   UNL     1      12.498 -18.121 -21.167  1.00  0.00    -0.299 OA
BRANCH  13  15
ATOM     15  C   UNL     1      14.543 -18.864 -22.046  1.00  0.00     0.106 CG0
ATOM     16  G   UNL     1      15.697 -18.004 -21.557  1.00  0.00     0.000 G0
ENDBRANCH  13  15
ENDBRANCH  12  13
BRANCH  12  17
ATOM     17  C   UNL     1      11.480 -17.704 -23.953  1.00  0.00    -0.006 C 
ATOM     18  C   UNL     1      10.321 -16.829 -23.440  1.00  0.00     0.008 C 
ATOM     19  C   UNL     1      11.478 -17.739 -25.492  1.00  0.00     0.008 C 
ENDBRANCH  12  17
ENDBRANCH  11  12
ENDBRANCH   1  11
TORSDOF 1
ENDMDL
MODEL 8
REMARK VINA RESULT:    -3.687      2.101      3.783
REMARK INTER + INTRA:          -5.620
REMARK INTER:                  -5.299
REMARK INTRA:                  -0.321
REMARK UNBOUND:                 0.007
REMARK SMILES CC1=CCC[C@@H](C)C(=O)C[C@H](C(C)C)C(=O)C1
REMARK SMILES IDX 8 1 9 2 6 3 7 4 5 5 4 6 3 7 2 8 1 9 10 11 11 12 15 13 16 14
REMARK SMILES IDX 17 15 12 17 13 18 14 19
REMARK H PARENT
REMARK Flexibility Score: 70.00
ROOT
ATOM      1  C   UNL     1      12.255 -17.630 -22.273  1.00  0.00     0.136 C 
ATOM      2  O   UNL     1      11.330 -18.085 -21.615  1.00  0.00    -0.299 OA
ENDROOT
BRANCH   1   3
ATOM      3  C   UNL     1      12.054 -17.333 -23.746  1.00  0.00     0.053 C 
ATOM      4  C   UNL     1      10.626 -16.813 -23.951  1.00  0.00     0.016 C 
BRANCH   3   5
ATOM      5  C   UNL     1      12.305 -18.569 -24.645  1.00  0.00     0.015 C 
BRANCH   5   6
ATOM      6  C   UNL     1      13.741 -18.679 -25.179  1.00  0.00     0.028 C 
BRANCH   6   7
ATOM      7  C   UNL     1      14.454 -17.347 -25.218  1.00  0.00    -0.028 C 
ATOM      8  C   UNL     1      15.567 -17.021 -24.522  1.00  0.00    -0.070 CG0
ATOM      9  C   UNL     1      16.039 -15.589 -24.584  1.00  0.00     0.039 C 
ATOM     10  G   UNL     1      16.296 -17.995 -23.610  1.00  0.00     0.000 G0
ENDBRANCH   6   7
ENDBRANCH   5   6
ENDBRANCH   3   5
ENDBRANCH   1   3
BRANCH   1  11
ATOM     11  C   UNL     1      13.532 -17.234 -21.570  1.00  0.00     0.087 C 
BRANCH  11  12
ATOM     12  C   UNL     1      14.613 -18.353 -21.597  1.00  0.00     0.066 C 
BRANCH  12  13
ATOM     13  C   UNL     1      15.940 -17.829 -22.148  1.00  0.00     0.140 C 
ATOM     14  O   UNL     1      16.738 -17.268 -21.412  1.00  0.00    -0.299 OA
BRANCH  13  15
ATOM     15  C   UNL     1      16.309 -17.983 -23.604  1.00  0.00     0.106 CG0
ATOM     16  G   UNL     1      15.565 -17.000 -24.494  1.00  0.00     0.000 G0
ENDBRANCH  13  15
ENDBRANCH  12  13
BRANCH  12  17
ATOM     17  C   UNL     1      14.787 -19.056 -20.208  1.00  0.00    -0.006 C 
ATOM     18  C   UNL     1      14.232 -18.231 -19.033  1.00  0.00     0.008 C 
ATOM     19  C   UNL     1      14.179 -20.470 -20.199  1.00  0.00     0.008 C 
ENDBRANCH  12  17
ENDBRANCH  11  12
ENDBRANCH   1  11
TORSDOF 1
ENDMDL
MODEL 9
REMARK VINA RESULT:    -3.483      4.397      6.375
REMARK INTER + INTRA:          -5.308
REMARK INTER:                  -5.147
REMARK INTRA:                  -0.161
REMARK UNBOUND:                 0.007
REMARK SMILES CC1=CCC[C@@H](C)C(=O)C[C@H](C(C)C)C(=O)C1
REMARK SMILES IDX 8 1 9 2 6 3 7 4 5 5 4 6 3 7 2 8 1 9 10 11 11 12 15 13 16 14
REMARK SMILES IDX 17 15 12 17 13 18 14 19
REMARK H PARENT
REMARK Flexibility Score: 70.00
ROOT
ATOM      1  C   UNL     1      18.952 -23.306 -24.112  1.00  0.00     0.136 C 
ATOM      2  O   UNL     1      19.056 -23.617 -25.291  1.00  0.00    -0.299 OA
ENDROOT
BRANCH   1   3
ATOM      3  C   UNL     1      18.532 -24.349 -23.095  1.00  0.00     0.053 C 
ATOM      4  C   UNL     1      19.352 -25.623 -23.332  1.00  0.00     0.016 C 
BRANCH   3   5
ATOM      5  C   UNL     1      17.019 -24.670 -23.157  1.00  0.00     0.015 C 
BRANCH   5   6
ATOM      6  C   UNL     1      16.119 -23.587 -22.542  1.00  0.00     0.028 C 
BRANCH   6   7
ATOM      7  C   UNL     1      15.454 -22.719 -23.585  1.00  0.00    -0.028 C 
ATOM      8  C   UNL     1      15.700 -21.406 -23.801  1.00  0.00    -0.070 CG0
ATOM      9  C   UNL     1      14.822 -20.682 -24.792  1.00  0.00     0.039 C 
ATOM     10  G   UNL     1      16.739 -20.614 -23.025  1.00  0.00     0.000 G0
ENDBRANCH   6   7
ENDBRANCH   5   6
ENDBRANCH   3   5
ENDBRANCH   1   3
BRANCH   1  11
ATOM     11  C   UNL     1      19.387 -21.927 -23.676  1.00  0.00     0.087 C 
BRANCH  11  12
ATOM     12  C   UNL     1      18.872 -20.800 -24.617  1.00  0.00     0.066 C 
BRANCH  12  13
ATOM     13  C   UNL     1      17.777 -19.972 -23.943  1.00  0.00     0.140 C 
ATOM     14  O   UNL     1      17.708 -18.766 -24.130  1.00  0.00    -0.299 OA
BRANCH  13  15
ATOM     15  C   UNL     1      16.753 -20.605 -23.031  1.00  0.00     0.106 CG0
ATOM     16  G   UNL     1      15.713 -21.404 -23.799  1.00  0.00     0.000 G0
ENDBRANCH  13  15
ENDBRANCH  12  13
BRANCH  12  17
ATOM     17  C   UNL     1      20.030 -19.906 -25.175  1.00  0.00    -0.006 C 
ATOM     18  C   UNL     1      21.432 -20.474 -24.889  1.00  0.00     0.008 C 
ATOM     19  C   UNL     1      19.866 -19.624 -26.678  1.00  0.00     0.008 C 
ENDBRANCH  12  17
ENDBRANCH  11  12
ENDBRANCH   1  11
TORSDOF 1
ENDMDL
