MODEL 1
REMARK VINA RESULT:    11.621      0.000      0.000
REMARK INTER + INTRA:          13.671
REMARK INTER:                  13.999
REMARK INTRA:                  -0.327
REMARK UNBOUND:                -0.327
REMARK SMILES Oc1cc(O)c2c(c1)O[C@H](c1ccc(O)c(O)c1)[C@@H](O)C2
REMARK SMILES IDX 21 1 19 2 10 3 9 4 7 5 8 6 2 7 3 8 4 9 6 10 20 11 11 13
REMARK SMILES IDX 18 14 12 15 16 16 13 17 14 18 17 19 15 21 5 23 1 25
REMARK H PARENT 20 12 17 20 15 22 5 24 1 26
REMARK Flexibility Score: inf
ROOT
ATOM      1  C   UNL     1     -17.791  -8.604   9.756  1.00  0.00     0.079 C 
ATOM      2  C   UNL     1     -17.928  -7.152  10.249  1.00  0.00     0.164 C 
ATOM      3  C   UNL     1     -18.127  -7.134  11.774  1.00  0.00     0.232 C 
ATOM      4  O   UNL     1     -19.265  -7.922  12.122  1.00  0.00    -0.482 OA
ATOM      5  C   UNL     1     -19.567  -9.125  11.476  1.00  0.00     0.131 A 
ATOM      6  C   UNL     1     -20.582  -9.935  11.992  1.00  0.00     0.093 A 
ATOM      7  C   UNL     1     -20.894 -11.151  11.376  1.00  0.00     0.122 A 
ATOM      8  C   UNL     1     -20.181 -11.561  10.248  1.00  0.00     0.092 A 
ATOM      9  C   UNL     1     -19.161 -10.763   9.718  1.00  0.00     0.126 A 
ATOM     10  C   UNL     1     -18.870  -9.511  10.311  1.00  0.00     0.039 A 
ENDROOT
BRANCH   2  11
ATOM     11  O   UNL     1     -16.774  -6.425   9.912  1.00  0.00    -0.389 OA
ATOM     12  H   UNL     1     -16.877  -6.148   8.965  1.00  0.00     0.211 HD
ENDBRANCH   2  11
BRANCH   3  13
ATOM     13  C   UNL     1     -18.310  -5.724  12.284  1.00  0.00    -0.001 A 
ATOM     14  C   UNL     1     -19.511  -5.030  12.052  1.00  0.00     0.057 A 
ATOM     15  C   UNL     1     -17.263  -5.073  12.956  1.00  0.00     0.012 A 
ATOM     16  C   UNL     1     -19.672  -3.714  12.500  1.00  0.00     0.157 A 
ATOM     17  C   UNL     1     -17.421  -3.760  13.405  1.00  0.00     0.050 A 
ATOM     18  C   UNL     1     -18.623  -3.074  13.182  1.00  0.00     0.157 A 
BRANCH  16  19
ATOM     19  O   UNL     1     -20.879  -3.059  12.257  1.00  0.00    -0.504 OA
ATOM     20  H   UNL     1     -21.436  -2.662  13.003  1.00  0.00     0.293 HD
ENDBRANCH  16  19
BRANCH  18  21
ATOM     21  O   UNL     1     -18.778  -1.765  13.632  1.00  0.00    -0.504 OA
ATOM     22  H   UNL     1     -18.414  -1.466  14.529  1.00  0.00     0.293 HD
ENDBRANCH  18  21
ENDBRANCH   3  13
BRANCH   9  23
ATOM     23  O   UNL     1     -18.453 -11.247   8.615  1.00  0.00    -0.507 OA
ATOM     24  H   UNL     1     -18.272 -12.228   8.458  1.00  0.00     0.293 HD
ENDBRANCH   9  23
BRANCH   7  25
ATOM     25  O   UNL     1     -21.906 -11.965  11.883  1.00  0.00    -0.508 OA
ATOM     26  H   UNL     1     -21.931 -12.960  11.692  1.00  0.00     0.293 HD
ENDBRANCH   7  25
TORSDOF 6
ENDMDL
MODEL 2
REMARK VINA RESULT:    11.689      1.399      3.070
REMARK INTER + INTRA:          13.753
REMARK INTER:                  14.103
REMARK INTRA:                  -0.350
REMARK UNBOUND:                -0.327
REMARK SMILES Oc1cc(O)c2c(c1)O[C@H](c1ccc(O)c(O)c1)[C@@H](O)C2
REMARK SMILES IDX 21 1 19 2 10 3 9 4 7 5 8 6 2 7 3 8 4 9 6 10 20 11 11 13
REMARK SMILES IDX 18 14 12 15 16 16 13 17 14 18 17 19 15 21 5 23 1 25
REMARK H PARENT 20 12 17 20 15 22 5 24 1 26
REMARK Flexibility Score: inf
ROOT
ATOM      1  C   UNL     1     -20.917  -8.990  12.553  1.00  0.00     0.079 C 
ATOM      2  C   UNL     1     -20.290  -7.660  13.009  1.00  0.00     0.164 C 
ATOM      3  C   UNL     1     -20.049  -6.751  11.791  1.00  0.00     0.232 C 
ATOM      4  O   UNL     1     -19.228  -7.427  10.839  1.00  0.00    -0.482 OA
ATOM      5  C   UNL     1     -19.364  -8.792  10.570  1.00  0.00     0.131 A 
ATOM      6  C   UNL     1     -18.662  -9.345   9.496  1.00  0.00     0.093 A 
ATOM      7  C   UNL     1     -18.792 -10.705   9.194  1.00  0.00     0.122 A 
ATOM      8  C   UNL     1     -19.636 -11.509   9.963  1.00  0.00     0.092 A 
ATOM      9  C   UNL     1     -20.347 -10.972  11.042  1.00  0.00     0.126 A 
ATOM     10  C   UNL     1     -20.185  -9.607  11.379  1.00  0.00     0.039 A 
ENDROOT
BRANCH   2  11
ATOM     11  O   UNL     1     -21.145  -7.017  13.919  1.00  0.00    -0.389 OA
ATOM     12  H   UNL     1     -20.739  -6.133  14.117  1.00  0.00     0.211 HD
ENDBRANCH   2  11
BRANCH   3  13
ATOM     13  C   UNL     1     -19.390  -5.454  12.199  1.00  0.00    -0.001 A 
ATOM     14  C   UNL     1     -18.059  -5.440  12.652  1.00  0.00     0.057 A 
ATOM     15  C   UNL     1     -20.118  -4.253  12.176  1.00  0.00     0.012 A 
ATOM     16  C   UNL     1     -17.457  -4.243  13.057  1.00  0.00     0.157 A 
ATOM     17  C   UNL     1     -19.519  -3.057  12.578  1.00  0.00     0.050 A 
ATOM     18  C   UNL     1     -18.189  -3.044  13.019  1.00  0.00     0.157 A 
BRANCH  16  19
ATOM     19  O   UNL     1     -16.133  -4.266  13.495  1.00  0.00    -0.504 OA
ATOM     20  H   UNL     1     -15.883  -4.528  14.440  1.00  0.00     0.293 HD
ENDBRANCH  16  19
BRANCH  18  21
ATOM     21  O   UNL     1     -17.594  -1.849  13.419  1.00  0.00    -0.504 OA
ATOM     22  H   UNL     1     -16.598  -1.692  13.317  1.00  0.00     0.293 HD
ENDBRANCH  18  21
ENDBRANCH   3  13
BRANCH   9  23
ATOM     23  O   UNL     1     -21.209 -11.816  11.746  1.00  0.00    -0.507 OA
ATOM     24  H   UNL     1     -20.957 -12.272  12.612  1.00  0.00     0.293 HD
ENDBRANCH   9  23
BRANCH   7  25
ATOM     25  O   UNL     1     -18.094 -11.265   8.126  1.00  0.00    -0.508 OA
ATOM     26  H   UNL     1     -17.636 -10.686   7.431  1.00  0.00     0.293 HD
ENDBRANCH   7  25
TORSDOF 6
ENDMDL
MODEL 3
REMARK VINA RESULT:    13.363      1.170      2.713
REMARK INTER + INTRA:          15.770
REMARK INTER:                  16.105
REMARK INTRA:                  -0.335
REMARK UNBOUND:                -0.327
REMARK SMILES Oc1cc(O)c2c(c1)O[C@H](c1ccc(O)c(O)c1)[C@@H](O)C2
REMARK SMILES IDX 21 1 19 2 10 3 9 4 7 5 8 6 2 7 3 8 4 9 6 10 20 11 11 13
REMARK SMILES IDX 18 14 12 15 16 16 13 17 14 18 17 19 15 21 5 23 1 25
REMARK H PARENT 20 12 17 20 15 22 5 24 1 26
REMARK Flexibility Score: inf
ROOT
ATOM      1  C   UNL     1     -20.882  -9.010  12.479  1.00  0.00     0.079 C 
ATOM      2  C   UNL     1     -20.156  -7.761  13.012  1.00  0.00     0.164 C 
ATOM      3  C   UNL     1     -19.754  -6.850  11.839  1.00  0.00     0.232 C 
ATOM      4  O   UNL     1     -18.947  -7.579  10.915  1.00  0.00    -0.482 OA
ATOM      5  C   UNL     1     -19.201  -8.916  10.595  1.00  0.00     0.131 A 
ATOM      6  C   UNL     1     -18.493  -9.509   9.547  1.00  0.00     0.093 A 
ATOM      7  C   UNL     1     -18.737 -10.841   9.195  1.00  0.00     0.122 A 
ATOM      8  C   UNL     1     -19.700 -11.576   9.888  1.00  0.00     0.092 A 
ATOM      9  C   UNL     1     -20.420 -10.999  10.941  1.00  0.00     0.126 A 
ATOM     10  C   UNL     1     -20.145  -9.666  11.330  1.00  0.00     0.039 A 
ENDROOT
BRANCH   2  11
ATOM     11  O   UNL     1     -20.997  -7.059  13.891  1.00  0.00    -0.389 OA
ATOM     12  H   UNL     1     -21.555  -6.457  13.332  1.00  0.00     0.211 HD
ENDBRANCH   2  11
BRANCH   3  13
ATOM     13  C   UNL     1     -18.997  -5.636  12.325  1.00  0.00    -0.001 A 
ATOM     14  C   UNL     1     -19.612  -4.371  12.345  1.00  0.00     0.057 A 
ATOM     15  C   UNL     1     -17.654  -5.750  12.718  1.00  0.00     0.012 A 
ATOM     16  C   UNL     1     -18.904  -3.241  12.769  1.00  0.00     0.157 A 
ATOM     17  C   UNL     1     -16.945  -4.624  13.142  1.00  0.00     0.050 A 
ATOM     18  C   UNL     1     -17.563  -3.366  13.172  1.00  0.00     0.157 A 
BRANCH  16  19
ATOM     19  O   UNL     1     -19.547  -2.004  12.782  1.00  0.00    -0.504 OA
ATOM     20  H   UNL     1     -19.156  -1.199  13.255  1.00  0.00     0.293 HD
ENDBRANCH  16  19
BRANCH  18  21
ATOM     21  O   UNL     1     -16.853  -2.246  13.597  1.00  0.00    -0.504 OA
ATOM     22  H   UNL     1     -15.939  -2.023  13.221  1.00  0.00     0.293 HD
ENDBRANCH  18  21
ENDBRANCH   3  13
BRANCH   9  23
ATOM     23  O   UNL     1     -21.401 -11.770  11.567  1.00  0.00    -0.507 OA
ATOM     24  H   UNL     1     -22.013 -11.413  12.289  1.00  0.00     0.293 HD
ENDBRANCH   9  23
BRANCH   7  25
ATOM     25  O   UNL     1     -18.035 -11.439   8.151  1.00  0.00    -0.508 OA
ATOM     26  H   UNL     1     -18.276 -11.266   7.182  1.00  0.00     0.293 HD
ENDBRANCH   7  25
TORSDOF 6
ENDMDL
MODEL 4
REMARK VINA RESULT:    14.082      9.563     11.963
REMARK INTER + INTRA:          16.636
REMARK INTER:                  16.961
REMARK INTRA:                  -0.325
REMARK UNBOUND:                -0.327
REMARK SMILES Oc1cc(O)c2c(c1)O[C@H](c1ccc(O)c(O)c1)[C@@H](O)C2
REMARK SMILES IDX 21 1 19 2 10 3 9 4 7 5 8 6 2 7 3 8 4 9 6 10 20 11 11 13
REMARK SMILES IDX 18 14 12 15 16 16 13 17 14 18 17 19 15 21 5 23 1 25
REMARK H PARENT 20 12 17 20 15 22 5 24 1 26
REMARK Flexibility Score: inf
ROOT
ATOM      1  C   UNL     1     -19.661   4.804  14.208  1.00  0.00     0.079 C 
ATOM      2  C   UNL     1     -20.830   4.553  13.237  1.00  0.00     0.164 C 
ATOM      3  C   UNL     1     -21.554   3.250  13.618  1.00  0.00     0.232 C 
ATOM      4  O   UNL     1     -20.627   2.165  13.624  1.00  0.00    -0.482 OA
ATOM      5  C   UNL     1     -19.319   2.303  14.100  1.00  0.00     0.131 A 
ATOM      6  C   UNL     1     -18.529   1.161  14.254  1.00  0.00     0.093 A 
ATOM      7  C   UNL     1     -17.223   1.267  14.742  1.00  0.00     0.122 A 
ATOM      8  C   UNL     1     -16.711   2.519  15.088  1.00  0.00     0.092 A 
ATOM      9  C   UNL     1     -17.488   3.675  14.941  1.00  0.00     0.126 A 
ATOM     10  C   UNL     1     -18.795   3.578  14.406  1.00  0.00     0.039 A 
ENDROOT
BRANCH   2  11
ATOM     11  O   UNL     1     -21.730   5.629  13.288  1.00  0.00    -0.389 OA
ATOM     12  H   UNL     1     -22.493   5.337  13.852  1.00  0.00     0.211 HD
ENDBRANCH   2  11
BRANCH   3  13
ATOM     13  C   UNL     1     -22.680   2.950  12.656  1.00  0.00    -0.001 A 
ATOM     14  C   UNL     1     -22.466   3.007  11.267  1.00  0.00     0.057 A 
ATOM     15  C   UNL     1     -23.965   2.658  13.139  1.00  0.00     0.012 A 
ATOM     16  C   UNL     1     -23.515   2.756  10.374  1.00  0.00     0.157 A 
ATOM     17  C   UNL     1     -25.013   2.407  12.251  1.00  0.00     0.050 A 
ATOM     18  C   UNL     1     -24.796   2.452  10.867  1.00  0.00     0.157 A 
BRANCH  16  19
ATOM     19  O   UNL     1     -23.266   2.815   9.004  1.00  0.00    -0.504 OA
ATOM     20  H   UNL     1     -23.170   1.981   8.437  1.00  0.00     0.293 HD
ENDBRANCH  16  19
BRANCH  18  21
ATOM     21  O   UNL     1     -25.843   2.200   9.984  1.00  0.00    -0.504 OA
ATOM     22  H   UNL     1     -25.959   1.295   9.543  1.00  0.00     0.293 HD
ENDBRANCH  18  21
ENDBRANCH   3  13
BRANCH   9  23
ATOM     23  O   UNL     1     -16.937   4.892  15.346  1.00  0.00    -0.507 OA
ATOM     24  H   UNL     1     -17.058   5.277  16.272  1.00  0.00     0.293 HD
ENDBRANCH   9  23
BRANCH   7  25
ATOM     25  O   UNL     1     -16.428   0.133  14.897  1.00  0.00    -0.508 OA
ATOM     26  H   UNL     1     -15.417   0.189  14.883  1.00  0.00     0.293 HD
ENDBRANCH   7  25
TORSDOF 6
ENDMDL
