MODEL 1
REMARK VINA RESULT:    -4.356      0.000      0.000
REMARK INTER + INTRA:          -4.812
REMARK INTER:                  -4.738
REMARK INTRA:                  -0.074
REMARK UNBOUND:                -0.074
REMARK SMILES CCc1cccc(O)c1
REMARK SMILES IDX 3 1 9 2 7 3 6 4 5 5 4 6 2 7 1 8 8 9
REMARK H PARENT 8 10
REMARK Flexibility Score: inf
ROOT
ATOM      1  C   UNL     1      18.381  29.684  28.321  1.00  0.00    -0.045 A 
ATOM      2  C   UNL     1      18.200  28.765  27.274  1.00  0.00     0.049 A 
ATOM      3  C   UNL     1      17.956  27.412  27.554  1.00  0.00     0.115 A 
ATOM      4  C   UNL     1      17.901  26.976  28.883  1.00  0.00     0.046 A 
ATOM      5  C   UNL     1      18.093  27.884  29.928  1.00  0.00     0.004 A 
ATOM      6  C   UNL     1      18.338  29.231  29.651  1.00  0.00     0.004 A 
ENDROOT
BRANCH   1   7
ATOM      7  C   UNL     1      18.676  31.129  28.020  1.00  0.00     0.032 C 
ATOM      8  C   UNL     1      18.496  31.988  29.267  1.00  0.00     0.009 C 
ENDBRANCH   1   7
BRANCH   3   9
ATOM      9  O   UNL     1      17.769  26.495  26.523  1.00  0.00    -0.508 OA
ATOM     10  H   UNL     1      17.343  26.766  25.644  1.00  0.00     0.293 HD
ENDBRANCH   3   9
TORSDOF 2
ENDMDL
MODEL 2
REMARK VINA RESULT:    -4.345      1.896      2.757
REMARK INTER + INTRA:          -4.801
REMARK INTER:                  -4.726
REMARK INTRA:                  -0.075
REMARK UNBOUND:                -0.074
REMARK SMILES CCc1cccc(O)c1
REMARK SMILES IDX 3 1 9 2 7 3 6 4 5 5 4 6 2 7 1 8 8 9
REMARK H PARENT 8 10
REMARK Flexibility Score: inf
ROOT
ATOM      1  C   UNL     1      18.570  27.610  29.483  1.00  0.00    -0.045 A 
ATOM      2  C   UNL     1      18.912  26.283  29.172  1.00  0.00     0.049 A 
ATOM      3  C   UNL     1      18.749  25.798  27.865  1.00  0.00     0.115 A 
ATOM      4  C   UNL     1      18.238  26.639  26.870  1.00  0.00     0.046 A 
ATOM      5  C   UNL     1      17.885  27.956  27.178  1.00  0.00     0.004 A 
ATOM      6  C   UNL     1      18.045  28.440  28.479  1.00  0.00     0.004 A 
ENDROOT
BRANCH   1   7
ATOM      7  C   UNL     1      18.713  28.120  30.892  1.00  0.00     0.032 C 
ATOM      8  C   UNL     1      17.810  29.327  31.124  1.00  0.00     0.009 C 
ENDBRANCH   1   7
BRANCH   3   9
ATOM      9  O   UNL     1      19.090  24.486  27.547  1.00  0.00    -0.508 OA
ATOM     10  H   UNL     1      18.646  23.698  28.005  1.00  0.00     0.293 HD
ENDBRANCH   3   9
TORSDOF 2
ENDMDL
MODEL 3
REMARK VINA RESULT:    -4.342      2.370      3.677
REMARK INTER + INTRA:          -4.797
REMARK INTER:                  -4.722
REMARK INTRA:                  -0.075
REMARK UNBOUND:                -0.074
REMARK SMILES CCc1cccc(O)c1
REMARK SMILES IDX 3 1 9 2 7 3 6 4 5 5 4 6 2 7 1 8 8 9
REMARK H PARENT 8 10
REMARK Flexibility Score: inf
ROOT
ATOM      1  C   UNL     1      18.397  28.728  28.234  1.00  0.00    -0.045 A 
ATOM      2  C   UNL     1      18.463  30.123  28.384  1.00  0.00     0.049 A 
ATOM      3  C   UNL     1      18.342  30.704  29.656  1.00  0.00     0.115 A 
ATOM      4  C   UNL     1      18.146  29.889  30.776  1.00  0.00     0.046 A 
ATOM      5  C   UNL     1      18.067  28.502  30.630  1.00  0.00     0.004 A 
ATOM      6  C   UNL     1      18.186  27.921  29.364  1.00  0.00     0.004 A 
ENDROOT
BRANCH   1   7
ATOM      7  C   UNL     1      18.494  28.107  26.865  1.00  0.00     0.032 C 
ATOM      8  C   UNL     1      18.089  26.637  26.909  1.00  0.00     0.009 C 
ENDBRANCH   1   7
BRANCH   3   9
ATOM      9  O   UNL     1      18.412  32.086  29.815  1.00  0.00    -0.508 OA
ATOM     10  H   UNL     1      19.100  32.515  30.423  1.00  0.00     0.293 HD
ENDBRANCH   3   9
TORSDOF 2
ENDMDL
MODEL 4
REMARK VINA RESULT:    -4.334     13.007     13.868
REMARK INTER + INTRA:          -4.788
REMARK INTER:                  -4.742
REMARK INTRA:                  -0.047
REMARK UNBOUND:                -0.074
REMARK SMILES CCc1cccc(O)c1
REMARK SMILES IDX 3 1 9 2 7 3 6 4 5 5 4 6 2 7 1 8 8 9
REMARK H PARENT 8 10
REMARK Flexibility Score: inf
ROOT
ATOM      1  C   UNL     1      12.458  19.909  36.325  1.00  0.00    -0.045 A 
ATOM      2  C   UNL     1      12.367  20.176  37.701  1.00  0.00     0.049 A 
ATOM      3  C   UNL     1      13.426  19.842  38.558  1.00  0.00     0.115 A 
ATOM      4  C   UNL     1      14.575  19.233  38.040  1.00  0.00     0.046 A 
ATOM      5  C   UNL     1      14.665  18.955  36.673  1.00  0.00     0.004 A 
ATOM      6  C   UNL     1      13.610  19.285  35.818  1.00  0.00     0.004 A 
ENDROOT
BRANCH   1   7
ATOM      7  C   UNL     1      11.308  20.237  35.410  1.00  0.00     0.032 C 
ATOM      8  C   UNL     1      10.925  21.708  35.530  1.00  0.00     0.009 C 
ENDBRANCH   1   7
BRANCH   3   9
ATOM      9  O   UNL     1      13.346  20.107  39.923  1.00  0.00    -0.508 OA
ATOM     10  H   UNL     1      14.179  20.241  40.486  1.00  0.00     0.293 HD
ENDBRANCH   3   9
TORSDOF 2
ENDMDL
MODEL 5
REMARK VINA RESULT:    -4.329     12.790     13.533
REMARK INTER + INTRA:          -4.783
REMARK INTER:                  -4.714
REMARK INTRA:                  -0.069
REMARK UNBOUND:                -0.074
REMARK SMILES CCc1cccc(O)c1
REMARK SMILES IDX 3 1 9 2 7 3 6 4 5 5 4 6 2 7 1 8 8 9
REMARK H PARENT 8 10
REMARK Flexibility Score: inf
ROOT
ATOM      1  C   UNL     1      12.680  19.736  36.376  1.00  0.00    -0.045 A 
ATOM      2  C   UNL     1      13.856  19.154  35.873  1.00  0.00     0.049 A 
ATOM      3  C   UNL     1      14.919  18.848  36.736  1.00  0.00     0.115 A 
ATOM      4  C   UNL     1      14.810  19.132  38.102  1.00  0.00     0.046 A 
ATOM      5  C   UNL     1      13.648  19.722  38.605  1.00  0.00     0.004 A 
ATOM      6  C   UNL     1      12.588  20.029  37.747  1.00  0.00     0.004 A 
ENDROOT
BRANCH   1   7
ATOM      7  C   UNL     1      11.552  20.096  35.446  1.00  0.00     0.032 C 
ATOM      8  C   UNL     1      11.074  21.521  35.702  1.00  0.00     0.009 C 
ENDBRANCH   1   7
BRANCH   3   9
ATOM      9  O   UNL     1      16.085  18.266  36.246  1.00  0.00    -0.508 OA
ATOM     10  H   UNL     1      16.293  17.285  36.400  1.00  0.00     0.293 HD
ENDBRANCH   3   9
TORSDOF 2
ENDMDL
MODEL 6
REMARK VINA RESULT:    -4.299      4.726      6.092
REMARK INTER + INTRA:          -4.750
REMARK INTER:                  -4.689
REMARK INTRA:                  -0.061
REMARK UNBOUND:                -0.074
REMARK SMILES CCc1cccc(O)c1
REMARK SMILES IDX 3 1 9 2 7 3 6 4 5 5 4 6 2 7 1 8 8 9
REMARK H PARENT 8 10
REMARK Flexibility Score: inf
ROOT
ATOM      1  C   UNL     1      18.656  28.438  34.187  1.00  0.00    -0.045 A 
ATOM      2  C   UNL     1      18.722  28.722  32.813  1.00  0.00     0.049 A 
ATOM      3  C   UNL     1      17.858  29.668  32.244  1.00  0.00     0.115 A 
ATOM      4  C   UNL     1      16.920  30.326  33.048  1.00  0.00     0.046 A 
ATOM      5  C   UNL     1      16.843  30.038  34.413  1.00  0.00     0.004 A 
ATOM      6  C   UNL     1      17.702  29.095  34.982  1.00  0.00     0.004 A 
ENDROOT
BRANCH   1   7
ATOM      7  C   UNL     1      19.562  27.398  34.792  1.00  0.00     0.032 C 
ATOM      8  C   UNL     1      20.408  28.001  35.908  1.00  0.00     0.009 C 
ENDBRANCH   1   7
BRANCH   3   9
ATOM      9  O   UNL     1      17.920  29.960  30.883  1.00  0.00    -0.508 OA
ATOM     10  H   UNL     1      17.244  29.581  30.229  1.00  0.00     0.293 HD
ENDBRANCH   3   9
TORSDOF 2
ENDMDL
MODEL 7
REMARK VINA RESULT:    -4.286      2.415      4.119
REMARK INTER + INTRA:          -4.736
REMARK INTER:                  -4.661
REMARK INTRA:                  -0.075
REMARK UNBOUND:                -0.074
REMARK SMILES CCc1cccc(O)c1
REMARK SMILES IDX 3 1 9 2 7 3 6 4 5 5 4 6 2 7 1 8 8 9
REMARK H PARENT 8 10
REMARK Flexibility Score: inf
ROOT
ATOM      1  C   UNL     1      18.147  28.291  28.972  1.00  0.00    -0.045 A 
ATOM      2  C   UNL     1      18.083  28.488  30.362  1.00  0.00     0.049 A 
ATOM      3  C   UNL     1      18.216  29.776  30.901  1.00  0.00     0.115 A 
ATOM      4  C   UNL     1      18.422  30.868  30.050  1.00  0.00     0.046 A 
ATOM      5  C   UNL     1      18.499  30.675  28.668  1.00  0.00     0.004 A 
ATOM      6  C   UNL     1      18.368  29.392  28.129  1.00  0.00     0.004 A 
ENDROOT
BRANCH   1   7
ATOM      7  C   UNL     1      18.038  26.904  28.397  1.00  0.00     0.032 C 
ATOM      8  C   UNL     1      17.971  26.955  26.874  1.00  0.00     0.009 C 
ENDBRANCH   1   7
BRANCH   3   9
ATOM      9  O   UNL     1      18.148  29.982  32.276  1.00  0.00    -0.508 OA
ATOM     10  H   UNL     1      18.209  30.911  32.677  1.00  0.00     0.293 HD
ENDBRANCH   3   9
TORSDOF 2
ENDMDL
MODEL 8
REMARK VINA RESULT:    -4.280      4.684      5.770
REMARK INTER + INTRA:          -4.729
REMARK INTER:                  -4.656
REMARK INTRA:                  -0.073
REMARK UNBOUND:                -0.074
REMARK SMILES CCc1cccc(O)c1
REMARK SMILES IDX 3 1 9 2 7 3 6 4 5 5 4 6 2 7 1 8 8 9
REMARK H PARENT 8 10
REMARK Flexibility Score: inf
ROOT
ATOM      1  C   UNL     1      18.035  29.318  32.221  1.00  0.00    -0.045 A 
ATOM      2  C   UNL     1      17.247  30.140  33.044  1.00  0.00     0.049 A 
ATOM      3  C   UNL     1      17.262  29.971  34.436  1.00  0.00     0.115 A 
ATOM      4  C   UNL     1      18.061  28.974  35.007  1.00  0.00     0.046 A 
ATOM      5  C   UNL     1      18.837  28.146  34.192  1.00  0.00     0.004 A 
ATOM      6  C   UNL     1      18.822  28.311  32.805  1.00  0.00     0.004 A 
ENDROOT
BRANCH   1   7
ATOM      7  C   UNL     1      17.993  29.478  30.725  1.00  0.00     0.032 C 
ATOM      8  C   UNL     1      18.254  28.145  30.032  1.00  0.00     0.009 C 
ENDBRANCH   1   7
BRANCH   3   9
ATOM      9  O   UNL     1      16.488  30.785  35.260  1.00  0.00    -0.508 OA
ATOM     10  H   UNL     1      15.610  30.461  35.650  1.00  0.00     0.293 HD
ENDBRANCH   3   9
TORSDOF 2
ENDMDL
MODEL 9
REMARK VINA RESULT:    -4.158      1.221      2.550
REMARK INTER + INTRA:          -4.597
REMARK INTER:                  -4.523
REMARK INTRA:                  -0.073
REMARK UNBOUND:                -0.074
REMARK SMILES CCc1cccc(O)c1
REMARK SMILES IDX 3 1 9 2 7 3 6 4 5 5 4 6 2 7 1 8 8 9
REMARK H PARENT 8 10
REMARK Flexibility Score: inf
ROOT
ATOM      1  C   UNL     1      18.408  28.513  30.100  1.00  0.00    -0.045 A 
ATOM      2  C   UNL     1      18.388  27.287  29.413  1.00  0.00     0.049 A 
ATOM      3  C   UNL     1      18.358  27.263  28.010  1.00  0.00     0.115 A 
ATOM      4  C   UNL     1      18.339  28.465  27.294  1.00  0.00     0.046 A 
ATOM      5  C   UNL     1      18.347  29.686  27.973  1.00  0.00     0.004 A 
ATOM      6  C   UNL     1      18.375  29.713  29.370  1.00  0.00     0.004 A 
ENDROOT
BRANCH   1   7
ATOM      7  C   UNL     1      18.406  28.539  31.605  1.00  0.00     0.032 C 
ATOM      8  C   UNL     1      17.697  29.786  32.123  1.00  0.00     0.009 C 
ENDBRANCH   1   7
BRANCH   3   9
ATOM      9  O   UNL     1      18.343  26.053  27.321  1.00  0.00    -0.508 OA
ATOM     10  H   UNL     1      18.241  26.019  26.313  1.00  0.00     0.293 HD
ENDBRANCH   3   9
TORSDOF 2
ENDMDL
