MODEL 1
REMARK VINA RESULT:    -3.776      0.000      0.000
REMARK INTER + INTRA:          -8.294
REMARK INTER:                  -5.762
REMARK INTRA:                  -2.532
REMARK UNBOUND:                -2.532
REMARK SMILES CC(=O)CCC=C(C)CCC=C(C)CCC=C(C)C
REMARK SMILES IDX 10 1 11 2 12 3 13 4 14 5 15 6 16 7 18 8 17 9 19 10 9 11 7 12
REMARK SMILES IDX 6 13 8 14 5 15 4 16 2 17 3 18 1 19
REMARK H PARENT
REMARK Flexibility Score: inf
ROOT
ATOM      1  C   UNL     1     186.748 201.087 209.881  1.00  0.00     0.032 C 
ENDROOT
BRANCH   1   2
ATOM      2  C   UNL     1     188.254 201.141 209.778  1.00  0.00    -0.028 C 
ATOM      3  C   UNL     1     189.033 202.151 210.230  1.00  0.00    -0.077 C 
ATOM      4  C   UNL     1     190.528 202.002 210.115  1.00  0.00     0.039 C 
BRANCH   3   5
ATOM      5  C   UNL     1     188.479 203.440 210.812  1.00  0.00     0.034 C 
BRANCH   5   6
ATOM      6  C   UNL     1     189.528 204.560 210.822  1.00  0.00     0.032 C 
BRANCH   6   7
ATOM      7  C   UNL     1     190.083 204.786 212.208  1.00  0.00    -0.028 C 
ATOM      8  C   UNL     1     191.772 205.246 213.931  1.00  0.00     0.039 C 
ATOM      9  C   UNL     1     191.390 204.972 212.500  1.00  0.00    -0.080 C 
ATOM     10  C   UNL     1     192.465 204.913 211.443  1.00  0.00     0.039 C 
ENDBRANCH   6   7
ENDBRANCH   5   6
ENDBRANCH   3   5
ENDBRANCH   1   2
BRANCH   1  11
ATOM     11  C   UNL     1     186.293 200.480 211.218  1.00  0.00     0.034 C 
BRANCH  11  12
ATOM     12  C   UNL     1     185.584 201.494 212.099  1.00  0.00    -0.077 C 
ATOM     13  C   UNL     1     185.940 201.747 213.381  1.00  0.00    -0.028 C 
ATOM     14  C   UNL     1     184.419 202.262 211.524  1.00  0.00     0.039 C 
BRANCH  13  15
ATOM     15  C   UNL     1     187.085 201.094 214.125  1.00  0.00     0.035 C 
BRANCH  15  16
ATOM     16  C   UNL     1     188.327 201.995 214.125  1.00  0.00     0.079 C 
BRANCH  16  17
ATOM     17  C   UNL     1     189.571 201.237 213.737  1.00  0.00     0.130 C 
ATOM     18  O   UNL     1     190.668 201.747 213.916  1.00  0.00    -0.300 OA
ATOM     19  C   UNL     1     189.494 199.861 213.142  1.00  0.00     0.087 C 
ENDBRANCH  16  17
ENDBRANCH  15  16
ENDBRANCH  13  15
ENDBRANCH  11  12
ENDBRANCH   1  11
TORSDOF 9
ENDMDL
MODEL 2
REMARK VINA RESULT:    -3.595      2.118      5.402
REMARK INTER + INTRA:          -8.019
REMARK INTER:                  -5.405
REMARK INTRA:                  -2.614
REMARK UNBOUND:                -2.532
REMARK SMILES CC(=O)CCC=C(C)CCC=C(C)CCC=C(C)C
REMARK SMILES IDX 10 1 11 2 12 3 13 4 14 5 15 6 16 7 18 8 17 9 19 10 9 11 7 12
REMARK SMILES IDX 6 13 8 14 5 15 4 16 2 17 3 18 1 19
REMARK H PARENT
REMARK Flexibility Score: inf
ROOT
ATOM      1  C   UNL     1     185.699 201.643 213.531  1.00  0.00     0.032 C 
ENDROOT
BRANCH   1   2
ATOM      2  C   UNL     1     187.144 201.975 213.811  1.00  0.00    -0.028 C 
ATOM      3  C   UNL     1     188.167 201.088 213.800  1.00  0.00    -0.077 C 
ATOM      4  C   UNL     1     189.563 201.610 214.024  1.00  0.00     0.039 C 
BRANCH   3   5
ATOM      5  C   UNL     1     187.977 199.594 213.610  1.00  0.00     0.034 C 
BRANCH   5   6
ATOM      6  C   UNL     1     188.678 199.084 212.343  1.00  0.00     0.032 C 
BRANCH   6   7
ATOM      7  C   UNL     1     188.471 197.600 212.156  1.00  0.00    -0.028 C 
ATOM      8  C   UNL     1     187.850 195.522 211.003  1.00  0.00     0.039 C 
ATOM      9  C   UNL     1     187.931 197.025 211.058  1.00  0.00    -0.080 C 
ATOM     10  C   UNL     1     187.412 197.839 209.898  1.00  0.00     0.039 C 
ENDBRANCH   6   7
ENDBRANCH   5   6
ENDBRANCH   3   5
ENDBRANCH   1   2
BRANCH   1  11
ATOM     11  C   UNL     1     185.235 202.219 212.184  1.00  0.00     0.034 C 
BRANCH  11  12
ATOM     12  C   UNL     1     185.504 201.269 211.029  1.00  0.00    -0.077 C 
ATOM     13  C   UNL     1     186.494 201.456 210.125  1.00  0.00    -0.028 C 
ATOM     14  C   UNL     1     184.623 200.054 210.872  1.00  0.00     0.039 C 
BRANCH  13  15
ATOM     15  C   UNL     1     187.486 202.599 210.124  1.00  0.00     0.035 C 
BRANCH  15  16
ATOM     16  C   UNL     1     188.928 202.077 210.182  1.00  0.00     0.079 C 
BRANCH  16  17
ATOM     17  C   UNL     1     189.884 203.125 210.693  1.00  0.00     0.130 C 
ATOM     18  O   UNL     1     191.078 202.868 210.761  1.00  0.00    -0.300 OA
ATOM     19  C   UNL     1     189.405 204.483 211.112  1.00  0.00     0.087 C 
ENDBRANCH  16  17
ENDBRANCH  15  16
ENDBRANCH  13  15
ENDBRANCH  11  12
ENDBRANCH   1  11
TORSDOF 9
ENDMDL
MODEL 3
REMARK VINA RESULT:    -3.590      2.070      2.963
REMARK INTER + INTRA:          -8.010
REMARK INTER:                  -5.399
REMARK INTRA:                  -2.611
REMARK UNBOUND:                -2.532
REMARK SMILES CC(=O)CCC=C(C)CCC=C(C)CCC=C(C)C
REMARK SMILES IDX 10 1 11 2 12 3 13 4 14 5 15 6 16 7 18 8 17 9 19 10 9 11 7 12
REMARK SMILES IDX 6 13 8 14 5 15 4 16 2 17 3 18 1 19
REMARK H PARENT
REMARK Flexibility Score: inf
ROOT
ATOM      1  C   UNL     1     184.924 200.951 211.025  1.00  0.00     0.032 C 
ENDROOT
BRANCH   1   2
ATOM      2  C   UNL     1     185.820 200.653 209.846  1.00  0.00    -0.028 C 
ATOM      3  C   UNL     1     186.961 201.315 209.545  1.00  0.00    -0.077 C 
ATOM      4  C   UNL     1     187.776 200.830 208.373  1.00  0.00     0.039 C 
BRANCH   3   5
ATOM      5  C   UNL     1     187.445 202.539 210.303  1.00  0.00     0.034 C 
BRANCH   5   6
ATOM      6  C   UNL     1     188.746 202.261 211.069  1.00  0.00     0.032 C 
BRANCH   6   7
ATOM      7  C   UNL     1     189.242 203.495 211.782  1.00  0.00    -0.028 C 
ATOM      8  C   UNL     1     190.428 204.814 213.481  1.00  0.00     0.039 C 
ATOM      9  C   UNL     1     189.955 203.494 212.931  1.00  0.00    -0.080 C 
ATOM     10  C   UNL     1     190.287 202.220 213.669  1.00  0.00     0.039 C 
ENDBRANCH   6   7
ENDBRANCH   5   6
ENDBRANCH   3   5
ENDBRANCH   1   2
BRANCH   1  11
ATOM     11  C   UNL     1     185.281 200.085 212.242  1.00  0.00     0.034 C 
BRANCH  11  12
ATOM     12  C   UNL     1     186.102 200.846 213.270  1.00  0.00    -0.077 C 
ATOM     13  C   UNL     1     187.188 200.326 213.889  1.00  0.00    -0.028 C 
ATOM     14  C   UNL     1     185.690 202.252 213.625  1.00  0.00     0.039 C 
BRANCH  13  15
ATOM     15  C   UNL     1     187.764 198.947 213.655  1.00  0.00     0.035 C 
BRANCH  15  16
ATOM     16  C   UNL     1     188.495 198.876 212.308  1.00  0.00     0.079 C 
BRANCH  16  17
ATOM     17  C   UNL     1     188.267 197.557 211.614  1.00  0.00     0.130 C 
ATOM     18  O   UNL     1     188.620 196.520 212.158  1.00  0.00    -0.300 OA
ATOM     19  C   UNL     1     187.604 197.486 210.270  1.00  0.00     0.087 C 
ENDBRANCH  16  17
ENDBRANCH  15  16
ENDBRANCH  13  15
ENDBRANCH  11  12
ENDBRANCH   1  11
TORSDOF 9
ENDMDL
MODEL 4
REMARK VINA RESULT:    -3.570      1.518      4.697
REMARK INTER + INTRA:          -7.981
REMARK INTER:                  -4.962
REMARK INTRA:                  -3.019
REMARK UNBOUND:                -2.532
REMARK SMILES CC(=O)CCC=C(C)CCC=C(C)CCC=C(C)C
REMARK SMILES IDX 10 1 11 2 12 3 13 4 14 5 15 6 16 7 18 8 17 9 19 10 9 11 7 12
REMARK SMILES IDX 6 13 8 14 5 15 4 16 2 17 3 18 1 19
REMARK H PARENT
REMARK Flexibility Score: inf
ROOT
ATOM      1  C   UNL     1     187.791 198.715 213.626  1.00  0.00     0.032 C 
ENDROOT
BRANCH   1   2
ATOM      2  C   UNL     1     187.163 200.001 214.107  1.00  0.00    -0.028 C 
ATOM      3  C   UNL     1     186.364 200.806 213.367  1.00  0.00    -0.077 C 
ATOM      4  C   UNL     1     185.758 202.014 214.035  1.00  0.00     0.039 C 
BRANCH   3   5
ATOM      5  C   UNL     1     186.076 200.575 211.894  1.00  0.00     0.034 C 
BRANCH   5   6
ATOM      6  C   UNL     1     185.952 201.896 211.122  1.00  0.00     0.032 C 
BRANCH   6   7
ATOM      7  C   UNL     1     187.301 202.404 210.674  1.00  0.00    -0.028 C 
ATOM      8  C   UNL     1     189.220 202.738 209.178  1.00  0.00     0.039 C 
ATOM      9  C   UNL     1     187.896 202.097 209.500  1.00  0.00    -0.080 C 
ATOM     10  C   UNL     1     187.276 201.139 208.513  1.00  0.00     0.039 C 
ENDBRANCH   6   7
ENDBRANCH   5   6
ENDBRANCH   3   5
ENDBRANCH   1   2
BRANCH   1  11
ATOM     11  C   UNL     1     189.315 198.846 213.483  1.00  0.00     0.034 C 
BRANCH  11  12
ATOM     12  C   UNL     1     189.711 199.652 212.257  1.00  0.00    -0.077 C 
ATOM     13  C   UNL     1     190.189 200.917 212.319  1.00  0.00    -0.028 C 
ATOM     14  C   UNL     1     189.564 199.017 210.896  1.00  0.00     0.039 C 
BRANCH  13  15
ATOM     15  C   UNL     1     190.422 201.714 213.584  1.00  0.00     0.035 C 
BRANCH  15  16
ATOM     16  C   UNL     1     189.550 202.975 213.610  1.00  0.00     0.079 C 
BRANCH  16  17
ATOM     17  C   UNL     1     190.316 204.197 213.167  1.00  0.00     0.130 C 
ATOM     18  O   UNL     1     191.299 204.553 213.800  1.00  0.00    -0.300 OA
ATOM     19  C   UNL     1     189.903 204.981 211.957  1.00  0.00     0.087 C 
ENDBRANCH  16  17
ENDBRANCH  15  16
ENDBRANCH  13  15
ENDBRANCH  11  12
ENDBRANCH   1  11
TORSDOF 9
ENDMDL
MODEL 5
REMARK VINA RESULT:    -3.522      1.933      3.237
REMARK INTER + INTRA:          -7.907
REMARK INTER:                  -5.463
REMARK INTRA:                  -2.445
REMARK UNBOUND:                -2.532
REMARK SMILES CC(=O)CCC=C(C)CCC=C(C)CCC=C(C)C
REMARK SMILES IDX 10 1 11 2 12 3 13 4 14 5 15 6 16 7 18 8 17 9 19 10 9 11 7 12
REMARK SMILES IDX 6 13 8 14 5 15 4 16 2 17 3 18 1 19
REMARK H PARENT
REMARK Flexibility Score: inf
ROOT
ATOM      1  C   UNL     1     189.654 200.615 211.416  1.00  0.00     0.032 C 
ENDROOT
BRANCH   1   2
ATOM      2  C   UNL     1     188.848 200.872 210.165  1.00  0.00    -0.028 C 
ATOM      3  C   UNL     1     188.280 202.053 209.830  1.00  0.00    -0.077 C 
ATOM      4  C   UNL     1     187.577 202.153 208.500  1.00  0.00     0.039 C 
BRANCH   3   5
ATOM      5  C   UNL     1     188.283 203.271 210.737  1.00  0.00     0.034 C 
BRANCH   5   6
ATOM      6  C   UNL     1     189.566 204.099 210.581  1.00  0.00     0.032 C 
BRANCH   6   7
ATOM      7  C   UNL     1     190.025 204.663 211.904  1.00  0.00    -0.028 C 
ATOM      8  C   UNL     1     191.605 205.423 213.623  1.00  0.00     0.039 C 
ATOM      9  C   UNL     1     191.314 204.780 212.293  1.00  0.00    -0.080 C 
ATOM     10  C   UNL     1     192.458 204.289 211.439  1.00  0.00     0.039 C 
ENDBRANCH   6   7
ENDBRANCH   5   6
ENDBRANCH   3   5
ENDBRANCH   1   2
BRANCH   1  11
ATOM     11  C   UNL     1     188.754 200.227 212.600  1.00  0.00     0.034 C 
BRANCH  11  12
ATOM     12  C   UNL     1     188.635 201.344 213.623  1.00  0.00    -0.077 C 
ATOM     13  C   UNL     1     187.452 201.783 214.114  1.00  0.00    -0.028 C 
ATOM     14  C   UNL     1     189.897 202.005 214.120  1.00  0.00     0.039 C 
BRANCH  13  15
ATOM     15  C   UNL     1     186.088 201.237 213.752  1.00  0.00     0.035 C 
BRANCH  15  16
ATOM     16  C   UNL     1     185.371 202.161 212.760  1.00  0.00     0.079 C 
BRANCH  16  17
ATOM     17  C   UNL     1     184.805 201.398 211.589  1.00  0.00     0.130 C 
ATOM     18  O   UNL     1     183.901 201.891 210.929  1.00  0.00    -0.300 OA
ATOM     19  C   UNL     1     185.333 200.046 211.209  1.00  0.00     0.087 C 
ENDBRANCH  16  17
ENDBRANCH  15  16
ENDBRANCH  13  15
ENDBRANCH  11  12
ENDBRANCH   1  11
TORSDOF 9
ENDMDL
MODEL 6
REMARK VINA RESULT:    -3.486      2.038      4.637
REMARK INTER + INTRA:          -7.853
REMARK INTER:                  -5.194
REMARK INTRA:                  -2.659
REMARK UNBOUND:                -2.532
REMARK SMILES CC(=O)CCC=C(C)CCC=C(C)CCC=C(C)C
REMARK SMILES IDX 10 1 11 2 12 3 13 4 14 5 15 6 16 7 18 8 17 9 19 10 9 11 7 12
REMARK SMILES IDX 6 13 8 14 5 15 4 16 2 17 3 18 1 19
REMARK H PARENT
REMARK Flexibility Score: inf
ROOT
ATOM      1  C   UNL     1     187.930 201.989 211.058  1.00  0.00     0.032 C 
ENDROOT
BRANCH   1   2
ATOM      2  C   UNL     1     188.857 203.164 211.255  1.00  0.00    -0.028 C 
ATOM      3  C   UNL     1     189.485 203.479 212.411  1.00  0.00    -0.077 C 
ATOM      4  C   UNL     1     190.442 204.645 212.406  1.00  0.00     0.039 C 
BRANCH   3   5
ATOM      5  C   UNL     1     189.251 202.744 213.719  1.00  0.00     0.034 C 
BRANCH   5   6
ATOM      6  C   UNL     1     190.025 201.420 213.779  1.00  0.00     0.032 C 
BRANCH   6   7
ATOM      7  C   UNL     1     189.118 200.264 214.125  1.00  0.00    -0.028 C 
ATOM      8  C   UNL     1     188.021 198.082 213.867  1.00  0.00     0.039 C 
ATOM      9  C   UNL     1     188.913 199.178 213.347  1.00  0.00    -0.080 C 
ATOM     10  C   UNL     1     189.547 199.035 211.985  1.00  0.00     0.039 C 
ENDBRANCH   6   7
ENDBRANCH   5   6
ENDBRANCH   3   5
ENDBRANCH   1   2
BRANCH   1  11
ATOM     11  C   UNL     1     186.465 202.372 211.319  1.00  0.00     0.034 C 
BRANCH  11  12
ATOM     12  C   UNL     1     185.782 201.416 212.282  1.00  0.00    -0.077 C 
ATOM     13  C   UNL     1     185.157 200.281 211.888  1.00  0.00    -0.028 C 
ATOM     14  C   UNL     1     185.794 201.742 213.755  1.00  0.00     0.039 C 
BRANCH  13  15
ATOM     15  C   UNL     1     185.053 199.778 210.465  1.00  0.00     0.035 C 
BRANCH  15  16
ATOM     16  C   UNL     1     186.160 198.762 210.157  1.00  0.00     0.079 C 
BRANCH  16  17
ATOM     17  C   UNL     1     187.002 199.187 208.980  1.00  0.00     0.130 C 
ATOM     18  O   UNL     1     188.115 198.705 208.830  1.00  0.00    -0.300 OA
ATOM     19  C   UNL     1     186.498 200.186 207.979  1.00  0.00     0.087 C 
ENDBRANCH  16  17
ENDBRANCH  15  16
ENDBRANCH  13  15
ENDBRANCH  11  12
ENDBRANCH   1  11
TORSDOF 9
ENDMDL
MODEL 7
REMARK VINA RESULT:    -3.483      1.880      5.214
REMARK INTER + INTRA:          -7.847
REMARK INTER:                  -5.066
REMARK INTRA:                  -2.781
REMARK UNBOUND:                -2.532
REMARK SMILES CC(=O)CCC=C(C)CCC=C(C)CCC=C(C)C
REMARK SMILES IDX 10 1 11 2 12 3 13 4 14 5 15 6 16 7 18 8 17 9 19 10 9 11 7 12
REMARK SMILES IDX 6 13 8 14 5 15 4 16 2 17 3 18 1 19
REMARK H PARENT
REMARK Flexibility Score: inf
ROOT
ATOM      1  C   UNL     1     186.740 200.146 213.475  1.00  0.00     0.032 C 
ENDROOT
BRANCH   1   2
ATOM      2  C   UNL     1     188.191 199.731 213.429  1.00  0.00    -0.028 C 
ATOM      3  C   UNL     1     188.721 198.835 212.565  1.00  0.00    -0.077 C 
ATOM      4  C   UNL     1     190.210 198.600 212.609  1.00  0.00     0.039 C 
BRANCH   3   5
ATOM      5  C   UNL     1     187.892 198.028 211.581  1.00  0.00     0.034 C 
BRANCH   5   6
ATOM      6  C   UNL     1     187.660 198.790 210.269  1.00  0.00     0.032 C 
BRANCH   6   7
ATOM      7  C   UNL     1     186.188 198.921 209.958  1.00  0.00    -0.028 C 
ATOM      8  C   UNL     1     184.182 199.565 208.696  1.00  0.00     0.039 C 
ATOM      9  C   UNL     1     185.675 199.580 208.895  1.00  0.00    -0.080 C 
ATOM     10  C   UNL     1     186.548 200.322 207.913  1.00  0.00     0.039 C 
ENDBRANCH   6   7
ENDBRANCH   5   6
ENDBRANCH   3   5
ENDBRANCH   1   2
BRANCH   1  11
ATOM     11  C   UNL     1     186.579 201.666 213.317  1.00  0.00     0.034 C 
BRANCH  11  12
ATOM     12  C   UNL     1     186.191 202.060 211.902  1.00  0.00    -0.077 C 
ATOM     13  C   UNL     1     187.091 202.393 210.948  1.00  0.00    -0.028 C 
ATOM     14  C   UNL     1     184.727 202.088 211.535  1.00  0.00     0.039 C 
BRANCH  13  15
ATOM     15  C   UNL     1     188.595 202.408 211.117  1.00  0.00     0.035 C 
BRANCH  15  16
ATOM     16  C   UNL     1     189.115 203.840 211.295  1.00  0.00     0.079 C 
BRANCH  16  17
ATOM     17  C   UNL     1     189.914 203.995 212.564  1.00  0.00     0.130 C 
ATOM     18  O   UNL     1     190.303 205.105 212.899  1.00  0.00    -0.300 OA
ATOM     19  C   UNL     1     190.234 202.815 213.434  1.00  0.00     0.087 C 
ENDBRANCH  16  17
ENDBRANCH  15  16
ENDBRANCH  13  15
ENDBRANCH  11  12
ENDBRANCH   1  11
TORSDOF 9
ENDMDL
MODEL 8
REMARK VINA RESULT:    -3.441      1.788      4.681
REMARK INTER + INTRA:          -7.783
REMARK INTER:                  -4.811
REMARK INTRA:                  -2.973
REMARK UNBOUND:                -2.532
REMARK SMILES CC(=O)CCC=C(C)CCC=C(C)CCC=C(C)C
REMARK SMILES IDX 10 1 11 2 12 3 13 4 14 5 15 6 16 7 18 8 17 9 19 10 9 11 7 12
REMARK SMILES IDX 6 13 8 14 5 15 4 16 2 17 3 18 1 19
REMARK H PARENT
REMARK Flexibility Score: inf
ROOT
ATOM      1  C   UNL     1     188.530 198.683 210.764  1.00  0.00     0.032 C 
ENDROOT
BRANCH   1   2
ATOM      2  C   UNL     1     188.046 199.232 209.444  1.00  0.00    -0.028 C 
ATOM      3  C   UNL     1     186.750 199.414 209.101  1.00  0.00    -0.077 C 
ATOM      4  C   UNL     1     186.449 200.051 207.767  1.00  0.00     0.039 C 
BRANCH   3   5
ATOM      5  C   UNL     1     185.584 198.979 209.972  1.00  0.00     0.034 C 
BRANCH   5   6
ATOM      6  C   UNL     1     184.728 200.173 210.420  1.00  0.00     0.032 C 
BRANCH   6   7
ATOM      7  C   UNL     1     184.987 200.526 211.865  1.00  0.00    -0.028 C 
ATOM      8  C   UNL     1     185.910 201.778 213.766  1.00  0.00     0.039 C 
ATOM      9  C   UNL     1     185.809 201.514 212.286  1.00  0.00    -0.080 C 
ATOM     10  C   UNL     1     186.618 202.350 211.326  1.00  0.00     0.039 C 
ENDBRANCH   6   7
ENDBRANCH   5   6
ENDBRANCH   3   5
ENDBRANCH   1   2
BRANCH   1  11
ATOM     11  C   UNL     1     189.171 199.777 211.632  1.00  0.00     0.034 C 
BRANCH  11  12
ATOM     12  C   UNL     1     188.851 199.603 213.108  1.00  0.00    -0.077 C 
ATOM     13  C   UNL     1     189.357 200.398 214.079  1.00  0.00    -0.028 C 
ATOM     14  C   UNL     1     187.924 198.486 213.519  1.00  0.00     0.039 C 
BRANCH  13  15
ATOM     15  C   UNL     1     190.285 201.574 213.865  1.00  0.00     0.035 C 
BRANCH  15  16
ATOM     16  C   UNL     1     189.500 202.891 213.801  1.00  0.00     0.079 C 
BRANCH  16  17
ATOM     17  C   UNL     1     190.047 203.819 212.746  1.00  0.00     0.130 C 
ATOM     18  O   UNL     1     190.322 204.973 213.044  1.00  0.00    -0.300 OA
ATOM     19  C   UNL     1     190.271 203.356 211.336  1.00  0.00     0.087 C 
ENDBRANCH  16  17
ENDBRANCH  15  16
ENDBRANCH  13  15
ENDBRANCH  11  12
ENDBRANCH   1  11
TORSDOF 9
ENDMDL
MODEL 9
REMARK VINA RESULT:    -3.347      2.856      5.361
REMARK INTER + INTRA:          -7.640
REMARK INTER:                  -4.935
REMARK INTRA:                  -2.705
REMARK UNBOUND:                -2.532
REMARK SMILES CC(=O)CCC=C(C)CCC=C(C)CCC=C(C)C
REMARK SMILES IDX 10 1 11 2 12 3 13 4 14 5 15 6 16 7 18 8 17 9 19 10 9 11 7 12
REMARK SMILES IDX 6 13 8 14 5 15 4 16 2 17 3 18 1 19
REMARK H PARENT
REMARK Flexibility Score: inf
ROOT
ATOM      1  C   UNL     1     186.956 201.692 214.073  1.00  0.00     0.032 C 
ENDROOT
BRANCH   1   2
ATOM      2  C   UNL     1     185.703 201.749 213.233  1.00  0.00    -0.028 C 
ATOM      3  C   UNL     1     185.664 201.989 211.902  1.00  0.00    -0.077 C 
ATOM      4  C   UNL     1     184.327 201.929 211.207  1.00  0.00     0.039 C 
BRANCH   3   5
ATOM      5  C   UNL     1     186.888 202.349 211.079  1.00  0.00     0.034 C 
BRANCH   5   6
ATOM      6  C   UNL     1     187.042 201.439 209.852  1.00  0.00     0.032 C 
BRANCH   6   7
ATOM      7  C   UNL     1     188.339 200.668 209.894  1.00  0.00    -0.028 C 
ATOM      8  C   UNL     1     189.829 198.747 210.245  1.00  0.00     0.039 C 
ATOM      9  C   UNL     1     188.470 199.393 210.325  1.00  0.00    -0.080 C 
ATOM     10  C   UNL     1     187.306 198.608 210.878  1.00  0.00     0.039 C 
ENDBRANCH   6   7
ENDBRANCH   5   6
ENDBRANCH   3   5
ENDBRANCH   1   2
BRANCH   1  11
ATOM     11  C   UNL     1     187.540 200.272 214.125  1.00  0.00     0.034 C 
BRANCH  11  12
ATOM     12  C   UNL     1     189.051 200.264 213.968  1.00  0.00    -0.077 C 
ATOM     13  C   UNL     1     189.785 199.130 213.877  1.00  0.00    -0.028 C 
ATOM     14  C   UNL     1     189.779 201.585 213.911  1.00  0.00     0.039 C 
BRANCH  13  15
ATOM     15  C   UNL     1     189.240 197.719 213.898  1.00  0.00     0.035 C 
BRANCH  15  16
ATOM     16  C   UNL     1     190.312 196.707 213.475  1.00  0.00     0.079 C 
BRANCH  16  17
ATOM     17  C   UNL     1     189.733 195.584 212.653  1.00  0.00     0.130 C 
ATOM     18  O   UNL     1     190.480 194.868 212.001  1.00  0.00    -0.300 OA
ATOM     19  C   UNL     1     188.257 195.318 212.624  1.00  0.00     0.087 C 
ENDBRANCH  16  17
ENDBRANCH  15  16
ENDBRANCH  13  15
ENDBRANCH  11  12
ENDBRANCH   1  11
TORSDOF 9
ENDMDL
