MODEL 1
REMARK VINA RESULT:    -2.096      0.000      0.000
REMARK INTER + INTRA:          -2.096
REMARK INTER:                  -2.096
REMARK INTRA:                   0.000
REMARK UNBOUND:                 0.000
REMARK SMILES CC(=O)[O-]
REMARK SMILES IDX 1 1 2 2 3 3 4 4
REMARK H PARENT
REMARK Flexibility Score: inf
ROOT
ATOM      1  C   UNL     1      30.210  11.202  28.560  1.00  0.00     0.063 C 
ATOM      2  C   UNL     1      30.603  11.501  29.966  1.00  0.00     0.038 C 
ATOM      3  O   UNL     1      30.469  12.665  30.425  1.00  0.00    -0.550 OA
ATOM      4  O   UNL     1      31.069  10.484  30.790  1.00  0.00    -0.550 OA
ENDROOT
TORSDOF 0
ENDMDL
MODEL 2
REMARK VINA RESULT:    -2.093      1.535      1.819
REMARK INTER + INTRA:          -2.093
REMARK INTER:                  -2.093
REMARK INTRA:                   0.000
REMARK UNBOUND:                 0.000
REMARK SMILES CC(=O)[O-]
REMARK SMILES IDX 1 1 2 2 3 3 4 4
REMARK H PARENT
REMARK Flexibility Score: inf
ROOT
ATOM      1  C   UNL     1      30.779  10.740  30.726  1.00  0.00     0.063 C 
ATOM      2  C   UNL     1      30.392  11.681  29.636  1.00  0.00     0.038 C 
ATOM      3  O   UNL     1      29.762  12.736  29.909  1.00  0.00    -0.550 OA
ATOM      4  O   UNL     1      30.771  11.423  28.326  1.00  0.00    -0.550 OA
ENDROOT
TORSDOF 0
ENDMDL
MODEL 3
REMARK VINA RESULT:    -2.081      1.550      2.221
REMARK INTER + INTRA:          -2.081
REMARK INTER:                  -2.081
REMARK INTRA:                   0.000
REMARK UNBOUND:                 0.000
REMARK SMILES CC(=O)[O-]
REMARK SMILES IDX 1 1 2 2 3 3 4 4
REMARK H PARENT
REMARK Flexibility Score: inf
ROOT
ATOM      1  C   UNL     1      30.737  10.774  30.661  1.00  0.00     0.063 C 
ATOM      2  C   UNL     1      30.345  11.669  29.535  1.00  0.00     0.038 C 
ATOM      3  O   UNL     1      30.685  11.386  28.357  1.00  0.00    -0.550 OA
ATOM      4  O   UNL     1      29.558  12.788  29.776  1.00  0.00    -0.550 OA
ENDROOT
TORSDOF 0
ENDMDL
MODEL 4
REMARK VINA RESULT:    -1.955     19.445     19.966
REMARK INTER + INTRA:          -1.955
REMARK INTER:                  -1.955
REMARK INTRA:                   0.000
REMARK UNBOUND:                 0.000
REMARK SMILES CC(=O)[O-]
REMARK SMILES IDX 1 1 2 2 3 3 4 4
REMARK H PARENT
REMARK Flexibility Score: inf
ROOT
ATOM      1  C   UNL     1      16.883  16.021  16.452  1.00  0.00     0.063 C 
ATOM      2  C   UNL     1      17.559  15.135  15.461  1.00  0.00     0.038 C 
ATOM      3  O   UNL     1      18.067  14.045  15.834  1.00  0.00    -0.550 OA
ATOM      4  O   UNL     1      17.584  15.484  14.118  1.00  0.00    -0.550 OA
ENDROOT
TORSDOF 0
ENDMDL
MODEL 5
REMARK VINA RESULT:    -1.905     19.409     19.936
REMARK INTER + INTRA:          -1.905
REMARK INTER:                  -1.905
REMARK INTRA:                   0.000
REMARK UNBOUND:                 0.000
REMARK SMILES CC(=O)[O-]
REMARK SMILES IDX 1 1 2 2 3 3 4 4
REMARK H PARENT
REMARK Flexibility Score: inf
ROOT
ATOM      1  C   UNL     1      18.465  14.126  15.953  1.00  0.00     0.063 C 
ATOM      2  C   UNL     1      17.507  15.139  15.426  1.00  0.00     0.038 C 
ATOM      3  O   UNL     1      16.642  15.644  16.187  1.00  0.00    -0.550 OA
ATOM      4  O   UNL     1      17.602  15.568  14.109  1.00  0.00    -0.550 OA
ENDROOT
TORSDOF 0
ENDMDL
MODEL 6
REMARK VINA RESULT:    -1.878     19.452     19.910
REMARK INTER + INTRA:          -1.878
REMARK INTER:                  -1.878
REMARK INTRA:                   0.000
REMARK UNBOUND:                 0.000
REMARK SMILES CC(=O)[O-]
REMARK SMILES IDX 1 1 2 2 3 3 4 4
REMARK H PARENT
REMARK Flexibility Score: inf
ROOT
ATOM      1  C   UNL     1      17.752  15.698  14.149  1.00  0.00     0.063 C 
ATOM      2  C   UNL     1      17.439  15.122  15.488  1.00  0.00     0.038 C 
ATOM      3  O   UNL     1      16.563  15.658  16.215  1.00  0.00    -0.550 OA
ATOM      4  O   UNL     1      18.075  13.963  15.913  1.00  0.00    -0.550 OA
ENDROOT
TORSDOF 0
ENDMDL
MODEL 7
REMARK VINA RESULT:    -1.755     16.385     16.737
REMARK INTER + INTRA:          -1.755
REMARK INTER:                  -1.755
REMARK INTRA:                   0.000
REMARK UNBOUND:                 0.000
REMARK SMILES CC(=O)[O-]
REMARK SMILES IDX 1 1 2 2 3 3 4 4
REMARK H PARENT
REMARK Flexibility Score: inf
ROOT
ATOM      1  C   UNL     1      24.714   5.441  16.482  1.00  0.00     0.063 C 
ATOM      2  C   UNL     1      23.935   6.329  15.572  1.00  0.00     0.038 C 
ATOM      3  O   UNL     1      24.090   7.577  15.625  1.00  0.00    -0.550 OA
ATOM      4  O   UNL     1      23.077   5.780  14.629  1.00  0.00    -0.550 OA
ENDROOT
TORSDOF 0
ENDMDL
MODEL 8
REMARK VINA RESULT:    -1.686     17.920     18.381
REMARK INTER + INTRA:          -1.686
REMARK INTER:                  -1.686
REMARK INTRA:                   0.000
REMARK UNBOUND:                 0.000
REMARK SMILES CC(=O)[O-]
REMARK SMILES IDX 1 1 2 2 3 3 4 4
REMARK H PARENT
REMARK Flexibility Score: inf
ROOT
ATOM      1  C   UNL     1      19.633  12.818  16.791  1.00  0.00     0.063 C 
ATOM      2  C   UNL     1      19.168  13.880  15.853  1.00  0.00     0.038 C 
ATOM      3  O   UNL     1      19.977  14.408  15.048  1.00  0.00    -0.550 OA
ATOM      4  O   UNL     1      17.830  14.250  15.829  1.00  0.00    -0.550 OA
ENDROOT
TORSDOF 0
ENDMDL
MODEL 9
REMARK VINA RESULT:    -1.668      3.996      4.277
REMARK INTER + INTRA:          -1.668
REMARK INTER:                  -1.668
REMARK INTRA:                   0.000
REMARK UNBOUND:                 0.000
REMARK SMILES CC(=O)[O-]
REMARK SMILES IDX 1 1 2 2 3 3 4 4
REMARK H PARENT
REMARK Flexibility Score: inf
ROOT
ATOM      1  C   UNL     1      31.215   9.434  25.494  1.00  0.00     0.063 C 
ATOM      2  C   UNL     1      31.481  10.800  26.029  1.00  0.00     0.038 C 
ATOM      3  O   UNL     1      32.192  11.605  25.374  1.00  0.00    -0.550 OA
ATOM      4  O   UNL     1      30.902  11.205  27.224  1.00  0.00    -0.550 OA
ENDROOT
TORSDOF 0
ENDMDL
