MODEL 1
REMARK VINA RESULT:    -4.113      0.000      0.000
REMARK INTER + INTRA:          -4.902
REMARK INTER:                  -4.954
REMARK INTRA:                   0.052
REMARK UNBOUND:                 0.052
REMARK SMILES CC[C@H](C)[C@H]([NH3+])C(=O)[O-]
REMARK SMILES IDX 3 1 4 2 5 3 6 4 7 8 8 9 9 10 2 11 1 12
REMARK H PARENT 6 5 6 6 6 7
REMARK Flexibility Score: inf
ROOT
ATOM      1  C   UNL     1     128.525 128.076 124.344  1.00  0.00     0.050 C 
ATOM      2  C   UNL     1     129.229 128.691 125.565  1.00  0.00     0.014 C 
ENDROOT
BRANCH   1   3
ATOM      3  C   UNL     1     127.333 127.143 124.740  1.00  0.00     0.230 C 
BRANCH   3   4
ATOM      4  N   UNL     1     126.277 127.819 125.510  1.00  0.00    -0.350 N 
ATOM      5  H   UNL     1     125.564 128.261 124.891  1.00  0.00     0.345 HD
ATOM      6  H   UNL     1     125.803 127.140 126.148  1.00  0.00     0.345 HD
ATOM      7  H   UNL     1     126.700 128.561 126.114  1.00  0.00     0.345 HD
ENDBRANCH   3   4
BRANCH   3   8
ATOM      8  C   UNL     1     127.806 125.894 125.443  1.00  0.00     0.099 C 
ATOM      9  O   UNL     1     127.769 124.786 124.846  1.00  0.00    -0.544 OA
ATOM     10  O   UNL     1     128.324 125.957 126.732  1.00  0.00    -0.544 OA
ENDBRANCH   3   8
ENDBRANCH   1   3
BRANCH   1  11
ATOM     11  C   UNL     1     129.540 127.517 123.307  1.00  0.00     0.006 C 
ATOM     12  C   UNL     1     128.950 127.030 121.984  1.00  0.00     0.004 C 
ENDBRANCH   1  11
TORSDOF 4
ENDMDL
MODEL 2
REMARK VINA RESULT:    -4.063      1.798      2.021
REMARK INTER + INTRA:          -4.842
REMARK INTER:                  -4.859
REMARK INTRA:                   0.018
REMARK UNBOUND:                 0.052
REMARK SMILES CC[C@H](C)[C@H]([NH3+])C(=O)[O-]
REMARK SMILES IDX 3 1 4 2 5 3 6 4 7 8 8 9 9 10 2 11 1 12
REMARK H PARENT 6 5 6 6 6 7
REMARK Flexibility Score: inf
ROOT
ATOM      1  C   UNL     1     128.319 127.089 124.028  1.00  0.00     0.050 C 
ATOM      2  C   UNL     1     128.789 128.469 124.517  1.00  0.00     0.014 C 
ENDROOT
BRANCH   1   3
ATOM      3  C   UNL     1     128.658 125.942 125.037  1.00  0.00     0.230 C 
BRANCH   3   4
ATOM      4  N   UNL     1     127.856 124.722 124.844  1.00  0.00    -0.350 N 
ATOM      5  H   UNL     1     128.031 124.017 125.591  1.00  0.00     0.345 HD
ATOM      6  H   UNL     1     126.838 124.959 124.827  1.00  0.00     0.345 HD
ATOM      7  H   UNL     1     128.085 124.291 123.919  1.00  0.00     0.345 HD
ENDBRANCH   3   4
BRANCH   3   8
ATOM      8  C   UNL     1     128.595 126.416 126.469  1.00  0.00     0.099 C 
ATOM      9  O   UNL     1     129.659 126.572 127.124  1.00  0.00    -0.544 OA
ATOM     10  O   UNL     1     127.377 126.724 127.062  1.00  0.00    -0.544 OA
ENDBRANCH   3   8
ENDBRANCH   1   3
BRANCH   1  11
ATOM     11  C   UNL     1     128.686 126.842 122.537  1.00  0.00     0.006 C 
ATOM     12  C   UNL     1     129.836 127.681 121.980  1.00  0.00     0.004 C 
ENDBRANCH   1  11
TORSDOF 4
ENDMDL
MODEL 3
REMARK VINA RESULT:    -3.848     22.322     23.108
REMARK INTER + INTRA:          -4.584
REMARK INTER:                  -4.440
REMARK INTRA:                  -0.143
REMARK UNBOUND:                 0.052
REMARK SMILES CC[C@H](C)[C@H]([NH3+])C(=O)[O-]
REMARK SMILES IDX 3 1 4 2 5 3 6 4 7 8 8 9 9 10 2 11 1 12
REMARK H PARENT 6 5 6 6 6 7
REMARK Flexibility Score: inf
ROOT
ATOM      1  C   UNL     1     113.581 117.454 109.199  1.00  0.00     0.050 C 
ATOM      2  C   UNL     1     113.450 115.941 109.438  1.00  0.00     0.014 C 
ENDROOT
BRANCH   1   3
ATOM      3  C   UNL     1     115.057 117.898 108.931  1.00  0.00     0.230 C 
BRANCH   3   4
ATOM      4  N   UNL     1     115.767 118.361 110.134  1.00  0.00    -0.350 N 
ATOM      5  H   UNL     1     115.162 118.330 110.982  1.00  0.00     0.345 HD
ATOM      6  H   UNL     1     116.619 117.778 110.299  1.00  0.00     0.345 HD
ATOM      7  H   UNL     1     116.095 119.345 109.995  1.00  0.00     0.345 HD
ENDBRANCH   3   4
BRANCH   3   8
ATOM      8  C   UNL     1     115.146 118.916 107.820  1.00  0.00     0.099 C 
ATOM      9  O   UNL     1     114.314 118.886 106.875  1.00  0.00    -0.544 OA
ATOM     10  O   UNL     1     116.112 119.915 107.846  1.00  0.00    -0.544 OA
ENDBRANCH   3   8
ENDBRANCH   1   3
BRANCH   1  11
ATOM     11  C   UNL     1     112.778 118.281 110.242  1.00  0.00     0.006 C 
ATOM     12  C   UNL     1     111.731 119.241 109.677  1.00  0.00     0.004 C 
ENDBRANCH   1  11
TORSDOF 4
ENDMDL
MODEL 4
REMARK VINA RESULT:    -3.840     13.641     15.087
REMARK INTER + INTRA:          -4.573
REMARK INTER:                  -4.469
REMARK INTRA:                  -0.105
REMARK UNBOUND:                 0.052
REMARK SMILES CC[C@H](C)[C@H]([NH3+])C(=O)[O-]
REMARK SMILES IDX 3 1 4 2 5 3 6 4 7 8 8 9 9 10 2 11 1 12
REMARK H PARENT 6 5 6 6 6 7
REMARK Flexibility Score: inf
ROOT
ATOM      1  C   UNL     1     123.066 126.920 110.117  1.00  0.00     0.050 C 
ATOM      2  C   UNL     1     124.109 127.886 109.531  1.00  0.00     0.014 C 
ENDROOT
BRANCH   1   3
ATOM      3  C   UNL     1     123.709 125.616 110.698  1.00  0.00     0.230 C 
BRANCH   3   4
ATOM      4  N   UNL     1     123.278 124.385 110.015  1.00  0.00    -0.350 N 
ATOM      5  H   UNL     1     123.635 123.529 110.490  1.00  0.00     0.345 HD
ATOM      6  H   UNL     1     122.235 124.343 109.970  1.00  0.00     0.345 HD
ATOM      7  H   UNL     1     123.626 124.388 109.028  1.00  0.00     0.345 HD
ENDBRANCH   3   4
BRANCH   3   8
ATOM      8  C   UNL     1     123.513 125.509 112.191  1.00  0.00     0.099 C 
ATOM      9  O   UNL     1     122.357 125.607 112.679  1.00  0.00    -0.544 OA
ATOM     10  O   UNL     1     124.591 125.262 113.033  1.00  0.00    -0.544 OA
ENDBRANCH   3   8
ENDBRANCH   1   3
BRANCH   1  11
ATOM     11  C   UNL     1     121.844 126.738 109.173  1.00  0.00     0.006 C 
ATOM     12  C   UNL     1     120.544 127.406 109.620  1.00  0.00     0.004 C 
ENDBRANCH   1  11
TORSDOF 4
ENDMDL
MODEL 5
REMARK VINA RESULT:    -3.834     20.980     22.049
REMARK INTER + INTRA:          -4.566
REMARK INTER:                  -4.480
REMARK INTRA:                  -0.085
REMARK UNBOUND:                 0.052
REMARK SMILES CC[C@H](C)[C@H]([NH3+])C(=O)[O-]
REMARK SMILES IDX 3 1 4 2 5 3 6 4 7 8 8 9 9 10 2 11 1 12
REMARK H PARENT 6 5 6 6 6 7
REMARK Flexibility Score: inf
ROOT
ATOM      1  C   UNL     1     112.933 119.083 109.865  1.00  0.00     0.050 C 
ATOM      2  C   UNL     1     111.420 119.279 109.672  1.00  0.00     0.014 C 
ENDROOT
BRANCH   1   3
ATOM      3  C   UNL     1     113.707 120.438 109.986  1.00  0.00     0.230 C 
BRANCH   3   4
ATOM      4  N   UNL     1     114.971 120.470 109.232  1.00  0.00    -0.350 N 
ATOM      5  H   UNL     1     115.488 119.568 109.297  1.00  0.00     0.345 HD
ATOM      6  H   UNL     1     114.787 120.689 108.227  1.00  0.00     0.345 HD
ATOM      7  H   UNL     1     115.584 121.233 109.603  1.00  0.00     0.345 HD
ENDBRANCH   3   4
BRANCH   3   8
ATOM      8  C   UNL     1     113.919 120.838 111.426  1.00  0.00     0.099 C 
ATOM      9  O   UNL     1     114.133 119.954 112.296  1.00  0.00    -0.544 OA
ATOM     10  O   UNL     1     113.924 122.177 111.798  1.00  0.00    -0.544 OA
ENDBRANCH   3   8
ENDBRANCH   1   3
BRANCH   1  11
ATOM     11  C   UNL     1     113.514 118.028 108.882  1.00  0.00     0.006 C 
ATOM     12  C   UNL     1     113.501 116.578 109.366  1.00  0.00     0.004 C 
ENDBRANCH   1  11
TORSDOF 4
ENDMDL
MODEL 6
REMARK VINA RESULT:    -3.825     22.301     22.900
REMARK INTER + INTRA:          -4.555
REMARK INTER:                  -4.413
REMARK INTRA:                  -0.142
REMARK UNBOUND:                 0.052
REMARK SMILES CC[C@H](C)[C@H]([NH3+])C(=O)[O-]
REMARK SMILES IDX 3 1 4 2 5 3 6 4 7 8 8 9 9 10 2 11 1 12
REMARK H PARENT 6 5 6 6 6 7
REMARK Flexibility Score: inf
ROOT
ATOM      1  C   UNL     1     113.065 118.395 109.413  1.00  0.00     0.050 C 
ATOM      2  C   UNL     1     111.788 119.190 109.732  1.00  0.00     0.014 C 
ENDROOT
BRANCH   1   3
ATOM      3  C   UNL     1     113.617 117.615 110.652  1.00  0.00     0.230 C 
BRANCH   3   4
ATOM      4  N   UNL     1     114.817 118.221 111.251  1.00  0.00    -0.350 N 
ATOM      5  H   UNL     1     114.966 119.199 110.925  1.00  0.00     0.345 HD
ATOM      6  H   UNL     1     114.743 118.215 112.294  1.00  0.00     0.345 HD
ATOM      7  H   UNL     1     115.661 117.655 111.002  1.00  0.00     0.345 HD
ENDBRANCH   3   4
BRANCH   3   8
ATOM      8  C   UNL     1     113.839 116.154 110.344  1.00  0.00     0.099 C 
ATOM      9  O   UNL     1     113.800 115.752 109.151  1.00  0.00    -0.544 OA
ATOM     10  O   UNL     1     114.130 115.250 111.359  1.00  0.00    -0.544 OA
ENDBRANCH   3   8
ENDBRANCH   1   3
BRANCH   1  11
ATOM     11  C   UNL     1     114.089 119.238 108.602  1.00  0.00     0.006 C 
ATOM     12  C   UNL     1     114.442 118.712 107.211  1.00  0.00     0.004 C 
ENDBRANCH   1  11
TORSDOF 4
ENDMDL
MODEL 7
REMARK VINA RESULT:    -3.807     18.642     19.473
REMARK INTER + INTRA:          -4.534
REMARK INTER:                  -4.446
REMARK INTRA:                  -0.088
REMARK UNBOUND:                 0.052
REMARK SMILES CC[C@H](C)[C@H]([NH3+])C(=O)[O-]
REMARK SMILES IDX 3 1 4 2 5 3 6 4 7 8 8 9 9 10 2 11 1 12
REMARK H PARENT 6 5 6 6 6 7
REMARK Flexibility Score: inf
ROOT
ATOM      1  C   UNL     1     124.481 114.103 109.947  1.00  0.00     0.050 C 
ATOM      2  C   UNL     1     124.840 112.703 109.424  1.00  0.00     0.014 C 
ENDROOT
BRANCH   1   3
ATOM      3  C   UNL     1     122.994 114.208 110.423  1.00  0.00     0.230 C 
BRANCH   3   4
ATOM      4  N   UNL     1     122.195 115.189 109.671  1.00  0.00    -0.350 N 
ATOM      5  H   UNL     1     121.247 115.321 110.082  1.00  0.00     0.345 HD
ATOM      6  H   UNL     1     122.688 116.111 109.644  1.00  0.00     0.345 HD
ATOM      7  H   UNL     1     122.088 114.873 108.679  1.00  0.00     0.345 HD
ENDBRANCH   3   4
BRANCH   3   8
ATOM      8  C   UNL     1     122.894 114.448 111.910  1.00  0.00     0.099 C 
ATOM      9  O   UNL     1     122.259 113.637 112.634  1.00  0.00    -0.544 OA
ATOM     10  O   UNL     1     123.533 115.533 112.498  1.00  0.00    -0.544 OA
ENDBRANCH   3   8
ENDBRANCH   1   3
BRANCH   1  11
ATOM     11  C   UNL     1     124.996 115.228 109.006  1.00  0.00     0.006 C 
ATOM     12  C   UNL     1     126.285 115.928 109.437  1.00  0.00     0.004 C 
ENDBRANCH   1  11
TORSDOF 4
ENDMDL
MODEL 8
REMARK VINA RESULT:    -3.742     19.091     19.773
REMARK INTER + INTRA:          -4.455
REMARK INTER:                  -4.320
REMARK INTRA:                  -0.136
REMARK UNBOUND:                 0.052
REMARK SMILES CC[C@H](C)[C@H]([NH3+])C(=O)[O-]
REMARK SMILES IDX 3 1 4 2 5 3 6 4 7 8 8 9 9 10 2 11 1 12
REMARK H PARENT 6 5 6 6 6 7
REMARK Flexibility Score: inf
ROOT
ATOM      1  C   UNL     1     125.335 115.702 109.199  1.00  0.00     0.050 C 
ATOM      2  C   UNL     1     126.771 116.190 109.456  1.00  0.00     0.014 C 
ENDROOT
BRANCH   1   3
ATOM      3  C   UNL     1     124.287 116.863 109.233  1.00  0.00     0.230 C 
BRANCH   3   4
ATOM      4  N   UNL     1     123.793 117.180 110.583  1.00  0.00    -0.350 N 
ATOM      5  H   UNL     1     124.439 116.839 111.326  1.00  0.00     0.345 HD
ATOM      6  H   UNL     1     123.665 118.213 110.688  1.00  0.00     0.345 HD
ATOM      7  H   UNL     1     122.855 116.741 110.729  1.00  0.00     0.345 HD
ENDBRANCH   3   4
BRANCH   3   8
ATOM      8  C   UNL     1     123.144 116.617 108.278  1.00  0.00     0.099 C 
ATOM      9  O   UNL     1     123.232 117.001 107.083  1.00  0.00    -0.544 OA
ATOM     10  O   UNL     1     122.007 115.932 108.692  1.00  0.00    -0.544 OA
ENDBRANCH   3   8
ENDBRANCH   1   3
BRANCH   1  11
ATOM     11  C   UNL     1     124.997 114.427 110.021  1.00  0.00     0.006 C 
ATOM     12  C   UNL     1     124.452 113.239 109.227  1.00  0.00     0.004 C 
ENDBRANCH   1  11
TORSDOF 4
ENDMDL
MODEL 9
REMARK VINA RESULT:    -3.694     21.165     22.277
REMARK INTER + INTRA:          -4.397
REMARK INTER:                  -4.272
REMARK INTRA:                  -0.125
REMARK UNBOUND:                 0.052
REMARK SMILES CC[C@H](C)[C@H]([NH3+])C(=O)[O-]
REMARK SMILES IDX 3 1 4 2 5 3 6 4 7 8 8 9 9 10 2 11 1 12
REMARK H PARENT 6 5 6 6 6 7
REMARK Flexibility Score: inf
ROOT
ATOM      1  C   UNL     1     112.960 118.392 110.147  1.00  0.00     0.050 C 
ATOM      2  C   UNL     1     111.773 119.258 109.695  1.00  0.00     0.014 C 
ENDROOT
BRANCH   1   3
ATOM      3  C   UNL     1     114.104 119.231 110.808  1.00  0.00     0.230 C 
BRANCH   3   4
ATOM      4  N   UNL     1     113.623 120.388 111.580  1.00  0.00    -0.350 N 
ATOM      5  H   UNL     1     114.311 121.170 111.582  1.00  0.00     0.345 HD
ATOM      6  H   UNL     1     112.715 120.730 111.191  1.00  0.00     0.345 HD
ATOM      7  H   UNL     1     113.442 120.102 112.570  1.00  0.00     0.345 HD
ENDBRANCH   3   4
BRANCH   3   8
ATOM      8  C   UNL     1     115.152 119.642 109.803  1.00  0.00     0.099 C 
ATOM      9  O   UNL     1     114.918 120.587 109.005  1.00  0.00    -0.544 OA
ATOM     10  O   UNL     1     116.394 119.017 109.776  1.00  0.00    -0.544 OA
ENDBRANCH   3   8
ENDBRANCH   1   3
BRANCH   1  11
ATOM     11  C   UNL     1     113.383 117.367 109.056  1.00  0.00     0.006 C 
ATOM     12  C   UNL     1     113.462 115.906 109.500  1.00  0.00     0.004 C 
ENDBRANCH   1  11
TORSDOF 4
ENDMDL
