MODEL 1
REMARK VINA RESULT:     0.000      0.000      0.000
REMARK INTER + INTRA:          -0.255
REMARK INTER:                   0.000
REMARK INTRA:                  -0.255
REMARK UNBOUND:                -0.255
REMARK SMILES O=C([O-])c1ccccc1O
REMARK SMILES IDX 4 1 9 2 5 3 8 4 6 5 7 6 2 7 1 8 3 9 10 10
REMARK H PARENT 10 11
REMARK Flexibility Score: inf
ROOT
ATOM      1  C   UNL     1     180.325 179.157 173.083  1.00  0.00     0.039 A 
ATOM      2  C   UNL     1     179.460 179.421 174.172  1.00  0.00     0.124 A 
ATOM      3  C   UNL     1     180.234 177.912 172.431  1.00  0.00     0.014 A 
ATOM      4  C   UNL     1     178.533 178.450 174.580  1.00  0.00     0.047 A 
ATOM      5  C   UNL     1     179.307 176.954 172.849  1.00  0.00     0.001 A 
ATOM      6  C   UNL     1     178.458 177.222 173.921  1.00  0.00     0.004 A 
ENDROOT
BRANCH   1   7
ATOM      7  C   UNL     1     181.323 180.151 172.612  1.00  0.00     0.075 C 
ATOM      8  O   UNL     1     181.450 180.414 171.387  1.00  0.00    -0.545 OA
ATOM      9  O   UNL     1     182.137 180.813 173.524  1.00  0.00    -0.545 OA
ENDBRANCH   1   7
BRANCH   2  10
ATOM     10  O   UNL     1     179.514 180.641 174.847  1.00  0.00    -0.507 OA
ATOM     11  H   UNL     1     180.344 181.223 174.829  1.00  0.00     0.293 HD
ENDBRANCH   2  10
TORSDOF 2
ENDMDL
MODEL 2
REMARK VINA RESULT:     0.000      5.029      5.660
REMARK INTER + INTRA:          -0.255
REMARK INTER:                   0.000
REMARK INTRA:                  -0.255
REMARK UNBOUND:                -0.255
REMARK SMILES O=C([O-])c1ccccc1O
REMARK SMILES IDX 4 1 9 2 5 3 8 4 6 5 7 6 2 7 1 8 3 9 10 10
REMARK H PARENT 10 11
REMARK Flexibility Score: inf
ROOT
ATOM      1  C   UNL     1     179.346 174.562 174.260  1.00  0.00     0.039 A 
ATOM      2  C   UNL     1     180.559 174.463 174.983  1.00  0.00     0.124 A 
ATOM      3  C   UNL     1     178.265 175.254 174.841  1.00  0.00     0.014 A 
ATOM      4  C   UNL     1     180.666 175.051 176.252  1.00  0.00     0.047 A 
ATOM      5  C   UNL     1     178.387 175.834 176.106  1.00  0.00     0.001 A 
ATOM      6  C   UNL     1     179.585 175.733 176.811  1.00  0.00     0.004 A 
ENDROOT
BRANCH   1   7
ATOM      7  C   UNL     1     179.181 173.958 172.914  1.00  0.00     0.075 C 
ATOM      8  O   UNL     1     178.664 174.609 171.968  1.00  0.00    -0.545 OA
ATOM      9  O   UNL     1     179.599 172.653 172.675  1.00  0.00    -0.545 OA
ENDBRANCH   1   7
BRANCH   2  10
ATOM     10  O   UNL     1     181.656 173.787 174.447  1.00  0.00    -0.507 OA
ATOM     11  H   UNL     1     182.053 174.044 173.550  1.00  0.00     0.293 HD
ENDBRANCH   2  10
TORSDOF 2
ENDMDL
MODEL 3
REMARK VINA RESULT:     0.000      9.466     10.603
REMARK INTER + INTRA:          -0.255
REMARK INTER:                   0.000
REMARK INTRA:                  -0.255
REMARK UNBOUND:                -0.255
REMARK SMILES O=C([O-])c1ccccc1O
REMARK SMILES IDX 4 1 9 2 5 3 8 4 6 5 7 6 2 7 1 8 3 9 10 10
REMARK H PARENT 10 11
REMARK Flexibility Score: inf
ROOT
ATOM      1  C   UNL     1     182.168 179.475 183.036  1.00  0.00     0.039 A 
ATOM      2  C   UNL     1     182.610 178.130 183.053  1.00  0.00     0.124 A 
ATOM      3  C   UNL     1     182.999 180.468 183.589  1.00  0.00     0.014 A 
ATOM      4  C   UNL     1     183.856 177.810 183.614  1.00  0.00     0.047 A 
ATOM      5  C   UNL     1     184.237 180.135 184.144  1.00  0.00     0.001 A 
ATOM      6  C   UNL     1     184.665 178.809 184.156  1.00  0.00     0.004 A 
ENDROOT
BRANCH   1   7
ATOM      7  C   UNL     1     180.859 179.865 182.455  1.00  0.00     0.075 C 
ATOM      8  O   UNL     1     180.762 180.845 181.671  1.00  0.00    -0.545 OA
ATOM      9  O   UNL     1     179.710 179.147 182.770  1.00  0.00    -0.545 OA
ENDBRANCH   1   7
BRANCH   2  10
ATOM     10  O   UNL     1     181.821 177.113 182.516  1.00  0.00    -0.507 OA
ATOM     11  H   UNL     1     181.674 176.237 183.005  1.00  0.00     0.293 HD
ENDBRANCH   2  10
TORSDOF 2
ENDMDL
MODEL 4
REMARK VINA RESULT:     0.000     11.655     12.988
REMARK INTER + INTRA:          -0.255
REMARK INTER:                   0.000
REMARK INTRA:                  -0.255
REMARK UNBOUND:                -0.255
REMARK SMILES O=C([O-])c1ccccc1O
REMARK SMILES IDX 4 1 9 2 5 3 8 4 6 5 7 6 2 7 1 8 3 9 10 10
REMARK H PARENT 10 11
REMARK Flexibility Score: inf
ROOT
ATOM      1  C   UNL     1     180.121 173.406 184.647  1.00  0.00     0.039 A 
ATOM      2  C   UNL     1     180.579 174.319 183.667  1.00  0.00     0.124 A 
ATOM      3  C   UNL     1     180.740 173.401 185.912  1.00  0.00     0.014 A 
ATOM      4  C   UNL     1     181.631 175.197 183.968  1.00  0.00     0.047 A 
ATOM      5  C   UNL     1     181.787 174.281 186.197  1.00  0.00     0.001 A 
ATOM      6  C   UNL     1     182.232 175.178 185.227  1.00  0.00     0.004 A 
ENDROOT
BRANCH   1   7
ATOM      7  C   UNL     1     179.011 172.456 184.379  1.00  0.00     0.075 C 
ATOM      8  O   UNL     1     178.070 172.307 185.203  1.00  0.00    -0.545 OA
ATOM      9  O   UNL     1     178.993 171.712 183.205  1.00  0.00    -0.545 OA
ENDBRANCH   1   7
BRANCH   2  10
ATOM     10  O   UNL     1     179.995 174.359 182.401  1.00  0.00    -0.507 OA
ATOM     11  H   UNL     1     179.384 173.620 182.072  1.00  0.00     0.293 HD
ENDBRANCH   2  10
TORSDOF 2
ENDMDL
MODEL 5
REMARK VINA RESULT:     0.000      8.036      8.875
REMARK INTER + INTRA:          -0.255
REMARK INTER:                   0.000
REMARK INTRA:                  -0.255
REMARK UNBOUND:                -0.255
REMARK SMILES O=C([O-])c1ccccc1O
REMARK SMILES IDX 4 1 9 2 5 3 8 4 6 5 7 6 2 7 1 8 3 9 10 10
REMARK H PARENT 10 11
REMARK Flexibility Score: inf
ROOT
ATOM      1  C   UNL     1     177.692 176.000 180.526  1.00  0.00     0.039 A 
ATOM      2  C   UNL     1     177.873 176.528 181.827  1.00  0.00     0.124 A 
ATOM      3  C   UNL     1     178.791 175.407 179.875  1.00  0.00     0.014 A 
ATOM      4  C   UNL     1     179.131 176.453 182.442  1.00  0.00     0.047 A 
ATOM      5  C   UNL     1     180.039 175.341 180.501  1.00  0.00     0.001 A 
ATOM      6  C   UNL     1     180.209 175.862 181.782  1.00  0.00     0.004 A 
ENDROOT
BRANCH   1   7
ATOM      7  C   UNL     1     176.380 176.053 179.831  1.00  0.00     0.075 C 
ATOM      8  O   UNL     1     175.910 175.040 179.252  1.00  0.00    -0.545 OA
ATOM      9  O   UNL     1     175.646 177.234 179.810  1.00  0.00    -0.545 OA
ENDBRANCH   1   7
BRANCH   2  10
ATOM     10  O   UNL     1     176.812 177.123 182.509  1.00  0.00    -0.507 OA
ATOM     11  H   UNL     1     176.956 177.654 183.360  1.00  0.00     0.293 HD
ENDBRANCH   2  10
TORSDOF 2
ENDMDL
MODEL 6
REMARK VINA RESULT:     0.000      7.651      8.936
REMARK INTER + INTRA:          -0.255
REMARK INTER:                   0.000
REMARK INTRA:                  -0.255
REMARK UNBOUND:                -0.255
REMARK SMILES O=C([O-])c1ccccc1O
REMARK SMILES IDX 4 1 9 2 5 3 8 4 6 5 7 6 2 7 1 8 3 9 10 10
REMARK H PARENT 10 11
REMARK Flexibility Score: inf
ROOT
ATOM      1  C   UNL     1     181.133 185.354 178.673  1.00  0.00     0.039 A 
ATOM      2  C   UNL     1     182.215 184.495 178.983  1.00  0.00     0.124 A 
ATOM      3  C   UNL     1     180.669 186.244 179.661  1.00  0.00     0.014 A 
ATOM      4  C   UNL     1     182.804 184.544 180.255  1.00  0.00     0.047 A 
ATOM      5  C   UNL     1     181.265 186.280 180.925  1.00  0.00     0.001 A 
ATOM      6  C   UNL     1     182.330 185.432 181.221  1.00  0.00     0.004 A 
ENDROOT
BRANCH   1   7
ATOM      7  C   UNL     1     180.476 185.342 177.342  1.00  0.00     0.075 C 
ATOM      8  O   UNL     1     180.232 186.414 176.728  1.00  0.00    -0.545 OA
ATOM      9  O   UNL     1     180.118 184.137 176.748  1.00  0.00    -0.545 OA
ENDBRANCH   1   7
BRANCH   2  10
ATOM     10  O   UNL     1     182.708 183.598 178.035  1.00  0.00    -0.507 OA
ATOM     11  H   UNL     1     183.652 183.232 178.088  1.00  0.00     0.293 HD
ENDBRANCH   2  10
TORSDOF 2
ENDMDL
MODEL 7
REMARK VINA RESULT:     0.000     11.007     12.022
REMARK INTER + INTRA:          -0.255
REMARK INTER:                   0.000
REMARK INTRA:                  -0.255
REMARK UNBOUND:                -0.255
REMARK SMILES O=C([O-])c1ccccc1O
REMARK SMILES IDX 4 1 9 2 5 3 8 4 6 5 7 6 2 7 1 8 3 9 10 10
REMARK H PARENT 10 11
REMARK Flexibility Score: inf
ROOT
ATOM      1  C   UNL     1     181.848 184.827 183.668  1.00  0.00     0.039 A 
ATOM      2  C   UNL     1     180.945 184.183 184.547  1.00  0.00     0.124 A 
ATOM      3  C   UNL     1     181.582 184.802 182.285  1.00  0.00     0.014 A 
ATOM      4  C   UNL     1     179.810 183.537 184.034  1.00  0.00     0.047 A 
ATOM      5  C   UNL     1     180.447 184.155 181.789  1.00  0.00     0.001 A 
ATOM      6  C   UNL     1     179.563 183.524 182.661  1.00  0.00     0.004 A 
ENDROOT
BRANCH   1   7
ATOM      7  C   UNL     1     183.063 185.524 184.160  1.00  0.00     0.075 C 
ATOM      8  O   UNL     1     183.363 186.676 183.749  1.00  0.00    -0.545 OA
ATOM      9  O   UNL     1     183.894 184.911 185.091  1.00  0.00    -0.545 OA
ENDBRANCH   1   7
BRANCH   2  10
ATOM     10  O   UNL     1     181.168 184.182 185.924  1.00  0.00    -0.507 OA
ATOM     11  H   UNL     1     180.419 184.010 186.586  1.00  0.00     0.293 HD
ENDBRANCH   2  10
TORSDOF 2
ENDMDL
MODEL 8
REMARK VINA RESULT:     0.000      7.801      8.726
REMARK INTER + INTRA:          -0.255
REMARK INTER:                   0.000
REMARK INTRA:                  -0.255
REMARK UNBOUND:                -0.255
REMARK SMILES O=C([O-])c1ccccc1O
REMARK SMILES IDX 4 1 9 2 5 3 8 4 6 5 7 6 2 7 1 8 3 9 10 10
REMARK H PARENT 10 11
REMARK Flexibility Score: inf
ROOT
ATOM      1  C   UNL     1     184.713 181.848 179.281  1.00  0.00     0.039 A 
ATOM      2  C   UNL     1     184.460 180.836 180.239  1.00  0.00     0.124 A 
ATOM      3  C   UNL     1     185.239 183.079 179.719  1.00  0.00     0.014 A 
ATOM      4  C   UNL     1     184.735 181.071 181.594  1.00  0.00     0.047 A 
ATOM      5  C   UNL     1     185.508 183.299 181.072  1.00  0.00     0.001 A 
ATOM      6  C   UNL     1     185.257 182.297 182.008  1.00  0.00     0.004 A 
ENDROOT
BRANCH   1   7
ATOM      7  C   UNL     1     184.439 181.649 177.835  1.00  0.00     0.075 C 
ATOM      8  O   UNL     1     185.288 181.969 176.963  1.00  0.00    -0.545 OA
ATOM      9  O   UNL     1     183.231 181.100 177.420  1.00  0.00    -0.545 OA
ENDBRANCH   1   7
BRANCH   2  10
ATOM     10  O   UNL     1     183.939 179.601 179.850  1.00  0.00    -0.507 OA
ATOM     11  H   UNL     1     183.635 179.426 178.899  1.00  0.00     0.293 HD
ENDBRANCH   2  10
TORSDOF 2
ENDMDL
MODEL 9
REMARK VINA RESULT:     0.000      9.187     10.441
REMARK INTER + INTRA:          -0.255
REMARK INTER:                   0.000
REMARK INTRA:                  -0.255
REMARK UNBOUND:                -0.255
REMARK SMILES O=C([O-])c1ccccc1O
REMARK SMILES IDX 4 1 9 2 5 3 8 4 6 5 7 6 2 7 1 8 3 9 10 10
REMARK H PARENT 10 11
REMARK Flexibility Score: inf
ROOT
ATOM      1  C   UNL     1     180.496 185.814 180.692  1.00  0.00     0.039 A 
ATOM      2  C   UNL     1     181.474 186.739 180.252  1.00  0.00     0.124 A 
ATOM      3  C   UNL     1     180.533 184.498 180.191  1.00  0.00     0.014 A 
ATOM      4  C   UNL     1     182.455 186.334 179.335  1.00  0.00     0.047 A 
ATOM      5  C   UNL     1     181.517 184.110 179.278  1.00  0.00     0.001 A 
ATOM      6  C   UNL     1     182.476 185.026 178.851  1.00  0.00     0.004 A 
ENDROOT
BRANCH   1   7
ATOM      7  C   UNL     1     179.436 186.191 181.661  1.00  0.00     0.075 C 
ATOM      8  O   UNL     1     179.168 185.459 182.649  1.00  0.00    -0.545 OA
ATOM      9  O   UNL     1     178.719 187.370 181.491  1.00  0.00    -0.545 OA
ENDBRANCH   1   7
BRANCH   2  10
ATOM     10  O   UNL     1     181.475 188.052 180.721  1.00  0.00    -0.507 OA
ATOM     11  H   UNL     1     180.626 188.604 180.765  1.00  0.00     0.293 HD
ENDBRANCH   2  10
TORSDOF 2
ENDMDL
