MODEL 1
REMARK VINA RESULT:    -5.600      0.000      0.000
REMARK INTER + INTRA:         -10.330
REMARK INTER:                  -8.711
REMARK INTRA:                  -1.619
REMARK UNBOUND:                -1.619
REMARK SMILES C[C@]12C[C@]3(O)O[C@H](O1)[C@@]1(COC(=O)c4ccccc4)[C@@H]3C[C@]12O[C@@H]1O[C@@H](CO)[C@H](O)[C@@H](O)[C@H]1O
REMARK SMILES IDX 1 1 2 2 3 3 4 4 20 5 21 6 22 7 9 8 7 9 8 10 6 11 23 12 24 13
REMARK SMILES IDX 33 14 25 15 31 16 26 17 29 18 34 19 32 21 27 23 28 24 30 26
REMARK SMILES IDX 5 28 10 30 11 31 12 32 13 33 14 34 15 35 19 36 16 37 18 38
REMARK SMILES IDX 17 39
REMARK H PARENT 34 20 32 22 28 25 30 27 5 29
REMARK Flexibility Score: inf
ROOT
ATOM      1  C   UNL     1      13.007  58.966  34.263  1.00  0.00     0.046 C 
ATOM      2  C   UNL     1      14.380  58.839  33.628  1.00  0.00     0.104 C 
ATOM      3  C   UNL     1      15.266  60.098  33.958  1.00  0.00     0.104 C 
ATOM      4  C   UNL     1      16.642  59.764  33.284  1.00  0.00     0.175 C 
ATOM      5  C   UNL     1      17.107  58.323  33.668  1.00  0.00     0.070 C 
ATOM      6  C   UNL     1      16.402  57.764  34.910  1.00  0.00     0.050 C 
ATOM      7  C   UNL     1      15.170  57.517  33.996  1.00  0.00     0.115 C 
ATOM      8  C   UNL     1      16.133  57.540  32.805  1.00  0.00     0.096 C 
ATOM      9  C   UNL     1      15.581  58.520  31.786  1.00  0.00     0.267 C 
ATOM     10  O   UNL     1      14.264  58.812  32.218  1.00  0.00    -0.342 OA
ATOM     11  O   UNL     1      16.380  59.689  31.898  1.00  0.00    -0.320 OA
ENDROOT
BRANCH   7  12
ATOM     12  O   UNL     1      14.392  56.315  34.028  1.00  0.00    -0.339 OA
BRANCH  12  13
ATOM     13  C   UNL     1      13.914  55.890  35.303  1.00  0.00     0.282 C 
ATOM     14  C   UNL     1      12.409  55.469  35.256  1.00  0.00     0.202 C 
ATOM     15  O   UNL     1      14.723  54.818  35.771  1.00  0.00    -0.341 OA
ATOM     16  C   UNL     1      12.194  53.961  35.525  1.00  0.00     0.179 C 
ATOM     17  C   UNL     1      14.666  53.697  34.900  1.00  0.00     0.178 C 
ATOM     18  C   UNL     1      13.224  53.128  34.737  1.00  0.00     0.177 C 
BRANCH  14  19
ATOM     19  O   UNL     1      11.616  56.259  36.108  1.00  0.00    -0.385 OA
ATOM     20  H   UNL     1      10.695  55.892  36.103  1.00  0.00     0.211 HD
ENDBRANCH  14  19
BRANCH  16  21
ATOM     21  O   UNL     1      12.210  53.657  36.903  1.00  0.00    -0.387 OA
ATOM     22  H   UNL     1      12.619  52.760  37.036  1.00  0.00     0.211 HD
ENDBRANCH  16  21
BRANCH  17  23
ATOM     23  C   UNL     1      15.645  52.624  35.403  1.00  0.00     0.191 C 
BRANCH  23  24
ATOM     24  O   UNL     1      15.110  51.898  36.481  1.00  0.00    -0.394 OA
ATOM     25  H   UNL     1      15.515  52.274  37.303  1.00  0.00     0.210 HD
ENDBRANCH  23  24
ENDBRANCH  17  23
BRANCH  18  26
ATOM     26  O   UNL     1      12.881  53.167  33.376  1.00  0.00    -0.387 OA
ATOM     27  H   UNL     1      12.270  52.404  33.200  1.00  0.00     0.211 HD
ENDBRANCH  18  26
ENDBRANCH  12  13
ENDBRANCH   7  12
BRANCH   4  28
ATOM     28  O   UNL     1      17.613  60.741  33.556  1.00  0.00    -0.365 OA
ATOM     29  H   UNL     1      18.490  60.275  33.594  1.00  0.00     0.214 HD
ENDBRANCH   4  28
BRANCH   8  30
ATOM     30  C   UNL     1      16.661  56.208  32.245  1.00  0.00     0.249 C 
BRANCH  30  31
ATOM     31  O   UNL     1      16.018  55.913  31.005  1.00  0.00    -0.461 OA
BRANCH  31  32
ATOM     32  C   UNL     1      15.300  54.729  30.763  1.00  0.00     0.338 C 
ATOM     33  O   UNL     1      14.131  54.580  31.222  1.00  0.00    -0.246 OA
BRANCH  32  34
ATOM     34  C   UNL     1      15.930  53.644  29.976  1.00  0.00     0.060 A 
ATOM     35  C   UNL     1      15.327  52.376  29.922  1.00  0.00     0.015 A 
ATOM     36  C   UNL     1      17.141  53.848  29.298  1.00  0.00     0.015 A 
ATOM     37  C   UNL     1      15.940  51.322  29.243  1.00  0.00     0.001 A 
ATOM     38  C   UNL     1      17.752  52.793  28.606  1.00  0.00     0.001 A 
ATOM     39  C   UNL     1      17.160  51.526  28.589  1.00  0.00     0.000 A 
ENDBRANCH  32  34
ENDBRANCH  31  32
ENDBRANCH  30  31
ENDBRANCH   8  30
TORSDOF 12
ENDMDL
MODEL 2
REMARK VINA RESULT:    -5.429      1.583      2.551
REMARK INTER + INTRA:         -10.063
REMARK INTER:                  -7.969
REMARK INTRA:                  -2.094
REMARK UNBOUND:                -1.619
REMARK SMILES C[C@]12C[C@]3(O)O[C@H](O1)[C@@]1(COC(=O)c4ccccc4)[C@@H]3C[C@]12O[C@@H]1O[C@@H](CO)[C@H](O)[C@@H](O)[C@H]1O
REMARK SMILES IDX 1 1 2 2 3 3 4 4 20 5 21 6 22 7 9 8 7 9 8 10 6 11 23 12 24 13
REMARK SMILES IDX 33 14 25 15 31 16 26 17 29 18 34 19 32 21 27 23 28 24 30 26
REMARK SMILES IDX 5 28 10 30 11 31 12 32 13 33 14 34 15 35 19 36 16 37 18 38
REMARK SMILES IDX 17 39
REMARK H PARENT 34 20 32 22 28 25 30 27 5 29
REMARK Flexibility Score: inf
ROOT
ATOM      1  C   UNL     1      13.060  58.891  34.346  1.00  0.00     0.046 C 
ATOM      2  C   UNL     1      14.430  58.799  33.699  1.00  0.00     0.104 C 
ATOM      3  C   UNL     1      15.288  60.078  34.024  1.00  0.00     0.104 C 
ATOM      4  C   UNL     1      16.665  59.780  33.337  1.00  0.00     0.175 C 
ATOM      5  C   UNL     1      17.168  58.349  33.711  1.00  0.00     0.070 C 
ATOM      6  C   UNL     1      16.489  57.769  34.957  1.00  0.00     0.050 C 
ATOM      7  C   UNL     1      15.254  57.495  34.053  1.00  0.00     0.115 C 
ATOM      8  C   UNL     1      16.206  57.545  32.854  1.00  0.00     0.096 C 
ATOM      9  C   UNL     1      15.620  58.516  31.843  1.00  0.00     0.267 C 
ATOM     10  O   UNL     1      14.301  58.775  32.289  1.00  0.00    -0.342 OA
ATOM     11  O   UNL     1      16.392  59.703  31.953  1.00  0.00    -0.320 OA
ENDROOT
BRANCH   7  12
ATOM     12  O   UNL     1      14.507  56.275  34.088  1.00  0.00    -0.339 OA
BRANCH  12  13
ATOM     13  C   UNL     1      14.000  55.864  35.357  1.00  0.00     0.282 C 
ATOM     14  C   UNL     1      12.501  55.429  35.278  1.00  0.00     0.202 C 
ATOM     15  O   UNL     1      14.807  54.808  35.863  1.00  0.00    -0.341 OA
ATOM     16  C   UNL     1      12.293  53.923  35.566  1.00  0.00     0.179 C 
ATOM     17  C   UNL     1      14.782  53.673  35.008  1.00  0.00     0.178 C 
ATOM     18  C   UNL     1      13.350  53.087  34.818  1.00  0.00     0.177 C 
BRANCH  14  19
ATOM     19  O   UNL     1      11.678  56.223  36.098  1.00  0.00    -0.385 OA
ATOM     20  H   UNL     1      12.205  57.006  36.400  1.00  0.00     0.211 HD
ENDBRANCH  14  19
BRANCH  16  21
ATOM     21  O   UNL     1      12.277  53.640  36.948  1.00  0.00    -0.387 OA
ATOM     22  H   UNL     1      11.458  54.034  37.355  1.00  0.00     0.211 HD
ENDBRANCH  16  21
BRANCH  17  23
ATOM     23  C   UNL     1      15.758  52.617  35.552  1.00  0.00     0.191 C 
BRANCH  23  24
ATOM     24  O   UNL     1      15.114  51.710  36.412  1.00  0.00    -0.394 OA
ATOM     25  H   UNL     1      14.477  51.197  35.853  1.00  0.00     0.210 HD
ENDBRANCH  23  24
ENDBRANCH  17  23
BRANCH  18  26
ATOM     26  O   UNL     1      13.041  53.102  33.447  1.00  0.00    -0.387 OA
ATOM     27  H   UNL     1      13.691  53.706  33.002  1.00  0.00     0.211 HD
ENDBRANCH  18  26
ENDBRANCH  12  13
ENDBRANCH   7  12
BRANCH   4  28
ATOM     28  O   UNL     1      17.614  60.779  33.603  1.00  0.00    -0.365 OA
ATOM     29  H   UNL     1      17.910  61.140  32.725  1.00  0.00     0.214 HD
ENDBRANCH   4  28
BRANCH   8  30
ATOM     30  C   UNL     1      16.760  56.229  32.284  1.00  0.00     0.249 C 
BRANCH  30  31
ATOM     31  O   UNL     1      16.093  55.908  31.064  1.00  0.00    -0.461 OA
BRANCH  31  32
ATOM     32  C   UNL     1      14.936  55.112  30.994  1.00  0.00     0.338 C 
ATOM     33  O   UNL     1      14.964  53.903  31.366  1.00  0.00    -0.246 OA
BRANCH  32  34
ATOM     34  C   UNL     1      13.682  55.695  30.465  1.00  0.00     0.060 A 
ATOM     35  C   UNL     1      13.599  56.070  29.114  1.00  0.00     0.015 A 
ATOM     36  C   UNL     1      12.571  55.905  31.297  1.00  0.00     0.015 A 
ATOM     37  C   UNL     1      12.450  56.683  28.612  1.00  0.00     0.001 A 
ATOM     38  C   UNL     1      11.412  56.511  30.791  1.00  0.00     0.001 A 
ATOM     39  C   UNL     1      11.355  56.913  29.453  1.00  0.00     0.000 A 
ENDBRANCH  32  34
ENDBRANCH  31  32
ENDBRANCH  30  31
ENDBRANCH   8  30
TORSDOF 12
ENDMDL
MODEL 3
REMARK VINA RESULT:    -5.399      2.074      6.333
REMARK INTER + INTRA:         -10.016
REMARK INTER:                  -9.149
REMARK INTRA:                  -0.868
REMARK UNBOUND:                -1.619
REMARK SMILES C[C@]12C[C@]3(O)O[C@H](O1)[C@@]1(COC(=O)c4ccccc4)[C@@H]3C[C@]12O[C@@H]1O[C@@H](CO)[C@H](O)[C@@H](O)[C@H]1O
REMARK SMILES IDX 1 1 2 2 3 3 4 4 20 5 21 6 22 7 9 8 7 9 8 10 6 11 23 12 24 13
REMARK SMILES IDX 33 14 25 15 31 16 26 17 29 18 34 19 32 21 27 23 28 24 30 26
REMARK SMILES IDX 5 28 10 30 11 31 12 32 13 33 14 34 15 35 19 36 16 37 18 38
REMARK SMILES IDX 17 39
REMARK H PARENT 34 20 32 22 28 25 30 27 5 29
REMARK Flexibility Score: inf
ROOT
ATOM      1  C   UNL     1      15.406  57.433  29.608  1.00  0.00     0.046 C 
ATOM      2  C   UNL     1      14.638  56.335  30.321  1.00  0.00     0.104 C 
ATOM      3  C   UNL     1      15.129  54.915  29.851  1.00  0.00     0.104 C 
ATOM      4  C   UNL     1      14.282  53.927  30.726  1.00  0.00     0.175 C 
ATOM      5  C   UNL     1      14.330  54.345  32.230  1.00  0.00     0.070 C 
ATOM      6  C   UNL     1      15.495  55.283  32.567  1.00  0.00     0.050 C 
ATOM      7  C   UNL     1      14.665  56.416  31.902  1.00  0.00     0.115 C 
ATOM      8  C   UNL     1      13.421  55.558  32.152  1.00  0.00     0.096 C 
ATOM      9  C   UNL     1      12.669  55.445  30.838  1.00  0.00     0.267 C 
ATOM     10  O   UNL     1      13.267  56.398  29.978  1.00  0.00    -0.342 OA
ATOM     11  O   UNL     1      12.937  54.139  30.347  1.00  0.00    -0.320 OA
ENDROOT
BRANCH   7  12
ATOM     12  O   UNL     1      14.528  57.727  32.462  1.00  0.00    -0.339 OA
BRANCH  12  13
ATOM     13  C   UNL     1      15.544  58.149  33.370  1.00  0.00     0.282 C 
ATOM     14  C   UNL     1      16.744  58.828  32.636  1.00  0.00     0.202 C 
ATOM     15  O   UNL     1      14.974  59.032  34.329  1.00  0.00    -0.341 OA
ATOM     16  C   UNL     1      16.889  60.331  32.973  1.00  0.00     0.179 C 
ATOM     17  C   UNL     1      14.439  60.198  33.717  1.00  0.00     0.178 C 
ATOM     18  C   UNL     1      15.510  61.019  32.937  1.00  0.00     0.177 C 
BRANCH  14  19
ATOM     19  O   UNL     1      17.952  58.139  32.853  1.00  0.00    -0.385 OA
ATOM     20  H   UNL     1      18.603  58.431  32.166  1.00  0.00     0.211 HD
ENDBRANCH  14  19
BRANCH  16  21
ATOM     21  O   UNL     1      17.552  60.542  34.200  1.00  0.00    -0.387 OA
ATOM     22  H   UNL     1      18.170  59.781  34.375  1.00  0.00     0.211 HD
ENDBRANCH  16  21
BRANCH  17  23
ATOM     23  C   UNL     1      13.743  61.050  34.791  1.00  0.00     0.191 C 
BRANCH  23  24
ATOM     24  O   UNL     1      12.558  60.446  35.244  1.00  0.00    -0.394 OA
ATOM     25  H   UNL     1      11.819  61.061  35.004  1.00  0.00     0.210 HD
ENDBRANCH  23  24
ENDBRANCH  17  23
BRANCH  18  26
ATOM     26  O   UNL     1      15.100  61.125  31.597  1.00  0.00    -0.387 OA
ATOM     27  H   UNL     1      14.452  60.393  31.424  1.00  0.00     0.211 HD
ENDBRANCH  18  26
ENDBRANCH  12  13
ENDBRANCH   7  12
BRANCH   4  28
ATOM     28  O   UNL     1      14.653  52.589  30.519  1.00  0.00    -0.365 OA
ATOM     29  H   UNL     1      15.262  52.575  29.734  1.00  0.00     0.214 HD
ENDBRANCH   4  28
BRANCH   8  30
ATOM     30  C   UNL     1      12.563  55.831  33.399  1.00  0.00     0.249 C 
BRANCH  30  31
ATOM     31  O   UNL     1      11.912  54.630  33.814  1.00  0.00    -0.461 OA
BRANCH  31  32
ATOM     32  C   UNL     1      12.110  54.031  35.071  1.00  0.00     0.338 C 
ATOM     33  O   UNL     1      11.178  54.007  35.925  1.00  0.00    -0.246 OA
BRANCH  32  34
ATOM     34  C   UNL     1      13.428  53.440  35.396  1.00  0.00     0.060 A 
ATOM     35  C   UNL     1      13.919  52.364  34.639  1.00  0.00     0.015 A 
ATOM     36  C   UNL     1      14.194  53.921  36.469  1.00  0.00     0.015 A 
ATOM     37  C   UNL     1      15.128  51.750  34.971  1.00  0.00     0.001 A 
ATOM     38  C   UNL     1      15.414  53.311  36.797  1.00  0.00     0.001 A 
ATOM     39  C   UNL     1      15.875  52.217  36.058  1.00  0.00     0.000 A 
ENDBRANCH  32  34
ENDBRANCH  31  32
ENDBRANCH  30  31
ENDBRANCH   8  30
TORSDOF 12
ENDMDL
MODEL 4
REMARK VINA RESULT:    -5.324      2.022      6.641
REMARK INTER + INTRA:          -9.900
REMARK INTER:                  -8.687
REMARK INTRA:                  -1.213
REMARK UNBOUND:                -1.619
REMARK SMILES C[C@]12C[C@]3(O)O[C@H](O1)[C@@]1(COC(=O)c4ccccc4)[C@@H]3C[C@]12O[C@@H]1O[C@@H](CO)[C@H](O)[C@@H](O)[C@H]1O
REMARK SMILES IDX 1 1 2 2 3 3 4 4 20 5 21 6 22 7 9 8 7 9 8 10 6 11 23 12 24 13
REMARK SMILES IDX 33 14 25 15 31 16 26 17 29 18 34 19 32 21 27 23 28 24 30 26
REMARK SMILES IDX 5 28 10 30 11 31 12 32 13 33 14 34 15 35 19 36 16 37 18 38
REMARK SMILES IDX 17 39
REMARK H PARENT 34 20 32 22 28 25 30 27 5 29
REMARK Flexibility Score: inf
ROOT
ATOM      1  C   UNL     1      12.438  56.828  29.194  1.00  0.00     0.046 C 
ATOM      2  C   UNL     1      13.140  55.606  29.757  1.00  0.00     0.104 C 
ATOM      3  C   UNL     1      13.513  54.597  28.607  1.00  0.00     0.104 C 
ATOM      4  C   UNL     1      14.272  53.449  29.360  1.00  0.00     0.175 C 
ATOM      5  C   UNL     1      15.365  54.041  30.305  1.00  0.00     0.070 C 
ATOM      6  C   UNL     1      15.753  55.485  29.963  1.00  0.00     0.050 C 
ATOM      7  C   UNL     1      14.420  55.913  30.637  1.00  0.00     0.115 C 
ATOM      8  C   UNL     1      14.451  54.580  31.391  1.00  0.00     0.096 C 
ATOM      9  C   UNL     1      13.105  53.907  31.189  1.00  0.00     0.267 C 
ATOM     10  O   UNL     1      12.269  54.897  30.619  1.00  0.00    -0.342 OA
ATOM     11  O   UNL     1      13.324  52.876  30.237  1.00  0.00    -0.320 OA
ENDROOT
BRANCH   7  12
ATOM     12  O   UNL     1      14.310  57.027  31.530  1.00  0.00    -0.339 OA
BRANCH  12  13
ATOM     13  C   UNL     1      15.110  58.171  31.237  1.00  0.00     0.282 C 
ATOM     14  C   UNL     1      14.335  59.507  31.476  1.00  0.00     0.202 C 
ATOM     15  O   UNL     1      16.294  58.127  32.023  1.00  0.00    -0.341 OA
ATOM     16  C   UNL     1      14.920  60.347  32.636  1.00  0.00     0.179 C 
ATOM     17  C   UNL     1      16.002  58.157  33.414  1.00  0.00     0.178 C 
ATOM     18  C   UNL     1      15.230  59.441  33.844  1.00  0.00     0.177 C 
BRANCH  14  19
ATOM     19  O   UNL     1      14.225  60.270  30.299  1.00  0.00    -0.385 OA
ATOM     20  H   UNL     1      14.900  60.995  30.336  1.00  0.00     0.211 HD
ENDBRANCH  14  19
BRANCH  16  21
ATOM     21  O   UNL     1      16.044  61.099  32.237  1.00  0.00    -0.387 OA
ATOM     22  H   UNL     1      16.599  61.309  33.035  1.00  0.00     0.211 HD
ENDBRANCH  16  21
BRANCH  17  23
ATOM     23  C   UNL     1      17.312  57.993  34.202  1.00  0.00     0.191 C 
BRANCH  23  24
ATOM     24  O   UNL     1      18.426  57.928  33.347  1.00  0.00    -0.394 OA
ATOM     25  H   UNL     1      18.148  57.391  32.562  1.00  0.00     0.210 HD
ENDBRANCH  23  24
ENDBRANCH  17  23
BRANCH  18  26
ATOM     26  O   UNL     1      14.016  59.053  34.434  1.00  0.00    -0.387 OA
ATOM     27  H   UNL     1      13.739  58.197  34.013  1.00  0.00     0.211 HD
ENDBRANCH  18  26
ENDBRANCH  12  13
ENDBRANCH   7  12
BRANCH   4  28
ATOM     28  O   UNL     1      14.780  52.485  28.475  1.00  0.00    -0.365 OA
ATOM     29  H   UNL     1      14.012  51.925  28.185  1.00  0.00     0.214 HD
ENDBRANCH   4  28
BRANCH   8  30
ATOM     30  C   UNL     1      15.018  54.542  32.820  1.00  0.00     0.249 C 
BRANCH  30  31
ATOM     31  O   UNL     1      14.637  53.326  33.462  1.00  0.00    -0.461 OA
BRANCH  31  32
ATOM     32  C   UNL     1      14.735  53.113  34.849  1.00  0.00     0.338 C 
ATOM     33  O   UNL     1      15.764  52.571  35.345  1.00  0.00    -0.246 OA
BRANCH  32  34
ATOM     34  C   UNL     1      13.613  53.515  35.727  1.00  0.00     0.060 A 
ATOM     35  C   UNL     1      13.804  53.592  37.117  1.00  0.00     0.015 A 
ATOM     36  C   UNL     1      12.344  53.801  35.200  1.00  0.00     0.015 A 
ATOM     37  C   UNL     1      12.742  53.904  37.968  1.00  0.00     0.001 A 
ATOM     38  C   UNL     1      11.279  54.125  36.053  1.00  0.00     0.001 A 
ATOM     39  C   UNL     1      11.473  54.163  37.437  1.00  0.00     0.000 A 
ENDBRANCH  32  34
ENDBRANCH  31  32
ENDBRANCH  30  31
ENDBRANCH   8  30
TORSDOF 12
ENDMDL
MODEL 5
REMARK VINA RESULT:    -5.194      6.014     10.703
REMARK INTER + INTRA:          -9.697
REMARK INTER:                  -8.719
REMARK INTRA:                  -0.978
REMARK UNBOUND:                -1.619
REMARK SMILES C[C@]12C[C@]3(O)O[C@H](O1)[C@@]1(COC(=O)c4ccccc4)[C@@H]3C[C@]12O[C@@H]1O[C@@H](CO)[C@H](O)[C@@H](O)[C@H]1O
REMARK SMILES IDX 1 1 2 2 3 3 4 4 20 5 21 6 22 7 9 8 7 9 8 10 6 11 23 12 24 13
REMARK SMILES IDX 33 14 25 15 31 16 26 17 29 18 34 19 32 21 27 23 28 24 30 26
REMARK SMILES IDX 5 28 10 30 11 31 12 32 13 33 14 34 15 35 19 36 16 37 18 38
REMARK SMILES IDX 17 39
REMARK H PARENT 34 20 32 22 28 25 30 27 5 29
REMARK Flexibility Score: inf
ROOT
ATOM      1  C   UNL     1      11.988  44.861  31.193  1.00  0.00     0.046 C 
ATOM      2  C   UNL     1      12.118  45.761  32.408  1.00  0.00     0.104 C 
ATOM      3  C   UNL     1      11.512  45.068  33.685  1.00  0.00     0.104 C 
ATOM      4  C   UNL     1      11.790  46.102  34.830  1.00  0.00     0.175 C 
ATOM      5  C   UNL     1      13.277  46.576  34.794  1.00  0.00     0.070 C 
ATOM      6  C   UNL     1      14.198  45.639  34.003  1.00  0.00     0.050 C 
ATOM      7  C   UNL     1      13.588  46.263  32.717  1.00  0.00     0.115 C 
ATOM      8  C   UNL     1      13.195  47.472  33.571  1.00  0.00     0.096 C 
ATOM      9  C   UNL     1      11.719  47.741  33.337  1.00  0.00     0.267 C 
ATOM     10  O   UNL     1      11.363  46.944  32.221  1.00  0.00    -0.342 OA
ATOM     11  O   UNL     1      11.047  47.255  34.490  1.00  0.00    -0.320 OA
ENDROOT
BRANCH   7  12
ATOM     12  O   UNL     1      14.368  46.647  31.580  1.00  0.00    -0.339 OA
BRANCH  12  13
ATOM     13  C   UNL     1      15.618  45.982  31.400  1.00  0.00     0.282 C 
ATOM     14  C   UNL     1      15.491  44.733  30.470  1.00  0.00     0.202 C 
ATOM     15  O   UNL     1      16.567  46.905  30.880  1.00  0.00    -0.341 OA
ATOM     16  C   UNL     1      16.256  44.893  29.134  1.00  0.00     0.179 C 
ATOM     17  C   UNL     1      16.168  47.410  29.613  1.00  0.00     0.178 C 
ATOM     18  C   UNL     1      16.000  46.292  28.539  1.00  0.00     0.177 C 
BRANCH  14  19
ATOM     19  O   UNL     1      15.860  43.546  31.129  1.00  0.00    -0.385 OA
ATOM     20  H   UNL     1      15.786  42.797  30.485  1.00  0.00     0.211 HD
ENDBRANCH  14  19
BRANCH  16  21
ATOM     21  O   UNL     1      17.633  44.621  29.272  1.00  0.00    -0.387 OA
ATOM     22  H   UNL     1      18.142  45.155  28.604  1.00  0.00     0.211 HD
ENDBRANCH  16  21
BRANCH  17  23
ATOM     23  C   UNL     1      17.175  48.480  29.163  1.00  0.00     0.191 C 
BRANCH  23  24
ATOM     24  O   UNL     1      16.827  49.755  29.643  1.00  0.00    -0.394 OA
ATOM     25  H   UNL     1      16.140  49.614  30.343  1.00  0.00     0.210 HD
ENDBRANCH  23  24
ENDBRANCH  17  23
BRANCH  18  26
ATOM     26  O   UNL     1      14.682  46.336  28.054  1.00  0.00    -0.387 OA
ATOM     27  H   UNL     1      14.719  46.671  27.120  1.00  0.00     0.211 HD
ENDBRANCH  18  26
ENDBRANCH  12  13
ENDBRANCH   7  12
BRANCH   4  28
ATOM     28  O   UNL     1      11.403  45.613  36.087  1.00  0.00    -0.365 OA
ATOM     29  H   UNL     1      12.195  45.156  36.477  1.00  0.00     0.214 HD
ENDBRANCH   4  28
BRANCH   8  30
ATOM     30  C   UNL     1      14.112  48.707  33.586  1.00  0.00     0.249 C 
BRANCH  30  31
ATOM     31  O   UNL     1      13.342  49.888  33.364  1.00  0.00    -0.461 OA
BRANCH  31  32
ATOM     32  C   UNL     1      13.905  51.162  33.175  1.00  0.00     0.338 C 
ATOM     33  O   UNL     1      14.214  51.562  32.016  1.00  0.00    -0.246 OA
BRANCH  32  34
ATOM     34  C   UNL     1      14.152  52.030  34.349  1.00  0.00     0.060 A 
ATOM     35  C   UNL     1      15.311  51.850  35.122  1.00  0.00     0.015 A 
ATOM     36  C   UNL     1      13.234  53.023  34.723  1.00  0.00     0.015 A 
ATOM     37  C   UNL     1      15.529  52.613  36.270  1.00  0.00     0.001 A 
ATOM     38  C   UNL     1      13.457  53.797  35.871  1.00  0.00     0.001 A 
ATOM     39  C   UNL     1      14.596  53.583  36.653  1.00  0.00     0.000 A 
ENDBRANCH  32  34
ENDBRANCH  31  32
ENDBRANCH  30  31
ENDBRANCH   8  30
TORSDOF 12
ENDMDL
MODEL 6
REMARK VINA RESULT:    -5.094      2.010      5.289
REMARK INTER + INTRA:          -9.542
REMARK INTER:                  -7.562
REMARK INTRA:                  -1.981
REMARK UNBOUND:                -1.619
REMARK SMILES C[C@]12C[C@]3(O)O[C@H](O1)[C@@]1(COC(=O)c4ccccc4)[C@@H]3C[C@]12O[C@@H]1O[C@@H](CO)[C@H](O)[C@@H](O)[C@H]1O
REMARK SMILES IDX 1 1 2 2 3 3 4 4 20 5 21 6 22 7 9 8 7 9 8 10 6 11 23 12 24 13
REMARK SMILES IDX 33 14 25 15 31 16 26 17 29 18 34 19 32 21 27 23 28 24 30 26
REMARK SMILES IDX 5 28 10 30 11 31 12 32 13 33 14 34 15 35 19 36 16 37 18 38
REMARK SMILES IDX 17 39
REMARK H PARENT 34 20 32 22 28 25 30 27 5 29
REMARK Flexibility Score: inf
ROOT
ATOM      1  C   UNL     1      17.055  56.217  32.630  1.00  0.00     0.046 C 
ATOM      2  C   UNL     1      16.168  57.389  33.010  1.00  0.00     0.104 C 
ATOM      3  C   UNL     1      16.852  58.754  32.627  1.00  0.00     0.104 C 
ATOM      4  C   UNL     1      15.780  59.826  33.029  1.00  0.00     0.175 C 
ATOM      5  C   UNL     1      14.376  59.437  32.467  1.00  0.00     0.070 C 
ATOM      6  C   UNL     1      14.436  58.414  31.326  1.00  0.00     0.050 C 
ATOM      7  C   UNL     1      14.700  57.339  32.417  1.00  0.00     0.115 C 
ATOM      8  C   UNL     1      14.062  58.301  33.424  1.00  0.00     0.096 C 
ATOM      9  C   UNL     1      15.021  58.447  34.592  1.00  0.00     0.267 C 
ATOM     10  O   UNL     1      15.991  57.431  34.414  1.00  0.00    -0.342 OA
ATOM     11  O   UNL     1      15.639  59.716  34.431  1.00  0.00    -0.320 OA
ENDROOT
BRANCH   7  12
ATOM     12  O   UNL     1      14.066  56.056  32.431  1.00  0.00    -0.339 OA
BRANCH  12  13
ATOM     13  C   UNL     1      13.726  55.491  31.166  1.00  0.00     0.282 C 
ATOM     14  C   UNL     1      14.839  54.531  30.633  1.00  0.00     0.202 C 
ATOM     15  O   UNL     1      12.483  54.809  31.278  1.00  0.00    -0.341 OA
ATOM     16  C   UNL     1      14.379  53.056  30.555  1.00  0.00     0.179 C 
ATOM     17  C   UNL     1      12.551  53.743  32.215  1.00  0.00     0.178 C 
ATOM     18  C   UNL     1      13.615  52.669  31.837  1.00  0.00     0.177 C 
BRANCH  14  19
ATOM     19  O   UNL     1      15.364  54.967  29.402  1.00  0.00    -0.385 OA
ATOM     20  H   UNL     1      14.670  55.502  28.941  1.00  0.00     0.211 HD
ENDBRANCH  14  19
BRANCH  16  21
ATOM     21  O   UNL     1      13.627  52.791  29.391  1.00  0.00    -0.387 OA
ATOM     22  H   UNL     1      14.243  52.524  28.656  1.00  0.00     0.211 HD
ENDBRANCH  16  21
BRANCH  17  23
ATOM     23  C   UNL     1      11.152  53.125  32.370  1.00  0.00     0.191 C 
BRANCH  23  24
ATOM     24  O   UNL     1      10.876  52.795  33.709  1.00  0.00    -0.394 OA
ATOM     25  H   UNL     1      10.908  51.807  33.767  1.00  0.00     0.210 HD
ENDBRANCH  23  24
ENDBRANCH  17  23
BRANCH  18  26
ATOM     26  O   UNL     1      14.537  52.565  32.891  1.00  0.00    -0.387 OA
ATOM     27  H   UNL     1      15.131  53.359  32.848  1.00  0.00     0.211 HD
ENDBRANCH  18  26
ENDBRANCH  12  13
ENDBRANCH   7  12
BRANCH   4  28
ATOM     28  O   UNL     1      16.173  61.124  32.668  1.00  0.00    -0.365 OA
ATOM     29  H   UNL     1      16.998  61.332  33.182  1.00  0.00     0.214 HD
ENDBRANCH   4  28
BRANCH   8  30
ATOM     30  C   UNL     1      12.578  58.125  33.787  1.00  0.00     0.249 C 
BRANCH  30  31
ATOM     31  O   UNL     1      12.459  57.417  35.020  1.00  0.00    -0.461 OA
BRANCH  31  32
ATOM     32  C   UNL     1      11.944  56.112  35.123  1.00  0.00     0.338 C 
ATOM     33  O   UNL     1      10.879  55.792  34.520  1.00  0.00    -0.246 OA
BRANCH  32  34
ATOM     34  C   UNL     1      12.650  55.115  35.959  1.00  0.00     0.060 A 
ATOM     35  C   UNL     1      13.974  54.757  35.654  1.00  0.00     0.015 A 
ATOM     36  C   UNL     1      12.013  54.496  37.044  1.00  0.00     0.015 A 
ATOM     37  C   UNL     1      14.634  53.770  36.389  1.00  0.00     0.001 A 
ATOM     38  C   UNL     1      12.678  53.512  37.789  1.00  0.00     0.001 A 
ATOM     39  C   UNL     1      13.983  53.138  37.454  1.00  0.00     0.000 A 
ENDBRANCH  32  34
ENDBRANCH  31  32
ENDBRANCH  30  31
ENDBRANCH   8  30
TORSDOF 12
ENDMDL
MODEL 7
REMARK VINA RESULT:    -5.089      4.228      8.288
REMARK INTER + INTRA:          -9.534
REMARK INTER:                  -8.011
REMARK INTRA:                  -1.524
REMARK UNBOUND:                -1.619
REMARK SMILES C[C@]12C[C@]3(O)O[C@H](O1)[C@@]1(COC(=O)c4ccccc4)[C@@H]3C[C@]12O[C@@H]1O[C@@H](CO)[C@H](O)[C@@H](O)[C@H]1O
REMARK SMILES IDX 1 1 2 2 3 3 4 4 20 5 21 6 22 7 9 8 7 9 8 10 6 11 23 12 24 13
REMARK SMILES IDX 33 14 25 15 31 16 26 17 29 18 34 19 32 21 27 23 28 24 30 26
REMARK SMILES IDX 5 28 10 30 11 31 12 32 13 33 14 34 15 35 19 36 16 37 18 38
REMARK SMILES IDX 17 39
REMARK H PARENT 34 20 32 22 28 25 30 27 5 29
REMARK Flexibility Score: inf
ROOT
ATOM      1  C   UNL     1      14.017  50.738  28.979  1.00  0.00     0.046 C 
ATOM      2  C   UNL     1      13.656  51.338  30.326  1.00  0.00     0.104 C 
ATOM      3  C   UNL     1      12.376  52.248  30.207  1.00  0.00     0.104 C 
ATOM      4  C   UNL     1      12.124  52.719  31.681  1.00  0.00     0.175 C 
ATOM      5  C   UNL     1      12.166  51.504  32.661  1.00  0.00     0.070 C 
ATOM      6  C   UNL     1      11.986  50.150  31.965  1.00  0.00     0.050 C 
ATOM      7  C   UNL     1      13.461  50.290  31.497  1.00  0.00     0.115 C 
ATOM      8  C   UNL     1      13.666  51.268  32.657  1.00  0.00     0.096 C 
ATOM      9  C   UNL     1      14.296  52.528  32.090  1.00  0.00     0.267 C 
ATOM     10  O   UNL     1      14.692  52.192  30.773  1.00  0.00    -0.342 OA
ATOM     11  O   UNL     1      13.253  53.492  32.033  1.00  0.00    -0.320 OA
ENDROOT
BRANCH   7  12
ATOM     12  O   UNL     1      14.406  49.215  31.534  1.00  0.00    -0.339 OA
BRANCH  12  13
ATOM     13  C   UNL     1      13.963  47.949  31.048  1.00  0.00     0.282 C 
ATOM     14  C   UNL     1      14.936  47.358  29.976  1.00  0.00     0.202 C 
ATOM     15  O   UNL     1      13.814  47.054  32.143  1.00  0.00    -0.341 OA
ATOM     16  C   UNL     1      15.646  46.067  30.450  1.00  0.00     0.179 C 
ATOM     17  C   UNL     1      15.047  46.842  32.819  1.00  0.00     0.178 C 
ATOM     18  C   UNL     1      16.149  46.238  31.897  1.00  0.00     0.177 C 
BRANCH  14  19
ATOM     19  O   UNL     1      14.298  47.163  28.737  1.00  0.00    -0.385 OA
ATOM     20  H   UNL     1      13.319  47.156  28.890  1.00  0.00     0.211 HD
ENDBRANCH  14  19
BRANCH  16  21
ATOM     21  O   UNL     1      14.830  44.925  30.305  1.00  0.00    -0.387 OA
ATOM     22  H   UNL     1      13.877  45.206  30.251  1.00  0.00     0.211 HD
ENDBRANCH  16  21
BRANCH  17  23
ATOM     23  C   UNL     1      14.793  45.960  34.053  1.00  0.00     0.191 C 
BRANCH  23  24
ATOM     24  O   UNL     1      13.687  46.410  34.793  1.00  0.00    -0.394 OA
ATOM     25  H   UNL     1      13.649  47.393  34.674  1.00  0.00     0.210 HD
ENDBRANCH  23  24
ENDBRANCH  17  23
BRANCH  18  26
ATOM     26  O   UNL     1      17.248  47.112  31.887  1.00  0.00    -0.387 OA
ATOM     27  H   UNL     1      17.983  46.673  32.389  1.00  0.00     0.211 HD
ENDBRANCH  18  26
ENDBRANCH  12  13
ENDBRANCH   7  12
BRANCH   4  28
ATOM     28  O   UNL     1      10.947  53.474  31.798  1.00  0.00    -0.365 OA
ATOM     29  H   UNL     1      10.257  52.877  32.193  1.00  0.00     0.214 HD
ENDBRANCH   4  28
BRANCH   8  30
ATOM     30  C   UNL     1      14.264  50.749  33.975  1.00  0.00     0.249 C 
BRANCH  30  31
ATOM     31  O   UNL     1      15.391  51.543  34.344  1.00  0.00    -0.461 OA
BRANCH  31  32
ATOM     32  C   UNL     1      15.511  52.198  35.583  1.00  0.00     0.338 C 
ATOM     33  O   UNL     1      16.603  52.170  36.221  1.00  0.00    -0.246 OA
BRANCH  32  34
ATOM     34  C   UNL     1      14.341  52.909  36.147  1.00  0.00     0.060 A 
ATOM     35  C   UNL     1      13.793  54.007  35.464  1.00  0.00     0.015 A 
ATOM     36  C   UNL     1      13.777  52.522  37.372  1.00  0.00     0.015 A 
ATOM     37  C   UNL     1      12.733  54.732  36.011  1.00  0.00     0.001 A 
ATOM     38  C   UNL     1      12.705  53.243  37.917  1.00  0.00     0.001 A 
ATOM     39  C   UNL     1      12.192  54.356  37.245  1.00  0.00     0.000 A 
ENDBRANCH  32  34
ENDBRANCH  31  32
ENDBRANCH  30  31
ENDBRANCH   8  30
TORSDOF 12
ENDMDL
MODEL 8
REMARK VINA RESULT:    -5.039      3.134      6.407
REMARK INTER + INTRA:          -9.457
REMARK INTER:                  -7.833
REMARK INTRA:                  -1.624
REMARK UNBOUND:                -1.619
REMARK SMILES C[C@]12C[C@]3(O)O[C@H](O1)[C@@]1(COC(=O)c4ccccc4)[C@@H]3C[C@]12O[C@@H]1O[C@@H](CO)[C@H](O)[C@@H](O)[C@H]1O
REMARK SMILES IDX 1 1 2 2 3 3 4 4 20 5 21 6 22 7 9 8 7 9 8 10 6 11 23 12 24 13
REMARK SMILES IDX 33 14 25 15 31 16 26 17 29 18 34 19 32 21 27 23 28 24 30 26
REMARK SMILES IDX 5 28 10 30 11 31 12 32 13 33 14 34 15 35 19 36 16 37 18 38
REMARK SMILES IDX 17 39
REMARK H PARENT 34 20 32 22 28 25 30 27 5 29
REMARK Flexibility Score: inf
ROOT
ATOM      1  C   UNL     1      15.705  55.949  34.233  1.00  0.00     0.046 C 
ATOM      2  C   UNL     1      14.738  54.818  34.534  1.00  0.00     0.104 C 
ATOM      3  C   UNL     1      13.684  55.258  35.618  1.00  0.00     0.104 C 
ATOM      4  C   UNL     1      12.750  54.006  35.749  1.00  0.00     0.175 C 
ATOM      5  C   UNL     1      12.302  53.504  34.340  1.00  0.00     0.070 C 
ATOM      6  C   UNL     1      12.474  54.552  33.234  1.00  0.00     0.050 C 
ATOM      7  C   UNL     1      13.992  54.219  33.272  1.00  0.00     0.115 C 
ATOM      8  C   UNL     1      13.613  52.876  33.902  1.00  0.00     0.096 C 
ATOM      9  C   UNL     1      14.447  52.706  35.159  1.00  0.00     0.267 C 
ATOM     10  O   UNL     1      15.432  53.721  35.099  1.00  0.00    -0.342 OA
ATOM     11  O   UNL     1      13.570  52.968  36.246  1.00  0.00    -0.320 OA
ENDROOT
BRANCH   7  12
ATOM     12  O   UNL     1      14.792  54.050  32.097  1.00  0.00    -0.339 OA
BRANCH  12  13
ATOM     13  C   UNL     1      14.486  54.885  30.982  1.00  0.00     0.282 C 
ATOM     14  C   UNL     1      15.772  55.343  30.221  1.00  0.00     0.202 C 
ATOM     15  O   UNL     1      13.602  54.193  30.109  1.00  0.00    -0.341 OA
ATOM     16  C   UNL     1      15.864  54.766  28.788  1.00  0.00     0.179 C 
ATOM     17  C   UNL     1      14.190  53.003  29.601  1.00  0.00     0.178 C 
ATOM     18  C   UNL     1      15.496  53.269  28.792  1.00  0.00     0.177 C 
BRANCH  14  19
ATOM     19  O   UNL     1      15.911  56.743  30.217  1.00  0.00    -0.385 OA
ATOM     20  H   UNL     1      15.735  57.069  29.298  1.00  0.00     0.211 HD
ENDBRANCH  14  19
BRANCH  16  21
ATOM     21  O   UNL     1      15.087  55.499  27.866  1.00  0.00    -0.387 OA
ATOM     22  H   UNL     1      14.824  54.905  27.113  1.00  0.00     0.211 HD
ENDBRANCH  16  21
BRANCH  17  23
ATOM     23  C   UNL     1      13.146  52.251  28.759  1.00  0.00     0.191 C 
BRANCH  23  24
ATOM     24  O   UNL     1      13.047  50.902  29.141  1.00  0.00    -0.394 OA
ATOM     25  H   UNL     1      13.804  50.431  28.710  1.00  0.00     0.210 HD
ENDBRANCH  23  24
ENDBRANCH  17  23
BRANCH  18  26
ATOM     26  O   UNL     1      16.545  52.554  29.393  1.00  0.00    -0.387 OA
ATOM     27  H   UNL     1      17.387  52.823  28.941  1.00  0.00     0.211 HD
ENDBRANCH  18  26
ENDBRANCH  12  13
ENDBRANCH   7  12
BRANCH   4  28
ATOM     28  O   UNL     1      11.669  54.244  36.613  1.00  0.00    -0.365 OA
ATOM     29  H   UNL     1      10.905  53.704  36.277  1.00  0.00     0.214 HD
ENDBRANCH   4  28
BRANCH   8  30
ATOM     30  C   UNL     1      13.490  51.636  33.000  1.00  0.00     0.249 C 
BRANCH  30  31
ATOM     31  O   UNL     1      14.680  50.852  33.086  1.00  0.00    -0.461 OA
BRANCH  31  32
ATOM     32  C   UNL     1      15.006  49.829  32.178  1.00  0.00     0.338 C 
ATOM     33  O   UNL     1      15.369  50.108  30.999  1.00  0.00    -0.246 OA
BRANCH  32  34
ATOM     34  C   UNL     1      14.906  48.416  32.608  1.00  0.00     0.060 A 
ATOM     35  C   UNL     1      13.840  48.006  33.424  1.00  0.00     0.015 A 
ATOM     36  C   UNL     1      15.875  47.473  32.233  1.00  0.00     0.015 A 
ATOM     37  C   UNL     1      13.764  46.694  33.895  1.00  0.00     0.001 A 
ATOM     38  C   UNL     1      15.795  46.152  32.697  1.00  0.00     0.001 A 
ATOM     39  C   UNL     1      14.748  45.765  33.539  1.00  0.00     0.000 A 
ENDBRANCH  32  34
ENDBRANCH  31  32
ENDBRANCH  30  31
ENDBRANCH   8  30
TORSDOF 12
ENDMDL
MODEL 9
REMARK VINA RESULT:    -4.944      1.767      6.949
REMARK INTER + INTRA:          -9.308
REMARK INTER:                  -8.316
REMARK INTRA:                  -0.992
REMARK UNBOUND:                -1.619
REMARK SMILES C[C@]12C[C@]3(O)O[C@H](O1)[C@@]1(COC(=O)c4ccccc4)[C@@H]3C[C@]12O[C@@H]1O[C@@H](CO)[C@H](O)[C@@H](O)[C@H]1O
REMARK SMILES IDX 1 1 2 2 3 3 4 4 20 5 21 6 22 7 9 8 7 9 8 10 6 11 23 12 24 13
REMARK SMILES IDX 33 14 25 15 31 16 26 17 29 18 34 19 32 21 27 23 28 24 30 26
REMARK SMILES IDX 5 28 10 30 11 31 12 32 13 33 14 34 15 35 19 36 16 37 18 38
REMARK SMILES IDX 17 39
REMARK H PARENT 34 20 32 22 28 25 30 27 5 29
REMARK Flexibility Score: inf
ROOT
ATOM      1  C   UNL     1      14.480  51.400  33.235  1.00  0.00     0.046 C 
ATOM      2  C   UNL     1      13.981  52.578  34.052  1.00  0.00     0.104 C 
ATOM      3  C   UNL     1      14.533  52.511  35.525  1.00  0.00     0.104 C 
ATOM      4  C   UNL     1      13.973  53.818  36.185  1.00  0.00     0.175 C 
ATOM      5  C   UNL     1      14.247  55.056  35.273  1.00  0.00     0.070 C 
ATOM      6  C   UNL     1      15.342  54.814  34.228  1.00  0.00     0.050 C 
ATOM      7  C   UNL     1      14.284  54.002  33.430  1.00  0.00     0.115 C 
ATOM      8  C   UNL     1      13.209  54.774  34.201  1.00  0.00     0.096 C 
ATOM      9  C   UNL     1      12.249  53.757  34.792  1.00  0.00     0.267 C 
ATOM     10  O   UNL     1      12.571  52.527  34.169  1.00  0.00    -0.342 OA
ATOM     11  O   UNL     1      12.567  53.679  36.174  1.00  0.00    -0.320 OA
ENDROOT
BRANCH   7  12
ATOM     12  O   UNL     1      14.108  54.115  32.014  1.00  0.00    -0.339 OA
BRANCH  12  13
ATOM     13  C   UNL     1      15.285  54.299  31.228  1.00  0.00     0.282 C 
ATOM     14  C   UNL     1      15.159  53.638  29.818  1.00  0.00     0.202 C 
ATOM     15  O   UNL     1      15.555  55.690  31.112  1.00  0.00    -0.341 OA
ATOM     16  C   UNL     1      15.154  54.669  28.665  1.00  0.00     0.179 C 
ATOM     17  C   UNL     1      14.497  56.378  30.459  1.00  0.00     0.178 C 
ATOM     18  C   UNL     1      14.232  55.854  29.015  1.00  0.00     0.177 C 
BRANCH  14  19
ATOM     19  O   UNL     1      16.138  52.648  29.612  1.00  0.00    -0.385 OA
ATOM     20  H   UNL     1      16.706  52.927  28.850  1.00  0.00     0.211 HD
ENDBRANCH  14  19
BRANCH  16  21
ATOM     21  O   UNL     1      16.455  55.095  28.323  1.00  0.00    -0.387 OA
ATOM     22  H   UNL     1      16.995  55.201  29.152  1.00  0.00     0.211 HD
ENDBRANCH  16  21
BRANCH  17  23
ATOM     23  C   UNL     1      14.801  57.885  30.467  1.00  0.00     0.191 C 
BRANCH  23  24
ATOM     24  O   UNL     1      16.114  58.146  30.898  1.00  0.00    -0.394 OA
ATOM     25  H   UNL     1      16.191  59.130  30.987  1.00  0.00     0.210 HD
ENDBRANCH  23  24
ENDBRANCH  17  23
BRANCH  18  26
ATOM     26  O   UNL     1      12.899  55.419  28.937  1.00  0.00    -0.387 OA
ATOM     27  H   UNL     1      12.343  56.064  29.448  1.00  0.00     0.211 HD
ENDBRANCH  18  26
ENDBRANCH  12  13
ENDBRANCH   7  12
BRANCH   4  28
ATOM     28  O   UNL     1      14.446  53.990  37.495  1.00  0.00    -0.365 OA
ATOM     29  H   UNL     1      15.299  54.497  37.432  1.00  0.00     0.214 HD
ENDBRANCH   4  28
BRANCH   8  30
ATOM     30  C   UNL     1      12.567  56.012  33.552  1.00  0.00     0.249 C 
BRANCH  30  31
ATOM     31  O   UNL     1      12.816  57.166  34.353  1.00  0.00    -0.461 OA
BRANCH  31  32
ATOM     32  C   UNL     1      13.138  58.428  33.823  1.00  0.00     0.338 C 
ATOM     33  O   UNL     1      12.365  58.994  32.997  1.00  0.00    -0.246 OA
BRANCH  32  34
ATOM     34  C   UNL     1      14.401  59.086  34.227  1.00  0.00     0.060 A 
ATOM     35  C   UNL     1      14.423  60.469  34.473  1.00  0.00     0.015 A 
ATOM     36  C   UNL     1      15.594  58.357  34.347  1.00  0.00     0.015 A 
ATOM     37  C   UNL     1      15.617  61.120  34.789  1.00  0.00     0.001 A 
ATOM     38  C   UNL     1      16.792  59.008  34.674  1.00  0.00     0.001 A 
ATOM     39  C   UNL     1      16.807  60.391  34.881  1.00  0.00     0.000 A 
ENDBRANCH  32  34
ENDBRANCH  31  32
ENDBRANCH  30  31
ENDBRANCH   8  30
TORSDOF 12
ENDMDL
