MODEL 1
REMARK VINA RESULT:    -5.822      0.000      0.000
REMARK INTER + INTRA:          -7.416
REMARK INTER:                  -7.013
REMARK INTRA:                  -0.403
REMARK UNBOUND:                -0.403
REMARK SMILES O=c1c(O)c(-c2ccc(O)cc2O)oc2cc(O)cc(O)c12
REMARK SMILES IDX 5 1 3 2 2 3 1 4 22 5 20 6 19 7 17 8 16 9 15 10 14 11 6 12
REMARK SMILES IDX 8 13 7 14 9 15 11 16 12 17 10 18 13 20 4 22 21 24 18 26
REMARK H PARENT 10 19 13 21 4 23 21 25 18 27
REMARK Flexibility Score: inf
ROOT
ATOM      1  C   UNL     1      -3.704  39.612  20.039  1.00  0.00     0.184 A 
ATOM      2  C   UNL     1      -3.729  39.931  18.671  1.00  0.00     0.208 A 
ATOM      3  C   UNL     1      -2.893  39.226  17.791  1.00  0.00     0.238 A 
ATOM      4  O   UNL     1      -2.963  39.477  16.560  1.00  0.00    -0.285 OA
ATOM      5  C   UNL     1      -2.027  38.225  18.293  1.00  0.00     0.111 A 
ATOM      6  C   UNL     1      -1.108  37.474  17.499  1.00  0.00     0.134 A 
ATOM      7  C   UNL     1      -0.392  36.421  18.081  1.00  0.00     0.093 A 
ATOM      8  C   UNL     1      -0.514  36.132  19.442  1.00  0.00     0.123 A 
ATOM      9  C   UNL     1      -1.364  36.897  20.238  1.00  0.00     0.094 A 
ATOM     10  C   UNL     1      -2.119  37.931  19.680  1.00  0.00     0.146 A 
ATOM     11  O   UNL     1      -2.925  38.628  20.472  1.00  0.00    -0.451 OA
ENDROOT
BRANCH   1  12
ATOM     12  C   UNL     1      -4.541  40.333  21.025  1.00  0.00     0.063 A 
ATOM     13  C   UNL     1      -6.656  40.606  22.197  1.00  0.00     0.047 A 
ATOM     14  C   UNL     1      -5.857  39.911  21.287  1.00  0.00     0.020 A 
ATOM     15  C   UNL     1      -6.159  41.740  22.850  1.00  0.00     0.119 A 
ATOM     16  C   UNL     1      -4.857  42.175  22.586  1.00  0.00     0.093 A 
ATOM     17  C   UNL     1      -4.046  41.482  21.676  1.00  0.00     0.130 A 
BRANCH  15  18
ATOM     18  O   UNL     1      -6.948  42.441  23.759  1.00  0.00    -0.508 OA
ATOM     19  H   UNL     1      -7.312  43.362  23.543  1.00  0.00     0.293 HD
ENDBRANCH  15  18
BRANCH  17  20
ATOM     20  O   UNL     1      -2.747  41.925  21.428  1.00  0.00    -0.507 OA
ATOM     21  H   UNL     1      -1.979  41.698  22.049  1.00  0.00     0.293 HD
ENDBRANCH  17  20
ENDBRANCH   1  12
BRANCH   2  22
ATOM     22  O   UNL     1      -4.602  40.914  18.197  1.00  0.00    -0.502 OA
ATOM     23  H   UNL     1      -5.609  40.818  18.251  1.00  0.00     0.293 HD
ENDBRANCH   2  22
BRANCH   6  24
ATOM     24  O   UNL     1      -0.843  37.740  16.152  1.00  0.00    -0.507 OA
ATOM     25  H   UNL     1       0.005  38.160  15.804  1.00  0.00     0.293 HD
ENDBRANCH   6  24
BRANCH   8  26
ATOM     26  O   UNL     1       0.214  35.092  20.016  1.00  0.00    -0.508 OA
ATOM     27  H   UNL     1       0.481  34.274  19.481  1.00  0.00     0.293 HD
ENDBRANCH   8  26
TORSDOF 6
ENDMDL
MODEL 2
REMARK VINA RESULT:    -5.573      1.966      6.478
REMARK INTER + INTRA:          -7.116
REMARK INTER:                  -6.643
REMARK INTRA:                  -0.472
REMARK UNBOUND:                -0.403
REMARK SMILES O=c1c(O)c(-c2ccc(O)cc2O)oc2cc(O)cc(O)c12
REMARK SMILES IDX 5 1 3 2 2 3 1 4 22 5 20 6 19 7 17 8 16 9 15 10 14 11 6 12
REMARK SMILES IDX 8 13 7 14 9 15 11 16 12 17 10 18 13 20 4 22 21 24 18 26
REMARK H PARENT 10 19 13 21 4 23 21 25 18 27
REMARK Flexibility Score: inf
ROOT
ATOM      1  C   UNL     1      -2.675  38.317  17.850  1.00  0.00     0.184 A 
ATOM      2  C   UNL     1      -3.086  39.072  16.739  1.00  0.00     0.208 A 
ATOM      3  C   UNL     1      -3.660  40.336  16.950  1.00  0.00     0.238 A 
ATOM      4  O   UNL     1      -3.974  41.031  15.949  1.00  0.00    -0.285 OA
ATOM      5  C   UNL     1      -3.835  40.819  18.270  1.00  0.00     0.111 A 
ATOM      6  C   UNL     1      -4.441  42.068  18.603  1.00  0.00     0.134 A 
ATOM      7  C   UNL     1      -4.445  42.500  19.935  1.00  0.00     0.093 A 
ATOM      8  C   UNL     1      -3.923  41.700  20.954  1.00  0.00     0.123 A 
ATOM      9  C   UNL     1      -3.382  40.454  20.646  1.00  0.00     0.094 A 
ATOM     10  C   UNL     1      -3.330  40.011  19.323  1.00  0.00     0.146 A 
ATOM     11  O   UNL     1      -2.796  38.821  19.072  1.00  0.00    -0.451 OA
ENDROOT
BRANCH   1  12
ATOM     12  C   UNL     1      -2.084  36.966  17.701  1.00  0.00     0.063 A 
ATOM     13  C   UNL     1      -2.338  34.596  17.213  1.00  0.00     0.047 A 
ATOM     14  C   UNL     1      -2.888  35.874  17.328  1.00  0.00     0.020 A 
ATOM     15  C   UNL     1      -0.980  34.386  17.480  1.00  0.00     0.119 A 
ATOM     16  C   UNL     1      -0.176  35.463  17.865  1.00  0.00     0.093 A 
ATOM     17  C   UNL     1      -0.719  36.751  17.980  1.00  0.00     0.130 A 
BRANCH  15  18
ATOM     18  O   UNL     1      -0.420  33.115  17.370  1.00  0.00    -0.508 OA
ATOM     19  H   UNL     1       0.142  32.718  18.115  1.00  0.00     0.293 HD
ENDBRANCH  15  18
BRANCH  17  20
ATOM     20  O   UNL     1       0.097  37.817  18.358  1.00  0.00    -0.507 OA
ATOM     21  H   UNL     1       0.081  38.701  17.864  1.00  0.00     0.293 HD
ENDBRANCH  17  20
ENDBRANCH   1  12
BRANCH   2  22
ATOM     22  O   UNL     1      -2.891  38.581  15.446  1.00  0.00    -0.502 OA
ATOM     23  H   UNL     1      -3.661  38.343  14.833  1.00  0.00     0.293 HD
ENDBRANCH   2  22
BRANCH   6  24
ATOM     24  O   UNL     1      -5.073  42.900  17.674  1.00  0.00    -0.507 OA
ATOM     25  H   UNL     1      -4.678  43.178  16.788  1.00  0.00     0.293 HD
ENDBRANCH   6  24
BRANCH   8  26
ATOM     26  O   UNL     1      -3.945  42.132  22.278  1.00  0.00    -0.508 OA
ATOM     27  H   UNL     1      -4.653  42.774  22.615  1.00  0.00     0.293 HD
ENDBRANCH   8  26
TORSDOF 6
ENDMDL
MODEL 3
REMARK VINA RESULT:    -5.506      2.444      6.817
REMARK INTER + INTRA:          -7.035
REMARK INTER:                  -6.778
REMARK INTRA:                  -0.257
REMARK UNBOUND:                -0.403
REMARK SMILES O=c1c(O)c(-c2ccc(O)cc2O)oc2cc(O)cc(O)c12
REMARK SMILES IDX 5 1 3 2 2 3 1 4 22 5 20 6 19 7 17 8 16 9 15 10 14 11 6 12
REMARK SMILES IDX 8 13 7 14 9 15 11 16 12 17 10 18 13 20 4 22 21 24 18 26
REMARK H PARENT 10 19 13 21 4 23 21 25 18 27
REMARK Flexibility Score: inf
ROOT
ATOM      1  C   UNL     1      -3.009  37.313  19.124  1.00  0.00     0.184 A 
ATOM      2  C   UNL     1      -1.980  37.733  19.984  1.00  0.00     0.208 A 
ATOM      3  C   UNL     1      -2.032  39.026  20.528  1.00  0.00     0.238 A 
ATOM      4  O   UNL     1      -1.138  39.376  21.341  1.00  0.00    -0.285 OA
ATOM      5  C   UNL     1      -3.101  39.891  20.187  1.00  0.00     0.111 A 
ATOM      6  C   UNL     1      -3.234  41.235  20.647  1.00  0.00     0.134 A 
ATOM      7  C   UNL     1      -4.398  41.955  20.349  1.00  0.00     0.093 A 
ATOM      8  C   UNL     1      -5.404  41.401  19.554  1.00  0.00     0.123 A 
ATOM      9  C   UNL     1      -5.257  40.111  19.052  1.00  0.00     0.094 A 
ATOM     10  C   UNL     1      -4.124  39.354  19.362  1.00  0.00     0.146 A 
ATOM     11  O   UNL     1      -4.029  38.124  18.871  1.00  0.00    -0.451 OA
ENDROOT
BRANCH   1  12
ATOM     12  C   UNL     1      -3.003  35.971  18.497  1.00  0.00     0.063 A 
ATOM     13  C   UNL     1      -3.941  33.735  18.292  1.00  0.00     0.047 A 
ATOM     14  C   UNL     1      -3.962  35.009  18.863  1.00  0.00     0.020 A 
ATOM     15  C   UNL     1      -2.957  33.398  17.356  1.00  0.00     0.119 A 
ATOM     16  C   UNL     1      -1.992  34.343  16.996  1.00  0.00     0.093 A 
ATOM     17  C   UNL     1      -2.006  35.625  17.562  1.00  0.00     0.130 A 
BRANCH  15  18
ATOM     18  O   UNL     1      -2.926  32.130  16.780  1.00  0.00    -0.508 OA
ATOM     19  H   UNL     1      -3.611  31.422  17.024  1.00  0.00     0.293 HD
ENDBRANCH  15  18
BRANCH  17  20
ATOM     20  O   UNL     1      -1.040  36.560  17.187  1.00  0.00    -0.507 OA
ATOM     21  H   UNL     1      -0.242  36.302  16.619  1.00  0.00     0.293 HD
ENDBRANCH  17  20
ENDBRANCH   1  12
BRANCH   2  22
ATOM     22  O   UNL     1      -0.943  36.857  20.316  1.00  0.00    -0.502 OA
ATOM     23  H   UNL     1      -0.478  36.280  19.627  1.00  0.00     0.293 HD
ENDBRANCH   2  22
BRANCH   6  24
ATOM     24  O   UNL     1      -2.248  41.914  21.370  1.00  0.00    -0.507 OA
ATOM     25  H   UNL     1      -2.017  41.736  22.336  1.00  0.00     0.293 HD
ENDBRANCH   6  24
BRANCH   8  26
ATOM     26  O   UNL     1      -6.552  42.130  19.251  1.00  0.00    -0.508 OA
ATOM     27  H   UNL     1      -6.507  42.995  18.725  1.00  0.00     0.293 HD
ENDBRANCH   8  26
TORSDOF 6
ENDMDL
MODEL 4
REMARK VINA RESULT:    -5.499      2.162      7.051
REMARK INTER + INTRA:          -7.027
REMARK INTER:                  -6.687
REMARK INTRA:                  -0.340
REMARK UNBOUND:                -0.403
REMARK SMILES O=c1c(O)c(-c2ccc(O)cc2O)oc2cc(O)cc(O)c12
REMARK SMILES IDX 5 1 3 2 2 3 1 4 22 5 20 6 19 7 17 8 16 9 15 10 14 11 6 12
REMARK SMILES IDX 8 13 7 14 9 15 11 16 12 17 10 18 13 20 4 22 21 24 18 26
REMARK H PARENT 10 19 13 21 4 23 21 25 18 27
REMARK Flexibility Score: inf
ROOT
ATOM      1  C   UNL     1      -2.390  37.787  18.521  1.00  0.00     0.184 A 
ATOM      2  C   UNL     1      -1.494  38.169  19.534  1.00  0.00     0.208 A 
ATOM      3  C   UNL     1      -1.781  39.309  20.302  1.00  0.00     0.238 A 
ATOM      4  O   UNL     1      -1.004  39.613  21.245  1.00  0.00    -0.285 OA
ATOM      5  C   UNL     1      -2.949  40.063  20.034  1.00  0.00     0.111 A 
ATOM      6  C   UNL     1      -3.319  41.258  20.723  1.00  0.00     0.134 A 
ATOM      7  C   UNL     1      -4.560  41.850  20.461  1.00  0.00     0.093 A 
ATOM      8  C   UNL     1      -5.417  41.328  19.489  1.00  0.00     0.123 A 
ATOM      9  C   UNL     1      -5.039  40.197  18.770  1.00  0.00     0.094 A 
ATOM     10  C   UNL     1      -3.823  39.562  19.034  1.00  0.00     0.146 A 
ATOM     11  O   UNL     1      -3.507  38.480  18.333  1.00  0.00    -0.451 OA
ENDROOT
BRANCH   1  12
ATOM     12  C   UNL     1      -2.137  36.611  17.657  1.00  0.00     0.063 A 
ATOM     13  C   UNL     1      -1.547  35.672  15.491  1.00  0.00     0.047 A 
ATOM     14  C   UNL     1      -1.760  36.781  16.313  1.00  0.00     0.020 A 
ATOM     15  C   UNL     1      -1.719  34.378  15.994  1.00  0.00     0.119 A 
ATOM     16  C   UNL     1      -2.107  34.199  17.325  1.00  0.00     0.093 A 
ATOM     17  C   UNL     1      -2.320  35.305  18.159  1.00  0.00     0.130 A 
BRANCH  15  18
ATOM     18  O   UNL     1      -1.510  33.265  15.183  1.00  0.00    -0.508 OA
ATOM     19  H   UNL     1      -1.859  32.348  15.442  1.00  0.00     0.293 HD
ENDBRANCH  15  18
BRANCH  17  20
ATOM     20  O   UNL     1      -2.700  35.111  19.487  1.00  0.00    -0.507 OA
ATOM     21  H   UNL     1      -3.658  35.243  19.792  1.00  0.00     0.293 HD
ENDBRANCH  17  20
ENDBRANCH   1  12
BRANCH   2  22
ATOM     22  O   UNL     1      -0.355  37.401  19.789  1.00  0.00    -0.502 OA
ATOM     23  H   UNL     1       0.067  36.806  19.087  1.00  0.00     0.293 HD
ENDBRANCH   2  22
BRANCH   6  24
ATOM     24  O   UNL     1      -2.497  41.912  21.646  1.00  0.00    -0.507 OA
ATOM     25  H   UNL     1      -1.795  42.597  21.408  1.00  0.00     0.293 HD
ENDBRANCH   6  24
BRANCH   8  26
ATOM     26  O   UNL     1      -6.643  41.933  19.224  1.00  0.00    -0.508 OA
ATOM     27  H   UNL     1      -7.395  41.430  18.769  1.00  0.00     0.293 HD
ENDBRANCH   8  26
TORSDOF 6
ENDMDL
MODEL 5
REMARK VINA RESULT:    -5.263      2.754      4.224
REMARK INTER + INTRA:          -6.743
REMARK INTER:                  -6.270
REMARK INTRA:                  -0.473
REMARK UNBOUND:                -0.403
REMARK SMILES O=c1c(O)c(-c2ccc(O)cc2O)oc2cc(O)cc(O)c12
REMARK SMILES IDX 5 1 3 2 2 3 1 4 22 5 20 6 19 7 17 8 16 9 15 10 14 11 6 12
REMARK SMILES IDX 8 13 7 14 9 15 11 16 12 17 10 18 13 20 4 22 21 24 18 26
REMARK H PARENT 10 19 13 21 4 23 21 25 18 27
REMARK Flexibility Score: inf
ROOT
ATOM      1  C   UNL     1      -2.488  37.845  18.471  1.00  0.00     0.184 A 
ATOM      2  C   UNL     1      -1.142  37.442  18.454  1.00  0.00     0.208 A 
ATOM      3  C   UNL     1      -0.826  36.142  18.031  1.00  0.00     0.238 A 
ATOM      4  O   UNL     1       0.385  35.806  17.964  1.00  0.00    -0.285 OA
ATOM      5  C   UNL     1      -1.861  35.253  17.651  1.00  0.00     0.111 A 
ATOM      6  C   UNL     1      -1.660  33.900  17.244  1.00  0.00     0.134 A 
ATOM      7  C   UNL     1      -2.744  33.154  16.768  1.00  0.00     0.093 A 
ATOM      8  C   UNL     1      -4.034  33.690  16.744  1.00  0.00     0.123 A 
ATOM      9  C   UNL     1      -4.250  34.990  17.194  1.00  0.00     0.094 A 
ATOM     10  C   UNL     1      -3.183  35.772  17.641  1.00  0.00     0.146 A 
ATOM     11  O   UNL     1      -3.431  37.010  18.051  1.00  0.00    -0.451 OA
ENDROOT
BRANCH   1  12
ATOM     12  C   UNL     1      -2.894  39.194  18.928  1.00  0.00     0.063 A 
ATOM     13  C   UNL     1      -3.250  40.793  20.728  1.00  0.00     0.047 A 
ATOM     14  C   UNL     1      -2.842  39.530  20.293  1.00  0.00     0.020 A 
ATOM     15  C   UNL     1      -3.727  41.735  19.810  1.00  0.00     0.119 A 
ATOM     16  C   UNL     1      -3.796  41.406  18.453  1.00  0.00     0.093 A 
ATOM     17  C   UNL     1      -3.386  40.141  18.006  1.00  0.00     0.130 A 
BRANCH  15  18
ATOM     18  O   UNL     1      -4.138  42.997  20.233  1.00  0.00    -0.508 OA
ATOM     19  H   UNL     1      -3.875  43.361  21.142  1.00  0.00     0.293 HD
ENDBRANCH  15  18
BRANCH  17  20
ATOM     20  O   UNL     1      -3.454  39.830  16.648  1.00  0.00    -0.507 OA
ATOM     21  H   UNL     1      -2.874  39.107  16.238  1.00  0.00     0.293 HD
ENDBRANCH  17  20
ENDBRANCH   1  12
BRANCH   2  22
ATOM     22  O   UNL     1      -0.137  38.341  18.821  1.00  0.00    -0.502 OA
ATOM     23  H   UNL     1      -0.060  39.265  18.414  1.00  0.00     0.293 HD
ENDBRANCH   2  22
BRANCH   6  24
ATOM     24  O   UNL     1      -0.430  33.239  17.314  1.00  0.00    -0.507 OA
ATOM     25  H   UNL     1      -0.313  32.237  17.295  1.00  0.00     0.293 HD
ENDBRANCH   6  24
BRANCH   8  26
ATOM     26  O   UNL     1      -5.110  32.934  16.282  1.00  0.00    -0.508 OA
ATOM     27  H   UNL     1      -5.367  32.922  15.303  1.00  0.00     0.293 HD
ENDBRANCH   8  26
TORSDOF 6
ENDMDL
MODEL 6
REMARK VINA RESULT:    -5.243      1.571      2.040
REMARK INTER + INTRA:          -6.719
REMARK INTER:                  -6.250
REMARK INTRA:                  -0.469
REMARK UNBOUND:                -0.403
REMARK SMILES O=c1c(O)c(-c2ccc(O)cc2O)oc2cc(O)cc(O)c12
REMARK SMILES IDX 5 1 3 2 2 3 1 4 22 5 20 6 19 7 17 8 16 9 15 10 14 11 6 12
REMARK SMILES IDX 8 13 7 14 9 15 11 16 12 17 10 18 13 20 4 22 21 24 18 26
REMARK H PARENT 10 19 13 21 4 23 21 25 18 27
REMARK Flexibility Score: inf
ROOT
ATOM      1  C   UNL     1      -3.507  39.410  18.863  1.00  0.00     0.184 A 
ATOM      2  C   UNL     1      -3.764  39.058  17.527  1.00  0.00     0.208 A 
ATOM      3  C   UNL     1      -3.078  37.969  16.966  1.00  0.00     0.238 A 
ATOM      4  O   UNL     1      -3.354  37.624  15.787  1.00  0.00    -0.285 OA
ATOM      5  C   UNL     1      -2.129  37.260  17.740  1.00  0.00     0.111 A 
ATOM      6  C   UNL     1      -1.347  36.166  17.262  1.00  0.00     0.134 A 
ATOM      7  C   UNL     1      -0.532  35.458  18.154  1.00  0.00     0.093 A 
ATOM      8  C   UNL     1      -0.422  35.843  19.492  1.00  0.00     0.123 A 
ATOM      9  C   UNL     1      -1.136  36.946  19.954  1.00  0.00     0.094 A 
ATOM     10  C   UNL     1      -1.985  37.651  19.098  1.00  0.00     0.146 A 
ATOM     11  O   UNL     1      -2.656  38.689  19.583  1.00  0.00    -0.451 OA
ENDROOT
BRANCH   1  12
ATOM     12  C   UNL     1      -4.177  40.562  19.510  1.00  0.00     0.063 A 
ATOM     13  C   UNL     1      -4.459  42.965  19.769  1.00  0.00     0.047 A 
ATOM     14  C   UNL     1      -3.847  41.879  19.141  1.00  0.00     0.020 A 
ATOM     15  C   UNL     1      -5.400  42.755  20.783  1.00  0.00     0.119 A 
ATOM     16  C   UNL     1      -5.725  41.451  21.167  1.00  0.00     0.093 A 
ATOM     17  C   UNL     1      -5.118  40.353  20.540  1.00  0.00     0.130 A 
BRANCH  15  18
ATOM     18  O   UNL     1      -6.015  43.832  21.417  1.00  0.00    -0.508 OA
ATOM     19  H   UNL     1      -5.534  44.715  21.548  1.00  0.00     0.293 HD
ENDBRANCH  15  18
BRANCH  17  20
ATOM     20  O   UNL     1      -5.457  39.057  20.928  1.00  0.00    -0.507 OA
ATOM     21  H   UNL     1      -6.253  38.573  20.530  1.00  0.00     0.293 HD
ENDBRANCH  17  20
ENDBRANCH   1  12
BRANCH   2  22
ATOM     22  O   UNL     1      -4.715  39.765  16.787  1.00  0.00    -0.502 OA
ATOM     23  H   UNL     1      -4.780  40.775  16.809  1.00  0.00     0.293 HD
ENDBRANCH   2  22
BRANCH   6  24
ATOM     24  O   UNL     1      -1.313  35.756  15.926  1.00  0.00    -0.507 OA
ATOM     25  H   UNL     1      -1.162  34.807  15.618  1.00  0.00     0.293 HD
ENDBRANCH   6  24
BRANCH   8  26
ATOM     26  O   UNL     1       0.403  35.142  20.368  1.00  0.00    -0.508 OA
ATOM     27  H   UNL     1       0.132  34.242  20.746  1.00  0.00     0.293 HD
ENDBRANCH   8  26
TORSDOF 6
ENDMDL
MODEL 7
REMARK VINA RESULT:    -5.210      2.087      6.280
REMARK INTER + INTRA:          -6.679
REMARK INTER:                  -6.400
REMARK INTRA:                  -0.279
REMARK UNBOUND:                -0.403
REMARK SMILES O=c1c(O)c(-c2ccc(O)cc2O)oc2cc(O)cc(O)c12
REMARK SMILES IDX 5 1 3 2 2 3 1 4 22 5 20 6 19 7 17 8 16 9 15 10 14 11 6 12
REMARK SMILES IDX 8 13 7 14 9 15 11 16 12 17 10 18 13 20 4 22 21 24 18 26
REMARK H PARENT 10 19 13 21 4 23 21 25 18 27
REMARK Flexibility Score: inf
ROOT
ATOM      1  C   UNL     1      -2.936  39.469  18.485  1.00  0.00     0.184 A 
ATOM      2  C   UNL     1      -3.272  39.652  17.133  1.00  0.00     0.208 A 
ATOM      3  C   UNL     1      -4.077  40.745  16.774  1.00  0.00     0.238 A 
ATOM      4  O   UNL     1      -4.326  40.936  15.555  1.00  0.00    -0.285 OA
ATOM      5  C   UNL     1      -4.554  41.627  17.773  1.00  0.00     0.111 A 
ATOM      6  C   UNL     1      -5.409  42.744  17.528  1.00  0.00     0.134 A 
ATOM      7  C   UNL     1      -5.714  43.622  18.575  1.00  0.00     0.093 A 
ATOM      8  C   UNL     1      -5.248  43.389  19.871  1.00  0.00     0.123 A 
ATOM      9  C   UNL     1      -4.461  42.270  20.132  1.00  0.00     0.094 A 
ATOM     10  C   UNL     1      -4.109  41.395  19.102  1.00  0.00     0.146 A 
ATOM     11  O   UNL     1      -3.348  40.346  19.392  1.00  0.00    -0.451 OA
ENDROOT
BRANCH   1  12
ATOM     12  C   UNL     1      -2.111  38.324  18.936  1.00  0.00     0.063 A 
ATOM     13  C   UNL     1      -1.875  36.270  20.221  1.00  0.00     0.047 A 
ATOM     14  C   UNL     1      -2.660  37.335  19.773  1.00  0.00     0.020 A 
ATOM     15  C   UNL     1      -0.528  36.183  19.851  1.00  0.00     0.119 A 
ATOM     16  C   UNL     1       0.030  37.168  19.031  1.00  0.00     0.093 A 
ATOM     17  C   UNL     1      -0.751  38.239  18.574  1.00  0.00     0.130 A 
BRANCH  15  18
ATOM     18  O   UNL     1       0.264  35.125  20.292  1.00  0.00    -0.508 OA
ATOM     19  H   UNL     1       0.132  34.183  19.941  1.00  0.00     0.293 HD
ENDBRANCH  15  18
BRANCH  17  20
ATOM     20  O   UNL     1      -0.181  39.211  17.751  1.00  0.00    -0.507 OA
ATOM     21  H   UNL     1      -0.576  39.441  16.847  1.00  0.00     0.293 HD
ENDBRANCH  17  20
ENDBRANCH   1  12
BRANCH   2  22
ATOM     22  O   UNL     1      -2.778  38.776  16.163  1.00  0.00    -0.502 OA
ATOM     23  H   UNL     1      -2.333  39.101  15.314  1.00  0.00     0.293 HD
ENDBRANCH   2  22
BRANCH   6  24
ATOM     24  O   UNL     1      -6.002  43.016  16.292  1.00  0.00    -0.507 OA
ATOM     25  H   UNL     1      -6.241  42.319  15.602  1.00  0.00     0.293 HD
ENDBRANCH   6  24
BRANCH   8  26
ATOM     26  O   UNL     1      -5.569  44.261  20.909  1.00  0.00    -0.508 OA
ATOM     27  H   UNL     1      -6.310  44.051  21.567  1.00  0.00     0.293 HD
ENDBRANCH   8  26
TORSDOF 6
ENDMDL
MODEL 8
REMARK VINA RESULT:    -5.203      2.220      6.779
REMARK INTER + INTRA:          -6.671
REMARK INTER:                  -6.279
REMARK INTRA:                  -0.392
REMARK UNBOUND:                -0.403
REMARK SMILES O=c1c(O)c(-c2ccc(O)cc2O)oc2cc(O)cc(O)c12
REMARK SMILES IDX 5 1 3 2 2 3 1 4 22 5 20 6 19 7 17 8 16 9 15 10 14 11 6 12
REMARK SMILES IDX 8 13 7 14 9 15 11 16 12 17 10 18 13 20 4 22 21 24 18 26
REMARK H PARENT 10 19 13 21 4 23 21 25 18 27
REMARK Flexibility Score: inf
ROOT
ATOM      1  C   UNL     1      -2.842  39.043  18.557  1.00  0.00     0.184 A 
ATOM      2  C   UNL     1      -2.855  39.653  19.822  1.00  0.00     0.208 A 
ATOM      3  C   UNL     1      -3.440  40.922  19.960  1.00  0.00     0.238 A 
ATOM      4  O   UNL     1      -3.499  41.438  21.106  1.00  0.00    -0.285 OA
ATOM      5  C   UNL     1      -3.984  41.574  18.827  1.00  0.00     0.111 A 
ATOM      6  C   UNL     1      -4.565  42.877  18.843  1.00  0.00     0.134 A 
ATOM      7  C   UNL     1      -5.187  43.370  17.689  1.00  0.00     0.093 A 
ATOM      8  C   UNL     1      -5.192  42.633  16.502  1.00  0.00     0.123 A 
ATOM      9  C   UNL     1      -4.577  41.385  16.461  1.00  0.00     0.094 A 
ATOM     10  C   UNL     1      -3.980  40.850  17.605  1.00  0.00     0.146 A 
ATOM     11  O   UNL     1      -3.414  39.652  17.525  1.00  0.00    -0.451 OA
ENDROOT
BRANCH   1  12
ATOM     12  C   UNL     1      -2.221  37.716  18.335  1.00  0.00     0.063 A 
ATOM     13  C   UNL     1      -2.406  35.292  18.225  1.00  0.00     0.047 A 
ATOM     14  C   UNL     1      -2.996  36.544  18.407  1.00  0.00     0.020 A 
ATOM     15  C   UNL     1      -1.031  35.189  17.981  1.00  0.00     0.119 A 
ATOM     16  C   UNL     1      -0.250  36.347  17.922  1.00  0.00     0.093 A 
ATOM     17  C   UNL     1      -0.834  37.609  18.101  1.00  0.00     0.130 A 
BRANCH  15  18
ATOM     18  O   UNL     1      -0.432  33.945  17.799  1.00  0.00    -0.508 OA
ATOM     19  H   UNL     1      -0.643  33.369  16.991  1.00  0.00     0.293 HD
ENDBRANCH  15  18
BRANCH  17  20
ATOM     20  O   UNL     1      -0.043  38.756  18.032  1.00  0.00    -0.507 OA
ATOM     21  H   UNL     1       0.075  39.369  18.830  1.00  0.00     0.293 HD
ENDBRANCH  17  20
ENDBRANCH   1  12
BRANCH   2  22
ATOM     22  O   UNL     1      -2.324  38.984  20.928  1.00  0.00    -0.502 OA
ATOM     23  H   UNL     1      -1.331  38.827  21.043  1.00  0.00     0.293 HD
ENDBRANCH   2  22
BRANCH   6  24
ATOM     24  O   UNL     1      -4.533  43.733  19.948  1.00  0.00    -0.507 OA
ATOM     25  H   UNL     1      -4.090  44.639  19.963  1.00  0.00     0.293 HD
ENDBRANCH   6  24
BRANCH   8  26
ATOM     26  O   UNL     1      -5.801  43.138  15.355  1.00  0.00    -0.508 OA
ATOM     27  H   UNL     1      -5.367  43.868  14.803  1.00  0.00     0.293 HD
ENDBRANCH   8  26
TORSDOF 6
ENDMDL
MODEL 9
REMARK VINA RESULT:    -5.201      4.565      7.103
REMARK INTER + INTRA:          -6.669
REMARK INTER:                  -6.267
REMARK INTRA:                  -0.401
REMARK UNBOUND:                -0.403
REMARK SMILES O=c1c(O)c(-c2ccc(O)cc2O)oc2cc(O)cc(O)c12
REMARK SMILES IDX 5 1 3 2 2 3 1 4 22 5 20 6 19 7 17 8 16 9 15 10 14 11 6 12
REMARK SMILES IDX 8 13 7 14 9 15 11 16 12 17 10 18 13 20 4 22 21 24 18 26
REMARK H PARENT 10 19 13 21 4 23 21 25 18 27
REMARK Flexibility Score: inf
ROOT
ATOM      1  C   UNL     1      -3.131  35.146  17.788  1.00  0.00     0.184 A 
ATOM      2  C   UNL     1      -2.534  35.470  19.018  1.00  0.00     0.208 A 
ATOM      3  C   UNL     1      -1.680  36.581  19.089  1.00  0.00     0.238 A 
ATOM      4  O   UNL     1      -1.193  36.899  20.205  1.00  0.00    -0.285 OA
ATOM      5  C   UNL     1      -1.416  37.342  17.924  1.00  0.00     0.111 A 
ATOM      6  C   UNL     1      -0.535  38.464  17.870  1.00  0.00     0.134 A 
ATOM      7  C   UNL     1      -0.449  39.219  16.694  1.00  0.00     0.093 A 
ATOM      8  C   UNL     1      -1.163  38.855  15.550  1.00  0.00     0.123 A 
ATOM      9  C   UNL     1      -1.980  37.728  15.575  1.00  0.00     0.094 A 
ATOM     10  C   UNL     1      -2.115  36.975  16.744  1.00  0.00     0.146 A 
ATOM     11  O   UNL     1      -2.913  35.914  16.727  1.00  0.00    -0.451 OA
ENDROOT
BRANCH   1  12
ATOM     12  C   UNL     1      -4.024  33.974  17.637  1.00  0.00     0.063 A 
ATOM     13  C   UNL     1      -6.251  32.995  17.704  1.00  0.00     0.047 A 
ATOM     14  C   UNL     1      -5.413  34.106  17.820  1.00  0.00     0.020 A 
ATOM     15  C   UNL     1      -5.716  31.734  17.417  1.00  0.00     0.119 A 
ATOM     16  C   UNL     1      -4.336  31.590  17.248  1.00  0.00     0.093 A 
ATOM     17  C   UNL     1      -3.486  32.700  17.359  1.00  0.00     0.130 A 
BRANCH  15  18
ATOM     18  O   UNL     1      -6.544  30.620  17.301  1.00  0.00    -0.508 OA
ATOM     19  H   UNL     1      -6.174  29.678  17.364  1.00  0.00     0.293 HD
ENDBRANCH  15  18
BRANCH  17  20
ATOM     20  O   UNL     1      -2.112  32.542  17.181  1.00  0.00    -0.507 OA
ATOM     21  H   UNL     1      -1.541  33.271  16.770  1.00  0.00     0.293 HD
ENDBRANCH  17  20
ENDBRANCH   1  12
BRANCH   2  22
ATOM     22  O   UNL     1      -2.820  34.712  20.157  1.00  0.00    -0.502 OA
ATOM     23  H   UNL     1      -2.304  34.815  21.021  1.00  0.00     0.293 HD
ENDBRANCH   2  22
BRANCH   6  24
ATOM     24  O   UNL     1       0.291  38.858  18.927  1.00  0.00    -0.507 OA
ATOM     25  H   UNL     1       0.816  39.720  18.957  1.00  0.00     0.293 HD
ENDBRANCH   6  24
BRANCH   8  26
ATOM     26  O   UNL     1      -1.060  39.604  14.380  1.00  0.00    -0.508 OA
ATOM     27  H   UNL     1      -0.293  39.471  13.732  1.00  0.00     0.293 HD
ENDBRANCH   8  26
TORSDOF 6
ENDMDL
