MODEL 1
REMARK VINA RESULT:    -4.419      0.000      0.000
REMARK INTER + INTRA:          -7.314
REMARK INTER:                  -7.002
REMARK INTRA:                  -0.312
REMARK UNBOUND:                -0.312
REMARK SMILES CCCCCCCCCCCC(=O)[O-]
REMARK SMILES IDX 7 1 8 2 9 3 10 4 11 5 12 6 13 7 14 8 6 9 5 10 4 11 3 12 2 13
REMARK SMILES IDX 1 14
REMARK H PARENT
REMARK Flexibility Score: inf
ROOT
ATOM      1  C   UNL     1      -7.197  21.462  14.448  1.00  0.00     0.000 C 
ENDROOT
BRANCH   1   2
ATOM      2  C   UNL     1      -8.734  21.551  14.421  1.00  0.00     0.000 C 
BRANCH   2   3
ATOM      3  C   UNL     1      -9.250  23.000  14.375  1.00  0.00     0.000 C 
BRANCH   3   4
ATOM      4  C   UNL     1      -8.197  24.057  13.990  1.00  0.00     0.006 C 
BRANCH   4   5
ATOM      5  C   UNL     1      -8.416  25.403  14.693  1.00  0.00     0.053 C 
BRANCH   5   6
ATOM      6  C   UNL     1      -8.669  26.482  13.688  1.00  0.00     0.041 C 
ATOM      7  O   UNL     1      -9.625  26.378  12.875  1.00  0.00    -0.550 OA
ATOM      8  O   UNL     1      -7.881  27.625  13.681  1.00  0.00    -0.550 OA
ENDBRANCH   5   6
ENDBRANCH   4   5
ENDBRANCH   3   4
ENDBRANCH   2   3
ENDBRANCH   1   2
BRANCH   1   9
ATOM      9  C   UNL     1      -6.694  20.041  14.747  1.00  0.00     0.000 C 
BRANCH   9  10
ATOM     10  C   UNL     1      -5.161  19.950  14.787  1.00  0.00    -0.000 C 
BRANCH  10  11
ATOM     11  C   UNL     1      -4.683  18.549  14.383  1.00  0.00    -0.000 C 
BRANCH  11  12
ATOM     12  C   UNL     1      -3.649  18.625  13.250  1.00  0.00    -0.000 C 
BRANCH  12  13
ATOM     13  C   UNL     1      -2.512  17.607  13.420  1.00  0.00    -0.003 C 
ATOM     14  C   UNL     1      -2.045  17.015  12.091  1.00  0.00     0.004 C 
ENDBRANCH  12  13
ENDBRANCH  11  12
ENDBRANCH  10  11
ENDBRANCH   9  10
ENDBRANCH   1   9
TORSDOF 10
ENDMDL
MODEL 2
REMARK VINA RESULT:    -4.351      4.786      8.213
REMARK INTER + INTRA:          -7.207
REMARK INTER:                  -6.757
REMARK INTRA:                  -0.450
REMARK UNBOUND:                -0.312
REMARK SMILES CCCCCCCCCCCC(=O)[O-]
REMARK SMILES IDX 7 1 8 2 9 3 10 4 11 5 12 6 13 7 14 8 6 9 5 10 4 11 3 12 2 13
REMARK SMILES IDX 1 14
REMARK H PARENT
REMARK Flexibility Score: inf
ROOT
ATOM      1  C   UNL     1      -6.053  19.977  14.229  1.00  0.00     0.000 C 
ENDROOT
BRANCH   1   2
ATOM      2  C   UNL     1      -5.617  18.801  15.121  1.00  0.00     0.000 C 
BRANCH   2   3
ATOM      3  C   UNL     1      -4.469  17.978  14.509  1.00  0.00     0.000 C 
BRANCH   3   4
ATOM      4  C   UNL     1      -3.738  18.649  13.332  1.00  0.00     0.006 C 
BRANCH   4   5
ATOM      5  C   UNL     1      -2.211  18.618  13.478  1.00  0.00     0.053 C 
BRANCH   5   6
ATOM      6  C   UNL     1      -1.634  17.485  12.690  1.00  0.00     0.041 C 
ATOM      7  O   UNL     1      -2.318  16.924  11.794  1.00  0.00    -0.550 OA
ATOM      8  O   UNL     1      -0.323  17.082  12.910  1.00  0.00    -0.550 OA
ENDBRANCH   5   6
ENDBRANCH   4   5
ENDBRANCH   3   4
ENDBRANCH   2   3
ENDBRANCH   1   2
BRANCH   1   9
ATOM      9  C   UNL     1      -7.062  20.903  14.926  1.00  0.00     0.000 C 
BRANCH   9  10
ATOM     10  C   UNL     1      -8.490  20.740  14.383  1.00  0.00    -0.000 C 
BRANCH  10  11
ATOM     11  C   UNL     1      -9.227  22.086  14.364  1.00  0.00    -0.000 C 
BRANCH  11  12
ATOM     12  C   UNL     1      -8.251  23.251  14.589  1.00  0.00    -0.000 C 
BRANCH  12  13
ATOM     13  C   UNL     1      -8.477  24.407  13.603  1.00  0.00    -0.003 C 
ATOM     14  C   UNL     1      -8.479  25.774  14.285  1.00  0.00     0.004 C 
ENDBRANCH  12  13
ENDBRANCH  11  12
ENDBRANCH  10  11
ENDBRANCH   9  10
ENDBRANCH   1   9
TORSDOF 10
ENDMDL
MODEL 3
REMARK VINA RESULT:    -4.212      4.090      8.246
REMARK INTER + INTRA:          -6.987
REMARK INTER:                  -6.680
REMARK INTRA:                  -0.307
REMARK UNBOUND:                -0.312
REMARK SMILES CCCCCCCCCCCC(=O)[O-]
REMARK SMILES IDX 7 1 8 2 9 3 10 4 11 5 12 6 13 7 14 8 6 9 5 10 4 11 3 12 2 13
REMARK SMILES IDX 1 14
REMARK H PARENT
REMARK Flexibility Score: inf
ROOT
ATOM      1  C   UNL     1      -8.209  22.313  15.047  1.00  0.00     0.000 C 
ENDROOT
BRANCH   1   2
ATOM      2  C   UNL     1      -8.275  20.926  14.381  1.00  0.00     0.000 C 
BRANCH   2   3
ATOM      3  C   UNL     1      -7.381  19.885  15.079  1.00  0.00     0.000 C 
BRANCH   3   4
ATOM      4  C   UNL     1      -5.949  19.775  14.523  1.00  0.00     0.006 C 
BRANCH   4   5
ATOM      5  C   UNL     1      -5.188  18.557  15.064  1.00  0.00     0.053 C 
BRANCH   5   6
ATOM      6  C   UNL     1      -4.130  18.131  14.096  1.00  0.00     0.041 C 
ATOM      7  O   UNL     1      -3.904  18.814  13.063  1.00  0.00    -0.550 OA
ATOM      8  O   UNL     1      -3.359  17.006  14.360  1.00  0.00    -0.550 OA
ENDBRANCH   5   6
ENDBRANCH   4   5
ENDBRANCH   3   4
ENDBRANCH   2   3
ENDBRANCH   1   2
BRANCH   1   9
ATOM      9  C   UNL     1      -8.778  23.424  14.149  1.00  0.00     0.000 C 
BRANCH   9  10
ATOM     10  C   UNL     1      -7.817  24.612  13.995  1.00  0.00    -0.000 C 
BRANCH  10  11
ATOM     11  C   UNL     1      -8.545  25.942  14.233  1.00  0.00    -0.000 C 
BRANCH  11  12
ATOM     12  C   UNL     1      -9.469  26.281  13.054  1.00  0.00    -0.000 C 
BRANCH  12  13
ATOM     13  C   UNL     1      -9.281  27.721  12.553  1.00  0.00    -0.003 C 
ATOM     14  C   UNL     1      -8.792  28.669  13.648  1.00  0.00     0.004 C 
ENDBRANCH  12  13
ENDBRANCH  11  12
ENDBRANCH  10  11
ENDBRANCH   9  10
ENDBRANCH   1   9
TORSDOF 10
ENDMDL
MODEL 4
REMARK VINA RESULT:    -4.078      1.822      3.176
REMARK INTER + INTRA:          -6.774
REMARK INTER:                  -6.358
REMARK INTRA:                  -0.415
REMARK UNBOUND:                -0.312
REMARK SMILES CCCCCCCCCCCC(=O)[O-]
REMARK SMILES IDX 7 1 8 2 9 3 10 4 11 5 12 6 13 7 14 8 6 9 5 10 4 11 3 12 2 13
REMARK SMILES IDX 1 14
REMARK H PARENT
REMARK Flexibility Score: inf
ROOT
ATOM      1  C   UNL     1      -8.630  23.281  14.692  1.00  0.00     0.000 C 
ENDROOT
BRANCH   1   2
ATOM      2  C   UNL     1      -8.107  24.229  13.597  1.00  0.00     0.000 C 
BRANCH   2   3
ATOM      3  C   UNL     1      -9.030  25.439  13.363  1.00  0.00     0.000 C 
BRANCH   3   4
ATOM      4  C   UNL     1      -8.431  26.803  13.754  1.00  0.00     0.006 C 
BRANCH   4   5
ATOM      5  C   UNL     1      -7.370  26.697  14.857  1.00  0.00     0.053 C 
BRANCH   5   6
ATOM      6  C   UNL     1      -6.337  27.766  14.693  1.00  0.00     0.041 C 
ATOM      7  O   UNL     1      -6.670  28.911  14.289  1.00  0.00    -0.550 OA
ATOM      8  O   UNL     1      -5.014  27.513  15.032  1.00  0.00    -0.550 OA
ENDBRANCH   5   6
ENDBRANCH   4   5
ENDBRANCH   3   4
ENDBRANCH   2   3
ENDBRANCH   1   2
BRANCH   1   9
ATOM      9  C   UNL     1      -9.276  22.012  14.112  1.00  0.00     0.000 C 
BRANCH   9  10
ATOM     10  C   UNL     1      -8.789  20.729  14.803  1.00  0.00    -0.000 C 
BRANCH  10  11
ATOM     11  C   UNL     1      -7.292  20.814  15.125  1.00  0.00    -0.000 C 
BRANCH  11  12
ATOM     12  C   UNL     1      -6.617  19.443  14.973  1.00  0.00    -0.000 C 
BRANCH  12  13
ATOM     13  C   UNL     1      -5.385  19.489  14.057  1.00  0.00    -0.003 C 
ATOM     14  C   UNL     1      -4.309  18.482  14.461  1.00  0.00     0.004 C 
ENDBRANCH  12  13
ENDBRANCH  11  12
ENDBRANCH  10  11
ENDBRANCH   9  10
ENDBRANCH   1   9
TORSDOF 10
ENDMDL
MODEL 5
REMARK VINA RESULT:    -3.849      5.636      9.241
REMARK INTER + INTRA:          -6.411
REMARK INTER:                  -6.089
REMARK INTRA:                  -0.322
REMARK UNBOUND:                -0.312
REMARK SMILES CCCCCCCCCCCC(=O)[O-]
REMARK SMILES IDX 7 1 8 2 9 3 10 4 11 5 12 6 13 7 14 8 6 9 5 10 4 11 3 12 2 13
REMARK SMILES IDX 1 14
REMARK H PARENT
REMARK Flexibility Score: inf
ROOT
ATOM      1  C   UNL     1      -4.295  18.497  14.481  1.00  0.00     0.000 C 
ENDROOT
BRANCH   1   2
ATOM      2  C   UNL     1      -3.748  18.687  13.055  1.00  0.00     0.000 C 
BRANCH   2   3
ATOM      3  C   UNL     1      -2.251  18.347  12.937  1.00  0.00     0.000 C 
BRANCH   3   4
ATOM      4  C   UNL     1      -1.926  17.118  12.068  1.00  0.00     0.006 C 
BRANCH   4   5
ATOM      5  C   UNL     1      -2.054  15.793  12.832  1.00  0.00     0.053 C 
BRANCH   5   6
ATOM      6  C   UNL     1      -1.851  14.635  11.907  1.00  0.00     0.041 C 
ATOM      7  O   UNL     1      -2.370  14.642  10.760  1.00  0.00    -0.550 OA
ATOM      8  O   UNL     1      -1.049  13.569  12.293  1.00  0.00    -0.550 OA
ENDBRANCH   5   6
ENDBRANCH   4   5
ENDBRANCH   3   4
ENDBRANCH   2   3
ENDBRANCH   1   2
BRANCH   1   9
ATOM      9  C   UNL     1      -5.016  19.749  15.007  1.00  0.00     0.000 C 
BRANCH   9  10
ATOM     10  C   UNL     1      -6.215  20.152  14.136  1.00  0.00    -0.000 C 
BRANCH  10  11
ATOM     11  C   UNL     1      -7.390  20.623  15.003  1.00  0.00    -0.000 C 
BRANCH  11  12
ATOM     12  C   UNL     1      -7.509  22.154  14.986  1.00  0.00    -0.000 C 
BRANCH  12  13
ATOM     13  C   UNL     1      -8.822  22.636  14.351  1.00  0.00    -0.003 C 
ATOM     14  C   UNL     1      -8.781  24.113  13.960  1.00  0.00     0.004 C 
ENDBRANCH  12  13
ENDBRANCH  11  12
ENDBRANCH  10  11
ENDBRANCH   9  10
ENDBRANCH   1   9
TORSDOF 10
ENDMDL
MODEL 6
REMARK VINA RESULT:    -3.603      5.311      8.493
REMARK INTER + INTRA:          -6.022
REMARK INTER:                  -5.585
REMARK INTRA:                  -0.437
REMARK UNBOUND:                -0.312
REMARK SMILES CCCCCCCCCCCC(=O)[O-]
REMARK SMILES IDX 7 1 8 2 9 3 10 4 11 5 12 6 13 7 14 8 6 9 5 10 4 11 3 12 2 13
REMARK SMILES IDX 1 14
REMARK H PARENT
REMARK Flexibility Score: inf
ROOT
ATOM      1  C   UNL     1      -1.766  15.858  11.356  1.00  0.00     0.000 C 
ENDROOT
BRANCH   1   2
ATOM      2  C   UNL     1      -0.662  16.461  12.245  1.00  0.00     0.000 C 
BRANCH   2   3
ATOM      3  C   UNL     1      -1.211  17.433  13.305  1.00  0.00     0.000 C 
BRANCH   3   4
ATOM      4  C   UNL     1      -2.723  17.319  13.576  1.00  0.00     0.006 C 
BRANCH   4   5
ATOM      5  C   UNL     1      -3.490  18.606  13.246  1.00  0.00     0.053 C 
BRANCH   5   6
ATOM      6  C   UNL     1      -4.732  18.701  14.075  1.00  0.00     0.041 C 
ATOM      7  O   UNL     1      -5.488  19.702  13.969  1.00  0.00    -0.550 OA
ATOM      8  O   UNL     1      -5.078  17.663  14.930  1.00  0.00    -0.550 OA
ENDBRANCH   5   6
ENDBRANCH   4   5
ENDBRANCH   3   4
ENDBRANCH   2   3
ENDBRANCH   1   2
BRANCH   1   9
ATOM      9  C   UNL     1      -2.027  14.375  11.665  1.00  0.00     0.000 C 
BRANCH   9  10
ATOM     10  C   UNL     1      -2.878  13.686  10.588  1.00  0.00    -0.000 C 
BRANCH  10  11
ATOM     11  C   UNL     1      -3.257  12.262  11.016  1.00  0.00    -0.000 C 
BRANCH  11  12
ATOM     12  C   UNL     1      -2.186  11.252  10.578  1.00  0.00    -0.000 C 
BRANCH  12  13
ATOM     13  C   UNL     1      -1.419  11.710   9.328  1.00  0.00    -0.003 C 
ATOM     14  C   UNL     1      -1.132  10.565   8.357  1.00  0.00     0.004 C 
ENDBRANCH  12  13
ENDBRANCH  11  12
ENDBRANCH  10  11
ENDBRANCH   9  10
ENDBRANCH   1   9
TORSDOF 10
ENDMDL
MODEL 7
REMARK VINA RESULT:    -3.597      5.537      9.229
REMARK INTER + INTRA:          -6.012
REMARK INTER:                  -5.554
REMARK INTRA:                  -0.459
REMARK UNBOUND:                -0.312
REMARK SMILES CCCCCCCCCCCC(=O)[O-]
REMARK SMILES IDX 7 1 8 2 9 3 10 4 11 5 12 6 13 7 14 8 6 9 5 10 4 11 3 12 2 13
REMARK SMILES IDX 1 14
REMARK H PARENT
REMARK Flexibility Score: inf
ROOT
ATOM      1  C   UNL     1      -2.741  18.600  12.879  1.00  0.00     0.000 C 
ENDROOT
BRANCH   1   2
ATOM      2  C   UNL     1      -1.521  18.838  13.787  1.00  0.00     0.000 C 
BRANCH   2   3
ATOM      3  C   UNL     1      -0.268  18.073  13.320  1.00  0.00     0.000 C 
BRANCH   3   4
ATOM      4  C   UNL     1      -0.400  16.539  13.326  1.00  0.00     0.006 C 
BRANCH   4   5
ATOM      5  C   UNL     1      -0.723  15.960  11.942  1.00  0.00     0.053 C 
BRANCH   5   6
ATOM      6  C   UNL     1      -1.869  15.003  12.031  1.00  0.00     0.041 C 
ATOM      7  O   UNL     1      -2.207  14.325  11.025  1.00  0.00    -0.550 OA
ATOM      8  O   UNL     1      -2.533  14.823  13.237  1.00  0.00    -0.550 OA
ENDBRANCH   5   6
ENDBRANCH   4   5
ENDBRANCH   3   4
ENDBRANCH   2   3
ENDBRANCH   1   2
BRANCH   1   9
ATOM      9  C   UNL     1      -4.019  18.297  13.678  1.00  0.00     0.000 C 
BRANCH   9  10
ATOM     10  C   UNL     1      -4.398  19.430  14.643  1.00  0.00    -0.000 C 
BRANCH  10  11
ATOM     11  C   UNL     1      -5.884  19.356  15.019  1.00  0.00    -0.000 C 
BRANCH  11  12
ATOM     12  C   UNL     1      -6.668  20.520  14.397  1.00  0.00    -0.000 C 
BRANCH  12  13
ATOM     13  C   UNL     1      -8.118  20.589  14.898  1.00  0.00    -0.003 C 
ATOM     14  C   UNL     1      -8.909  21.734  14.265  1.00  0.00     0.004 C 
ENDBRANCH  12  13
ENDBRANCH  11  12
ENDBRANCH  10  11
ENDBRANCH   9  10
ENDBRANCH   1   9
TORSDOF 10
ENDMDL
MODEL 8
REMARK VINA RESULT:    -3.570      6.716     10.394
REMARK INTER + INTRA:          -5.969
REMARK INTER:                  -5.435
REMARK INTRA:                  -0.535
REMARK UNBOUND:                -0.312
REMARK SMILES CCCCCCCCCCCC(=O)[O-]
REMARK SMILES IDX 7 1 8 2 9 3 10 4 11 5 12 6 13 7 14 8 6 9 5 10 4 11 3 12 2 13
REMARK SMILES IDX 1 14
REMARK H PARENT
REMARK Flexibility Score: inf
ROOT
ATOM      1  C   UNL     1      -1.838  16.641  11.878  1.00  0.00     0.000 C 
ENDROOT
BRANCH   1   2
ATOM      2  C   UNL     1      -1.632  15.160  12.242  1.00  0.00     0.000 C 
BRANCH   2   3
ATOM      3  C   UNL     1      -2.327  14.199  11.260  1.00  0.00     0.000 C 
BRANCH   3   4
ATOM      4  C   UNL     1      -2.470  12.748  11.756  1.00  0.00     0.006 C 
BRANCH   4   5
ATOM      5  C   UNL     1      -3.666  12.017  11.132  1.00  0.00     0.053 C 
BRANCH   5   6
ATOM      6  C   UNL     1      -4.704  11.733  12.172  1.00  0.00     0.041 C 
ATOM      7  O   UNL     1      -4.669  12.328  13.280  1.00  0.00    -0.550 OA
ATOM      8  O   UNL     1      -5.738  10.847  11.897  1.00  0.00    -0.550 OA
ENDBRANCH   5   6
ENDBRANCH   4   5
ENDBRANCH   3   4
ENDBRANCH   2   3
ENDBRANCH   1   2
BRANCH   1   9
ATOM      9  C   UNL     1      -1.146  17.593  12.868  1.00  0.00     0.000 C 
BRANCH   9  10
ATOM     10  C   UNL     1      -2.061  18.738  13.327  1.00  0.00    -0.000 C 
BRANCH  10  11
ATOM     11  C   UNL     1      -3.538  18.344  13.204  1.00  0.00    -0.000 C 
BRANCH  11  12
ATOM     12  C   UNL     1      -4.070  17.779  14.529  1.00  0.00    -0.000 C 
BRANCH  12  13
ATOM     13  C   UNL     1      -5.420  18.390  14.932  1.00  0.00    -0.003 C 
ATOM     14  C   UNL     1      -5.642  19.779  14.335  1.00  0.00     0.004 C 
ENDBRANCH  12  13
ENDBRANCH  11  12
ENDBRANCH  10  11
ENDBRANCH   9  10
ENDBRANCH   1   9
TORSDOF 10
ENDMDL
MODEL 9
REMARK VINA RESULT:    -3.548      7.634     11.294
REMARK INTER + INTRA:          -5.934
REMARK INTER:                  -5.130
REMARK INTRA:                  -0.804
REMARK UNBOUND:                -0.312
REMARK SMILES CCCCCCCCCCCC(=O)[O-]
REMARK SMILES IDX 7 1 8 2 9 3 10 4 11 5 12 6 13 7 14 8 6 9 5 10 4 11 3 12 2 13
REMARK SMILES IDX 1 14
REMARK H PARENT
REMARK Flexibility Score: inf
ROOT
ATOM      1  C   UNL     1      -0.449  15.658  11.738  1.00  0.00     0.000 C 
ENDROOT
BRANCH   1   2
ATOM      2  C   UNL     1      -0.575  14.130  11.868  1.00  0.00     0.000 C 
BRANCH   2   3
ATOM      3  C   UNL     1      -1.969  13.682  12.343  1.00  0.00     0.000 C 
BRANCH   3   4
ATOM      4  C   UNL     1      -2.608  12.549  11.517  1.00  0.00     0.006 C 
BRANCH   4   5
ATOM      5  C   UNL     1      -2.513  12.784  10.004  1.00  0.00     0.053 C 
BRANCH   5   6
ATOM      6  C   UNL     1      -1.786  11.655   9.345  1.00  0.00     0.041 C 
ATOM      7  O   UNL     1      -1.582  11.674   8.102  1.00  0.00    -0.550 OA
ATOM      8  O   UNL     1      -1.291  10.607  10.109  1.00  0.00    -0.550 OA
ENDBRANCH   5   6
ENDBRANCH   4   5
ENDBRANCH   3   4
ENDBRANCH   2   3
ENDBRANCH   1   2
BRANCH   1   9
ATOM      9  C   UNL     1      -1.804  16.342  11.494  1.00  0.00     0.000 C 
BRANCH   9  10
ATOM     10  C   UNL     1      -2.037  17.545  12.421  1.00  0.00    -0.000 C 
BRANCH  10  11
ATOM     11  C   UNL     1      -2.356  17.084  13.849  1.00  0.00    -0.000 C 
BRANCH  11  12
ATOM     12  C   UNL     1      -3.751  17.559  14.281  1.00  0.00    -0.000 C 
BRANCH  12  13
ATOM     13  C   UNL     1      -4.189  18.841  13.558  1.00  0.00    -0.003 C 
ATOM     14  C   UNL     1      -5.396  19.508  14.215  1.00  0.00     0.004 C 
ENDBRANCH  12  13
ENDBRANCH  11  12
ENDBRANCH  10  11
ENDBRANCH   9  10
ENDBRANCH   1   9
TORSDOF 10
ENDMDL
