MODEL 1
REMARK VINA RESULT:    -3.108      0.000      0.000
REMARK INTER + INTRA:          -3.501
REMARK INTER:                  -3.472
REMARK INTRA:                  -0.029
REMARK UNBOUND:                -0.029
REMARK SMILES CCCC(=O)[O-]
REMARK SMILES IDX 3 1 4 2 5 3 6 4 2 5 1 6
REMARK H PARENT
REMARK Flexibility Score: inf
ROOT
ATOM      1  C   UNL     1      74.890  11.893  19.749  1.00  0.00     0.052 C 
ENDROOT
BRANCH   1   2
ATOM      2  C   UNL     1      74.567  12.849  18.644  1.00  0.00     0.041 C 
ATOM      3  O   UNL     1      73.397  13.297  18.516  1.00  0.00    -0.550 OA
ATOM      4  O   UNL     1      75.566  13.272  17.775  1.00  0.00    -0.550 OA
ENDBRANCH   1   2
BRANCH   1   5
ATOM      5  C   UNL     1      76.375  11.948  20.135  1.00  0.00     0.003 C 
ATOM      6  C   UNL     1      77.026  10.566  20.136  1.00  0.00     0.004 C 
ENDBRANCH   1   5
TORSDOF 2
ENDMDL
MODEL 2
REMARK VINA RESULT:    -3.056      2.360      3.510
REMARK INTER + INTRA:          -3.443
REMARK INTER:                  -3.418
REMARK INTRA:                  -0.025
REMARK UNBOUND:                -0.029
REMARK SMILES CCCC(=O)[O-]
REMARK SMILES IDX 3 1 4 2 5 3 6 4 2 5 1 6
REMARK H PARENT
REMARK Flexibility Score: inf
ROOT
ATOM      1  C   UNL     1      75.754  11.980  19.929  1.00  0.00     0.052 C 
ENDROOT
BRANCH   1   2
ATOM      2  C   UNL     1      76.507  10.710  19.679  1.00  0.00     0.041 C 
ATOM      3  O   UNL     1      77.291  10.256  20.553  1.00  0.00    -0.550 OA
ATOM      4  O   UNL     1      76.317  10.010  18.494  1.00  0.00    -0.550 OA
ENDBRANCH   1   2
BRANCH   1   5
ATOM      5  C   UNL     1      74.319  11.907  19.391  1.00  0.00     0.003 C 
ATOM      6  C   UNL     1      73.925  13.163  18.615  1.00  0.00     0.004 C 
ENDBRANCH   1   5
TORSDOF 2
ENDMDL
MODEL 3
REMARK VINA RESULT:    -3.021      2.175      2.867
REMARK INTER + INTRA:          -3.403
REMARK INTER:                  -3.366
REMARK INTRA:                  -0.037
REMARK UNBOUND:                -0.029
REMARK SMILES CCCC(=O)[O-]
REMARK SMILES IDX 3 1 4 2 5 3 6 4 2 5 1 6
REMARK H PARENT
REMARK Flexibility Score: inf
ROOT
ATOM      1  C   UNL     1      74.734  14.160  18.143  1.00  0.00     0.052 C 
ENDROOT
BRANCH   1   2
ATOM      2  C   UNL     1      74.844  14.180  16.650  1.00  0.00     0.041 C 
ATOM      3  O   UNL     1      74.726  15.264  16.021  1.00  0.00    -0.550 OA
ATOM      4  O   UNL     1      75.111  13.006  15.956  1.00  0.00    -0.550 OA
ENDBRANCH   1   2
BRANCH   1   5
ATOM      5  C   UNL     1      73.719  13.115  18.625  1.00  0.00     0.003 C 
ATOM      6  C   UNL     1      74.373  12.010  19.453  1.00  0.00     0.004 C 
ENDBRANCH   1   5
TORSDOF 2
ENDMDL
MODEL 4
REMARK VINA RESULT:    -2.878      9.474     10.155
REMARK INTER + INTRA:          -3.243
REMARK INTER:                  -3.214
REMARK INTRA:                  -0.029
REMARK UNBOUND:                -0.029
REMARK SMILES CCCC(=O)[O-]
REMARK SMILES IDX 3 1 4 2 5 3 6 4 2 5 1 6
REMARK H PARENT
REMARK Flexibility Score: inf
ROOT
ATOM      1  C   UNL     1      79.347  11.405   9.877  1.00  0.00     0.052 C 
ENDROOT
BRANCH   1   2
ATOM      2  C   UNL     1      78.661  12.038  11.048  1.00  0.00     0.041 C 
ATOM      3  O   UNL     1      78.167  13.192  10.943  1.00  0.00    -0.550 OA
ATOM      4  O   UNL     1      78.538  11.341  12.243  1.00  0.00    -0.550 OA
ENDBRANCH   1   2
BRANCH   1   5
ATOM      5  C   UNL     1      78.965  12.086   8.556  1.00  0.00     0.003 C 
ATOM      6  C   UNL     1      80.084  12.977   8.018  1.00  0.00     0.004 C 
ENDBRANCH   1   5
TORSDOF 2
ENDMDL
MODEL 5
REMARK VINA RESULT:    -2.744      3.957      5.394
REMARK INTER + INTRA:          -3.095
REMARK INTER:                  -3.058
REMARK INTRA:                  -0.037
REMARK UNBOUND:                -0.029
REMARK SMILES CCCC(=O)[O-]
REMARK SMILES IDX 3 1 4 2 5 3 6 4 2 5 1 6
REMARK H PARENT
REMARK Flexibility Score: inf
ROOT
ATOM      1  C   UNL     1      75.312  15.212  15.361  1.00  0.00     0.052 C 
ENDROOT
BRANCH   1   2
ATOM      2  C   UNL     1      75.115  14.664  16.741  1.00  0.00     0.041 C 
ATOM      3  O   UNL     1      75.285  15.405  17.745  1.00  0.00    -0.550 OA
ATOM      4  O   UNL     1      74.712  13.347  16.917  1.00  0.00    -0.550 OA
ENDBRANCH   1   2
BRANCH   1   5
ATOM      5  C   UNL     1      74.713  16.617  15.215  1.00  0.00     0.003 C 
ATOM      6  C   UNL     1      75.787  17.693  15.065  1.00  0.00     0.004 C 
ENDBRANCH   1   5
TORSDOF 2
ENDMDL
MODEL 6
REMARK VINA RESULT:    -2.720      3.243      4.056
REMARK INTER + INTRA:          -3.067
REMARK INTER:                  -3.045
REMARK INTRA:                  -0.022
REMARK UNBOUND:                -0.029
REMARK SMILES CCCC(=O)[O-]
REMARK SMILES IDX 3 1 4 2 5 3 6 4 2 5 1 6
REMARK H PARENT
REMARK Flexibility Score: inf
ROOT
ATOM      1  C   UNL     1      75.042  15.018  17.110  1.00  0.00     0.052 C 
ENDROOT
BRANCH   1   2
ATOM      2  C   UNL     1      75.126  15.168  15.622  1.00  0.00     0.041 C 
ATOM      3  O   UNL     1      75.465  14.190  14.906  1.00  0.00    -0.550 OA
ATOM      4  O   UNL     1      74.797  16.379  15.025  1.00  0.00    -0.550 OA
ENDBRANCH   1   2
BRANCH   1   5
ATOM      5  C   UNL     1      75.024  13.543  17.533  1.00  0.00     0.003 C 
ATOM      6  C   UNL     1      73.835  13.211  18.433  1.00  0.00     0.004 C 
ENDBRANCH   1   5
TORSDOF 2
ENDMDL
MODEL 7
REMARK VINA RESULT:    -2.673      9.612     10.378
REMARK INTER + INTRA:          -3.015
REMARK INTER:                  -2.952
REMARK INTRA:                  -0.062
REMARK UNBOUND:                -0.029
REMARK SMILES CCCC(=O)[O-]
REMARK SMILES IDX 3 1 4 2 5 3 6 4 2 5 1 6
REMARK H PARENT
REMARK Flexibility Score: inf
ROOT
ATOM      1  C   UNL     1      78.580  13.027  10.259  1.00  0.00     0.052 C 
ENDROOT
BRANCH   1   2
ATOM      2  C   UNL     1      79.756  13.604  10.985  1.00  0.00     0.041 C 
ATOM      3  O   UNL     1      80.661  12.847  11.426  1.00  0.00    -0.550 OA
ATOM      4  O   UNL     1      79.869  14.979  11.146  1.00  0.00    -0.550 OA
ENDBRANCH   1   2
BRANCH   1   5
ATOM      5  C   UNL     1      79.013  12.034   9.172  1.00  0.00     0.003 C 
ATOM      6  C   UNL     1      79.672  12.728   7.981  1.00  0.00     0.004 C 
ENDBRANCH   1   5
TORSDOF 2
ENDMDL
MODEL 8
REMARK VINA RESULT:    -2.656      1.914      3.126
REMARK INTER + INTRA:          -2.996
REMARK INTER:                  -2.979
REMARK INTRA:                  -0.017
REMARK UNBOUND:                -0.029
REMARK SMILES CCCC(=O)[O-]
REMARK SMILES IDX 3 1 4 2 5 3 6 4 2 5 1 6
REMARK H PARENT
REMARK Flexibility Score: inf
ROOT
ATOM      1  C   UNL     1      75.720  12.049  19.670  1.00  0.00     0.052 C 
ENDROOT
BRANCH   1   2
ATOM      2  C   UNL     1      76.991  12.770  19.341  1.00  0.00     0.041 C 
ATOM      3  O   UNL     1      77.038  13.552  18.355  1.00  0.00    -0.550 OA
ATOM      4  O   UNL     1      78.113  12.604  20.143  1.00  0.00    -0.550 OA
ENDBRANCH   1   2
BRANCH   1   5
ATOM      5  C   UNL     1      74.708  12.125  18.519  1.00  0.00     0.003 C 
ATOM      6  C   UNL     1      73.629  13.179  18.763  1.00  0.00     0.004 C 
ENDBRANCH   1   5
TORSDOF 2
ENDMDL
MODEL 9
REMARK VINA RESULT:    -2.653      2.246      3.337
REMARK INTER + INTRA:          -2.993
REMARK INTER:                  -2.947
REMARK INTRA:                  -0.046
REMARK UNBOUND:                -0.029
REMARK SMILES CCCC(=O)[O-]
REMARK SMILES IDX 3 1 4 2 5 3 6 4 2 5 1 6
REMARK H PARENT
REMARK Flexibility Score: inf
ROOT
ATOM      1  C   UNL     1      77.607  11.562  19.684  1.00  0.00     0.052 C 
ENDROOT
BRANCH   1   2
ATOM      2  C   UNL     1      78.190  12.910  19.388  1.00  0.00     0.041 C 
ATOM      3  O   UNL     1      78.961  13.462  20.217  1.00  0.00    -0.550 OA
ATOM      4  O   UNL     1      77.908  13.541  18.183  1.00  0.00    -0.550 OA
ENDBRANCH   1   2
BRANCH   1   5
ATOM      5  C   UNL     1      76.337  11.666  20.539  1.00  0.00     0.003 C 
ATOM      6  C   UNL     1      75.090  11.934  19.696  1.00  0.00     0.004 C 
ENDBRANCH   1   5
TORSDOF 2
ENDMDL
